# generated using pymatgen
data_Li6V3P8O29
_symmetry_space_group_name_H-M   'P 1'
_cell_length_a   9.79909300
_cell_length_b   9.80277705
_cell_length_c   14.01112121
_cell_angle_alpha   90.50091164
_cell_angle_beta   89.89817211
_cell_angle_gamma   119.85695873
_symmetry_Int_Tables_number   1
_chemical_formula_structural   Li6V3P8O29
_chemical_formula_sum   'Li12 V6 P16 O58'
_cell_volume   1167.19708634
_cell_formula_units_Z   2
loop_
 _symmetry_equiv_pos_site_id
 _symmetry_equiv_pos_as_xyz
  1  'x, y, z'
loop_
 _atom_site_type_symbol
 _atom_site_label
 _atom_site_symmetry_multiplicity
 _atom_site_fract_x
 _atom_site_fract_y
 _atom_site_fract_z
 _atom_site_occupancy
  Li  Li0  1  0.75958600  0.66852700  0.93795900  1
  Li  Li1  1  0.90695800  0.66511000  0.43697600  1
  Li  Li2  1  0.33749500  0.23949000  0.44128400  1
  Li  Li3  1  0.67146100  0.33496300  0.11351100  1
  Li  Li4  1  0.32248200  0.08796900  0.93586800  1
  Li  Li5  1  0.90598700  0.22958300  0.93978300  1
  Li  Li6  1  0.76460900  0.09644400  0.43854100  1
  Li  Li7  1  0.66895500  0.76699000  0.56055000  1
  Li  Li8  1  0.09947600  0.33399200  0.56149700  1
  Li  Li9  1  0.23074000  0.32964100  0.05924300  1
  Li  Li10  1  0.96775400  0.95240400  0.00368200  1
  Li  Li11  1  0.03904000  0.98372500  0.50638500  1
  V  V12  1  0.43629300  0.99637500  0.74854200  1
  V  V13  1  0.55871800  0.99737300  0.24775600  1
  V  V14  1  0.00483100  0.56614400  0.24923500  1
  V  V15  1  0.99825000  0.43741800  0.75230600  1
  V  V16  1  0.56522700  0.56654600  0.75089300  1
  V  V17  1  0.43844000  0.43797900  0.25140600  1
  P  P18  1  0.77806600  0.68505400  0.15703900  1
  P  P19  1  0.91176300  0.68569400  0.65344900  1
  P  P20  1  0.31352700  0.22522700  0.66018900  1
  P  P21  1  0.66346900  0.33084100  0.87205700  1
  P  P22  1  0.67006000  0.33554100  0.36980800  1
  P  P23  1  0.31211100  0.08984400  0.15270800  1
  P  P24  1  0.22159500  0.92079800  0.33901800  1
  P  P25  1  0.90741900  0.22192100  0.15991500  1
  P  P26  1  0.08183000  0.78030400  0.83916300  1
  P  P27  1  0.77361200  0.08716900  0.65698500  1
  P  P28  1  0.69632900  0.91780900  0.84134900  1
  P  P29  1  0.33531800  0.66509200  0.63185400  1
  P  P30  1  0.33219900  0.66205200  0.13073800  1
  P  P31  1  0.68829900  0.77614300  0.34120500  1
  P  P32  1  0.08688500  0.31344300  0.34432200  1
  P  P33  1  0.22658900  0.31792600  0.84282900  1
  O  O34  1  0.77871900  0.77676700  0.42889000  1
  O  O35  1  0.74258500  0.66088800  0.66135000  1
  O  O36  1  0.98622300  0.79062500  0.91953400  1
  O  O37  1  0.91854700  0.65879300  0.16329600  1
  O  O38  1  0.62602800  0.52097900  0.17002500  1
  O  O39  1  0.67353000  0.48545500  0.83494100  1
  O  O40  1  0.46797100  0.38423400  0.67296400  1
  O  O41  1  0.22517200  0.22966200  0.93106100  1
  O  O42  1  0.33443400  0.25754900  0.15930700  1
  O  O43  1  0.81500800  0.48755400  0.32839700  1
  O  O44  1  0.91107400  0.53001500  0.66811100  1
  O  O45  1  0.51592100  0.32862400  0.32795000  1
  O  O46  1  0.66247300  0.32897200  0.97983000  1
  O  O47  1  0.66918900  0.33961800  0.47614200  1
  O  O48  1  0.51054100  0.18565900  0.83171800  1
  O  O49  1  0.89384300  0.37315400  0.17077500  1
  O  O50  1  0.80929500  0.32129800  0.83333300  1
  O  O51  1  0.34394900  0.08820400  0.66272600  1
  O  O52  1  0.20085800  0.99229200  0.23958000  1
  O  O53  1  0.20800900  0.01612900  0.41922600  1
  O  O54  1  0.23261300  0.01239100  0.06103100  1
  O  O55  1  0.47813900  0.10693300  0.16866100  1
  O  O56  1  0.67528000  0.18873100  0.32835800  1
  O  O57  1  0.25229600  0.91637600  0.84092900  1
  O  O58  1  0.62267700  0.09536300  0.67118100  1
  O  O59  1  0.91973200  0.25539100  0.66180400  1
  O  O60  1  0.00893200  0.80103200  0.74020700  1
  O  O61  1  0.98368000  0.76938600  0.56180000  1
  O  O62  1  0.99946400  0.22449100  0.43266200  1
  O  O63  1  0.08473200  0.75017700  0.34120600  1
  O  O64  1  0.38255400  0.92893400  0.33307400  1
  O  O65  1  0.74105000  0.08053100  0.16138000  1
  O  O66  1  0.33349200  0.81146900  0.67954300  1
  O  O67  1  0.54384300  0.92453500  0.83536500  1
  O  O68  1  0.80558500  0.00519600  0.92253700  1
  O  O69  1  0.77427300  0.00427300  0.56548400  1
  O  O70  1  0.79341000  0.99092700  0.74280000  1
  O  O71  1  0.66148900  0.91791000  0.34172900  1
  O  O72  1  0.18451200  0.65849000  0.17778300  1
  O  O73  1  0.07723000  0.61990300  0.83013500  1
  O  O74  1  0.47516300  0.81171400  0.17635600  1
  O  O75  1  0.32579800  0.65052100  0.02549400  1
  O  O76  1  0.33874600  0.66481400  0.52575800  1
  O  O77  1  0.49191400  0.67754700  0.67149800  1
  O  O78  1  0.08706100  0.46884000  0.33372800  1
  O  O79  1  0.18953200  0.51383100  0.67265200  1
  O  O80  1  0.66054800  0.74392000  0.83975600  1
  O  O81  1  0.79089100  0.79515700  0.24707400  1
  O  O82  1  0.77893100  0.76603700  0.06659200  1
  O  O83  1  0.53154100  0.62012500  0.33116300  1
  O  O84  1  0.33407200  0.51344100  0.17341200  1
  O  O85  1  0.37826600  0.47428300  0.82974100  1
  O  O86  1  0.08056500  0.34060800  0.84234600  1
  O  O87  1  0.99818100  0.22665800  0.07130000  1
  O  O88  1  0.99955800  0.20669700  0.25081000  1
  O  O89  1  0.25422800  0.33640300  0.34288100  1
  O  O90  1  0.22492000  0.22278500  0.57052500  1
  O  O91  1  0.20305900  0.20821600  0.75051800  1
