# generated using pymatgen
data_Li6V3P8O29
_symmetry_space_group_name_H-M   'P 1'
_cell_length_a   9.84008600
_cell_length_b   9.84540825
_cell_length_c   13.93896730
_cell_angle_alpha   90.03261291
_cell_angle_beta   90.09501779
_cell_angle_gamma   119.96105195
_symmetry_Int_Tables_number   1
_chemical_formula_structural   Li6V3P8O29
_chemical_formula_sum   'Li12 V6 P16 O58'
_cell_volume   1169.93842346
_cell_formula_units_Z   2
loop_
 _symmetry_equiv_pos_site_id
 _symmetry_equiv_pos_as_xyz
  1  'x, y, z'
loop_
 _atom_site_type_symbol
 _atom_site_label
 _atom_site_symmetry_multiplicity
 _atom_site_fract_x
 _atom_site_fract_y
 _atom_site_fract_z
 _atom_site_occupancy
  Li  Li0  1  0.77339000  0.09348500  0.06559000  1
  Li  Li1  1  0.91340800  0.22859400  0.55698900  1
  Li  Li2  1  0.31983600  0.09358800  0.55510800  1
  Li  Li3  1  0.66641300  0.33291700  0.88474700  1
  Li  Li4  1  0.31943800  0.22644200  0.06635400  1
  Li  Li5  1  0.90574600  0.67972500  0.06548500  1
  Li  Li6  1  0.77156400  0.67813800  0.55728900  1
  Li  Li7  1  0.09383700  0.31893200  0.94333800  1
  Li  Li8  1  0.67775900  0.77293100  0.94244200  1
  Li  Li9  1  0.67813500  0.90588500  0.43650600  1
  Li  Li10  1  0.09685500  0.77352200  0.43707800  1
  Li  Li11  1  0.22590900  0.90561400  0.94221300  1
  V  V12  1  0.43053000  0.43557400  0.25448700  1
  V  V13  1  0.56395400  0.56617000  0.74672900  1
  V  V14  1  0.00277100  0.43587800  0.74940100  1
  V  V15  1  0.00003000  0.56579000  0.25144200  1
  V  V16  1  0.56635300  0.99998800  0.25082600  1
  V  V17  1  0.43323200  0.99926100  0.74987600  1
  P  P18  1  0.77119500  0.08960900  0.84275900  1
  P  P19  1  0.91223400  0.23120200  0.34208700  1
  P  P20  1  0.31911000  0.08905500  0.34086200  1
  P  P21  1  0.66516500  0.33399200  0.12614700  1
  P  P22  1  0.66811000  0.33330900  0.62735100  1
  P  P23  1  0.31952300  0.23049800  0.84350800  1
  P  P24  1  0.22900000  0.31320900  0.65682500  1
  P  P25  1  0.90921100  0.68043500  0.84123800  1
  P  P26  1  0.08781500  0.31936500  0.15813600  1
  P  P27  1  0.76885900  0.68033500  0.34116800  1
  P  P28  1  0.67922700  0.76726300  0.15868600  1
  P  P29  1  0.33498000  0.66887200  0.37298300  1
  P  P30  1  0.33374200  0.66813500  0.87324100  1
  P  P31  1  0.68069600  0.91315700  0.65806600  1
  P  P32  1  0.08773200  0.76881300  0.65722400  1
  P  P33  1  0.23117700  0.90997400  0.15839600  1
  O  O34  1  0.75877200  0.00197900  0.56856600  1
  O  O35  1  0.74622500  0.08347600  0.33881400  1
  O  O36  1  0.99739100  0.23855400  0.06820200  1
  O  O37  1  0.92022500  0.25240200  0.84348800  1
  O  O38  1  0.62713400  0.11230400  0.82575700  1
  O  O39  1  0.67276300  0.18743900  0.16333300  1
  O  O40  1  0.47812000  0.09432200  0.32270500  1
  O  O41  1  0.23723800  0.99759800  0.06828500  1
  O  O42  1  0.33344500  0.08061300  0.84244900  1
  O  O43  1  0.81748800  0.33190200  0.67117000  1
  O  O44  1  0.90141700  0.38165800  0.32182100  1
  O  O45  1  0.51710100  0.18425300  0.66933000  1
  O  O46  1  0.66379300  0.33331900  0.01729900  1
  O  O47  1  0.67018500  0.33096100  0.52091200  1
  O  O48  1  0.51275000  0.32925700  0.16504200  1
  O  O49  1  0.88772600  0.51440700  0.82635600  1
  O  O50  1  0.81242400  0.48755800  0.16337800  1
  O  O51  1  0.34194500  0.25276700  0.33922400  1
  O  O52  1  0.20976500  0.21397200  0.75420500  1
  O  O53  1  0.24136200  0.23004500  0.57213100  1
  O  O54  1  0.24377200  0.24345900  0.93377100  1
  O  O55  1  0.48549900  0.37294800  0.82540100  1
  O  O56  1  0.67242700  0.48579600  0.66691400  1
  O  O57  1  0.25028700  0.33294800  0.15878100  1
  O  O58  1  0.62295400  0.51955100  0.32458500  1
  O  O59  1  0.91896900  0.66683600  0.34135200  1
  O  O60  1  0.99837400  0.21000300  0.24982100  1
  O  O61  1  0.99410400  0.24073600  0.43318200  1
  O  O62  1  0.99726300  0.75717400  0.56785100  1
  O  O63  1  0.08555600  0.33595500  0.65820700  1
  O  O64  1  0.38251000  0.47429400  0.67639100  1
  O  O65  1  0.74351400  0.66413200  0.84008200  1
  O  O66  1  0.33305100  0.51998600  0.32714100  1
  O  O67  1  0.52178500  0.61833500  0.17261000  1
  O  O68  1  0.76126300  0.76220400  0.06845800  1
  O  O69  1  0.75797300  0.75932000  0.43113900  1
  O  O70  1  0.79100900  0.79110100  0.24989800  1
  O  O71  1  0.66566600  0.74885400  0.65947000  1
  O  O72  1  0.18232000  0.51693100  0.83065700  1
  O  O73  1  0.09854700  0.47807700  0.17465900  1
  O  O74  1  0.48322500  0.67100800  0.83273700  1
  O  O75  1  0.32816700  0.66555200  0.97975900  1
  O  O76  1  0.33752900  0.67073100  0.47969800  1
  O  O77  1  0.48928800  0.81522500  0.33287700  1
  O  O78  1  0.09975200  0.62077900  0.67425000  1
  O  O79  1  0.18637300  0.67335000  0.33352600  1
  O  O80  1  0.66230700  0.91599900  0.16023700  1
  O  O81  1  0.78943600  0.00086300  0.75064300  1
  O  O82  1  0.75502700  0.99745400  0.93198200  1
  O  O83  1  0.52111200  0.90225200  0.67531100  1
  O  O84  1  0.32995700  0.81755300  0.83221500  1
  O  O85  1  0.37823100  0.89832700  0.17433700  1
  O  O86  1  0.08189400  0.74503100  0.16030100  1
  O  O87  1  0.99852600  0.75771000  0.93123200  1
  O  O88  1  0.99769800  0.78756400  0.75005000  1
  O  O89  1  0.25017800  0.91806600  0.65938700  1
  O  O90  1  0.24316100  0.99711900  0.43030800  1
  O  O91  1  0.20912500  0.99812700  0.24948100  1
