# generated using pymatgen
data_Li2Mo15Se19
_symmetry_space_group_name_H-M   'P 1'
_cell_length_a   20.35552015
_cell_length_b   20.35552015
_cell_length_c   20.35552055
_cell_angle_alpha   27.64917393
_cell_angle_beta   27.64917393
_cell_angle_gamma   27.64917367
_symmetry_Int_Tables_number   1
_chemical_formula_structural   Li2Mo15Se19
_chemical_formula_sum   'Li4 Mo30 Se38'
_cell_volume   1603.45755950
_cell_formula_units_Z   2
loop_
 _symmetry_equiv_pos_site_id
 _symmetry_equiv_pos_as_xyz
  1  'x, y, z'
loop_
 _atom_site_type_symbol
 _atom_site_label
 _atom_site_symmetry_multiplicity
 _atom_site_fract_x
 _atom_site_fract_y
 _atom_site_fract_z
 _atom_site_occupancy
  Li  Li0  1  0.88605400  0.88605400  0.88605400  1
  Li  Li1  1  0.38605400  0.38605400  0.38605400  1
  Li  Li2  1  0.11394600  0.11394600  0.11394600  1
  Li  Li3  1  0.61394600  0.61394600  0.61394600  1
  Mo  Mo4  1  0.81141500  0.00214900  0.12758100  1
  Mo  Mo5  1  0.12758100  0.81141500  0.00214900  1
  Mo  Mo6  1  0.00214900  0.12758100  0.81141500  1
  Mo  Mo7  1  0.62758100  0.50214900  0.31141500  1
  Mo  Mo8  1  0.31141500  0.62758100  0.50214900  1
  Mo  Mo9  1  0.50214900  0.31141500  0.62758100  1
  Mo  Mo10  1  0.18858500  0.99785100  0.87241900  1
  Mo  Mo11  1  0.87241900  0.18858500  0.99785100  1
  Mo  Mo12  1  0.99785100  0.87241900  0.18858500  1
  Mo  Mo13  1  0.37241900  0.49785100  0.68858500  1
  Mo  Mo14  1  0.68858500  0.37241900  0.49785100  1
  Mo  Mo15  1  0.49785100  0.68858500  0.37241900  1
  Mo  Mo16  1  0.63946100  0.77448700  0.95345700  1
  Mo  Mo17  1  0.95345700  0.63946100  0.77448700  1
  Mo  Mo18  1  0.77448700  0.95345700  0.63946100  1
  Mo  Mo19  1  0.45345700  0.27448700  0.13946100  1
  Mo  Mo20  1  0.13946100  0.45345700  0.27448700  1
  Mo  Mo21  1  0.27448700  0.13946100  0.45345700  1
  Mo  Mo22  1  0.36053900  0.22551300  0.04654300  1
  Mo  Mo23  1  0.04654300  0.36053900  0.22551300  1
  Mo  Mo24  1  0.22551300  0.04654300  0.36053900  1
  Mo  Mo25  1  0.54654300  0.72551300  0.86053900  1
  Mo  Mo26  1  0.86053900  0.54654300  0.72551300  1
  Mo  Mo27  1  0.72551300  0.86053900  0.54654300  1
  Mo  Mo28  1  0.58972300  0.91027700  0.75000000  1
  Mo  Mo29  1  0.75000000  0.58972300  0.91027700  1
  Mo  Mo30  1  0.91027700  0.75000000  0.58972300  1
  Mo  Mo31  1  0.25000000  0.41027700  0.08972300  1
  Mo  Mo32  1  0.08972300  0.25000000  0.41027700  1
  Mo  Mo33  1  0.41027700  0.08972300  0.25000000  1
  Se  Se34  1  0.94262300  0.69709700  0.31073400  1
  Se  Se35  1  0.31073400  0.94262300  0.69709700  1
  Se  Se36  1  0.69709700  0.31073400  0.94262300  1
  Se  Se37  1  0.81073400  0.19709700  0.44262300  1
  Se  Se38  1  0.44262300  0.81073400  0.19709700  1
  Se  Se39  1  0.19709700  0.44262300  0.81073400  1
  Se  Se40  1  0.05737700  0.30290300  0.68926600  1
  Se  Se41  1  0.68926600  0.05737700  0.30290300  1
  Se  Se42  1  0.30290300  0.68926600  0.05737700  1
  Se  Se43  1  0.18926600  0.80290300  0.55737700  1
  Se  Se44  1  0.55737700  0.18926600  0.80290300  1
  Se  Se45  1  0.80290300  0.55737700  0.18926600  1
  Se  Se46  1  0.45566000  0.07951400  0.82109100  1
  Se  Se47  1  0.82109100  0.45566000  0.07951400  1
  Se  Se48  1  0.07951400  0.82109100  0.45566000  1
  Se  Se49  1  0.32109100  0.57951400  0.95566000  1
  Se  Se50  1  0.95566000  0.32109100  0.57951400  1
  Se  Se51  1  0.57951400  0.95566000  0.32109100  1
  Se  Se52  1  0.54434000  0.92048600  0.17890900  1
  Se  Se53  1  0.17890900  0.54434000  0.92048600  1
  Se  Se54  1  0.92048600  0.17890900  0.54434000  1
  Se  Se55  1  0.67890900  0.42048600  0.04434000  1
  Se  Se56  1  0.04434000  0.67890900  0.42048600  1
  Se  Se57  1  0.42048600  0.04434000  0.67890900  1
  Se  Se58  1  0.05894300  0.44105800  0.75000000  1
  Se  Se59  1  0.75000000  0.05894300  0.44105800  1
  Se  Se60  1  0.44105800  0.75000000  0.05894200  1
  Se  Se61  1  0.25000000  0.94105800  0.55894200  1
  Se  Se62  1  0.55894300  0.25000000  0.94105700  1
  Se  Se63  1  0.94105800  0.55894200  0.25000000  1
  Se  Se64  1  0.94549500  0.94549500  0.94549500  1
  Se  Se65  1  0.44549500  0.44549500  0.44549500  1
  Se  Se66  1  0.05450500  0.05450500  0.05450500  1
  Se  Se67  1  0.55450500  0.55450500  0.55450500  1
  Se  Se68  1  0.82389600  0.82389600  0.82389600  1
  Se  Se69  1  0.32389600  0.32389600  0.32389600  1
  Se  Se70  1  0.17610400  0.17610400  0.17610400  1
  Se  Se71  1  0.67610400  0.67610400  0.67610400  1
