# generated using pymatgen
data_Li6V3P8O29
_symmetry_space_group_name_H-M   'P 1'
_cell_length_a   9.83099200
_cell_length_b   9.84357296
_cell_length_c   14.01260269
_cell_angle_alpha   90.02823710
_cell_angle_beta   90.00460816
_cell_angle_gamma   119.90743011
_symmetry_Int_Tables_number   1
_chemical_formula_structural   Li6V3P8O29
_chemical_formula_sum   'Li12 V6 P16 O58'
_cell_volume   1175.44906989
_cell_formula_units_Z   2
loop_
 _symmetry_equiv_pos_site_id
 _symmetry_equiv_pos_as_xyz
  1  'x, y, z'
loop_
 _atom_site_type_symbol
 _atom_site_label
 _atom_site_symmetry_multiplicity
 _atom_site_fract_x
 _atom_site_fract_y
 _atom_site_fract_z
 _atom_site_occupancy
  Li  Li0  1  0.09393400  0.32166800  0.43698700  1
  Li  Li1  1  0.68164100  0.77138200  0.43857900  1
  Li  Li2  1  0.32635200  0.66121700  0.11347300  1
  Li  Li3  1  0.67809400  0.91086500  0.94040700  1
  Li  Li4  1  0.09575900  0.77457000  0.94267300  1
  Li  Li5  1  0.77382700  0.09186600  0.55801300  1
  Li  Li6  1  0.23036700  0.90794900  0.43554600  1
  Li  Li7  1  0.66192500  0.32815200  0.89030600  1
  Li  Li8  1  0.32109200  0.22797500  0.56073900  1
  Li  Li9  1  0.91095000  0.68195000  0.55819300  1
  Li  Li10  1  0.77023400  0.67850800  0.06196900  1
  Li  Li11  1  0.05175100  0.07779700  0.99872500  1
  V  V12  1  0.56560500  0.99761100  0.74891400  1
  V  V13  1  0.43490800  0.00373300  0.24389000  1
  V  V14  1  0.99657700  0.42814700  0.24887600  1
  V  V15  1  0.00174600  0.56404400  0.75345000  1
  V  V16  1  0.42685000  0.42976300  0.75328400  1
  V  V17  1  0.56247400  0.56105100  0.24966600  1
  P  P18  1  0.22312600  0.31180500  0.16020400  1
  P  P19  1  0.08572100  0.31863600  0.65748500  1
  P  P20  1  0.67944400  0.76386300  0.65955400  1
  P  P21  1  0.33287500  0.66649900  0.87327500  1
  P  P22  1  0.33454900  0.66856000  0.37040000  1
  P  P23  1  0.68362700  0.90861000  0.15608900  1
  P  P24  1  0.76582200  0.08521700  0.34003200  1
  P  P25  1  0.09018700  0.77213100  0.15749100  1
  P  P26  1  0.91171400  0.22146700  0.84161300  1
  P  P27  1  0.23163200  0.91316300  0.65604200  1
  P  P28  1  0.31240300  0.08837300  0.84031400  1
  P  P29  1  0.66828700  0.33392400  0.62999300  1
  P  P30  1  0.66589000  0.33316900  0.12845700  1
  P  P31  1  0.31851600  0.23030200  0.34337200  1
  P  P32  1  0.91380700  0.68057500  0.34105800  1
  P  P33  1  0.77122100  0.68101600  0.84360300  1
  O  O34  1  0.24359100  0.24339400  0.43416400  1
  O  O35  1  0.24931200  0.33157300  0.66070500  1
  O  O36  1  0.99432300  0.20559000  0.92485700  1
  O  O37  1  0.08336200  0.34360900  0.16709300  1
  O  O38  1  0.37406000  0.47618300  0.16865000  1
  O  O39  1  0.32629400  0.51903900  0.83026000  1
  O  O40  1  0.52197500  0.61473400  0.68014200  1
  O  O41  1  0.76284000  0.76660000  0.93062500  1
  O  O42  1  0.66489900  0.74301600  0.15970300  1
  O  O43  1  0.18641100  0.51467500  0.33465000  1
  O  O44  1  0.10035800  0.47915300  0.67683700  1
  O  O45  1  0.48467300  0.66655200  0.32650800  1
  O  O46  1  0.32875400  0.67090200  0.98021900  1
  O  O47  1  0.34703100  0.67801800  0.47647900  1
  O  O48  1  0.48392400  0.81446700  0.83570000  1
  O  O49  1  0.10559600  0.62409700  0.16961000  1
  O  O50  1  0.18185700  0.67082100  0.83380400  1
  O  O51  1  0.66259600  0.91209400  0.65935400  1
  O  O52  1  0.78749800  0.99706200  0.24894100  1
  O  O53  1  0.75687800  0.99592600  0.42956300  1
  O  O54  1  0.76542200  0.99089900  0.06658800  1
  O  O55  1  0.51776400  0.89051500  0.16978200  1
  O  O56  1  0.33246700  0.81518900  0.32632600  1
  O  O57  1  0.73873100  0.07956500  0.83666900  1
  O  O58  1  0.38178900  0.90424300  0.67937900  1
  O  O59  1  0.08546800  0.74943400  0.65888100  1
  O  O60  1  0.98858900  0.20352500  0.74403100  1
  O  O61  1  0.00005500  0.24488400  0.56622700  1
  O  O62  1  0.00453800  0.75722500  0.43066800  1
  O  O63  1  0.91512800  0.24940000  0.34050700  1
  O  O64  1  0.61737900  0.09575600  0.32399400  1
  O  O65  1  0.25407700  0.91595500  0.15850000  1
  O  O66  1  0.67310600  0.18461900  0.66786200  1
  O  O67  1  0.47565900  0.10143600  0.83187500  1
  O  O68  1  0.21036800  0.99728800  0.92193600  1
  O  O69  1  0.24861900  0.99975500  0.56467700  1
  O  O70  1  0.21600500  0.01092500  0.74257200  1
  O  O71  1  0.33257200  0.08150000  0.34011700  1
  O  O72  1  0.80885900  0.33130600  0.17109500  1
  O  O73  1  0.89851900  0.37243300  0.83370500  1
  O  O74  1  0.51593900  0.18510500  0.16928300  1
  O  O75  1  0.66539300  0.34010500  0.02182200  1
  O  O76  1  0.68042100  0.34470500  0.52409800  1
  O  O77  1  0.51543000  0.32810600  0.66833500  1
  O  O78  1  0.90726700  0.52329300  0.32138300  1
  O  O79  1  0.81725400  0.48276900  0.67724700  1
  O  O80  1  0.34108700  0.25820900  0.83654100  1
  O  O81  1  0.20526900  0.21379900  0.25607200  1
  O  O82  1  0.21407200  0.21761000  0.07620500  1
  O  O83  1  0.47876800  0.37749300  0.32535200  1
  O  O84  1  0.66432000  0.48434500  0.16770400  1
  O  O85  1  0.62688400  0.51641300  0.82958200  1
  O  O86  1  0.92036000  0.66684600  0.84504300  1
  O  O87  1  0.99740100  0.76648000  0.06995700  1
  O  O88  1  0.00129000  0.78918700  0.25009100  1
  O  O89  1  0.74918100  0.66190000  0.34203000  1
  O  O90  1  0.75578400  0.75172400  0.56952500  1
  O  O91  1  0.79028000  0.78567100  0.74992000  1
