# generated using pymatgen
data_Li4Cr3Co3(SnO8)2
_symmetry_space_group_name_H-M   'P 1'
_cell_length_a   5.90686269
_cell_length_b   5.90686269
_cell_length_c   9.70931597
_cell_angle_alpha   89.31753480
_cell_angle_beta   89.31753480
_cell_angle_gamma   60.49448204
_symmetry_Int_Tables_number   1
_chemical_formula_structural   Li4Cr3Co3(SnO8)2
_chemical_formula_sum   'Li4 Cr3 Co3 Sn2 O16'
_cell_volume   294.80456799
_cell_formula_units_Z   1
loop_
 _symmetry_equiv_pos_site_id
 _symmetry_equiv_pos_as_xyz
  1  'x, y, z'
loop_
 _atom_site_type_symbol
 _atom_site_label
 _atom_site_symmetry_multiplicity
 _atom_site_fract_x
 _atom_site_fract_y
 _atom_site_fract_z
 _atom_site_occupancy
  Li  Li0  1  0.67034400  0.67034400  0.89524600  1
  Li  Li1  1  0.99773000  0.99773000  0.99409500  1
  Li  Li2  1  0.99803300  0.99803300  0.49408800  1
  Li  Li3  1  0.33694000  0.33694000  0.39541700  1
  Cr  Cr4  1  0.83041500  0.34014700  0.21466400  1
  Cr  Cr5  1  0.34014700  0.83041500  0.21466400  1
  Cr  Cr6  1  0.17148400  0.17148400  0.71415800  1
  Co  Co7  1  0.83137200  0.83137200  0.21498300  1
  Co  Co8  1  0.66198700  0.16950400  0.71521200  1
  Co  Co9  1  0.16950400  0.66198700  0.71521200  1
  Sn  Sn10  1  0.66714500  0.66714500  0.49107800  1
  Sn  Sn11  1  0.33271700  0.33271700  0.99247000  1
  O  O12  1  0.84204200  0.32065700  0.59908800  1
  O  O13  1  0.51857200  0.51857200  0.34012300  1
  O  O14  1  0.67518700  0.67518700  0.11052700  1
  O  O15  1  0.99354700  0.99354700  0.30789100  1
  O  O16  1  0.99999900  0.99999900  0.80678800  1
  O  O17  1  0.32065700  0.84204200  0.59908800  1
  O  O18  1  0.96668900  0.52882400  0.33287000  1
  O  O19  1  0.52882400  0.96668900  0.33287000  1
  O  O20  1  0.15832200  0.15832200  0.09857300  1
  O  O21  1  0.83849400  0.83849400  0.60458900  1
  O  O22  1  0.48369200  0.03715000  0.83817200  1
  O  O23  1  0.03715000  0.48369200  0.83817200  1
  O  O24  1  0.33755700  0.33755700  0.60817700  1
  O  O25  1  0.67906500  0.15612900  0.10279400  1
  O  O26  1  0.48521000  0.48521000  0.83851600  1
  O  O27  1  0.15612900  0.67906500  0.10279400  1
