# generated using pymatgen
data_Li3CrCo3O8
_symmetry_space_group_name_H-M   'P 1'
_cell_length_a   5.89818441
_cell_length_b   5.84748528
_cell_length_c   10.39747916
_cell_angle_alpha   73.40056638
_cell_angle_beta   106.23801815
_cell_angle_gamma   119.81199547
_symmetry_Int_Tables_number   1
_chemical_formula_structural   Li3CrCo3O8
_chemical_formula_sum   'Li6 Cr2 Co6 O16'
_cell_volume   294.06897381
_cell_formula_units_Z   2
loop_
 _symmetry_equiv_pos_site_id
 _symmetry_equiv_pos_as_xyz
  1  'x, y, z'
loop_
 _atom_site_type_symbol
 _atom_site_label
 _atom_site_symmetry_multiplicity
 _atom_site_fract_x
 _atom_site_fract_y
 _atom_site_fract_z
 _atom_site_occupancy
  Li  Li0  1  0.25250100  0.25159700  0.25080600  1
  Li  Li1  1  0.74751800  0.74851900  0.74918200  1
  Li  Li2  1  0.74621600  0.74862400  0.24958100  1
  Li  Li3  1  0.25370500  0.25138200  0.75039200  1
  Li  Li4  1  0.24766900  0.74385500  0.24982200  1
  Li  Li5  1  0.75232700  0.25608300  0.75017300  1
  Cr  Cr6  1  0.00022800  0.00016100  0.00026100  1
  Cr  Cr7  1  0.50008900  0.49981700  0.49991400  1
  Co  Co8  1  0.00004500  0.99994500  0.50000500  1
  Co  Co9  1  0.00005900  0.49995000  0.49998600  1
  Co  Co10  1  0.50000800  0.99979200  0.49997100  1
  Co  Co11  1  0.50000200  0.50018300  0.99996400  1
  Co  Co12  1  0.49990400  0.99999400  0.99991500  1
  Co  Co13  1  0.99997000  0.50015900  0.99996200  1
  O  O14  1  0.37401900  0.63347800  0.11587000  1
  O  O15  1  0.87455300  0.14265600  0.61316900  1
  O  O16  1  0.12544000  0.85730400  0.38680800  1
  O  O17  1  0.62583900  0.36656500  0.88414500  1
  O  O18  1  0.34950800  0.11581000  0.10783200  1
  O  O19  1  0.85987300  0.63920200  0.60716100  1
  O  O20  1  0.86743300  0.63186100  0.10605300  1
  O  O21  1  0.38756800  0.14462600  0.60884700  1
  O  O22  1  0.87892700  0.11922400  0.10812200  1
  O  O23  1  0.37979600  0.61563300  0.60929400  1
  O  O24  1  0.62011100  0.38423200  0.39062900  1
  O  O25  1  0.12083900  0.88094000  0.89184500  1
  O  O26  1  0.61282800  0.85536300  0.39113000  1
  O  O27  1  0.13250600  0.36813400  0.89411400  1
  O  O28  1  0.14016500  0.36068700  0.39281600  1
  O  O29  1  0.65035200  0.88422600  0.89222800  1
