# generated using pymatgen
data_Li7Mn5O12
_symmetry_space_group_name_H-M   'P 1'
_cell_length_a   5.09479425
_cell_length_b   8.99416790
_cell_length_c   10.11605815
_cell_angle_alpha   103.47766151
_cell_angle_beta   79.02270411
_cell_angle_gamma   88.64681241
_symmetry_Int_Tables_number   1
_chemical_formula_structural   Li7Mn5O12
_chemical_formula_sum   'Li14 Mn10 O24'
_cell_volume   441.41460764
_cell_formula_units_Z   2
loop_
 _symmetry_equiv_pos_site_id
 _symmetry_equiv_pos_as_xyz
  1  'x, y, z'
loop_
 _atom_site_type_symbol
 _atom_site_label
 _atom_site_symmetry_multiplicity
 _atom_site_fract_x
 _atom_site_fract_y
 _atom_site_fract_z
 _atom_site_occupancy
  Li  Li0  1  0.49999300  0.16669300  0.00003600  1
  Li  Li1  1  0.00001500  0.66666800  0.50003000  1
  Li  Li2  1  0.25003200  0.41670400  0.25141100  1
  Li  Li3  1  0.74998700  0.91662600  0.74860100  1
  Li  Li4  1  0.25378800  0.41719500  0.75327100  1
  Li  Li5  1  0.74622200  0.91616200  0.24676300  1
  Li  Li6  1  0.50584400  0.49868400  0.99592800  1
  Li  Li7  1  0.00378100  0.01208300  0.50077700  1
  Li  Li8  1  0.49420700  0.83464500  0.00409700  1
  Li  Li9  1  0.99612300  0.32126700  0.49923500  1
  Li  Li10  1  0.73437400  0.25537600  0.75278100  1
  Li  Li11  1  0.23828000  0.75453800  0.24700900  1
  Li  Li12  1  0.76179900  0.57871400  0.75298900  1
  Li  Li13  1  0.26563600  0.07789700  0.24718400  1
  Mn  Mn14  1  0.50025400  0.16659600  0.49997200  1
  Mn  Mn15  1  0.00000300  0.66654800  0.99991900  1
  Mn  Mn16  1  0.98868500  0.99625100  0.99931500  1
  Mn  Mn17  1  0.49963600  0.49703100  0.50101900  1
  Mn  Mn18  1  0.01133100  0.33707800  0.00064700  1
  Mn  Mn19  1  0.50032200  0.83627900  0.49900700  1
  Mn  Mn20  1  0.24891100  0.74405900  0.74649500  1
  Mn  Mn21  1  0.75094600  0.24192500  0.24898500  1
  Mn  Mn22  1  0.75093100  0.58923900  0.25358000  1
  Mn  Mn23  1  0.24888400  0.09141800  0.75104100  1
  O  O24  1  0.85654800  0.47117000  0.37660900  1
  O  O25  1  0.34031100  0.94530600  0.86050400  1
  O  O26  1  0.65973100  0.38804700  0.13948100  1
  O  O27  1  0.14350100  0.86216700  0.62335400  1
  O  O28  1  0.10738700  0.21599500  0.12893200  1
  O  O29  1  0.60064000  0.72058400  0.63019800  1
  O  O30  1  0.39948600  0.61277300  0.36976600  1
  O  O31  1  0.89259600  0.11738200  0.87101700  1
  O  O32  1  0.36138900  0.29459500  0.88746100  1
  O  O33  1  0.84384400  0.77515200  0.37033600  1
  O  O34  1  0.15619700  0.55819800  0.62968500  1
  O  O35  1  0.63857900  0.03876500  0.11253800  1
  O  O36  1  0.10436300  0.56142500  0.13140600  1
  O  O37  1  0.60681900  0.05687300  0.62648500  1
  O  O38  1  0.89577400  0.77194800  0.86856600  1
  O  O39  1  0.39305500  0.27648300  0.37350700  1
  O  O40  1  0.35024100  0.63648500  0.87531000  1
  O  O41  1  0.84980100  0.13003400  0.37722700  1
  O  O42  1  0.64981000  0.69690700  0.12472400  1
  O  O43  1  0.14999200  0.20328900  0.62278300  1
  O  O44  1  0.10568300  0.86051900  0.10557200  1
  O  O45  1  0.61322600  0.36074000  0.60631800  1
  O  O46  1  0.89437100  0.47289500  0.89443800  1
  O  O47  1  0.38667300  0.97259500  0.39369100  1
