# generated using pymatgen
data_Li9Cr12Fe7O48
_symmetry_space_group_name_H-M   'P 1'
_cell_length_a   5.11148000
_cell_length_b   10.39144032
_cell_length_c   17.52161376
_cell_angle_alpha   90.16208406
_cell_angle_beta   90.18493550
_cell_angle_gamma   90.13375813
_symmetry_Int_Tables_number   1
_chemical_formula_structural   Li9Cr12Fe7O48
_chemical_formula_sum   'Li9 Cr12 Fe7 O48'
_cell_volume   930.66058926
_cell_formula_units_Z   1
loop_
 _symmetry_equiv_pos_site_id
 _symmetry_equiv_pos_as_xyz
  1  'x, y, z'
loop_
 _atom_site_type_symbol
 _atom_site_label
 _atom_site_symmetry_multiplicity
 _atom_site_fract_x
 _atom_site_fract_y
 _atom_site_fract_z
 _atom_site_occupancy
  Li  Li0  1  0.09162900  0.75055800  0.74791400  1
  Li  Li1  1  0.24329000  0.57624600  0.03216300  1
  Li  Li2  1  0.24751600  0.41812700  0.52397000  1
  Li  Li3  1  0.24679000  0.08129900  0.52385700  1
  Li  Li4  1  0.26302800  0.74081400  0.20016500  1
  Li  Li5  1  0.74499700  0.24988900  0.80549000  1
  Li  Li6  1  0.75271900  0.08103400  0.97215700  1
  Li  Li7  1  0.76219000  0.74588300  0.30135200  1
  Li  Li8  1  0.91142100  0.25409800  0.25521700  1
  Cr  Cr9  1  0.22652500  0.24871600  0.05634200  1
  Cr  Cr10  1  0.22542100  0.97059600  0.34359300  1
  Cr  Cr11  1  0.22471700  0.53077500  0.34520800  1
  Cr  Cr12  1  0.28174700  0.47092700  0.84561600  1
  Cr  Cr13  1  0.27895400  0.02800900  0.84490300  1
  Cr  Cr14  1  0.28153500  0.75084100  0.55601500  1
  Cr  Cr15  1  0.72097100  0.24934500  0.44248600  1
  Cr  Cr16  1  0.72326700  0.52822000  0.15647000  1
  Cr  Cr17  1  0.71811600  0.97134200  0.15272500  1
  Cr  Cr18  1  0.77142500  0.46903100  0.65542200  1
  Cr  Cr19  1  0.77022400  0.03078200  0.65556300  1
  Cr  Cr20  1  0.77332400  0.75368500  0.94554300  1
  Fe  Fe21  1  0.24936900  0.24876500  0.69744000  1
  Fe  Fe22  1  0.24262900  0.93060400  0.02658500  1
  Fe  Fe23  1  0.41143200  0.25224400  0.25089600  1
  Fe  Fe24  1  0.58939400  0.74979200  0.74965600  1
  Fe  Fe25  1  0.75311300  0.92828600  0.47160400  1
  Fe  Fe26  1  0.75443700  0.57034700  0.47161700  1
  Fe  Fe27  1  0.75728000  0.42734000  0.97570900  1
  O  O28  1  0.05363600  0.76215500  0.00016600  1
  O  O29  1  0.04855500  0.39049800  0.63242200  1
  O  O30  1  0.04807200  0.10933100  0.63174900  1
  O  O31  1  0.10600300  0.37354200  0.79030200  1
  O  O32  1  0.09688700  0.12294600  0.79042700  1
  O  O33  1  0.09935400  0.87774900  0.53439600  1
  O  O34  1  0.10268700  0.62278200  0.53455200  1
  O  O35  1  0.10188100  0.99620700  0.92496900  1
  O  O36  1  0.10057800  0.50152300  0.92241300  1
  O  O37  1  0.16882600  0.25033600  0.14978300  1
  O  O38  1  0.16701800  0.39145100  0.29864100  1
  O  O39  1  0.17004300  0.11023500  0.29715600  1
  O  O40  1  0.34400500  0.88973200  0.79886400  1
  O  O41  1  0.34592900  0.60935400  0.80023800  1
  O  O42  1  0.34872600  0.75040800  0.64983500  1
  O  O43  1  0.40368900  0.50121600  0.42292700  1
  O  O44  1  0.40598600  0.99883900  0.42180100  1
  O  O45  1  0.39507300  0.11360700  0.03311200  1
  O  O46  1  0.41197500  0.37354400  0.03409100  1
  O  O47  1  0.39533700  0.87458200  0.28845400  1
  O  O48  1  0.40086500  0.62582000  0.29164600  1
  O  O49  1  0.43493300  0.89426700  0.12327600  1
  O  O50  1  0.45246600  0.60440200  0.13028000  1
  O  O51  1  0.45558900  0.24917600  0.49692500  1
  O  O52  1  0.55996900  0.75114400  0.50032400  1
  O  O53  1  0.55950000  0.39410400  0.87296700  1
  O  O54  1  0.54979400  0.10450700  0.86920700  1
  O  O55  1  0.58185100  0.37389000  0.70795800  1
  O  O56  1  0.57929800  0.12705100  0.70741800  1
  O  O57  1  0.57688400  0.87700800  0.96817800  1
  O  O58  1  0.60929900  0.62219300  0.96721300  1
  O  O59  1  0.60126900  0.99764800  0.57711400  1
  O  O60  1  0.60526000  0.50188000  0.57625400  1
  O  O61  1  0.65078500  0.24873800  0.34862700  1
  O  O62  1  0.65849800  0.38862100  0.20218700  1
  O  O63  1  0.65679900  0.10864500  0.19798000  1
  O  O64  1  0.82982200  0.89344800  0.70320200  1
  O  O65  1  0.83112400  0.60662400  0.70335900  1
  O  O66  1  0.83120100  0.75307700  0.85200700  1
  O  O67  1  0.90385800  0.49733900  0.07749500  1
  O  O68  1  0.91277500  0.99920000  0.07575400  1
  O  O69  1  0.90145200  0.37878000  0.46409400  1
  O  O70  1  0.90098600  0.11926600  0.46358700  1
  O  O71  1  0.88185000  0.87669800  0.20803400  1
  O  O72  1  0.90157900  0.62414100  0.21012800  1
  O  O73  1  0.94574700  0.89405800  0.36858300  1
  O  O74  1  0.94404000  0.60775800  0.37083100  1
  O  O75  1  0.95078300  0.25288100  0.00339800  1
