# generated using pymatgen
data_Li2CoSn(PO4)2
_symmetry_space_group_name_H-M   'P 1'
_cell_length_a   5.92636593
_cell_length_b   9.87674385
_cell_length_c   12.03188189
_cell_angle_alpha   80.37622060
_cell_angle_beta   89.76073540
_cell_angle_gamma   90.08944150
_symmetry_Int_Tables_number   1
_chemical_formula_structural   Li2CoSn(PO4)2
_chemical_formula_sum   'Li8 Co4 Sn4 P8 O32'
_cell_volume   694.34535248
_cell_formula_units_Z   4
loop_
 _symmetry_equiv_pos_site_id
 _symmetry_equiv_pos_as_xyz
  1  'x, y, z'
loop_
 _atom_site_type_symbol
 _atom_site_label
 _atom_site_symmetry_multiplicity
 _atom_site_fract_x
 _atom_site_fract_y
 _atom_site_fract_z
 _atom_site_occupancy
  Li  Li0  1  0.99219900  0.00673700  0.00083200  1
  Li  Li1  1  0.00828700  0.49339400  0.00307700  1
  Li  Li2  1  0.49346500  0.99453400  0.00217400  1
  Li  Li3  1  0.50827900  0.50913700  0.99985800  1
  Li  Li4  1  0.00407600  0.25211200  0.50141000  1
  Li  Li5  1  0.99636400  0.74568100  0.49689800  1
  Li  Li6  1  0.49862700  0.25328400  0.50253100  1
  Li  Li7  1  0.50097200  0.74828200  0.49872100  1
  Co  Co8  1  0.24866500  0.01633800  0.31602400  1
  Co  Co9  1  0.75133400  0.48095100  0.68913200  1
  Co  Co10  1  0.25722100  0.51703500  0.31465300  1
  Co  Co11  1  0.74799800  0.98280100  0.68329800  1
  Sn  Sn12  1  0.75016400  0.26717400  0.22087700  1
  Sn  Sn13  1  0.74587600  0.76875000  0.21859300  1
  Sn  Sn14  1  0.24986700  0.23169900  0.78133100  1
  Sn  Sn15  1  0.25028100  0.73177200  0.77943800  1
  P  P16  1  0.24797100  0.19746700  0.10639300  1
  P  P17  1  0.24603700  0.69788800  0.10594700  1
  P  P18  1  0.75070900  0.30324900  0.89540700  1
  P  P19  1  0.74884600  0.80284700  0.89312000  1
  P  P20  1  0.75485000  0.46503100  0.41975600  1
  P  P21  1  0.74953300  0.96401800  0.41929800  1
  P  P22  1  0.24941600  0.03537100  0.58075600  1
  P  P23  1  0.25153700  0.53450700  0.57844400  1
  O  O24  1  0.74609200  0.36356700  0.00578800  1
  O  O25  1  0.75401700  0.86251300  0.00407400  1
  O  O26  1  0.25282600  0.13913200  0.99463200  1
  O  O27  1  0.24404500  0.63898800  0.99463000  1
  O  O28  1  0.24319500  0.35386300  0.08991400  1
  O  O29  1  0.25759800  0.85415900  0.08934600  1
  O  O30  1  0.75402600  0.14697800  0.91287400  1
  O  O31  1  0.74238100  0.64636400  0.91088400  1
  O  O32  1  0.75136400  0.12209000  0.40602300  1
  O  O33  1  0.75234800  0.62343100  0.40498600  1
  O  O34  1  0.25180500  0.37616800  0.59133000  1
  O  O35  1  0.25032500  0.87724300  0.59451500  1
  O  O36  1  0.24957500  0.11281300  0.45637100  1
  O  O37  1  0.25002500  0.61312300  0.45399000  1
  O  O38  1  0.75544600  0.38921500  0.54442200  1
  O  O39  1  0.75064900  0.88593600  0.54354000  1
  O  O40  1  0.04142300  0.12775000  0.17976000  1
  O  O41  1  0.03795800  0.63630500  0.18135000  1
  O  O42  1  0.45251200  0.13228600  0.18232400  1
  O  O43  1  0.44890900  0.62555000  0.18048100  1
  O  O44  1  0.54667500  0.36792300  0.81809600  1
  O  O45  1  0.54337800  0.87184000  0.81952000  1
  O  O46  1  0.95764500  0.37120800  0.82063500  1
  O  O47  1  0.95439200  0.86626100  0.81601700  1
  O  O48  1  0.54058000  0.40776000  0.36631800  1
  O  O49  1  0.53374400  0.90890800  0.36568200  1
  O  O50  1  0.96919600  0.40921400  0.36427400  1
  O  O51  1  0.96296900  0.90761600  0.36360500  1
  O  O52  1  0.03464900  0.09106400  0.63568100  1
  O  O53  1  0.03728400  0.58944900  0.63367800  1
  O  O54  1  0.46392100  0.09177200  0.63499100  1
  O  O55  1  0.46647500  0.58945000  0.63229900  1
