# generated using pymatgen
data_Li4Mn3NbO8
_symmetry_space_group_name_H-M   'P 1'
_cell_length_a   6.14700381
_cell_length_b   6.26457464
_cell_length_c   8.53249182
_cell_angle_alpha   89.98833226
_cell_angle_beta   91.41100585
_cell_angle_gamma   90.00097389
_symmetry_Int_Tables_number   1
_chemical_formula_structural   Li4Mn3NbO8
_chemical_formula_sum   'Li8 Mn6 Nb2 O16'
_cell_volume   328.47266530
_cell_formula_units_Z   2
loop_
 _symmetry_equiv_pos_site_id
 _symmetry_equiv_pos_as_xyz
  1  'x, y, z'
loop_
 _atom_site_type_symbol
 _atom_site_label
 _atom_site_symmetry_multiplicity
 _atom_site_fract_x
 _atom_site_fract_y
 _atom_site_fract_z
 _atom_site_occupancy
  Li  Li0  1  0.48971700  0.50992800  0.00400400  1
  Li  Li1  1  0.00171400  0.99290800  0.49970500  1
  Li  Li2  1  0.74389800  0.24583900  0.75084300  1
  Li  Li3  1  0.24779900  0.75113800  0.25083800  1
  Li  Li4  1  0.74882400  0.75147500  0.75067100  1
  Li  Li5  1  0.24655200  0.25482900  0.25055200  1
  Li  Li6  1  0.99710500  0.51184000  0.49992100  1
  Li  Li7  1  0.50120400  0.99219600  0.00139000  1
  Mn  Mn8  1  0.74898400  0.25149900  0.25022900  1
  Mn  Mn9  1  0.24742200  0.25216600  0.74989100  1
  Mn  Mn10  1  0.74867300  0.75138000  0.24998900  1
  Mn  Mn11  1  0.24944200  0.75240700  0.75019800  1
  Mn  Mn12  1  0.99372300  0.50646400  0.00008500  1
  Mn  Mn13  1  0.50041600  0.99699600  0.49859200  1
  Nb  Nb14  1  0.00195600  0.01191600  0.00085500  1
  Nb  Nb15  1  0.49724400  0.49137100  0.50023100  1
  O  O16  1  0.03206800  0.52655800  0.75258400  1
  O  O17  1  0.53182600  0.97958300  0.25161900  1
  O  O18  1  0.96654600  0.52342000  0.24818500  1
  O  O19  1  0.46692700  0.97942300  0.74744400  1
  O  O20  1  0.26246100  0.27097000  0.49348500  1
  O  O21  1  0.76206100  0.77220400  0.01440900  1
  O  O22  1  0.76658200  0.23235400  0.99304300  1
  O  O23  1  0.26091100  0.73420700  0.51272000  1
  O  O24  1  0.48425500  0.49946800  0.26253300  1
  O  O25  1  0.98580300  0.00302800  0.76333500  1
  O  O26  1  0.23496100  0.23387700  0.00688100  1
  O  O27  1  0.73563900  0.73163700  0.48585500  1
  O  O28  1  0.73100600  0.26994300  0.50748300  1
  O  O29  1  0.23704000  0.76952500  0.98771900  1
  O  O30  1  0.51176700  0.50056600  0.73697500  1
  O  O31  1  0.01361100  0.00409300  0.23788800  1
