# generated using pymatgen
data_Li7Mn4CoO12
_symmetry_space_group_name_H-M   'P 1'
_cell_length_a   5.10535371
_cell_length_b   5.88736458
_cell_length_c   14.69958876
_cell_angle_alpha   79.71041946
_cell_angle_beta   89.18173780
_cell_angle_gamma   90.77865838
_symmetry_Int_Tables_number   1
_chemical_formula_structural   Li7Mn4CoO12
_chemical_formula_sum   'Li14 Mn8 Co2 O24'
_cell_volume   434.61819911
_cell_formula_units_Z   2
loop_
 _symmetry_equiv_pos_site_id
 _symmetry_equiv_pos_as_xyz
  1  'x, y, z'
loop_
 _atom_site_type_symbol
 _atom_site_label
 _atom_site_symmetry_multiplicity
 _atom_site_fract_x
 _atom_site_fract_y
 _atom_site_fract_z
 _atom_site_occupancy
  Li  Li0  1  0.15760300  0.09166400  0.33225200  1
  Li  Li1  1  0.17562200  0.57499600  0.33439200  1
  Li  Li2  1  0.66254900  0.08518400  0.83312100  1
  Li  Li3  1  0.67089400  0.58153800  0.83349900  1
  Li  Li4  1  0.16666800  0.33333100  0.83333100  1
  Li  Li5  1  0.16669800  0.83332200  0.83333100  1
  Li  Li6  1  0.34813900  0.40809200  0.17132300  1
  Li  Li7  1  0.35074500  0.91301600  0.16798000  1
  Li  Li8  1  0.98515600  0.25854700  0.49530600  1
  Li  Li9  1  0.98245400  0.75361400  0.49869100  1
  Li  Li10  1  0.83929100  0.41210400  0.67339700  1
  Li  Li11  1  0.84766600  0.90099600  0.67576100  1
  Li  Li12  1  0.49405800  0.25458300  0.99324800  1
  Li  Li13  1  0.48579500  0.76570300  0.99089300  1
  Mn  Mn14  1  0.00584800  0.00965000  0.99306700  1
  Mn  Mn15  1  0.01067300  0.50729100  0.99345500  1
  Mn  Mn16  1  0.32281600  0.15930300  0.67325400  1
  Mn  Mn17  1  0.32758800  0.65708300  0.67360400  1
  Mn  Mn18  1  0.83917500  0.16965800  0.16561200  1
  Mn  Mn19  1  0.83586700  0.66897700  0.16643000  1
  Mn  Mn20  1  0.49737600  0.99766800  0.50024100  1
  Mn  Mn21  1  0.49408400  0.49693300  0.50108100  1
  Co  Co22  1  0.66658500  0.83332600  0.33334500  1
  Co  Co23  1  0.66660800  0.33333700  0.33333600  1
  O  O24  1  0.13805300  0.22150200  0.07470000  1
  O  O25  1  0.13595400  0.72278100  0.07435300  1
  O  O26  1  0.19525700  0.44517700  0.59200000  1
  O  O27  1  0.19741400  0.94392200  0.59234400  1
  O  O28  1  0.00533500  0.35702100  0.24367900  1
  O  O29  1  0.99398300  0.89180000  0.23609600  1
  O  O30  1  0.32793800  0.30961800  0.42299700  1
  O  O31  1  0.33916200  0.77479400  0.43059900  1
  O  O32  1  0.80754900  0.03916100  0.42140500  1
  O  O33  1  0.79831300  0.54160200  0.42419900  1
  O  O34  1  0.53490000  0.12503200  0.24246400  1
  O  O35  1  0.52572000  0.62749700  0.24527100  1
  O  O36  1  0.63005600  0.21509300  0.57720500  1
  O  O37  1  0.63933700  0.68180400  0.58555500  1
  O  O38  1  0.70327200  0.45161600  0.08944500  1
  O  O39  1  0.69396700  0.98489300  0.08108800  1
  O  O40  1  0.48091100  0.37609900  0.74192800  1
  O  O41  1  0.48610800  0.88165000  0.73932800  1
  O  O42  1  0.85256700  0.29060700  0.92473900  1
  O  O43  1  0.84734200  0.78503400  0.92731800  1
  O  O44  1  0.30728500  0.04043400  0.92316600  1
  O  O45  1  0.31119400  0.54067100  0.92520700  1
  O  O46  1  0.02226600  0.12604700  0.74144900  1
  O  O47  1  0.02615800  0.62622600  0.74351300  1
