# generated using pymatgen
data_Li9Mn2Co5O16
_symmetry_space_group_name_H-M   'P 1'
_cell_length_a   3.01574500
_cell_length_b   5.99727170
_cell_length_c   16.10235076
_cell_angle_alpha   90.85310031
_cell_angle_beta   90.86356397
_cell_angle_gamma   94.43315543
_symmetry_Int_Tables_number   1
_chemical_formula_structural   Li9Mn2Co5O16
_chemical_formula_sum   'Li9 Mn2 Co5 O16'
_cell_volume   290.28907940
_cell_formula_units_Z   1
loop_
 _symmetry_equiv_pos_site_id
 _symmetry_equiv_pos_as_xyz
  1  'x, y, z'
loop_
 _atom_site_type_symbol
 _atom_site_label
 _atom_site_symmetry_multiplicity
 _atom_site_fract_x
 _atom_site_fract_y
 _atom_site_fract_z
 _atom_site_occupancy
  Li  Li0  1  0.00004600  0.50098300  0.99810700  1
  Li  Li1  1  0.49788100  0.74902800  0.12772100  1
  Li  Li2  1  0.99791500  0.99239400  0.25352700  1
  Li  Li3  1  0.49779100  0.25159800  0.87445400  1
  Li  Li4  1  0.99944300  0.99978500  0.75011500  1
  Li  Li5  1  0.50313700  0.75109500  0.62331500  1
  Li  Li6  1  0.00156400  0.50663200  0.49818800  1
  Li  Li7  1  0.50157300  0.24964200  0.37468100  1
  Li  Li8  1  0.50039600  0.75159800  0.37585500  1
  Mn  Mn9  1  0.00055800  0.99665300  0.99920600  1
  Mn  Mn10  1  0.49737600  0.25247600  0.12774300  1
  Co  Co11  1  0.99320400  0.51313700  0.25666700  1
  Co  Co12  1  0.00482300  0.99130200  0.49544200  1
  Co  Co13  1  0.49559800  0.25092600  0.62369800  1
  Co  Co14  1  0.99754600  0.49802400  0.74806200  1
  Co  Co15  1  0.50694900  0.74595700  0.87293900  1
  O  O16  1  0.52581400  0.75406200  0.99298800  1
  O  O17  1  0.02719700  0.00700800  0.12086700  1
  O  O18  1  0.52463200  0.26242200  0.24749400  1
  O  O19  1  0.02991800  0.51012800  0.86924600  1
  O  O20  1  0.48210900  0.25996600  0.74296700  1
  O  O21  1  0.02709100  0.01571600  0.61519700  1
  O  O22  1  0.52689100  0.77100800  0.50026800  1
  O  O23  1  0.00402800  0.49760100  0.36401500  1
  O  O24  1  0.46903400  0.24464000  0.00518200  1
  O  O25  1  0.97430300  0.49441600  0.13605600  1
  O  O26  1  0.47613900  0.73158000  0.25158300  1
  O  O27  1  0.97198100  0.98503400  0.87782900  1
  O  O28  1  0.51552100  0.73622400  0.75422200  1
  O  O29  1  0.97283900  0.48782000  0.62821500  1
  O  O30  1  0.47810500  0.23597000  0.50629800  1
  O  O31  1  0.99859900  0.00517500  0.38785200  1
