# generated using pymatgen
data_LiH6IO7
_symmetry_space_group_name_H-M   'P 1'
_cell_length_a   5.76104271
_cell_length_b   5.87481496
_cell_length_c   9.78276478
_cell_angle_alpha   102.93093780
_cell_angle_beta   94.79998612
_cell_angle_gamma   114.50304843
_symmetry_Int_Tables_number   1
_chemical_formula_structural   LiH6IO7
_chemical_formula_sum   'Li2 H12 I2 O14'
_cell_volume   287.76599004
_cell_formula_units_Z   2
loop_
 _symmetry_equiv_pos_site_id
 _symmetry_equiv_pos_as_xyz
  1  'x, y, z'
loop_
 _atom_site_type_symbol
 _atom_site_label
 _atom_site_symmetry_multiplicity
 _atom_site_fract_x
 _atom_site_fract_y
 _atom_site_fract_z
 _atom_site_occupancy
  Li  Li0  1  0.24910273  0.26454943  0.99151229  1
  Li  Li1  1  0.75089727  0.73545057  0.00848771  1
  H  H2  1  0.80426232  0.45894434  0.73241584  1
  H  H3  1  0.19573768  0.54105566  0.26758416  1
  H  H4  1  0.28093383  0.94088469  0.72917260  1
  H  H5  1  0.71906617  0.05911531  0.27082740  1
  H  H6  1  0.36866125  0.59289307  0.58713070  1
  H  H7  1  0.63133875  0.40710693  0.41286930  1
  H  H8  1  0.94633127  0.19588961  0.56678385  1
  H  H9  1  0.05366873  0.80411039  0.43321615  1
  H  H10  1  0.70741420  0.26859457  0.98342640  1
  H  H11  1  0.29258580  0.73140543  0.01657360  1
  H  H12  1  0.68155283  0.36704368  0.14209987  1
  H  H13  1  0.31844717  0.63295632  0.85790013  1
  I  I14  1  0.82798537  0.89112353  0.71705610  1
  I  I15  1  0.17201463  0.10887647  0.28294390  1
  O  O16  1  0.20795061  0.06017437  0.77390430  1
  O  O17  1  0.79204939  0.93982563  0.22609570  1
  O  O18  1  0.64575460  0.38108809  0.04586886  1
  O  O19  1  0.35424540  0.61891191  0.95413114  1
  O  O20  1  0.44338945  0.74398799  0.67665662  1
  O  O21  1  0.55661055  0.25601201  0.32334338  1
  O  O22  1  0.82957559  0.06674509  0.89626973  1
  O  O23  1  0.17042441  0.93325491  0.10373027  1
  O  O24  1  0.84455386  0.18291440  0.64612260  1
  O  O25  1  0.15544614  0.81708560  0.35387740  1
  O  O26  1  0.83318208  0.70326291  0.54112055  1
  O  O27  1  0.16681792  0.29673709  0.45887945  1
  O  O28  1  0.80462486  0.61257093  0.80177889  1
  O  O29  1  0.19537514  0.38742907  0.19822111  1
