# generated using pymatgen
data_Li15V6(P8O29)2
_symmetry_space_group_name_H-M   'P 1'
_cell_length_a   9.84681100
_cell_length_b   9.85071526
_cell_length_c   13.84921173
_cell_angle_alpha   90.15927655
_cell_angle_beta   89.98908215
_cell_angle_gamma   119.94397151
_symmetry_Int_Tables_number   1
_chemical_formula_structural   Li15V6(P8O29)2
_chemical_formula_sum   'Li15 V6 P16 O58'
_cell_volume   1164.02385151
_cell_formula_units_Z   1
loop_
 _symmetry_equiv_pos_site_id
 _symmetry_equiv_pos_as_xyz
  1  'x, y, z'
loop_
 _atom_site_type_symbol
 _atom_site_label
 _atom_site_symmetry_multiplicity
 _atom_site_fract_x
 _atom_site_fract_y
 _atom_site_fract_z
 _atom_site_occupancy
  Li  Li0  1  0.23209100  0.32938300  0.93532500  1
  Li  Li1  1  0.09550100  0.32451700  0.44178300  1
  Li  Li2  1  0.67868500  0.77373800  0.43887400  1
  Li  Li3  1  0.33697100  0.66838300  0.11866000  1
  Li  Li4  1  0.67002800  0.90285800  0.93607300  1
  Li  Li5  1  0.09804000  0.76370400  0.93714200  1
  Li  Li6  1  0.77139700  0.08994600  0.56196000  1
  Li  Li7  1  0.22978600  0.90332500  0.43785700  1
  Li  Li8  1  0.89434800  0.23631900  0.05906000  1
  Li  Li9  1  0.33537300  0.09967100  0.06183200  1
  Li  Li10  1  0.66472100  0.33130500  0.38302300  1
  Li  Li11  1  0.31732200  0.22689500  0.56322900  1
  Li  Li12  1  0.90957400  0.68561500  0.56202100  1
  Li  Li13  1  0.76405600  0.66175500  0.06097200  1
  Li  Li14  1  0.99808300  0.99756300  0.99776200  1
  V  V15  1  0.56567200  0.99927200  0.75014700  1
  V  V16  1  0.43366900  0.00170800  0.24920500  1
  V  V17  1  0.99927800  0.43256000  0.24976300  1
  V  V18  1  0.00062900  0.56709100  0.74943600  1
  V  V19  1  0.43347200  0.43435100  0.75122100  1
  V  V20  1  0.56701300  0.56634300  0.25008300  1
  P  P21  1  0.22545800  0.31569900  0.15540700  1
  P  P22  1  0.08577000  0.31823200  0.65734600  1
  P  P23  1  0.67903100  0.76901700  0.65790300  1
  P  P24  1  0.33267800  0.66886400  0.87549700  1
  P  P25  1  0.32940100  0.66627800  0.37496400  1
  P  P26  1  0.68387500  0.91082800  0.15559700  1
  P  P27  1  0.77000300  0.09211300  0.34340100  1
  P  P28  1  0.08755300  0.77153000  0.15602900  1
  P  P29  1  0.91103500  0.22783100  0.84237900  1
  P  P30  1  0.23186800  0.91065700  0.65828000  1
  P  P31  1  0.31297600  0.08525500  0.84436900  1
  P  P32  1  0.66709300  0.33180800  0.62713700  1
  P  P33  1  0.67088400  0.33500100  0.12337000  1
  P  P34  1  0.32143700  0.23192500  0.34401900  1
  P  P35  1  0.91118800  0.67930600  0.34396100  1
  P  P36  1  0.77531500  0.68800500  0.84212100  1
  O  O37  1  0.24409900  0.25097000  0.43276600  1
  O  O38  1  0.24595900  0.33069700  0.65635100  1
  O  O39  1  0.99674600  0.21888700  0.93144800  1
  O  O40  1  0.07499100  0.32778000  0.15523300  1
  O  O41  1  0.37011900  0.48035300  0.16317600  1
  O  O42  1  0.32004900  0.51264400  0.84098400  1
  O  O43  1  0.51989900  0.62611800  0.67412100  1
  O  O44  1  0.79064700  0.78647700  0.93142700  1
  O  O45  1  0.67351600  0.75018700  0.15508800  1
  O  O46  1  0.18055600  0.51656900  0.32499600  1
  O  O47  1  0.09797400  0.47897600  0.67981800  1
  O  O48  1  0.47997300  0.66904700  0.33604600  1
  O  O49  1  0.33394300  0.67790800  0.98475700  1
  O  O50  1  0.31006200  0.64805000  0.48169200  1
  O  O51  1  0.48930600  0.81157800  0.83581000  1
  O  O52  1  0.10465300  0.62396600  0.16674000  1
  O  O53  1  0.18979900  0.68093100  0.83563100  1
  O  O54  1  0.66690500  0.92096700  0.65979400  1
  O  O55  1  0.78420800  0.00107400  0.25003800  1
  O  O56  1  0.75572600  0.99804300  0.43221000  1
  O  O57  1  0.77421100  0.00424500  0.06716100  1
  O  O58  1  0.51881400  0.88977500  0.16566900  1
  O  O59  1  0.32515300  0.81248200  0.33554000  1
  O  O60  1  0.74391500  0.08215200  0.84118900  1
  O  O61  1  0.37990700  0.89797200  0.67734500  1
  O  O62  1  0.08353600  0.74672900  0.65733300  1
  O  O63  1  0.99535000  0.20669500  0.74853900  1
  O  O64  1  0.99173100  0.24627500  0.56723300  1
  O  O65  1  0.00718900  0.75457500  0.43315700  1
  O  O66  1  0.92372400  0.25168600  0.34344300  1
  O  O67  1  0.63088300  0.12010300  0.32870400  1
  O  O68  1  0.24925700  0.91943900  0.15410700  1
  O  O69  1  0.67481400  0.18588300  0.66824600  1
  O  O70  1  0.46926900  0.08836000  0.83192000  1
  O  O71  1  0.22090200  0.99486400  0.93320400  1
  O  O72  1  0.24548600  0.00060300  0.56775700  1
  O  O73  1  0.20797500  0.99766400  0.74979000  1
  O  O74  1  0.32571100  0.07847400  0.34414400  1
  O  O75  1  0.81735500  0.32949000  0.17169800  1
  O  O76  1  0.90855300  0.38034600  0.83184600  1
  O  O77  1  0.51702300  0.19040500  0.16090300  1
  O  O78  1  0.69020800  0.33307700  0.01633700  1
  O  O79  1  0.67541700  0.33003300  0.51826200  1
  O  O80  1  0.51428700  0.32510100  0.66231600  1
  O  O81  1  0.88592600  0.51208600  0.32669200  1
  O  O82  1  0.81451000  0.48645400  0.66629200  1
  O  O83  1  0.33009900  0.24805900  0.84450700  1
  O  O84  1  0.21596800  0.21831300  0.25050200  1
  O  O85  1  0.22343200  0.22172200  0.06731900  1
  O  O86  1  0.48933800  0.37029100  0.32800000  1
  O  O87  1  0.67820700  0.48792000  0.16101100  1
  O  O88  1  0.62570400  0.53240700  0.83617000  1
  O  O89  1  0.92264400  0.66714300  0.83778500  1
  O  O90  1  0.99431400  0.76638100  0.06735100  1
  O  O91  1  0.00072100  0.78491000  0.25082100  1
  O  O92  1  0.75204500  0.67110300  0.34595400  1
  O  O93  1  0.76207700  0.76358700  0.56750200  1
  O  O94  1  0.79394000  0.79355400  0.74891100  1
