# generated using pymatgen
data_Li4Mn3NbO8
_symmetry_space_group_name_H-M   'P 1'
_cell_length_a   6.17919845
_cell_length_b   6.16507668
_cell_length_c   10.37227411
_cell_angle_alpha   105.89940550
_cell_angle_beta   75.01588386
_cell_angle_gamma   118.82903756
_symmetry_Int_Tables_number   1
_chemical_formula_structural   Li4Mn3NbO8
_chemical_formula_sum   'Li8 Mn6 Nb2 O16'
_cell_volume   329.14855314
_cell_formula_units_Z   2
loop_
 _symmetry_equiv_pos_site_id
 _symmetry_equiv_pos_as_xyz
  1  'x, y, z'
loop_
 _atom_site_type_symbol
 _atom_site_label
 _atom_site_symmetry_multiplicity
 _atom_site_fract_x
 _atom_site_fract_y
 _atom_site_fract_z
 _atom_site_occupancy
  Li  Li0  1  0.24895800  0.74325500  0.24848600  1
  Li  Li1  1  0.75026600  0.24465100  0.74823400  1
  Li  Li2  1  0.74916000  0.74799400  0.74981700  1
  Li  Li3  1  0.25583300  0.24968100  0.24815800  1
  Li  Li4  1  0.24680000  0.24128000  0.74818600  1
  Li  Li5  1  0.74703300  0.74071400  0.24842100  1
  Li  Li6  1  0.74771900  0.24647600  0.25034500  1
  Li  Li7  1  0.24814900  0.74738200  0.74977000  1
  Mn  Mn8  1  0.49890000  0.99663000  0.49863300  1
  Mn  Mn9  1  0.99997400  0.49865700  0.49915700  1
  Mn  Mn10  1  0.49977000  0.49789600  0.99823300  1
  Mn  Mn11  1  0.99926700  0.49734700  0.99917800  1
  Mn  Mn12  1  0.49970900  0.99870800  0.99938200  1
  Mn  Mn13  1  0.99962700  0.99791600  0.49816300  1
  Nb  Nb14  1  0.49909400  0.49778700  0.50049600  1
  Nb  Nb15  1  0.99904700  0.99800000  0.00049400  1
  O  O16  1  0.37873600  0.66114200  0.89220300  1
  O  O17  1  0.87782200  0.16085500  0.39248900  1
  O  O18  1  0.12011900  0.83641700  0.60679500  1
  O  O19  1  0.61958500  0.33650700  0.10735800  1
  O  O20  1  0.85303600  0.60151700  0.38598900  1
  O  O21  1  0.35315100  0.10143400  0.88624200  1
  O  O22  1  0.37986700  0.15344800  0.38161800  1
  O  O23  1  0.87949300  0.65333000  0.88183200  1
  O  O24  1  0.89820700  0.11910400  0.87289500  1
  O  O25  1  0.39800700  0.61864600  0.37270100  1
  O  O26  1  0.64474900  0.89413700  0.11299600  1
  O  O27  1  0.14474100  0.39396800  0.61296600  1
  O  O28  1  0.12011400  0.34354200  0.11740300  1
  O  O29  1  0.61970600  0.84332700  0.61742800  1
  O  O30  1  0.59937500  0.37596700  0.62659100  1
  O  O31  1  0.09979300  0.87606900  0.12648300  1
