# generated using pymatgen
data_LiAlIr2
_symmetry_space_group_name_H-M   'P 1'
_cell_length_a   10.28064507
_cell_length_b   10.28064507
_cell_length_c   10.28064507
_cell_angle_alpha   124.33522923
_cell_angle_beta   118.34064845
_cell_angle_gamma   87.77942600
_symmetry_Int_Tables_number   1
_chemical_formula_structural   LiAlIr2
_chemical_formula_sum   'Li1 Al1 Ir2'
_cell_volume   749.47251289
_cell_formula_units_Z   1
loop_
 _symmetry_equiv_pos_site_id
 _symmetry_equiv_pos_as_xyz
  1  'x, y, z'
loop_
 _atom_site_type_symbol
 _atom_site_label
 _atom_site_symmetry_multiplicity
 _atom_site_fract_x
 _atom_site_fract_y
 _atom_site_fract_z
 _atom_site_occupancy
  Li  Li0  1  0.00000000  0.00000000  0.00000000  1
  Al  Al1  1  0.00000000  0.50000000  0.50000000  1
  Ir  Ir2  1  0.00000000  0.26496500  0.26496500  1
  Ir  Ir3  1  0.00000000  0.73503500  0.73503500  1
