# generated using pymatgen
data_Li4Co3Sn5O16
_symmetry_space_group_name_H-M   'P 1'
_cell_length_a   6.16179381
_cell_length_b   9.86410178
_cell_length_c   10.58330125
_cell_angle_alpha   89.82903668
_cell_angle_beta   89.39167595
_cell_angle_gamma   89.50776396
_symmetry_Int_Tables_number   1
_chemical_formula_structural   Li4Co3Sn5O16
_chemical_formula_sum   'Li8 Co6 Sn10 O32'
_cell_volume   643.19630579
_cell_formula_units_Z   2
loop_
 _symmetry_equiv_pos_site_id
 _symmetry_equiv_pos_as_xyz
  1  'x, y, z'
loop_
 _atom_site_type_symbol
 _atom_site_label
 _atom_site_symmetry_multiplicity
 _atom_site_fract_x
 _atom_site_fract_y
 _atom_site_fract_z
 _atom_site_occupancy
  Li  Li0  1  0.50338700  0.89345300  0.16835900  1
  Li  Li1  1  0.00583300  0.89015900  0.67312800  1
  Li  Li2  1  0.50463800  0.98438800  0.48141900  1
  Li  Li3  1  0.00196400  0.98650800  0.97785100  1
  Li  Li4  1  0.49395900  0.49794600  0.49099700  1
  Li  Li5  1  0.99539700  0.49965300  0.99031700  1
  Li  Li6  1  0.99514900  0.40442700  0.33129000  1
  Li  Li7  1  0.49985500  0.40447200  0.83600700  1
  Co  Co8  1  0.00014000  0.21551400  0.82918000  1
  Co  Co9  1  0.75442300  0.70934400  0.41790400  1
  Co  Co10  1  0.25502700  0.71254700  0.91643700  1
  Co  Co11  1  0.49926700  0.21569500  0.32960100  1
  Co  Co12  1  0.24274000  0.71465400  0.42017500  1
  Co  Co13  1  0.73988100  0.71617600  0.91996900  1
  Sn  Sn14  1  0.74617300  0.21584700  0.08305800  1
  Sn  Sn15  1  0.24781300  0.21285400  0.58623200  1
  Sn  Sn16  1  0.49394200  0.49559900  0.17086400  1
  Sn  Sn17  1  0.99713000  0.49600600  0.67334900  1
  Sn  Sn18  1  0.25278800  0.21567700  0.08339400  1
  Sn  Sn19  1  0.75472000  0.21317100  0.58617600  1
  Sn  Sn20  1  0.99910600  0.71497000  0.17034400  1
  Sn  Sn21  1  0.50234600  0.71348400  0.67298200  1
  Sn  Sn22  1  0.00482900  0.98466500  0.34082700  1
  Sn  Sn23  1  0.50425100  0.98537200  0.83675000  1
  O  O24  1  0.75014200  0.59837700  0.08308000  1
  O  O25  1  0.25627600  0.59458600  0.58402800  1
  O  O26  1  0.49916100  0.34464300  0.01346700  1
  O  O27  1  0.00095600  0.34411000  0.51783500  1
  O  O28  1  0.50055100  0.10015700  0.15971700  1
  O  O29  1  0.00161600  0.10551600  0.67751200  1
  O  O30  1  0.50098500  0.31388500  0.50459800  1
  O  O31  1  0.99950100  0.31137200  0.98747000  1
  O  O32  1  0.51584900  0.80063700  0.49570000  1
  O  O33  1  0.99417100  0.80607700  0.99932100  1
  O  O34  1  0.23667200  0.59217800  0.08315300  1
  O  O35  1  0.74201700  0.59198800  0.57512400  1
  O  O36  1  0.72561500  0.34621400  0.23751400  1
  O  O37  1  0.21298800  0.33497500  0.74906900  1
  O  O38  1  0.26780100  0.34355800  0.23848800  1
  O  O39  1  0.78449700  0.33369300  0.74936800  1
  O  O40  1  0.99924100  0.09495900  0.16112100  1
  O  O41  1  0.50238900  0.09294700  0.66104500  1
  O  O42  1  0.47786100  0.60317100  0.33847100  1
  O  O43  1  0.98337800  0.60386200  0.83628200  1
  O  O44  1  0.22487700  0.84454400  0.25869400  1
  O  O45  1  0.72868500  0.84472100  0.75703700  1
  O  O46  1  0.77242400  0.84092200  0.27118600  1
  O  O47  1  0.28071400  0.84836200  0.75760900  1
  O  O48  1  0.98536500  0.60953200  0.34042400  1
  O  O49  1  0.50792700  0.60322200  0.83473100  1
  O  O50  1  0.25609800  0.09563900  0.42232500  1
  O  O51  1  0.76735000  0.10289700  0.91254900  1
  O  O52  1  0.02366000  0.83505800  0.48662200  1
  O  O53  1  0.51803600  0.84332300  0.98385400  1
  O  O54  1  0.75143800  0.09561600  0.42269900  1
  O  O55  1  0.23759400  0.10235000  0.91329800  1
