# generated using pymatgen
data_LiInO2
_symmetry_space_group_name_H-M   'P 1'
_cell_length_a   5.63867454
_cell_length_b   5.63867454
_cell_length_c   5.63867454
_cell_angle_alpha   134.23492747
_cell_angle_beta   134.23492747
_cell_angle_gamma   66.72130218
_symmetry_Int_Tables_number   1
_chemical_formula_structural   LiInO2
_chemical_formula_sum   'Li2 In2 O4'
_cell_volume   90.56155112
_cell_formula_units_Z   2
loop_
 _symmetry_equiv_pos_site_id
 _symmetry_equiv_pos_as_xyz
  1  'x, y, z'
loop_
 _atom_site_type_symbol
 _atom_site_label
 _atom_site_symmetry_multiplicity
 _atom_site_fract_x
 _atom_site_fract_y
 _atom_site_fract_z
 _atom_site_occupancy
  Li  Li0  1  0.27221600  0.77221600  0.50000000  1
  Li  Li1  1  0.52221600  0.52221600  0.00000000  1
  In  In2  1  0.75419200  0.25419200  0.50000000  1
  In  In3  1  0.00419200  0.00419200  0.00000000  1
  O  O4  1  0.98607900  0.48607900  0.50000000  1
  O  O5  1  0.76741300  0.76741300  0.00000000  1
  O  O6  1  0.51741300  0.01741300  0.50000000  1
  O  O7  1  0.23607900  0.23607900  0.00000000  1
