# generated using pymatgen
data_LiTi2O4
_symmetry_space_group_name_H-M   'P 1'
_cell_length_a   8.20428566
_cell_length_b   3.91266227
_cell_length_c   8.90508019
_cell_angle_alpha   90.00000000
_cell_angle_beta   90.10062742
_cell_angle_gamma   90.00000000
_symmetry_Int_Tables_number   1
_chemical_formula_structural   LiTi2O4
_chemical_formula_sum   'Li4 Ti8 O16'
_cell_volume   285.85796703
_cell_formula_units_Z   4
loop_
 _symmetry_equiv_pos_site_id
 _symmetry_equiv_pos_as_xyz
  1  'x, y, z'
loop_
 _atom_site_type_symbol
 _atom_site_label
 _atom_site_symmetry_multiplicity
 _atom_site_fract_x
 _atom_site_fract_y
 _atom_site_fract_z
 _atom_site_occupancy
  Li  Li0  1  0.99880198  0.49999800  0.23989248  1
  Li  Li1  1  0.25131170  0.49999800  0.50494635  1
  Li  Li2  1  0.25202201  0.00000000  0.73978555  1
  Li  Li3  1  0.99824666  -0.00000000  0.00477170  1
  Ti  Ti4  1  0.27042072  0.49999800  0.99529376  1
  Ti  Ti5  1  0.27158690  -0.00000000  0.25802384  1
  Ti  Ti6  1  0.73692537  -0.00000000  0.26144987  1
  Ti  Ti7  1  0.51315812  0.00000000  0.48929605  1
  Ti  Ti8  1  0.97858286  -0.00000000  0.49227268  1
  Ti  Ti9  1  0.97958491  0.49999800  0.75505386  1
  Ti  Ti10  1  0.51308054  0.49999800  0.75509523  1
  Ti  Ti11  1  0.73646802  0.49999800  0.99577668  1
  O  O12  1  0.24193079  -0.00000000  0.02324847  1
  O  O13  1  0.75565971  0.00000000  0.02602868  1
  O  O14  1  0.75634672  0.49999800  0.22545823  1
  O  O15  1  0.24238749  0.49999800  0.22830146  1
  O  O16  1  0.50037403  -0.00000000  0.26268923  1
  O  O17  1  0.00068920  -0.00000000  0.27289279  1
  O  O18  1  0.24915999  0.00000000  0.47827322  1
  O  O19  1  0.74972809  0.00000000  0.48795408  1
  O  O20  1  0.00777963  0.49999800  0.52349316  1
  O  O21  1  0.49347967  0.49999800  0.52511479  1
  O  O22  1  0.49452385  -0.00000000  0.72466746  1
  O  O23  1  0.00776493  0.00000000  0.72829051  1
  O  O24  1  0.75037198  0.49999800  0.76995265  1
  O  O25  1  0.25047567  0.49999800  0.77535096  1
  O  O26  1  0.99949109  0.49999800  0.97559803  1
  O  O27  1  0.49965837  0.49999800  0.98101525  1
