# generated using pymatgen
data_LiYb(MoO4)2
_symmetry_space_group_name_H-M   'P 1'
_cell_length_a   6.73835082
_cell_length_b   6.73835082
_cell_length_c   6.73835082
_cell_angle_alpha   134.65496950
_cell_angle_beta   134.65496950
_cell_angle_gamma   66.06677425
_symmetry_Int_Tables_number   1
_chemical_formula_structural   LiYb(MoO4)2
_chemical_formula_sum   'Li1 Yb1 Mo2 O8'
_cell_volume   152.44536358
_cell_formula_units_Z   1
loop_
 _symmetry_equiv_pos_site_id
 _symmetry_equiv_pos_as_xyz
  1  'x, y, z'
loop_
 _atom_site_type_symbol
 _atom_site_label
 _atom_site_symmetry_multiplicity
 _atom_site_fract_x
 _atom_site_fract_y
 _atom_site_fract_z
 _atom_site_occupancy
  Li  Li0  1  0.50000000  0.50000000  0.00000000  1
  Yb  Yb1  1  0.75000000  0.25000000  0.50000000  1
  Mo  Mo2  1  0.25000000  0.75000000  0.50000000  1
  Mo  Mo3  1  0.00000000  0.00000000  0.00000000  1
  O  O4  1  0.49496500  0.59116900  0.41200400  1
  O  O5  1  0.17916500  0.08296100  0.58799600  1
  O  O6  1  0.91703900  0.50503500  0.09620400  1
  O  O7  1  0.40883100  0.82083500  0.90379600  1
  O  O8  1  0.06615300  0.66645800  0.91015100  1
  O  O9  1  0.75630700  0.15600100  0.08984900  1
  O  O10  1  0.84399900  0.93384700  0.60030600  1
  O  O11  1  0.33354200  0.24369300  0.39969400  1
