# generated using pymatgen
data_Li9Mn2Co5O16
_symmetry_space_group_name_H-M   'P 1'
_cell_length_a   5.91463200
_cell_length_b   6.46058373
_cell_length_c   7.87142977
_cell_angle_alpha   88.73680625
_cell_angle_beta   103.43318531
_cell_angle_gamma   104.79376524
_symmetry_Int_Tables_number   1
_chemical_formula_structural   Li9Mn2Co5O16
_chemical_formula_sum   'Li9 Mn2 Co5 O16'
_cell_volume   282.63382177
_cell_formula_units_Z   1
loop_
 _symmetry_equiv_pos_site_id
 _symmetry_equiv_pos_as_xyz
  1  'x, y, z'
loop_
 _atom_site_type_symbol
 _atom_site_label
 _atom_site_symmetry_multiplicity
 _atom_site_fract_x
 _atom_site_fract_y
 _atom_site_fract_z
 _atom_site_occupancy
  Li  Li0  1  0.12464200  0.62361100  0.87267100  1
  Li  Li1  1  0.74432000  0.25943600  0.74044900  1
  Li  Li2  1  0.99602800  0.50268900  0.49701200  1
  Li  Li3  1  0.62446600  0.13146400  0.37815500  1
  Li  Li4  1  0.87180300  0.38061800  0.13032400  1
  Li  Li5  1  0.50240800  0.99703900  0.00244800  1
  Li  Li6  1  0.37982900  0.86577300  0.61640200  1
  Li  Li7  1  0.25680200  0.74095000  0.25995800  1
  Li  Li8  1  0.50076000  0.50338800  0.49865400  1
  Mn  Mn9  1  0.00123900  0.99690300  0.00055800  1
  Mn  Mn10  1  0.25192200  0.25382200  0.74616700  1
  Co  Co11  1  0.62879400  0.62303700  0.86901500  1
  Co  Co12  1  0.86997500  0.87230700  0.62254100  1
  Co  Co13  1  0.12548700  0.12652600  0.37459500  1
  Co  Co14  1  0.74390800  0.74660800  0.25723400  1
  Co  Co15  1  0.37418800  0.37699900  0.13488400  1
  O  O16  1  0.92872600  0.70042600  0.05303300  1
  O  O17  1  0.55206700  0.32315300  0.92014100  1
  O  O18  1  0.81233400  0.58596600  0.68621700  1
  O  O19  1  0.40089400  0.18512900  0.57330900  1
  O  O20  1  0.67751300  0.44185800  0.29603700  1
  O  O21  1  0.30486900  0.07092600  0.17325500  1
  O  O22  1  0.16440300  0.95234300  0.81784800  1
  O  O23  1  0.05077200  0.82626200  0.42516900  1
  O  O24  1  0.31960600  0.55224500  0.70436800  1
  O  O25  1  0.94629300  0.17914000  0.57635900  1
  O  O26  1  0.18427000  0.41312600  0.31156800  1
  O  O27  1  0.84153200  0.05002800  0.17735700  1
  O  O28  1  0.08487500  0.29708800  0.93489500  1
  O  O29  1  0.69669000  0.92611900  0.82939900  1
  O  O30  1  0.58677500  0.82261100  0.44032300  1
  O  O31  1  0.45181600  0.67240800  0.07965000  1
