# generated using pymatgen
data_Li3Mg
_symmetry_space_group_name_H-M   'P 1'
_cell_length_a   6.12726376
_cell_length_b   6.12726376
_cell_length_c   4.91553800
_cell_angle_alpha   90.00000000
_cell_angle_beta   90.00000000
_cell_angle_gamma   119.99999738
_symmetry_Int_Tables_number   1
_chemical_formula_structural   Li3Mg
_chemical_formula_sum   'Li6 Mg2'
_cell_volume   159.82137112
_cell_formula_units_Z   2
loop_
 _symmetry_equiv_pos_site_id
 _symmetry_equiv_pos_as_xyz
  1  'x, y, z'
loop_
 _atom_site_type_symbol
 _atom_site_label
 _atom_site_symmetry_multiplicity
 _atom_site_fract_x
 _atom_site_fract_y
 _atom_site_fract_z
 _atom_site_occupancy
  Li  Li0  1  0.32776700  0.16388400  0.25000000  1
  Li  Li1  1  0.83611600  0.16388400  0.25000000  1
  Li  Li2  1  0.83611600  0.67223300  0.25000000  1
  Li  Li3  1  0.67223300  0.83611600  0.75000000  1
  Li  Li4  1  0.16388400  0.32776700  0.75000000  1
  Li  Li5  1  0.16388400  0.83611600  0.75000000  1
  Mg  Mg6  1  0.33333300  0.66666700  0.25000000  1
  Mg  Mg7  1  0.66666700  0.33333300  0.75000000  1
