# generated using pymatgen
data_Li9Mn2Co5O16
_symmetry_space_group_name_H-M   'P 1'
_cell_length_a   7.73049252
_cell_length_b   7.73049252
_cell_length_c   5.16695160
_cell_angle_alpha   75.40960479
_cell_angle_beta   75.40960479
_cell_angle_gamma   95.49590616
_symmetry_Int_Tables_number   1
_chemical_formula_structural   Li9Mn2Co5O16
_chemical_formula_sum   'Li9 Mn2 Co5 O16'
_cell_volume   284.97498430
_cell_formula_units_Z   1
loop_
 _symmetry_equiv_pos_site_id
 _symmetry_equiv_pos_as_xyz
  1  'x, y, z'
loop_
 _atom_site_type_symbol
 _atom_site_label
 _atom_site_symmetry_multiplicity
 _atom_site_fract_x
 _atom_site_fract_y
 _atom_site_fract_z
 _atom_site_occupancy
  Li  Li0  1  0.37834000  0.13219900  0.99079100  1
  Li  Li1  1  0.86780100  0.62166000  0.00920900  1
  Li  Li2  1  0.50505200  0.00363500  0.50969200  1
  Li  Li3  1  0.99636500  0.49494800  0.49030800  1
  Li  Li4  1  0.62229500  0.86815400  0.99446900  1
  Li  Li5  1  0.13184600  0.37770500  0.00553100  1
  Li  Li6  1  0.73911800  0.74142700  0.51603400  1
  Li  Li7  1  0.25857300  0.26088200  0.48396600  1
  Li  Li8  1  0.49843200  0.50156800  0.00000000  1
  Mn  Mn9  1  0.99949600  0.00050400  0.00000000  1
  Mn  Mn10  1  0.25411100  0.74588900  0.00000000  1
  Co  Co11  1  0.12536800  0.87463200  0.50000000  1
  Co  Co12  1  0.62576900  0.37423100  0.50000000  1
  Co  Co13  1  0.74589300  0.25410700  0.00000000  1
  Co  Co14  1  0.38022300  0.61977700  0.50000000  1
  Co  Co15  1  0.87281300  0.12718700  0.50000000  1
  O  O16  1  0.24005000  0.98962700  0.77206400  1
  O  O17  1  0.73642200  0.47208200  0.74372700  1
  O  O18  1  0.35574300  0.85332700  0.25304900  1
  O  O19  1  0.86226100  0.37068900  0.27423700  1
  O  O20  1  0.48461400  0.75313600  0.76238500  1
  O  O21  1  0.98319400  0.23956800  0.76870000  1
  O  O22  1  0.61441900  0.60941000  0.28686500  1
  O  O23  1  0.12383300  0.11419100  0.27799800  1
  O  O24  1  0.52791800  0.26357800  0.25627300  1
  O  O25  1  0.01037300  0.75995000  0.22793600  1
  O  O26  1  0.62931100  0.13773900  0.72576300  1
  O  O27  1  0.14667300  0.64425700  0.74695100  1
  O  O28  1  0.76043200  0.01680600  0.23130000  1
  O  O29  1  0.24686400  0.51538600  0.23761500  1
  O  O30  1  0.88580900  0.87616700  0.72200200  1
  O  O31  1  0.39059000  0.38558100  0.71313500  1
