# generated using pymatgen
data_LiTl2Pd
_symmetry_space_group_name_H-M   'P 1'
_cell_length_a   11.60511374
_cell_length_b   11.60511374
_cell_length_c   11.60511374
_cell_angle_alpha   123.32080535
_cell_angle_beta   118.83655167
_cell_angle_gamma   88.18692228
_symmetry_Int_Tables_number   1
_chemical_formula_structural   LiTl2Pd
_chemical_formula_sum   'Li1 Tl2 Pd1'
_cell_volume   1084.40612932
_cell_formula_units_Z   1
loop_
 _symmetry_equiv_pos_site_id
 _symmetry_equiv_pos_as_xyz
  1  'x, y, z'
loop_
 _atom_site_type_symbol
 _atom_site_label
 _atom_site_symmetry_multiplicity
 _atom_site_fract_x
 _atom_site_fract_y
 _atom_site_fract_z
 _atom_site_occupancy
  Li  Li0  1  0.00000000  0.00000000  0.00000000  1
  Tl  Tl1  1  0.00000000  0.26332500  0.26332500  1
  Tl  Tl2  1  0.00000000  0.73667500  0.73667500  1
  Pd  Pd3  1  0.00000000  0.50000000  0.50000000  1
