# generated using pymatgen
data_Sr4Li2Ta2Al2N8O
_symmetry_space_group_name_H-M   'P 1'
_cell_length_a   10.09011100
_cell_length_b   6.05211100
_cell_length_c   10.96353573
_cell_angle_alpha   59.86481261
_cell_angle_beta   90.00000000
_cell_angle_gamma   90.00000000
_symmetry_Int_Tables_number   1
_chemical_formula_structural   Sr4Li2Ta2Al2N8O
_chemical_formula_sum   'Sr8 Li4 Ta4 Al4 N16 O2'
_cell_volume   579.01640808
_cell_formula_units_Z   2
loop_
 _symmetry_equiv_pos_site_id
 _symmetry_equiv_pos_as_xyz
  1  'x, y, z'
loop_
 _atom_site_type_symbol
 _atom_site_label
 _atom_site_symmetry_multiplicity
 _atom_site_fract_x
 _atom_site_fract_y
 _atom_site_fract_z
 _atom_site_occupancy
  Sr  Sr0  1  0.76031700  0.43265800  0.06940700  1
  Sr  Sr1  1  0.73968300  0.43265800  0.56940700  1
  Sr  Sr2  1  0.23968300  0.56734200  0.93059300  1
  Sr  Sr3  1  0.26031700  0.56734200  0.43059300  1
  Sr  Sr4  1  0.93455100  0.76774900  0.69704000  1
  Sr  Sr5  1  0.56544900  0.76774900  0.19704000  1
  Sr  Sr6  1  0.06544900  0.23225100  0.30296000  1
  Sr  Sr7  1  0.43455100  0.23225100  0.80296000  1
  Li  Li8  1  0.00654600  0.80997100  0.99663500  1
  Li  Li9  1  0.49345400  0.80997100  0.49663500  1
  Li  Li10  1  0.99345400  0.19002900  0.00336500  1
  Li  Li11  1  0.50654600  0.19002900  0.50336500  1
  Ta  Ta12  1  0.59753100  0.77324100  0.76062500  1
  Ta  Ta13  1  0.90246900  0.77324100  0.26062500  1
  Ta  Ta14  1  0.40246900  0.22675900  0.23937500  1
  Ta  Ta15  1  0.09753100  0.22675900  0.73937500  1
  Al  Al16  1  0.75582500  0.11770900  0.89970100  1
  Al  Al17  1  0.74417500  0.11770900  0.39970100  1
  Al  Al18  1  0.24417500  0.88229100  0.10029900  1
  Al  Al19  1  0.25582500  0.88229100  0.60029900  1
  N  N20  1  0.63422700  0.88757800  0.89615600  1
  N  N21  1  0.86577300  0.88757800  0.39615600  1
  N  N22  1  0.36577300  0.11242200  0.10384400  1
  N  N23  1  0.13422700  0.11242200  0.60384400  1
  N  N24  1  0.66628800  0.43003500  0.83331900  1
  N  N25  1  0.83371200  0.43003500  0.33331900  1
  N  N26  1  0.33371200  0.56996500  0.16668100  1
  N  N27  1  0.16628800  0.56996500  0.66668100  1
  N  N28  1  0.81127200  0.99036300  0.08505700  1
  N  N29  1  0.68872800  0.99036300  0.58505700  1
  N  N30  1  0.18872800  0.00963700  0.91494300  1
  N  N31  1  0.31127200  0.00963700  0.41494300  1
  N  N32  1  0.91000400  0.19303000  0.78774300  1
  N  N33  1  0.58999600  0.19303000  0.28774300  1
  N  N34  1  0.08999600  0.80697000  0.21225700  1
  N  N35  1  0.41000400  0.80697000  0.71225700  1
  O  O36  1  0.00000000  0.50000000  0.00000000  1
  O  O37  1  0.50000000  0.50000000  0.50000000  1
