# generated using pymatgen
data_Li9Mn2Co5O16
_symmetry_space_group_name_H-M   'P 1'
_cell_length_a   5.82743600
_cell_length_b   5.87656222
_cell_length_c   8.62889471
_cell_angle_alpha   88.25166097
_cell_angle_beta   70.90799490
_cell_angle_gamma   87.21071530
_symmetry_Int_Tables_number   1
_chemical_formula_structural   Li9Mn2Co5O16
_chemical_formula_sum   'Li9 Mn2 Co5 O16'
_cell_volume   278.88078281
_cell_formula_units_Z   1
loop_
 _symmetry_equiv_pos_site_id
 _symmetry_equiv_pos_as_xyz
  1  'x, y, z'
loop_
 _atom_site_type_symbol
 _atom_site_label
 _atom_site_symmetry_multiplicity
 _atom_site_fract_x
 _atom_site_fract_y
 _atom_site_fract_z
 _atom_site_occupancy
  Li  Li0  1  0.12671000  0.24973100  0.25536600  1
  Li  Li1  1  0.24387000  0.99720200  0.49569900  1
  Li  Li2  1  0.61940300  0.24982900  0.25417900  1
  Li  Li3  1  0.76075700  0.99717300  0.49631600  1
  Li  Li4  1  0.87536100  0.74729200  0.74408200  1
  Li  Li5  1  0.37953000  0.75059500  0.74712000  1
  Li  Li6  1  0.49129800  0.50430100  0.00508100  1
  Li  Li7  1  0.00603700  0.50268600  0.00288400  1
  Li  Li8  1  0.12857100  0.75120400  0.25384900  1
  Mn  Mn9  1  0.99912700  0.99526000  0.00148400  1
  Mn  Mn10  1  0.62348300  0.75017100  0.25279400  1
  Co  Co11  1  0.24992500  0.50398300  0.49973200  1
  Co  Co12  1  0.37259600  0.25015300  0.74912100  1
  Co  Co13  1  0.49471400  0.99699100  0.00002000  1
  Co  Co14  1  0.76104500  0.50603500  0.49662100  1
  Co  Co15  1  0.87020400  0.24677100  0.74792700  1
  O  O16  1  0.86667900  0.98414500  0.23463500  1
  O  O17  1  0.01723900  0.73299200  0.50129200  1
  O  O18  1  0.39537100  0.99075500  0.23684000  1
  O  O19  1  0.52783900  0.74888500  0.48595500  1
  O  O20  1  0.64351600  0.48697900  0.74021000  1
  O  O21  1  0.14153000  0.48449000  0.74280400  1
  O  O22  1  0.24058900  0.22240400  0.99332000  1
  O  O23  1  0.74410400  0.22259600  0.98739500  1
  O  O24  1  0.39298100  0.52107600  0.25976300  1
  O  O25  1  0.48188400  0.26941400  0.51367000  1
  O  O26  1  0.86094100  0.50822000  0.25930600  1
  O  O27  1  0.98187400  0.25795500  0.51004900  1
  O  O28  1  0.09945300  0.00882400  0.76280200  1
  O  O29  1  0.59916800  0.01366900  0.76242200  1
  O  O30  1  0.75118200  0.77009800  0.00925800  1
  O  O31  1  0.25301400  0.77812000  0.99800800  1
