# generated using pymatgen
data_Li4V3P8O29
_symmetry_space_group_name_H-M   'P 1'
_cell_length_a   9.76747900
_cell_length_b   9.79711770
_cell_length_c   14.13674154
_cell_angle_alpha   90.14820422
_cell_angle_beta   90.07405588
_cell_angle_gamma   119.75439543
_symmetry_Int_Tables_number   1
_chemical_formula_structural   Li4V3P8O29
_chemical_formula_sum   'Li8 V6 P16 O58'
_cell_volume   1174.42938539
_cell_formula_units_Z   2
loop_
 _symmetry_equiv_pos_site_id
 _symmetry_equiv_pos_as_xyz
  1  'x, y, z'
loop_
 _atom_site_type_symbol
 _atom_site_label
 _atom_site_symmetry_multiplicity
 _atom_site_fract_x
 _atom_site_fract_y
 _atom_site_fract_z
 _atom_site_occupancy
  Li  Li0  1  0.09586500  0.32301500  0.44552200  1
  Li  Li1  1  0.69362000  0.77599000  0.44416000  1
  Li  Li2  1  0.68756100  0.91635400  0.93818600  1
  Li  Li3  1  0.09622800  0.77125300  0.93515500  1
  Li  Li4  1  0.77294100  0.09243500  0.56322700  1
  Li  Li5  1  0.22336500  0.91337600  0.44494100  1
  Li  Li6  1  0.31527600  0.09302100  0.05338600  1
  Li  Li7  1  0.77062800  0.68112500  0.05504700  1
  V  V8  1  0.56893100  0.00036700  0.75088700  1
  V  V9  1  0.43189900  0.00031200  0.24848500  1
  V  V10  1  0.99855900  0.43109100  0.24650900  1
  V  V11  1  0.99512400  0.56240600  0.74760400  1
  V  V12  1  0.42800600  0.43103400  0.75087300  1
  V  V13  1  0.56122100  0.56294600  0.25199800  1
  P  P14  1  0.22816900  0.31390000  0.15760200  1
  P  P15  1  0.08691000  0.31610100  0.66066700  1
  P  P16  1  0.68081300  0.76714800  0.65747100  1
  P  P17  1  0.33464000  0.66812700  0.87173600  1
  P  P18  1  0.32992900  0.66525000  0.37075100  1
  P  P19  1  0.67993900  0.90929300  0.15886800  1
  P  P20  1  0.76973600  0.08980000  0.33994000  1
  P  P21  1  0.08487900  0.76697000  0.15596100  1
  P  P22  1  0.91739500  0.23088000  0.84481300  1
  P  P23  1  0.22977100  0.90854900  0.65965700  1
  P  P24  1  0.31945300  0.08995800  0.83890800  1
  P  P25  1  0.66444500  0.33244800  0.62938400  1
  P  P26  1  0.66603800  0.33603900  0.13009300  1
  P  P27  1  0.31332700  0.22843800  0.34195200  1
  P  P28  1  0.91344700  0.68359900  0.33926400  1
  P  P29  1  0.76807100  0.68073000  0.83980500  1
  O  O30  1  0.23352900  0.23975000  0.42776500  1
  O  O31  1  0.25492400  0.33968000  0.66469300  1
  O  O32  1  0.00635100  0.23813900  0.93004700  1
  O  O33  1  0.08585700  0.34194500  0.16558200  1
  O  O34  1  0.38126900  0.47549900  0.17856700  1
  O  O35  1  0.33474000  0.51995800  0.82439200  1
  O  O36  1  0.52145400  0.61723000  0.67808700  1
  O  O37  1  0.76056600  0.76091600  0.92899500  1
  O  O38  1  0.66025200  0.74099900  0.16519700  1
  O  O39  1  0.18309700  0.51281300  0.32817300  1
  O  O40  1  0.09695900  0.47824400  0.67773100  1
  O  O41  1  0.48427900  0.66879700  0.32711300  1
  O  O42  1  0.33618300  0.66666100  0.97704000  1
  O  O43  1  0.33534700  0.65587800  0.47552000  1
  O  O44  1  0.48871700  0.81400600  0.83270400  1
  O  O45  1  0.09765200  0.61771400  0.17736500  1
  O  O46  1  0.18366900  0.66905000  0.83227700  1
  O  O47  1  0.66368500  0.91664700  0.66158000  1
  O  O48  1  0.78973600  0.99898600  0.24937000  1
  O  O49  1  0.76367400  0.00394900  0.42913100  1
  O  O50  1  0.75114000  0.98553900  0.06801700  1
  O  O51  1  0.51866400  0.90054100  0.17921300  1
  O  O52  1  0.32576800  0.81211400  0.33290300  1
  O  O53  1  0.74696300  0.08599100  0.83951700  1
  O  O54  1  0.38099000  0.89961400  0.67810200  1
  O  O55  1  0.08398200  0.74089200  0.67154600  1
  O  O56  1  0.99417500  0.20568600  0.74722300  1
  O  O57  1  0.00178400  0.24389700  0.56961900  1
  O  O58  1  0.00630900  0.77258500  0.42255000  1
  O  O59  1  0.92112300  0.25549600  0.33704700  1
  O  O60  1  0.62375900  0.10520300  0.32163600  1
  O  O61  1  0.24902000  0.91603100  0.15841300  1
  O  O62  1  0.67225200  0.18545500  0.66649300  1
  O  O63  1  0.48052200  0.10135800  0.82468200  1
  O  O64  1  0.23908600  0.00236100  0.92772000  1
  O  O65  1  0.23001600  0.98389000  0.56908700  1
  O  O66  1  0.20962700  0.00099300  0.74894300  1
  O  O67  1  0.33724600  0.08320300  0.33816800  1
  O  O68  1  0.81449300  0.33466900  0.17609100  1
  O  O69  1  0.90792200  0.38270100  0.82217600  1
  O  O70  1  0.51335900  0.18669700  0.16548100  1
  O  O71  1  0.67618600  0.35107000  0.02562800  1
  O  O72  1  0.67221300  0.34171800  0.52463900  1
  O  O73  1  0.52019300  0.33635900  0.67547000  1
  O  O74  1  0.90719200  0.52384200  0.32200000  1
  O  O75  1  0.81532800  0.48144100  0.67635000  1
  O  O76  1  0.33919300  0.25677100  0.83408900  1
  O  O77  1  0.20865400  0.20753400  0.24908600  1
  O  O78  1  0.23952200  0.23598700  0.07123400  1
  O  O79  1  0.47580400  0.38004700  0.32238300  1
  O  O80  1  0.66994100  0.48779600  0.17466200  1
  O  O81  1  0.61719700  0.52146300  0.82404500  1
  O  O82  1  0.91611500  0.66091400  0.84050600  1
  O  O83  1  0.99849000  0.75114200  0.06516600  1
  O  O84  1  0.98852700  0.78382900  0.24271000  1
  O  O85  1  0.74306800  0.65960300  0.33881300  1
  O  O86  1  0.75527900  0.75971900  0.56768200  1
  O  O87  1  0.79056700  0.78791300  0.74894500  1
