# generated using pymatgen
data_LiMg2Ir
_symmetry_space_group_name_H-M   'P 1'
_cell_length_a   11.17526412
_cell_length_b   11.17526412
_cell_length_c   11.17526412
_cell_angle_alpha   121.69885531
_cell_angle_beta   119.29806740
_cell_angle_gamma   89.15155089
_symmetry_Int_Tables_number   1
_chemical_formula_structural   LiMg2Ir
_chemical_formula_sum   'Li1 Mg2 Ir1'
_cell_volume   978.76740307
_cell_formula_units_Z   1
loop_
 _symmetry_equiv_pos_site_id
 _symmetry_equiv_pos_as_xyz
  1  'x, y, z'
loop_
 _atom_site_type_symbol
 _atom_site_label
 _atom_site_symmetry_multiplicity
 _atom_site_fract_x
 _atom_site_fract_y
 _atom_site_fract_z
 _atom_site_occupancy
  Li  Li0  1  0.00000000  0.00000000  0.00000000  1
  Mg  Mg1  1  0.00000000  0.26837200  0.26837200  1
  Mg  Mg2  1  0.00000000  0.73162800  0.73162800  1
  Ir  Ir3  1  0.00000000  0.50000000  0.50000000  1
