# generated using pymatgen
data_Li9Co7O16
_symmetry_space_group_name_H-M   'P 1'
_cell_length_a   5.10274000
_cell_length_b   7.64513786
_cell_length_c   7.75849814
_cell_angle_alpha   97.54923729
_cell_angle_beta   102.57589272
_cell_angle_gamma   102.91200263
_symmetry_Int_Tables_number   1
_chemical_formula_structural   Li9Co7O16
_chemical_formula_sum   'Li9 Co7 O16'
_cell_volume   282.73406317
_cell_formula_units_Z   1
loop_
 _symmetry_equiv_pos_site_id
 _symmetry_equiv_pos_as_xyz
  1  'x, y, z'
loop_
 _atom_site_type_symbol
 _atom_site_label
 _atom_site_symmetry_multiplicity
 _atom_site_fract_x
 _atom_site_fract_y
 _atom_site_fract_z
 _atom_site_occupancy
  Li  Li0  1  0.50789500  0.75366300  0.75280100  1
  Li  Li1  1  0.49744700  0.62727300  0.37702800  1
  Li  Li2  1  0.50000000  0.00000000  0.50000000  1
  Li  Li3  1  0.49737400  0.88140900  0.12414700  1
  Li  Li4  1  0.49210500  0.24633700  0.24719900  1
  Li  Li5  1  0.50262600  0.11859100  0.87585300  1
  Li  Li6  1  0.50000000  0.50000000  0.00000000  1
  Li  Li7  1  0.50255300  0.37272700  0.62297200  1
  Li  Li8  1  0.00000000  0.00000000  0.00000000  1
  Co  Co9  1  0.99745000  0.62663300  0.87692800  1
  Co  Co10  1  0.00255000  0.37336700  0.12307200  1
  Co  Co11  1  0.00000000  0.50000000  0.50000000  1
  Co  Co12  1  0.99733700  0.24314600  0.75469400  1
  Co  Co13  1  0.00069700  0.12427700  0.37094100  1
  Co  Co14  1  0.99930300  0.87572300  0.62905900  1
  Co  Co15  1  0.00266300  0.75685400  0.24530600  1
  O  O16  1  0.77695200  0.73656400  0.99328300  1
  O  O17  1  0.76863300  0.62434800  0.64146800  1
  O  O18  1  0.76577800  0.00941200  0.74678800  1
  O  O19  1  0.76385600  0.87174900  0.37821500  1
  O  O20  1  0.77251000  0.25864500  0.50019900  1
  O  O21  1  0.77607300  0.14642200  0.13453200  1
  O  O22  1  0.78545500  0.50095900  0.24481800  1
  O  O23  1  0.78121700  0.38717200  0.88943200  1
  O  O24  1  0.22749000  0.74135500  0.49980100  1
  O  O25  1  0.21878300  0.61282800  0.11056800  1
  O  O26  1  0.23422200  0.99058800  0.25321200  1
  O  O27  1  0.22392700  0.85357800  0.86546800  1
  O  O28  1  0.22304800  0.26343600  0.00671700  1
  O  O29  1  0.23614400  0.12825100  0.62178500  1
  O  O30  1  0.21454500  0.49904100  0.75518200  1
  O  O31  1  0.23136700  0.37565200  0.35853200  1
