# generated using pymatgen
data_Li2CrPO4F
_symmetry_space_group_name_H-M   'P 1'
_cell_length_a   7.43190159
_cell_length_b   7.87887230
_cell_length_c   7.62300318
_cell_angle_alpha   88.96168992
_cell_angle_beta   65.41912586
_cell_angle_gamma   88.94932972
_symmetry_Int_Tables_number   1
_chemical_formula_structural   Li2CrPO4F
_chemical_formula_sum   'Li8 Cr4 P4 O16 F4'
_cell_volume   405.81788448
_cell_formula_units_Z   4
loop_
 _symmetry_equiv_pos_site_id
 _symmetry_equiv_pos_as_xyz
  1  'x, y, z'
loop_
 _atom_site_type_symbol
 _atom_site_label
 _atom_site_symmetry_multiplicity
 _atom_site_fract_x
 _atom_site_fract_y
 _atom_site_fract_z
 _atom_site_occupancy
  Li  Li0  1  0.59508100  0.82873000  0.15592400  1
  Li  Li1  1  0.09508400  0.32875300  0.15594500  1
  Li  Li2  1  0.69231900  0.17570400  0.84602100  1
  Li  Li3  1  0.19229600  0.67573200  0.84604400  1
  Li  Li4  1  0.25354600  0.74762800  0.47094100  1
  Li  Li5  1  0.75353000  0.24764200  0.47097300  1
  Li  Li6  1  0.36922600  0.17310200  0.81972300  1
  Li  Li7  1  0.86921900  0.67311600  0.81973200  1
  Cr  Cr8  1  0.49668800  0.50057000  0.01182100  1
  Cr  Cr9  1  0.01785500  0.99951900  0.49706300  1
  Cr  Cr10  1  0.99664700  0.00064600  0.01193200  1
  Cr  Cr11  1  0.51769600  0.49956300  0.49715700  1
  P  P12  1  0.50067000  0.14645900  0.23136800  1
  P  P13  1  0.00065800  0.64641500  0.23132600  1
  P  P14  1  0.50334100  0.85385700  0.78024100  1
  P  P15  1  0.00337700  0.35384200  0.78021300  1
  O  O16  1  0.46676200  0.72977200  0.64243100  1
  O  O17  1  0.96677600  0.22975500  0.64241800  1
  O  O18  1  0.53999600  0.26425300  0.37024300  1
  O  O19  1  0.04000800  0.76420600  0.37017400  1
  O  O20  1  0.64104700  0.00402100  0.68234000  1
  O  O21  1  0.14105800  0.50402200  0.68233300  1
  O  O22  1  0.59251800  0.74714500  0.90300300  1
  O  O23  1  0.09253000  0.24714700  0.90300100  1
  O  O24  1  0.41500700  0.25091700  0.10268600  1
  O  O25  1  0.91500700  0.75092800  0.10268200  1
  O  O26  1  0.70052500  0.06518300  0.08144300  1
  O  O27  1  0.20053200  0.56517300  0.08142900  1
  O  O28  1  0.36735600  0.99611600  0.33433600  1
  O  O29  1  0.86732100  0.49612100  0.33433300  1
  O  O30  1  0.29779300  0.93120100  0.91173200  1
  O  O31  1  0.79782100  0.43118800  0.91171600  1
  F  F32  1  0.55026200  0.35391400  0.70836000  1
  F  F33  1  0.05027100  0.85391200  0.70835300  1
  F  F34  1  0.47032600  0.62999700  0.29169100  1
  F  F35  1  0.97033600  0.12999900  0.29168900  1
