# generated using pymatgen
data_LiCrPO4
_symmetry_space_group_name_H-M   'P 1'
_cell_length_a   5.00991815
_cell_length_b   9.46578234
_cell_length_c   6.45175864
_cell_angle_alpha   90.05998960
_cell_angle_beta   89.97239781
_cell_angle_gamma   90.00216094
_symmetry_Int_Tables_number   1
_chemical_formula_structural   LiCrPO4
_chemical_formula_sum   'Li4 Cr4 P4 O16'
_cell_volume   305.96022176
_cell_formula_units_Z   4
loop_
 _symmetry_equiv_pos_site_id
 _symmetry_equiv_pos_as_xyz
  1  'x, y, z'
loop_
 _atom_site_type_symbol
 _atom_site_label
 _atom_site_symmetry_multiplicity
 _atom_site_fract_x
 _atom_site_fract_y
 _atom_site_fract_z
 _atom_site_occupancy
  Li  Li0  1  0.02327300  0.32769600  0.75113800  1
  Li  Li1  1  0.52376200  0.82796400  0.75122400  1
  Li  Li2  1  0.52368300  0.17192800  0.24879200  1
  Li  Li3  1  0.02326300  0.67231400  0.24889600  1
  Cr  Cr4  1  0.00663000  0.99992800  0.00025300  1
  Cr  Cr5  1  0.50502200  0.50002500  0.99988500  1
  Cr  Cr6  1  0.50387300  0.50013000  0.49965800  1
  Cr  Cr7  1  0.00483500  0.00008600  0.50007100  1
  P  P8  1  0.99973700  0.31141900  0.25065600  1
  P  P9  1  0.49997800  0.81156900  0.25074100  1
  P  P10  1  0.49988400  0.18842000  0.74929000  1
  P  P11  1  0.99981500  0.68860400  0.74937300  1
  O  O12  1  0.52698700  0.35859300  0.74969900  1
  O  O13  1  0.02708200  0.85882000  0.74983200  1
  O  O14  1  0.02711400  0.14117700  0.25003600  1
  O  O15  1  0.52703900  0.64141400  0.24997600  1
  O  O16  1  0.13428000  0.36184000  0.44966000  1
  O  O17  1  0.63469400  0.86195200  0.44969900  1
  O  O18  1  0.63468100  0.13787900  0.55032400  1
  O  O19  1  0.13453800  0.63801100  0.55040700  1
  O  O20  1  0.13639900  0.36224200  0.05267600  1
  O  O21  1  0.63654500  0.86239800  0.05279000  1
  O  O22  1  0.63635500  0.13768100  0.94724300  1
  O  O23  1  0.13631200  0.63792400  0.94739700  1
  O  O24  1  0.69937300  0.35999400  0.24986100  1
  O  O25  1  0.19957100  0.86016400  0.24994900  1
  O  O26  1  0.19942100  0.13983300  0.75020100  1
  O  O27  1  0.69950800  0.63999400  0.75027400  1
