# generated using pymatgen
data_Li9Mn2Co5O16
_symmetry_space_group_name_H-M   'P 1'
_cell_length_a   8.95976876
_cell_length_b   8.95976876
_cell_length_c   5.84502417
_cell_angle_alpha   89.73237376
_cell_angle_beta   89.73237376
_cell_angle_gamma   37.64166704
_symmetry_Int_Tables_number   1
_chemical_formula_structural   Li9Mn2Co5O16
_chemical_formula_sum   'Li9 Mn2 Co5 O16'
_cell_volume   286.56134400
_cell_formula_units_Z   1
loop_
 _symmetry_equiv_pos_site_id
 _symmetry_equiv_pos_as_xyz
  1  'x, y, z'
loop_
 _atom_site_type_symbol
 _atom_site_label
 _atom_site_symmetry_multiplicity
 _atom_site_fract_x
 _atom_site_fract_y
 _atom_site_fract_z
 _atom_site_occupancy
  Li  Li0  1  0.87466100  0.12533900  0.00000000  1
  Li  Li1  1  0.12519100  0.37591500  0.49828700  1
  Li  Li2  1  0.74428900  0.49242100  0.74666300  1
  Li  Li3  1  0.00031100  0.75275600  0.25352700  1
  Li  Li4  1  0.62408500  0.87480900  0.50171300  1
  Li  Li5  1  0.50757900  0.25571100  0.25333700  1
  Li  Li6  1  0.37401900  0.62598100  0.00000000  1
  Li  Li7  1  0.24724400  0.99968900  0.74647300  1
  Li  Li8  1  0.87244200  0.12755800  0.50000000  1
  Mn  Mn9  1  0.00315400  0.74835300  0.74430900  1
  Mn  Mn10  1  0.25164700  0.99684600  0.25569100  1
  Co  Co11  1  0.50889200  0.24989900  0.74334700  1
  Co  Co12  1  0.75010100  0.49110800  0.25665300  1
  Co  Co13  1  0.12616100  0.37185400  0.99879100  1
  Co  Co14  1  0.37283100  0.62716900  0.50000000  1
  Co  Co15  1  0.62814600  0.87383900  0.00120900  1
  O  O16  1  0.76319100  0.98686800  0.98554900  1
  O  O17  1  0.00325800  0.25088800  0.47513100  1
  O  O18  1  0.59952400  0.39114700  0.73126200  1
  O  O19  1  0.87538500  0.62158100  0.22309900  1
  O  O20  1  0.49127300  0.76558600  0.48580800  1
  O  O21  1  0.36610700  0.11596200  0.24358300  1
  O  O22  1  0.24578900  0.49734300  0.97678300  1
  O  O23  1  0.12557600  0.85148200  0.73425800  1
  O  O24  1  0.01313200  0.23680900  0.01445100  1
  O  O25  1  0.23441400  0.50872700  0.51419200  1
  O  O26  1  0.88403800  0.63389300  0.75641700  1
  O  O27  1  0.14851800  0.87442400  0.26574200  1
  O  O28  1  0.74911200  0.99674200  0.52486900  1
  O  O29  1  0.60885300  0.40047600  0.26873800  1
  O  O30  1  0.50265700  0.75421100  0.02321700  1
  O  O31  1  0.37841900  0.12461500  0.77690100  1
