# generated using pymatgen
data_Li10Cr(SiO5)2
_symmetry_space_group_name_H-M   'P 1'
_cell_length_a   6.08658053
_cell_length_b   15.32748937
_cell_length_c   5.15319005
_cell_angle_alpha   80.02341780
_cell_angle_beta   90.15387656
_cell_angle_gamma   78.67674672
_symmetry_Int_Tables_number   1
_chemical_formula_structural   Li10Cr(SiO5)2
_chemical_formula_sum   'Li20 Cr2 Si4 O20'
_cell_volume   463.93008432
_cell_formula_units_Z   2
loop_
 _symmetry_equiv_pos_site_id
 _symmetry_equiv_pos_as_xyz
  1  'x, y, z'
loop_
 _atom_site_type_symbol
 _atom_site_label
 _atom_site_symmetry_multiplicity
 _atom_site_fract_x
 _atom_site_fract_y
 _atom_site_fract_z
 _atom_site_occupancy
  Li  Li0  1  0.51059730  0.98372568  0.75593136  1
  Li  Li1  1  0.35783587  0.86679534  0.23618018  1
  Li  Li2  1  0.77899410  0.86495808  0.23630009  1
  Li  Li3  1  0.12914652  0.73634401  0.48084477  1
  Li  Li4  1  0.34504732  0.73694037  0.02585413  1
  Li  Li5  1  0.91449218  0.73621238  0.02429523  1
  Li  Li6  1  0.67486040  0.64878320  0.41966683  1
  Li  Li7  1  0.43761087  0.61092605  0.78731116  1
  Li  Li8  1  0.95277996  0.61032298  0.78715444  1
  Li  Li9  1  0.73096688  0.53982704  0.13435806  1
  Li  Li10  1  0.26873051  0.46022953  0.86404671  1
  Li  Li11  1  0.56289904  0.38981566  0.20993888  1
  Li  Li12  1  0.04677878  0.38899811  0.21208681  1
  Li  Li13  1  0.33009207  0.35088261  0.57963189  1
  Li  Li14  1  0.08132996  0.26323818  0.97094030  1
  Li  Li15  1  0.64883795  0.26233786  0.97637275  1
  Li  Li16  1  0.86482983  0.26227837  0.52033946  1
  Li  Li17  1  0.64280570  0.13200581  0.76845533  1
  Li  Li18  1  0.22158249  0.12966570  0.77070038  1
  Li  Li19  1  0.49352477  0.01715515  0.24025335  1
  Cr  Cr20  1  0.04091601  0.93009202  0.87959851  1
  Cr  Cr21  1  0.96008546  0.07693919  0.14269431  1
  Si  Si22  1  0.59955679  0.80000006  0.69289059  1
  Si  Si23  1  0.21926947  0.56148933  0.30793780  1
  Si  Si24  1  0.78048489  0.43827971  0.69030531  1
  Si  Si25  1  0.39577001  0.20002549  0.30813204  1
  O  O26  1  0.55258432  0.90005368  0.49818070  1
  O  O27  1  0.08906284  0.81387913  0.13339376  1
  O  O28  1  0.59450732  0.80954603  0.00896818  1
  O  O29  1  0.40748373  0.74312338  0.63497047  1
  O  O30  1  0.84559920  0.74118552  0.63640272  1
  O  O31  1  0.96729769  0.61234823  0.16883054  1
  O  O32  1  0.42041140  0.61244439  0.16941320  1
  O  O33  1  0.21441029  0.57195629  0.61973507  1
  O  O34  1  0.72697399  0.54470438  0.73585536  1
  O  O35  1  0.27239140  0.45501250  0.26321597  1
  O  O36  1  0.78503759  0.42826625  0.37820670  1
  O  O37  1  0.03219792  0.38721705  0.82978615  1
  O  O38  1  0.58031481  0.38675073  0.82893850  1
  O  O39  1  0.14563198  0.25625850  0.36223653  1
  O  O40  1  0.58338950  0.25913765  0.36590215  1
  O  O41  1  0.40136976  0.19094977  0.99174868  1
  O  O42  1  0.90216773  0.18377130  0.86817607  1
  O  O43  1  0.44744108  0.09990839  0.50157741  1
  O  O44  1  0.25238794  0.00154400  0.99455393  1
  O  O45  1  0.76392233  0.00289394  0.99874723  1
