# generated using pymatgen
data_Li9Mn2Co5O16
_symmetry_space_group_name_H-M   'P 1'
_cell_length_a   7.74923712
_cell_length_b   7.74923712
_cell_length_c   5.17176680
_cell_angle_alpha   76.74484886
_cell_angle_beta   76.74484886
_cell_angle_gamma   97.26416127
_symmetry_Int_Tables_number   1
_chemical_formula_structural   Li9Mn2Co5O16
_chemical_formula_sum   'Li9 Mn2 Co5 O16'
_cell_volume   288.94032785
_cell_formula_units_Z   1
loop_
 _symmetry_equiv_pos_site_id
 _symmetry_equiv_pos_as_xyz
  1  'x, y, z'
loop_
 _atom_site_type_symbol
 _atom_site_label
 _atom_site_symmetry_multiplicity
 _atom_site_fract_x
 _atom_site_fract_y
 _atom_site_fract_z
 _atom_site_occupancy
  Li  Li0  1  0.87516500  0.12483500  0.50000000  1
  Li  Li1  1  0.00343900  0.50504500  0.50262500  1
  Li  Li2  1  0.12743200  0.87256800  0.50000000  1
  Li  Li3  1  0.25980000  0.25979500  0.49106800  1
  Li  Li4  1  0.37679600  0.62320400  0.50000000  1
  Li  Li5  1  0.49495500  0.99656100  0.49737500  1
  Li  Li6  1  0.62045200  0.37954800  0.50000000  1
  Li  Li7  1  0.74020500  0.74020000  0.50893200  1
  Li  Li8  1  0.49965000  0.50035000  0.00000000  1
  Mn  Mn9  1  0.00029000  0.99971000  0.00000000  1
  Mn  Mn10  1  0.74798900  0.25201100  0.00000000  1
  Co  Co11  1  0.13423000  0.37785400  0.99935400  1
  Co  Co12  1  0.25606600  0.74393400  0.00000000  1
  Co  Co13  1  0.37658800  0.12785300  0.00554200  1
  Co  Co14  1  0.62214600  0.86577000  0.00064600  1
  Co  Co15  1  0.87214700  0.62341200  0.99445800  1
  O  O16  1  0.76281300  0.01160600  0.22146800  1
  O  O17  1  0.87491200  0.36954600  0.21932600  1
  O  O18  1  0.00187400  0.76466800  0.22401500  1
  O  O19  1  0.11963700  0.11952000  0.22756900  1
  O  O20  1  0.23999600  0.50345400  0.23645500  1
  O  O21  1  0.37554300  0.88266200  0.22903600  1
  O  O22  1  0.51445900  0.24399700  0.23088500  1
  O  O23  1  0.63894600  0.64007500  0.23075100  1
  O  O24  1  0.98839400  0.23718700  0.77853200  1
  O  O25  1  0.11733800  0.62445700  0.77096400  1
  O  O26  1  0.23533200  0.99812600  0.77598500  1
  O  O27  1  0.35992500  0.36105400  0.76924900  1
  O  O28  1  0.49654600  0.76000400  0.76354500  1
  O  O29  1  0.63045400  0.12508800  0.78067400  1
  O  O30  1  0.75600300  0.48554100  0.76911500  1
  O  O31  1  0.88048000  0.88036300  0.77243100  1
