# generated using pymatgen
data_Li4V5Cr3O16
_symmetry_space_group_name_H-M   'P 1'
_cell_length_a   5.86686700
_cell_length_b   5.90281444
_cell_length_c   9.52198016
_cell_angle_alpha   89.96243121
_cell_angle_beta   90.14585138
_cell_angle_gamma   119.68798162
_symmetry_Int_Tables_number   1
_chemical_formula_structural   Li4V5Cr3O16
_chemical_formula_sum   'Li4 V5 Cr3 O16'
_cell_volume   286.46968089
_cell_formula_units_Z   1
loop_
 _symmetry_equiv_pos_site_id
 _symmetry_equiv_pos_as_xyz
  1  'x, y, z'
loop_
 _atom_site_type_symbol
 _atom_site_label
 _atom_site_symmetry_multiplicity
 _atom_site_fract_x
 _atom_site_fract_y
 _atom_site_fract_z
 _atom_site_occupancy
  Li  Li0  1  0.32953300  0.66740300  0.89519100  1
  Li  Li1  1  0.00057500  0.99957900  0.99499700  1
  Li  Li2  1  0.00264200  0.00175000  0.49624100  1
  Li  Li3  1  0.66445400  0.33429500  0.39197700  1
  V  V4  1  0.34858400  0.17579900  0.71639000  1
  V  V5  1  0.33625000  0.66817800  0.48974300  1
  V  V6  1  0.17335200  0.82896200  0.21533900  1
  V  V7  1  0.67163900  0.33023000  0.99113800  1
  V  V8  1  0.82962600  0.65775300  0.71244000  1
  Cr  Cr9  1  0.17154300  0.33949800  0.21445500  1
  Cr  Cr10  1  0.66016400  0.82775500  0.21396000  1
  Cr  Cr11  1  0.83159400  0.17023600  0.71315400  1
  O  O12  1  0.17156000  0.33789000  0.59636200  1
  O  O13  1  0.47939600  0.52280800  0.34116200  1
  O  O14  1  0.32330100  0.67402500  0.10454000  1
  O  O15  1  0.00615700  0.99491700  0.30839400  1
  O  O16  1  0.01397500  0.00698000  0.80692700  1
  O  O17  1  0.66291900  0.82918400  0.59596700  1
  O  O18  1  0.04153400  0.52722400  0.34443600  1
  O  O19  1  0.47454500  0.95952100  0.34335400  1
  O  O20  1  0.82843200  0.16912300  0.09536500  1
  O  O21  1  0.17311300  0.83588400  0.59713100  1
  O  O22  1  0.51781500  0.03997800  0.84226200  1
  O  O23  1  0.95719600  0.47855100  0.84278900  1
  O  O24  1  0.64949000  0.32204100  0.60137100  1
  O  O25  1  0.33342300  0.16393100  0.09798000  1
  O  O26  1  0.51168400  0.46963600  0.84839000  1
  O  O27  1  0.83520300  0.66657000  0.09638800  1
