# generated using pymatgen
data_Li9Mn2Co5O16
_symmetry_space_group_name_H-M   'P 1'
_cell_length_a   5.86121600
_cell_length_b   5.90380446
_cell_length_c   8.63389243
_cell_angle_alpha   88.58054356
_cell_angle_beta   70.66049840
_cell_angle_gamma   87.29763203
_symmetry_Int_Tables_number   1
_chemical_formula_structural   Li9Mn2Co5O16
_chemical_formula_sum   'Li9 Mn2 Co5 O16'
_cell_volume   281.57755136
_cell_formula_units_Z   1
loop_
 _symmetry_equiv_pos_site_id
 _symmetry_equiv_pos_as_xyz
  1  'x, y, z'
loop_
 _atom_site_type_symbol
 _atom_site_label
 _atom_site_symmetry_multiplicity
 _atom_site_fract_x
 _atom_site_fract_y
 _atom_site_fract_z
 _atom_site_occupancy
  Li  Li0  1  0.86905000  0.25908200  0.26648100  1
  Li  Li1  1  0.00000000  0.00000000  0.50000000  1
  Li  Li2  1  0.35992700  0.25860900  0.26697000  1
  Li  Li3  1  0.50000000  0.00000000  0.50000000  1
  Li  Li4  1  0.64007300  0.74139100  0.73303000  1
  Li  Li5  1  0.13095000  0.74091800  0.73351900  1
  Li  Li6  1  0.25449300  0.50186400  0.99384000  1
  Li  Li7  1  0.74550700  0.49813600  0.00616000  1
  Li  Li8  1  0.00000000  0.50000000  0.50000000  1
  Mn  Mn9  1  0.75014400  0.99841400  0.99739700  1
  Mn  Mn10  1  0.24985600  0.00158600  0.00260300  1
  Co  Co11  1  0.87300500  0.74449400  0.25520900  1
  Co  Co12  1  0.12699500  0.25550600  0.74479100  1
  Co  Co13  1  0.36175700  0.74179400  0.25877800  1
  Co  Co14  1  0.50000000  0.50000000  0.50000000  1
  Co  Co15  1  0.63824300  0.25820600  0.74122200  1
  O  O16  1  0.64386000  0.98098200  0.23234700  1
  O  O17  1  0.73621800  0.72696400  0.48268500  1
  O  O18  1  0.14582900  0.99683100  0.23995700  1
  O  O19  1  0.26791500  0.74332600  0.48656300  1
  O  O20  1  0.40449600  0.49480900  0.73926500  1
  O  O21  1  0.88443500  0.47891200  0.75966000  1
  O  O22  1  0.99310000  0.22009900  0.99431600  1
  O  O23  1  0.49648700  0.22207100  0.99229700  1
  O  O24  1  0.11556500  0.52108800  0.24034000  1
  O  O25  1  0.26378200  0.27303600  0.51731500  1
  O  O26  1  0.59550400  0.50519100  0.26073500  1
  O  O27  1  0.73208500  0.25667400  0.51343700  1
  O  O28  1  0.85417100  0.00316900  0.76004300  1
  O  O29  1  0.35614000  0.01901800  0.76765300  1
  O  O30  1  0.50351300  0.77792900  0.00770300  1
  O  O31  1  0.00690000  0.77990100  0.00568400  1
