# generated using pymatgen
data_Li3MnV(PO4)3
_symmetry_space_group_name_H-M   'P 1'
_cell_length_a   8.55791400
_cell_length_b   8.86503769
_cell_length_c   12.40447947
_cell_angle_alpha   90.52609506
_cell_angle_beta   92.42084215
_cell_angle_gamma   90.64268002
_symmetry_Int_Tables_number   1
_chemical_formula_structural   Li3MnV(PO4)3
_chemical_formula_sum   'Li12 Mn4 V4 P12 O48'
_cell_volume   940.13814628
_cell_formula_units_Z   4
loop_
 _symmetry_equiv_pos_site_id
 _symmetry_equiv_pos_as_xyz
  1  'x, y, z'
loop_
 _atom_site_type_symbol
 _atom_site_label
 _atom_site_symmetry_multiplicity
 _atom_site_fract_x
 _atom_site_fract_y
 _atom_site_fract_z
 _atom_site_occupancy
  Li  Li0  1  0.00334400  0.99070900  0.99922700  1
  Li  Li1  1  0.99028300  0.88955300  0.75457400  1
  Li  Li2  1  0.99316200  0.00057800  0.49864200  1
  Li  Li3  1  0.97580500  0.11724700  0.24406100  1
  Li  Li4  1  0.27024300  0.19768600  0.93466500  1
  Li  Li5  1  0.27275500  0.79269000  0.43227700  1
  Li  Li6  1  0.51040100  0.49124000  0.00461300  1
  Li  Li7  1  0.50437400  0.59372200  0.73662100  1
  Li  Li8  1  0.48979800  0.49936600  0.49788200  1
  Li  Li9  1  0.50003100  0.41182000  0.24838500  1
  Li  Li10  1  0.72287400  0.19104800  0.55997500  1
  Li  Li11  1  0.71906100  0.78465700  0.06585300  1
  Mn  Mn12  1  0.20383900  0.49718900  0.35049100  1
  Mn  Mn13  1  0.71346000  0.00463400  0.35630900  1
  Mn  Mn14  1  0.78911700  0.50087000  0.64348800  1
  Mn  Mn15  1  0.79578100  0.49586600  0.14755000  1
  V  V16  1  0.21477800  0.49984400  0.85532500  1
  V  V17  1  0.28675000  0.00065800  0.64316900  1
  V  V18  1  0.28985600  0.00007300  0.14518800  1
  V  V19  1  0.71846900  0.99845300  0.85940200  1
  P  P20  1  0.00131200  0.19600900  0.74807600  1
  P  P21  1  0.99883900  0.81318000  0.25107400  1
  P  P22  1  0.16360700  0.64319800  0.60691000  1
  P  P23  1  0.17190000  0.35283200  0.10530700  1
  P  P24  1  0.35013100  0.85339500  0.89787800  1
  P  P25  1  0.35692000  0.14501600  0.40023500  1
  P  P26  1  0.49819600  0.28781100  0.74940500  1
  P  P27  1  0.49787800  0.71725500  0.24771700  1
  P  P28  1  0.65106400  0.85432400  0.60848000  1
  P  P29  1  0.65406400  0.14936500  0.10159000  1
  P  P30  1  0.84335300  0.63935700  0.89229600  1
  P  P31  1  0.82872400  0.35913700  0.39676200  1
  O  O32  1  0.00798700  0.57738100  0.88847700  1
  O  O33  1  0.99520400  0.41401400  0.39254100  1
  O  O34  1  0.07448600  0.08460000  0.66346600  1
  O  O35  1  0.07216600  0.92478300  0.16617900  1
  O  O36  1  0.12756700  0.29361500  0.80805500  1
  O  O37  1  0.12141900  0.72367800  0.31475200  1
  O  O38  1  0.15862000  0.82245100  0.59481600  1
  O  O39  1  0.17067300  0.17442600  0.08552700  1
  O  O40  1  0.25610000  0.59607000  0.71072400  1
  O  O41  1  0.25461900  0.93795500  0.98460000  1
  O  O42  1  0.25838300  0.59245200  0.51082900  1
  O  O43  1  0.27522800  0.39666500  0.20414600  1
  O  O44  1  0.25704600  0.05552000  0.48375300  1
  O  O45  1  0.27198600  0.90864200  0.78887300  1
  O  O46  1  0.25502100  0.41049100  0.00390700  1
  O  O47  1  0.28075300  0.09462900  0.28845200  1
  O  O48  1  0.33777800  0.68074900  0.91175000  1
  O  O49  1  0.35421900  0.31559600  0.41664500  1
  O  O50  1  0.36759600  0.18897900  0.68969700  1
  O  O51  1  0.36589800  0.81590400  0.19160900  1
  O  O52  1  0.42909600  0.39320000  0.83569900  1
  O  O53  1  0.43115300  0.61697900  0.33565100  1
  O  O54  1  0.47863700  0.91451700  0.60639000  1
  O  O55  1  0.48400800  0.08181000  0.10308700  1
  O  O56  1  0.52472800  0.89198400  0.90688800  1
  O  O57  1  0.52895500  0.09591600  0.41229400  1
  O  O58  1  0.56537400  0.38876000  0.66066100  1
  O  O59  1  0.56376700  0.62160300  0.15603000  1
  O  O60  1  0.61530900  0.18415500  0.80482700  1
  O  O61  1  0.62030900  0.82325100  0.30173100  1
  O  O62  1  0.63094300  0.68259200  0.59191600  1
  O  O63  1  0.63292700  0.31911300  0.08354500  1
  O  O64  1  0.73283600  0.89342400  0.71922600  1
  O  O65  1  0.74508300  0.58573200  0.98622200  1
  O  O66  1  0.74641600  0.11188200  0.20616500  1
  O  O67  1  0.74988900  0.93855800  0.52704900  1
  O  O68  1  0.74858100  0.59165000  0.78659900  1
  O  O69  1  0.73929600  0.41514800  0.49748300  1
  O  O70  1  0.74672500  0.06700100  0.01264700  1
  O  O71  1  0.72604400  0.40300900  0.29804600  1
  O  O72  1  0.86225400  0.81585100  0.90696800  1
  O  O73  1  0.84041100  0.18149400  0.41403600  1
  O  O74  1  0.87563000  0.28181100  0.68423600  1
  O  O75  1  0.87685100  0.72130900  0.18525600  1
  O  O76  1  0.93808600  0.08707100  0.83526300  1
  O  O77  1  0.92854600  0.92535000  0.33597000  1
  O  O78  1  0.99270700  0.59415200  0.60870300  1
  O  O79  1  0.00252500  0.39529400  0.11518600  1
