# generated using pymatgen
data_Li7Mn2(CoO4)3
_symmetry_space_group_name_H-M   'P 1'
_cell_length_a   2.95542464
_cell_length_b   2.95542464
_cell_length_c   29.01654900
_cell_angle_alpha   90.00000000
_cell_angle_beta   90.00000000
_cell_angle_gamma   120.00001429
_symmetry_Int_Tables_number   1
_chemical_formula_structural   Li7Mn2(CoO4)3
_chemical_formula_sum   'Li7 Mn2 Co3 O12'
_cell_volume   219.49069208
_cell_formula_units_Z   1
loop_
 _symmetry_equiv_pos_site_id
 _symmetry_equiv_pos_as_xyz
  1  'x, y, z'
loop_
 _atom_site_type_symbol
 _atom_site_label
 _atom_site_symmetry_multiplicity
 _atom_site_fract_x
 _atom_site_fract_y
 _atom_site_fract_z
 _atom_site_occupancy
  Li  Li0  1  0.00000000  0.00000000  0.24735400  1
  Li  Li1  1  0.33333300  0.66666700  0.41147900  1
  Li  Li2  1  0.66666700  0.33333300  0.58735400  1
  Li  Li3  1  0.00000000  0.00000000  0.75174800  1
  Li  Li4  1  0.33333300  0.66666700  0.91124500  1
  Li  Li5  1  0.66666700  0.33333300  0.09178400  1
  Li  Li6  1  0.33333300  0.66666700  0.16654000  1
  Mn  Mn7  1  0.00000000  0.00000000  0.99896800  1
  Mn  Mn8  1  0.00000000  0.00000000  0.50038600  1
  Co  Co9  1  0.66666700  0.33333300  0.33279100  1
  Co  Co10  1  0.33333300  0.66666700  0.66781500  1
  Co  Co11  1  0.66666700  0.33333300  0.83258900  1
  O  O12  1  0.00000000  0.00000000  0.37342300  1
  O  O13  1  0.33333300  0.66666700  0.53857300  1
  O  O14  1  0.66666700  0.33333300  0.70489100  1
  O  O15  1  0.00000000  0.00000000  0.87283700  1
  O  O16  1  0.33333300  0.66666700  0.03412900  1
  O  O17  1  0.66666700  0.33333300  0.20913500  1
  O  O18  1  0.00000000  0.00000000  0.12381600  1
  O  O19  1  0.33333300  0.66666700  0.29614600  1
  O  O20  1  0.66666700  0.33333300  0.46300200  1
  O  O21  1  0.00000000  0.00000000  0.62861000  1
  O  O22  1  0.33333300  0.66666700  0.79384000  1
  O  O23  1  0.66666700  0.33333300  0.96154400  1
