# generated using pymatgen
data_Li2IrO3
_symmetry_space_group_name_H-M   'P 1'
_cell_length_a   9.94183125
_cell_length_b   9.49026808
_cell_length_c   5.14421261
_cell_angle_alpha   79.56287132
_cell_angle_beta   69.84855001
_cell_angle_gamma   30.58857867
_symmetry_Int_Tables_number   1
_chemical_formula_structural   Li2IrO3
_chemical_formula_sum   'Li8 Ir4 O12'
_cell_volume   224.99828480
_cell_formula_units_Z   4
loop_
 _symmetry_equiv_pos_site_id
 _symmetry_equiv_pos_as_xyz
  1  'x, y, z'
loop_
 _atom_site_type_symbol
 _atom_site_label
 _atom_site_symmetry_multiplicity
 _atom_site_fract_x
 _atom_site_fract_y
 _atom_site_fract_z
 _atom_site_occupancy
  Li  Li0  1  0.08071300  0.08071300  0.91928700  1
  Li  Li1  1  0.91928700  0.91928700  0.08071300  1
  Li  Li2  1  0.16928700  0.16928700  0.33071300  1
  Li  Li3  1  0.33071300  0.33071300  0.16928700  1
  Li  Li4  1  0.24914100  0.24914100  0.75085900  1
  Li  Li5  1  0.75085900  0.75085900  0.24914100  1
  Li  Li6  1  0.00085900  0.00085900  0.49914100  1
  Li  Li7  1  0.49914100  0.49914100  0.00085900  1
  Ir  Ir8  1  0.41533700  0.41533700  0.58466300  1
  Ir  Ir9  1  0.58466300  0.58466300  0.41533700  1
  Ir  Ir10  1  0.83466300  0.83466300  0.66533700  1
  Ir  Ir11  1  0.66533700  0.66533700  0.83466300  1
  O  O12  1  0.26668100  0.73331900  0.73331900  1
  O  O13  1  0.73331900  0.26668100  0.26668100  1
  O  O14  1  0.98331900  0.51668100  0.51668100  1
  O  O15  1  0.51668100  0.98331900  0.98331900  1
  O  O16  1  0.82652800  0.34378700  0.66116400  1
  O  O17  1  0.16852100  0.66116400  0.34378700  1
  O  O18  1  0.66116400  0.16852100  0.82652800  1
  O  O19  1  0.34378700  0.82652800  0.16852100  1
  O  O20  1  0.42347200  0.90621300  0.58883600  1
  O  O21  1  0.08147900  0.58883600  0.90621300  1
  O  O22  1  0.58883600  0.08147900  0.42347200  1
  O  O23  1  0.90621300  0.42347200  0.08147900  1
