# generated using pymatgen
data_NaLi2Tl
_symmetry_space_group_name_H-M   'P 1'
_cell_length_a   11.94492165
_cell_length_b   11.94492165
_cell_length_c   11.94492165
_cell_angle_alpha   120.23266495
_cell_angle_beta   118.35235918
_cell_angle_gamma   91.23738572
_symmetry_Int_Tables_number   1
_chemical_formula_structural   NaLi2Tl
_chemical_formula_sum   'Na1 Li2 Tl1'
_cell_volume   1217.31359062
_cell_formula_units_Z   1
loop_
 _symmetry_equiv_pos_site_id
 _symmetry_equiv_pos_as_xyz
  1  'x, y, z'
loop_
 _atom_site_type_symbol
 _atom_site_label
 _atom_site_symmetry_multiplicity
 _atom_site_fract_x
 _atom_site_fract_y
 _atom_site_fract_z
 _atom_site_occupancy
  Na  Na0  1  0.00000000  0.00000000  0.00000000  1
  Li  Li1  1  0.74015600  0.00000000  0.74015600  1
  Li  Li2  1  0.25984400  0.00000000  0.25984400  1
  Tl  Tl3  1  0.50000000  0.00000000  0.50000000  1
