# generated using pymatgen
data_Li9Mn2Co5O16
_symmetry_space_group_name_H-M   'P 1'
_cell_length_a   6.56696000
_cell_length_b   6.65341845
_cell_length_c   7.69010383
_cell_angle_alpha   65.13682967
_cell_angle_beta   75.26142096
_cell_angle_gamma   72.18346402
_symmetry_Int_Tables_number   1
_chemical_formula_structural   Li9Mn2Co5O16
_chemical_formula_sum   'Li9 Mn2 Co5 O16'
_cell_volume   287.14584781
_cell_formula_units_Z   1
loop_
 _symmetry_equiv_pos_site_id
 _symmetry_equiv_pos_as_xyz
  1  'x, y, z'
loop_
 _atom_site_type_symbol
 _atom_site_label
 _atom_site_symmetry_multiplicity
 _atom_site_fract_x
 _atom_site_fract_y
 _atom_site_fract_z
 _atom_site_occupancy
  Li  Li0  1  0.06973000  0.44480600  0.67969600  1
  Li  Li1  1  0.31383000  0.19440400  0.43533900  1
  Li  Li2  1  0.68471300  0.80609800  0.56553300  1
  Li  Li3  1  0.93309700  0.55586800  0.32038800  1
  Li  Li4  1  0.55648400  0.93666900  0.19064700  1
  Li  Li5  1  0.19180200  0.30866600  0.06545700  1
  Li  Li6  1  0.80916200  0.69055200  0.93281400  1
  Li  Li7  1  0.43939100  0.06428900  0.81116600  1
  Li  Li8  1  0.49917000  0.50113100  0.49853500  1
  Mn  Mn9  1  0.00360900  0.00007300  0.00105600  1
  Mn  Mn10  1  0.74705500  0.25102600  0.25067500  1
  Co  Co11  1  0.25327900  0.73868100  0.74698700  1
  Co  Co12  1  0.86669100  0.12416000  0.62459100  1
  Co  Co13  1  0.13953700  0.86670800  0.38122800  1
  Co  Co14  1  0.37654800  0.62461100  0.12715900  1
  Co  Co15  1  0.62464000  0.38046300  0.86462400  1
  O  O16  1  0.14095900  0.07978800  0.73179300  1
  O  O17  1  0.38849500  0.85313000  0.46687900  1
  O  O18  1  0.77792800  0.45634700  0.61350500  1
  O  O19  1  0.00990700  0.21679000  0.34440000  1
  O  O20  1  0.65328000  0.56383100  0.21462400  1
  O  O21  1  0.26143800  0.97497300  0.08946300  1
  O  O22  1  0.90161100  0.31681000  0.98508900  1
  O  O23  1  0.51723900  0.70562000  0.86149600  1
  O  O24  1  0.97344000  0.78858000  0.65124400  1
  O  O25  1  0.22643000  0.55073000  0.38150900  1
  O  O26  1  0.61538300  0.15541000  0.51978100  1
  O  O27  1  0.85666100  0.92754900  0.26842400  1
  O  O28  1  0.49485600  0.27562500  0.15098600  1
  O  O29  1  0.09942500  0.68551300  0.03046000  1
  O  O30  1  0.73672500  0.03422200  0.90740900  1
  O  O31  1  0.33749200  0.42688400  0.78704000  1
