# generated using pymatgen
data_Li5Ti2V3O10
_symmetry_space_group_name_H-M   'P 1'
_cell_length_a   6.64859507
_cell_length_b   7.91974724
_cell_length_c   7.88660077
_cell_angle_alpha   65.86211210
_cell_angle_beta   89.86716540
_cell_angle_gamma   89.94020638
_symmetry_Int_Tables_number   1
_chemical_formula_structural   Li5Ti2V3O10
_chemical_formula_sum   'Li10 Ti4 V6 O20'
_cell_volume   378.95985493
_cell_formula_units_Z   2
loop_
 _symmetry_equiv_pos_site_id
 _symmetry_equiv_pos_as_xyz
  1  'x, y, z'
loop_
 _atom_site_type_symbol
 _atom_site_label
 _atom_site_symmetry_multiplicity
 _atom_site_fract_x
 _atom_site_fract_y
 _atom_site_fract_z
 _atom_site_occupancy
  Li  Li0  1  0.74714900  0.74925800  0.49844300  1
  Li  Li1  1  0.24750400  0.25053800  0.50175100  1
  Li  Li2  1  0.35615100  0.86930100  0.59312800  1
  Li  Li3  1  0.85706200  0.36990400  0.59044400  1
  Li  Li4  1  0.63879500  0.13633800  0.40294100  1
  Li  Li5  1  0.14156200  0.63357400  0.40452200  1
  Li  Li6  1  0.45772200  0.93384300  0.22081100  1
  Li  Li7  1  0.95711900  0.43549900  0.22023700  1
  Li  Li8  1  0.53726100  0.06822900  0.77397700  1
  Li  Li9  1  0.03853500  0.56631100  0.77315100  1
  Ti  Ti10  1  0.05708700  0.03939200  0.31044300  1
  Ti  Ti11  1  0.55520600  0.53809900  0.30509200  1
  Ti  Ti12  1  0.93594800  0.96166900  0.69010600  1
  Ti  Ti13  1  0.44043900  0.46628900  0.68727800  1
  V  V14  1  0.33767000  0.34465400  0.09606100  1
  V  V15  1  0.65069800  0.65625100  0.89483400  1
  V  V16  1  0.15162200  0.15617600  0.89807500  1
  V  V17  1  0.74780300  0.25547400  0.99504900  1
  V  V18  1  0.25118000  0.75329800  0.99527100  1
  V  V19  1  0.84521800  0.84569200  0.10015000  1
  O  O20  1  0.13618000  0.90304700  0.15200900  1
  O  O21  1  0.63258000  0.40247500  0.15084100  1
  O  O22  1  0.85367200  0.09350600  0.84723900  1
  O  O23  1  0.35014700  0.59541800  0.84362700  1
  O  O24  1  0.45151200  0.67794900  0.45340000  1
  O  O25  1  0.95196000  0.17713600  0.45389400  1
  O  O26  1  0.54399000  0.32593900  0.53770800  1
  O  O27  1  0.04231400  0.82526700  0.53999800  1
  O  O28  1  0.55233100  0.78998500  0.06941900  1
  O  O29  1  0.04712500  0.28928600  0.06864000  1
  O  O30  1  0.44769300  0.21881500  0.92928100  1
  O  O31  1  0.94904300  0.72086500  0.93132400  1
  O  O32  1  0.23066900  0.00251600  0.74725000  1
  O  O33  1  0.73271200  0.50103300  0.74287100  1
  O  O34  1  0.76727700  0.99933800  0.24081200  1
  O  O35  1  0.26685300  0.50004000  0.24242600  1
  O  O36  1  0.33108500  0.09600600  0.33617800  1
  O  O37  1  0.83288700  0.59834700  0.33352900  1
  O  O38  1  0.66301200  0.90892600  0.65189300  1
  O  O39  1  0.16519800  0.40575200  0.65397400  1
