# generated using pymatgen
data_Li2Ti3FeO8
_symmetry_space_group_name_H-M   'P 1'
_cell_length_a   8.49646600
_cell_length_b   8.49646600
_cell_length_c   8.49646600
_cell_angle_alpha   90.00000000
_cell_angle_beta   90.00000000
_cell_angle_gamma   90.00000000
_symmetry_Int_Tables_number   1
_chemical_formula_structural   Li2Ti3FeO8
_chemical_formula_sum   'Li8 Ti12 Fe4 O32'
_cell_volume   613.35932393
_cell_formula_units_Z   4
loop_
 _symmetry_equiv_pos_site_id
 _symmetry_equiv_pos_as_xyz
  1  'x, y, z'
loop_
 _atom_site_type_symbol
 _atom_site_label
 _atom_site_symmetry_multiplicity
 _atom_site_fract_x
 _atom_site_fract_y
 _atom_site_fract_z
 _atom_site_occupancy
  Li  Li0  1  0.12596600  0.87403400  0.37403400  1
  Li  Li1  1  0.24667400  0.74667400  0.75332600  1
  Li  Li2  1  0.25332600  0.25332600  0.25332600  1
  Li  Li3  1  0.37403400  0.12596600  0.87403400  1
  Li  Li4  1  0.62596600  0.62596600  0.62596600  1
  Li  Li5  1  0.74667400  0.75332600  0.24667400  1
  Li  Li6  1  0.75332600  0.24667400  0.74667400  1
  Li  Li7  1  0.87403400  0.37403400  0.12596600  1
  Ti  Ti8  1  0.11641900  0.62180000  0.12840200  1
  Ti  Ti9  1  0.12180000  0.37159800  0.88358100  1
  Ti  Ti10  1  0.12840200  0.11641900  0.62180000  1
  Ti  Ti11  1  0.37159800  0.88358100  0.12180000  1
  Ti  Ti12  1  0.37820000  0.62840200  0.38358100  1
  Ti  Ti13  1  0.38358100  0.37820000  0.62840200  1
  Ti  Ti14  1  0.61641900  0.87820000  0.87159800  1
  Ti  Ti15  1  0.62180000  0.12840200  0.11641900  1
  Ti  Ti16  1  0.62840200  0.38358100  0.37820000  1
  Ti  Ti17  1  0.87159800  0.61641900  0.87820000  1
  Ti  Ti18  1  0.87820000  0.87159800  0.61641900  1
  Ti  Ti19  1  0.88358100  0.12180000  0.37159800  1
  Fe  Fe20  1  0.00154600  0.49845400  0.50154600  1
  Fe  Fe21  1  0.49845400  0.50154600  0.00154600  1
  Fe  Fe22  1  0.50154600  0.00154600  0.49845400  1
  Fe  Fe23  1  0.99845400  0.99845400  0.99845400  1
  O  O24  1  0.10334600  0.12681800  0.39049800  1
  O  O25  1  0.10950200  0.89665400  0.62681800  1
  O  O26  1  0.11067300  0.61067300  0.88932700  1
  O  O27  1  0.12681800  0.39049800  0.10334600  1
  O  O28  1  0.12227500  0.14611800  0.85895000  1
  O  O29  1  0.13860000  0.36140000  0.63860000  1
  O  O30  1  0.14105000  0.62227500  0.35388200  1
  O  O31  1  0.14611800  0.85895000  0.12227500  1
  O  O32  1  0.35388200  0.14105000  0.62227500  1
  O  O33  1  0.35895000  0.37772500  0.85388200  1
  O  O34  1  0.36140000  0.63860000  0.13860000  1
  O  O35  1  0.37772500  0.85388200  0.35895000  1
  O  O36  1  0.37318200  0.60950200  0.60334600  1
  O  O37  1  0.38932700  0.38932700  0.38932700  1
  O  O38  1  0.39049800  0.10334600  0.12681800  1
  O  O39  1  0.39665400  0.87318200  0.89049800  1
  O  O40  1  0.60334600  0.37318200  0.60950200  1
  O  O41  1  0.60950200  0.60334600  0.37318200  1
  O  O42  1  0.61067300  0.88932700  0.11067300  1
  O  O43  1  0.62681800  0.10950200  0.89665400  1
  O  O44  1  0.62227500  0.35388200  0.14105000  1
  O  O45  1  0.63860000  0.13860000  0.36140000  1
  O  O46  1  0.64105000  0.87772500  0.64611800  1
  O  O47  1  0.64611800  0.64105000  0.87772500  1
  O  O48  1  0.85388200  0.35895000  0.37772500  1
  O  O49  1  0.85895000  0.12227500  0.14611800  1
  O  O50  1  0.86140000  0.86140000  0.86140000  1
  O  O51  1  0.87772500  0.64611800  0.64105000  1
  O  O52  1  0.87318200  0.89049800  0.39665400  1
  O  O53  1  0.88932700  0.11067300  0.61067300  1
  O  O54  1  0.89049800  0.39665400  0.87318200  1
  O  O55  1  0.89665400  0.62681800  0.10950200  1
