# generated using pymatgen
data_Li3V2(GeO4)3
_symmetry_space_group_name_H-M   'P 1'
_cell_length_a   10.48706881
_cell_length_b   10.48706881
_cell_length_c   10.48706881
_cell_angle_alpha   109.47122063
_cell_angle_beta   109.47122063
_cell_angle_gamma   109.47122063
_symmetry_Int_Tables_number   1
_chemical_formula_structural   Li3V2(GeO4)3
_chemical_formula_sum   'Li12 V8 Ge12 O48'
_cell_volume   887.85176411
_cell_formula_units_Z   4
loop_
 _symmetry_equiv_pos_site_id
 _symmetry_equiv_pos_as_xyz
  1  'x, y, z'
loop_
 _atom_site_type_symbol
 _atom_site_label
 _atom_site_symmetry_multiplicity
 _atom_site_fract_x
 _atom_site_fract_y
 _atom_site_fract_z
 _atom_site_occupancy
  Li  Li0  1  0.75000000  0.62500000  0.87500000  1
  Li  Li1  1  0.25000000  0.87500000  0.62500000  1
  Li  Li2  1  0.62500000  0.25000000  0.87500000  1
  Li  Li3  1  0.87500000  0.75000000  0.62500000  1
  Li  Li4  1  0.87500000  0.62500000  0.25000000  1
  Li  Li5  1  0.62500000  0.87500000  0.75000000  1
  Li  Li6  1  0.25000000  0.37500000  0.12500000  1
  Li  Li7  1  0.75000000  0.12500000  0.37500000  1
  Li  Li8  1  0.37500000  0.75000000  0.12500000  1
  Li  Li9  1  0.12500000  0.25000000  0.37500000  1
  Li  Li10  1  0.12500000  0.37500000  0.75000000  1
  Li  Li11  1  0.37500000  0.12500000  0.25000000  1
  V  V12  1  0.50000000  0.00000000  0.50000000  1
  V  V13  1  0.00000000  0.50000000  0.00000000  1
  V  V14  1  0.50000000  0.50000000  0.50000000  1
  V  V15  1  0.00000000  0.00000000  0.50000000  1
  V  V16  1  0.00000000  0.00000000  0.00000000  1
  V  V17  1  0.00000000  0.50000000  0.50000000  1
  V  V18  1  0.50000000  0.50000000  0.00000000  1
  V  V19  1  0.50000000  0.00000000  0.00000000  1
  Ge  Ge20  1  0.37500000  0.62500000  0.75000000  1
  Ge  Ge21  1  0.62500000  0.37500000  0.25000000  1
  Ge  Ge22  1  0.62500000  0.75000000  0.37500000  1
  Ge  Ge23  1  0.25000000  0.12500000  0.87500000  1
  Ge  Ge24  1  0.87500000  0.25000000  0.12500000  1
  Ge  Ge25  1  0.75000000  0.37500000  0.62500000  1
  Ge  Ge26  1  0.25000000  0.62500000  0.37500000  1
  Ge  Ge27  1  0.75000000  0.87500000  0.12500000  1
  Ge  Ge28  1  0.12500000  0.75000000  0.87500000  1
  Ge  Ge29  1  0.37500000  0.25000000  0.62500000  1
  Ge  Ge30  1  0.87500000  0.12500000  0.75000000  1
  Ge  Ge31  1  0.12500000  0.87500000  0.25000000  1
  O  O32  1  0.51653800  0.39916400  0.82062500  1
  O  O33  1  0.82062500  0.51653800  0.39916400  1
  O  O34  1  0.80408700  0.88262600  0.98346200  1
  O  O35  1  0.42146100  0.10083600  0.61737400  1
  O  O36  1  0.88262600  0.39916400  0.07853900  1
  O  O37  1  0.67937500  0.07853900  0.69591300  1
  O  O38  1  0.82062500  0.80408700  0.42146100  1
  O  O39  1  0.39916400  0.82062500  0.51653800  1
  O  O40  1  0.61737400  0.69591300  0.51653800  1
  O  O41  1  0.42146100  0.82062500  0.80408700  1
  O  O42  1  0.39916400  0.07853900  0.88262600  1
  O  O43  1  0.10083600  0.98346200  0.67937500  1
  O  O44  1  0.98346200  0.67937500  0.10083600  1
  O  O45  1  0.80408700  0.42146100  0.82062500  1
  O  O46  1  0.51653800  0.61737400  0.69591300  1
  O  O47  1  0.69591300  0.51653800  0.61737400  1
  O  O48  1  0.07853900  0.88262600  0.39916400  1
  O  O49  1  0.98346200  0.80408700  0.88262600  1
  O  O50  1  0.07853900  0.69591300  0.67937500  1
  O  O51  1  0.38262600  0.30408700  0.48346200  1
  O  O52  1  0.61737400  0.42146100  0.10083600  1
  O  O53  1  0.10083600  0.61737400  0.42146100  1
  O  O54  1  0.69591300  0.67937500  0.07853900  1
  O  O55  1  0.67937500  0.10083600  0.98346200  1
  O  O56  1  0.48346200  0.60083600  0.17937500  1
  O  O57  1  0.17937500  0.48346200  0.60083600  1
  O  O58  1  0.19591300  0.11737400  0.01653800  1
  O  O59  1  0.57853900  0.89916400  0.38262600  1
  O  O60  1  0.11737400  0.60083600  0.92146100  1
  O  O61  1  0.32062500  0.92146100  0.30408700  1
  O  O62  1  0.17937500  0.19591300  0.57853900  1
  O  O63  1  0.60083600  0.17937500  0.48346200  1
  O  O64  1  0.32062500  0.89916400  0.01653800  1
  O  O65  1  0.30408700  0.32062500  0.92146100  1
  O  O66  1  0.89916400  0.38262600  0.57853900  1
  O  O67  1  0.11737400  0.01653800  0.19591300  1
  O  O68  1  0.38262600  0.57853900  0.89916400  1
  O  O69  1  0.92146100  0.30408700  0.32062500  1
  O  O70  1  0.01653800  0.19591300  0.11737400  1
  O  O71  1  0.92146100  0.11737400  0.60083600  1
  O  O72  1  0.30408700  0.48346200  0.38262600  1
  O  O73  1  0.48346200  0.38262600  0.30408700  1
  O  O74  1  0.19591300  0.57853900  0.17937500  1
  O  O75  1  0.01653800  0.32062500  0.89916400  1
  O  O76  1  0.89916400  0.01653800  0.32062500  1
  O  O77  1  0.60083600  0.92146100  0.11737400  1
  O  O78  1  0.57853900  0.17937500  0.19591300  1
  O  O79  1  0.88262600  0.98346200  0.80408700  1
