# generated using pymatgen
data_LiHfMg30O31
_symmetry_space_group_name_H-M   'P 1'
_cell_length_a   8.54081900
_cell_length_b   8.57206900
_cell_length_c   8.57498300
_cell_angle_alpha   90.00000000
_cell_angle_beta   90.00000000
_cell_angle_gamma   90.00000000
_symmetry_Int_Tables_number   1
_chemical_formula_structural   LiHfMg30O31
_chemical_formula_sum   'Li1 Hf1 Mg30 O31'
_cell_volume   627.79585529
_cell_formula_units_Z   1
loop_
 _symmetry_equiv_pos_site_id
 _symmetry_equiv_pos_as_xyz
  1  'x, y, z'
loop_
 _atom_site_type_symbol
 _atom_site_label
 _atom_site_symmetry_multiplicity
 _atom_site_fract_x
 _atom_site_fract_y
 _atom_site_fract_z
 _atom_site_occupancy
  Li  Li0  1  0.00000000  0.00025800  0.00000000  1
  Hf  Hf1  1  0.50000000  0.99996000  0.50000000  1
  Mg  Mg2  1  0.50000000  0.00192400  0.00000000  1
  Mg  Mg3  1  0.00000000  0.00006200  0.50000000  1
  Mg  Mg4  1  0.00000000  0.49942100  0.00000000  1
  Mg  Mg5  1  0.50000000  0.49846800  0.00000000  1
  Mg  Mg6  1  0.00000000  0.49993100  0.50000000  1
  Mg  Mg7  1  0.50000000  0.49958600  0.50000000  1
  Mg  Mg8  1  0.24203700  0.99991500  0.23994800  1
  Mg  Mg9  1  0.75796300  0.99991500  0.23994800  1
  Mg  Mg10  1  0.24203700  0.99991500  0.76005200  1
  Mg  Mg11  1  0.75796300  0.99991500  0.76005200  1
  Mg  Mg12  1  0.24894700  0.50007800  0.24795800  1
  Mg  Mg13  1  0.75105300  0.50007800  0.24795800  1
  Mg  Mg14  1  0.24894700  0.50007800  0.75204200  1
  Mg  Mg15  1  0.75105300  0.50007800  0.75204200  1
  Mg  Mg16  1  0.24450100  0.75200200  0.00000000  1
  Mg  Mg17  1  0.75549900  0.75200200  0.00000000  1
  Mg  Mg18  1  0.24419900  0.74404500  0.50000000  1
  Mg  Mg19  1  0.75580100  0.74404500  0.50000000  1
  Mg  Mg20  1  0.24606800  0.24812300  0.00000000  1
  Mg  Mg21  1  0.75393200  0.24812300  0.00000000  1
  Mg  Mg22  1  0.24452900  0.25597100  0.50000000  1
  Mg  Mg23  1  0.75547100  0.25597100  0.50000000  1
  Mg  Mg24  1  0.00000000  0.75216100  0.24645000  1
  Mg  Mg25  1  0.50000000  0.74681400  0.24643100  1
  Mg  Mg26  1  0.00000000  0.75216100  0.75355000  1
  Mg  Mg27  1  0.50000000  0.74681400  0.75356900  1
  Mg  Mg28  1  0.00000000  0.24782100  0.24584800  1
  Mg  Mg29  1  0.50000000  0.25282900  0.24574400  1
  Mg  Mg30  1  0.00000000  0.24782100  0.75415200  1
  Mg  Mg31  1  0.50000000  0.25282900  0.75425600  1
  O  O32  1  0.00000000  0.74372200  0.00000000  1
  O  O33  1  0.00000000  0.75006000  0.50000000  1
  O  O34  1  0.50000000  0.74474600  0.50000000  1
  O  O35  1  0.00000000  0.25607700  0.00000000  1
  O  O36  1  0.50000000  0.25144100  0.00000000  1
  O  O37  1  0.00000000  0.24995400  0.50000000  1
  O  O38  1  0.50000000  0.25527600  0.50000000  1
  O  O39  1  0.25001700  0.75086900  0.25229500  1
  O  O40  1  0.74998300  0.75086900  0.25229500  1
  O  O41  1  0.25001700  0.75086900  0.74770500  1
  O  O42  1  0.74998300  0.75086900  0.74770500  1
  O  O43  1  0.25077400  0.24913900  0.25145400  1
  O  O44  1  0.74922600  0.24913900  0.25145400  1
  O  O45  1  0.25077400  0.24913900  0.74854600  1
  O  O46  1  0.74922600  0.24913900  0.74854600  1
  O  O47  1  0.25586200  0.00038200  0.00000000  1
  O  O48  1  0.74413800  0.00038200  0.00000000  1
  O  O49  1  0.25432800  0.00001500  0.50000000  1
  O  O50  1  0.74567200  0.00001500  0.50000000  1
  O  O51  1  0.25070500  0.49926700  0.00000000  1
  O  O52  1  0.74929500  0.49926700  0.00000000  1
  O  O53  1  0.25032400  0.50001400  0.50000000  1
  O  O54  1  0.74967600  0.50001400  0.50000000  1
  O  O55  1  0.00000000  0.99997500  0.25845300  1
  O  O56  1  0.50000000  0.00095200  0.24644900  1
  O  O57  1  0.00000000  0.99997500  0.74154700  1
  O  O58  1  0.50000000  0.00095200  0.75355100  1
  O  O59  1  0.00000000  0.50003500  0.25195200  1
  O  O60  1  0.50000000  0.49915000  0.25132400  1
  O  O61  1  0.00000000  0.50003500  0.74804800  1
  O  O62  1  0.50000000  0.49915000  0.74867600  1
