# generated using pymatgen
data_LiCoPO4
_symmetry_space_group_name_H-M   'P 1'
_cell_length_a   5.10143045
_cell_length_b   8.34558949
_cell_length_c   8.85247817
_cell_angle_alpha   101.28261990
_cell_angle_beta   90.47888161
_cell_angle_gamma   73.06372110
_symmetry_Int_Tables_number   1
_chemical_formula_structural   LiCoPO4
_chemical_formula_sum   'Li4 Co4 P4 O16'
_cell_volume   353.10007975
_cell_formula_units_Z   4
loop_
 _symmetry_equiv_pos_site_id
 _symmetry_equiv_pos_as_xyz
  1  'x, y, z'
loop_
 _atom_site_type_symbol
 _atom_site_label
 _atom_site_symmetry_multiplicity
 _atom_site_fract_x
 _atom_site_fract_y
 _atom_site_fract_z
 _atom_site_occupancy
  Li  Li0  1  0.76120400  0.47302600  0.07654700  1
  Li  Li1  1  0.26174000  0.47495000  0.57733400  1
  Li  Li2  1  0.37620600  0.25313600  0.21139600  1
  Li  Li3  1  0.87277600  0.25835100  0.71317800  1
  Co  Co4  1  0.47159700  0.05634700  0.50915600  1
  Co  Co5  1  0.16512100  0.67133100  0.27932300  1
  Co  Co6  1  0.97230000  0.05373700  0.00928300  1
  Co  Co7  1  0.66773700  0.67309900  0.78020500  1
  P  P8  1  0.69149700  0.61814000  0.43605400  1
  P  P9  1  0.19200200  0.61502200  0.93426000  1
  P  P10  1  0.94585400  0.10970300  0.35259500  1
  P  P11  1  0.44395200  0.10907800  0.85188700  1
  O  O12  1  0.04319200  0.91497900  0.31939600  1
  O  O13  1  0.53553000  0.91389500  0.81800700  1
  O  O14  1  0.59531000  0.81271300  0.46691500  1
  O  O15  1  0.08738500  0.80974400  0.96593800  1
  O  O16  1  0.88078000  0.54898300  0.28486000  1
  O  O17  1  0.38525900  0.54824300  0.78475900  1
  O  O18  1  0.20083000  0.17906700  0.37287700  1
  O  O19  1  0.70133200  0.17576000  0.87244100  1
  O  O20  1  0.25660700  0.17616200  0.00362000  1
  O  O21  1  0.75713100  0.17771100  0.50382600  1
  O  O22  1  0.35546100  0.55361800  0.07304500  1
  O  O23  1  0.85685900  0.55520500  0.57384700  1
  O  O24  1  0.43641000  0.54888300  0.41575600  1
  O  O25  1  0.93995700  0.54253500  0.91193400  1
  O  O26  1  0.78071000  0.17326900  0.21498700  1
  O  O27  1  0.27966800  0.17449300  0.71510600  1
