# generated using pymatgen
data_RbLiSO4
_symmetry_space_group_name_H-M   'P 1'
_cell_length_a   9.56269500
_cell_length_b   5.32398700
_cell_length_c   44.59183172
_cell_angle_alpha   83.25157961
_cell_angle_beta   90.00000000
_cell_angle_gamma   90.00000000
_symmetry_Int_Tables_number   1
_chemical_formula_structural   RbLiSO4
_chemical_formula_sum   'Rb20 Li20 S20 O80'
_cell_volume   2254.51540700
_cell_formula_units_Z   20
loop_
 _symmetry_equiv_pos_site_id
 _symmetry_equiv_pos_as_xyz
  1  'x, y, z'
loop_
 _atom_site_type_symbol
 _atom_site_label
 _atom_site_symmetry_multiplicity
 _atom_site_fract_x
 _atom_site_fract_y
 _atom_site_fract_z
 _atom_site_occupancy
  Rb  Rb0  1  0.24249800  0.87736200  0.39912200  1
  Rb  Rb1  1  0.75750200  0.87736200  0.89912200  1
  Rb  Rb2  1  0.25316000  0.93506400  0.29985100  1
  Rb  Rb3  1  0.74684000  0.93506400  0.79985100  1
  Rb  Rb4  1  0.24287400  0.07442100  0.19998100  1
  Rb  Rb5  1  0.75712600  0.07442100  0.69998100  1
  Rb  Rb6  1  0.25881500  0.17800200  0.09914900  1
  Rb  Rb7  1  0.74118500  0.17800200  0.59914900  1
  Rb  Rb8  1  0.24587600  0.23035100  0.99932500  1
  Rb  Rb9  1  0.75412400  0.23035100  0.49932500  1
  Rb  Rb10  1  0.25833000  0.32619900  0.90005600  1
  Rb  Rb11  1  0.74167000  0.32619900  0.40005600  1
  Rb  Rb12  1  0.24428100  0.46973000  0.80011700  1
  Rb  Rb13  1  0.75571900  0.46973000  0.30011700  1
  Rb  Rb14  1  0.25640300  0.53035200  0.69967300  1
  Rb  Rb15  1  0.74359700  0.53035200  0.19967300  1
  Rb  Rb16  1  0.24264300  0.62987000  0.60026600  1
  Rb  Rb17  1  0.75735700  0.62987000  0.10026600  1
  Rb  Rb18  1  0.25627800  0.77356400  0.50020700  1
  Rb  Rb19  1  0.74372200  0.77356400  0.00020700  1
  Li  Li20  1  0.41412000  0.28790900  0.43600600  1
  Li  Li21  1  0.58588000  0.28790900  0.93600600  1
  Li  Li22  1  0.08541900  0.38157000  0.33583200  1
  Li  Li23  1  0.91458100  0.38157000  0.83583200  1
  Li  Li24  1  0.41410000  0.55340700  0.23623300  1
  Li  Li25  1  0.58590000  0.55340700  0.73623300  1
  Li  Li26  1  0.08532200  0.59059500  0.13582900  1
  Li  Li27  1  0.91467800  0.59059500  0.63582900  1
  Li  Li28  1  0.41373000  0.67624200  0.03590800  1
  Li  Li29  1  0.58627000  0.67624200  0.53590800  1
  Li  Li30  1  0.08252300  0.83909400  0.93598900  1
  Li  Li31  1  0.91747700  0.83909400  0.43598900  1
  Li  Li32  1  0.41530700  0.95296500  0.83584300  1
  Li  Li33  1  0.58469300  0.95296500  0.33584300  1
  Li  Li34  1  0.08822700  0.98081900  0.73573300  1
  Li  Li35  1  0.91177300  0.98081900  0.23573300  1
  Li  Li36  1  0.41596000  0.14032300  0.63582400  1
  Li  Li37  1  0.58404000  0.14032300  0.13582400  1
  Li  Li38  1  0.08303500  0.25285200  0.53593500  1
  Li  Li39  1  0.91696500  0.25285200  0.03593500  1
  S  S40  1  0.08214500  0.32060700  0.45837700  1
  S  S41  1  0.91785500  0.32060700  0.95837700  1
  S  S42  1  0.41750300  0.42695500  0.35846300  1
  S  S43  1  0.58249700  0.42695500  0.85846300  1
  S  S44  1  0.07901600  0.46220800  0.25825400  1
  S  S45  1  0.92098400  0.46220800  0.75825400  1
  S  S46  1  0.41762200  0.62140200  0.15840800  1
  S  S47  1  0.58237800  0.62140200  0.65840800  1
  S  S48  1  0.08290800  0.72550500  0.05844800  1
  S  S49  1  0.91709200  0.72550500  0.55844800  1
  S  S50  1  0.41862400  0.76084300  0.95838800  1
  S  S51  1  0.58137600  0.76084300  0.45838800  1
  S  S52  1  0.08197400  0.85939400  0.85846200  1
  S  S53  1  0.91802600  0.85939400  0.35846200  1
  S  S54  1  0.41963700  0.02497900  0.75825000  1
  S  S55  1  0.58036300  0.02497900  0.25825000  1
  S  S56  1  0.08127000  0.06356800  0.65808300  1
  S  S57  1  0.91873000  0.06356800  0.15808300  1
  S  S58  1  0.41760000  0.15568300  0.55831000  1
  S  S59  1  0.58240000  0.15568300  0.05831000  1
  O  O60  1  0.08197200  0.27625600  0.49194000  1
  O  O61  1  0.91802800  0.27625600  0.99194000  1
  O  O62  1  0.40537900  0.38335100  0.39197300  1
  O  O63  1  0.59462100  0.38335100  0.89197300  1
  O  O64  1  0.09248000  0.45560900  0.29169100  1
  O  O65  1  0.90752000  0.45560900  0.79169100  1
  O  O66  1  0.41596300  0.57857800  0.19209700  1
  O  O67  1  0.58403700  0.57857800  0.69209700  1
  O  O68  1  0.09865100  0.68414200  0.09195700  1
  O  O69  1  0.90134900  0.68414200  0.59195700  1
  O  O70  1  0.41778200  0.75850200  0.99183000  1
  O  O71  1  0.58221800  0.75850200  0.49183000  1
  O  O72  1  0.09168600  0.84507400  0.89197400  1
  O  O73  1  0.90831400  0.84507400  0.39197400  1
  O  O74  1  0.40243700  0.97272600  0.79164800  1
  O  O75  1  0.59756300  0.97272600  0.29164800  1
  O  O76  1  0.08067300  0.05972400  0.69164300  1
  O  O77  1  0.91932700  0.05972400  0.19164300  1
  O  O78  1  0.40228200  0.15257600  0.59166700  1
  O  O79  1  0.59771800  0.15257600  0.09166700  1
  O  O80  1  0.21765600  0.23418200  0.44679500  1
  O  O81  1  0.78234400  0.23418200  0.94679500  1
  O  O82  1  0.28566000  0.34728400  0.34456200  1
  O  O83  1  0.71434000  0.34728400  0.84456200  1
  O  O84  1  0.21120500  0.55892800  0.24356500  1
  O  O85  1  0.78879500  0.55892800  0.74356500  1
  O  O86  1  0.28176500  0.53840400  0.14669000  1
  O  O87  1  0.71823500  0.53840400  0.64669000  1
  O  O88  1  0.21230200  0.64130700  0.04400900  1
  O  O89  1  0.78769800  0.64130700  0.54400900  1
  O  O90  1  0.28116400  0.85480400  0.94598600  1
  O  O91  1  0.71883600  0.85480400  0.44598600  1
  O  O92  1  0.21530300  0.96007000  0.84473300  1
  O  O93  1  0.78469700  0.96007000  0.34473300  1
  O  O94  1  0.29033000  0.94972100  0.74307000  1
  O  O95  1  0.70967000  0.94972100  0.24307000  1
  O  O96  1  0.21841700  0.16060500  0.64603400  1
  O  O97  1  0.78158300  0.16060500  0.14603400  1
  O  O98  1  0.28547000  0.24760300  0.54316700  1
  O  O99  1  0.71453000  0.24760300  0.04316700  1
  O  O100  1  0.06367800  0.59659100  0.44863700  1
  O  O101  1  0.93632200  0.59659100  0.94863700  1
  O  O102  1  0.44191600  0.70207500  0.34906900  1
  O  O103  1  0.55808400  0.70207500  0.84906900  1
  O  O104  1  0.95965400  0.62874400  0.24761700  1
  O  O105  1  0.04034600  0.62874400  0.74761700  1
  O  O106  1  0.43883700  0.89630100  0.14855600  1
  O  O107  1  0.56116300  0.89630100  0.64855600  1
  O  O108  1  0.05988900  0.00069400  0.04897500  1
  O  O109  1  0.94011100  0.00069400  0.54897500  1
  O  O110  1  0.53304400  0.92907000  0.94529000  1
  O  O111  1  0.46695600  0.92907000  0.44529000  1
  O  O112  1  0.96333800  0.02726800  0.84757900  1
  O  O113  1  0.03666200  0.02726800  0.34757900  1
  O  O114  1  0.44516900  0.30117600  0.75001600  1
  O  O115  1  0.55483100  0.30117600  0.25001600  1
  O  O116  1  0.96631500  0.22991800  0.64495500  1
  O  O117  1  0.03368500  0.22991800  0.14495500  1
  O  O118  1  0.53617100  0.32349500  0.54753100  1
  O  O119  1  0.46382900  0.32349500  0.04753100  1
  O  O120  1  0.96467800  0.17629600  0.44652200  1
  O  O121  1  0.03532200  0.17629600  0.94652200  1
  O  O122  1  0.53768600  0.27882200  0.34852800  1
  O  O123  1  0.46231400  0.27882200  0.84852800  1
  O  O124  1  0.05194000  0.20037400  0.25076500  1
  O  O125  1  0.94806000  0.20037400  0.75076500  1
  O  O126  1  0.53420200  0.47334100  0.14699900  1
  O  O127  1  0.46579800  0.47334100  0.64699900  1
  O  O128  1  0.96018900  0.57911800  0.04935900  1
  O  O129  1  0.03981100  0.57911800  0.54935900  1
  O  O130  1  0.44194000  0.49797100  0.95086800  1
  O  O131  1  0.55806000  0.49797100  0.45086800  1
  O  O132  1  0.05688900  0.59987600  0.84998000  1
  O  O133  1  0.94311100  0.59987600  0.34998000  1
  O  O134  1  0.54177100  0.87949500  0.74875400  1
  O  O135  1  0.45822900  0.87949500  0.24875400  1
  O  O136  1  0.05990500  0.80059000  0.65043000  1
  O  O137  1  0.94009500  0.80059000  0.15043000  1
  O  O138  1  0.44659600  0.89280600  0.55141500  1
  O  O139  1  0.55340400  0.89280600  0.05141500  1
