# generated using pymatgen
data_Li2V3SnO8
_symmetry_space_group_name_H-M   'P 1'
_cell_length_a   6.03987012
_cell_length_b   10.56591069
_cell_length_c   6.05126002
_cell_angle_alpha   107.71804694
_cell_angle_beta   60.05249323
_cell_angle_gamma   89.99753085
_symmetry_Int_Tables_number   1
_chemical_formula_structural   Li2V3SnO8
_chemical_formula_sum   'Li4 V6 Sn2 O16'
_cell_volume   313.28998587
_cell_formula_units_Z   2
loop_
 _symmetry_equiv_pos_site_id
 _symmetry_equiv_pos_as_xyz
  1  'x, y, z'
loop_
 _atom_site_type_symbol
 _atom_site_label
 _atom_site_symmetry_multiplicity
 _atom_site_fract_x
 _atom_site_fract_y
 _atom_site_fract_z
 _atom_site_occupancy
  Li  Li0  1  0.32110500  0.56877300  0.36575900  1
  Li  Li1  1  0.81260800  0.06877600  0.36612000  1
  Li  Li2  1  0.74852800  0.74526300  0.49765800  1
  Li  Li3  1  0.25426900  0.24532300  0.49772700  1
  V  V4  1  0.21928000  0.74826800  0.01682900  1
  V  V5  1  0.75556200  0.74462900  0.00407200  1
  V  V6  1  0.49594800  0.00787300  0.00764200  1
  V  V7  1  0.74027200  0.24478100  0.00435500  1
  V  V8  1  0.26418300  0.24813800  0.01635100  1
  V  V9  1  0.99625300  0.50786100  0.00779300  1
  Sn  Sn10  1  0.17822000  0.93895200  0.64621200  1
  Sn  Sn11  1  0.67569000  0.43872700  0.64586300  1
  O  O12  1  0.12385800  0.63020500  0.77399600  1
  O  O13  1  0.60231700  0.13011900  0.77382600  1
  O  O14  1  0.37791700  0.87072700  0.23347100  1
  O  O15  1  0.88867600  0.37063300  0.23323200  1
  O  O16  1  0.90815000  0.86025900  0.21449100  1
  O  O17  1  0.37746700  0.36027100  0.21418900  1
  O  O18  1  0.13639900  0.62859600  0.20974400  1
  O  O19  1  0.62441400  0.12760800  0.21609700  1
  O  O20  1  0.65945000  0.62753000  0.21586100  1
  O  O21  1  0.15383300  0.12865400  0.20944000  1
  O  O22  1  0.84488500  0.86989500  0.77371400  1
  O  O23  1  0.34432800  0.36802000  0.77195600  1
  O  O24  1  0.38413900  0.86812800  0.77142800  1
  O  O25  1  0.88188100  0.36993300  0.77322600  1
  O  O26  1  0.61003000  0.64092600  0.76930700  1
  O  O27  1  0.12034400  0.14112800  0.76964100  1
