# generated using pymatgen
data_Li2Cr3NiO8
_symmetry_space_group_name_H-M   'P 1'
_cell_length_a   8.33167288
_cell_length_b   8.35698607
_cell_length_c   8.33588486
_cell_angle_alpha   89.99453848
_cell_angle_beta   90.00318499
_cell_angle_gamma   90.01238011
_symmetry_Int_Tables_number   1
_chemical_formula_structural   Li2Cr3NiO8
_chemical_formula_sum   'Li8 Cr12 Ni4 O32'
_cell_volume   580.40825830
_cell_formula_units_Z   4
loop_
 _symmetry_equiv_pos_site_id
 _symmetry_equiv_pos_as_xyz
  1  'x, y, z'
loop_
 _atom_site_type_symbol
 _atom_site_label
 _atom_site_symmetry_multiplicity
 _atom_site_fract_x
 _atom_site_fract_y
 _atom_site_fract_z
 _atom_site_occupancy
  Li  Li0  1  0.99748132  -0.00017557  0.00178662  1
  Li  Li1  1  0.25018890  0.25150835  0.25139953  1
  Li  Li2  1  0.24826958  0.75094241  0.74987451  1
  Li  Li3  1  0.49947404  0.00059511  0.49770025  1
  Li  Li4  1  0.49717242  0.50014573  0.99816650  1
  Li  Li5  1  0.74978276  0.24863396  0.74854564  1
  Li  Li6  1  0.74813115  0.74879252  0.24970828  1
  Li  Li7  1  0.99921153  0.49909055  0.50203897  1
  Cr  Cr8  1  0.12831208  0.12743512  0.63135144  1
  Cr  Cr9  1  0.12676110  0.37778364  0.87911542  1
  Cr  Cr10  1  0.12831631  0.63213236  0.12711004  1
  Cr  Cr11  1  0.37781223  0.38154347  0.62234642  1
  Cr  Cr12  1  0.37807057  0.62857100  0.37279034  1
  Cr  Cr13  1  0.37797535  0.87654177  0.11857522  1
  Cr  Cr14  1  0.62785415  0.37248194  0.36880364  1
  Cr  Cr15  1  0.62679811  0.12231671  0.12130353  1
  Cr  Cr16  1  0.62824834  0.86792868  0.87313777  1
  Cr  Cr17  1  0.87773418  0.11878999  0.37760475  1
  Cr  Cr18  1  0.87814945  0.87079489  0.62719824  1
  Cr  Cr19  1  0.87811412  0.62358533  0.88166980  1
  Ni  Ni20  1  0.12367084  0.87541856  0.37461447  1
  Ni  Ni21  1  0.37371023  0.12438776  0.87514427  1
  Ni  Ni22  1  0.62373977  0.62424116  0.62509253  1
  Ni  Ni23  1  0.87400532  0.37568313  0.12498321  1
  O  O24  1  0.10158271  0.12810693  0.39341179  1
  O  O25  1  0.10844656  0.88915385  0.61560760  1
  O  O26  1  0.11533781  0.61588968  0.89353815  1
  O  O27  1  0.12389489  0.14022192  0.85762191  1
  O  O28  1  0.12163362  0.39298400  0.10386226  1
  O  O29  1  0.14049204  0.36549464  0.64202101  1
  O  O30  1  0.14489964  0.61801582  0.35293576  1
  O  O31  1  0.13919020  0.85684239  0.12970046  1
  O  O32  1  0.35162467  0.14335815  0.62208973  1
  O  O33  1  0.35808798  0.36579392  0.86089501  1
  O  O34  1  0.36564977  0.64399229  0.13418956  1
  O  O35  1  0.37500188  0.60660422  0.61046255  1
  O  O36  1  0.37102192  0.85302775  0.35723410  1
  O  O37  1  0.39035256  0.39259135  0.38395149  1
  O  O38  1  0.39461444  0.10177621  0.13264389  1
  O  O39  1  0.38912729  0.87997572  0.89252927  1
  O  O40  1  0.60142428  0.37180983  0.60657466  1
  O  O41  1  0.60849771  0.61070868  0.38421955  1
  O  O42  1  0.61534227  0.88439838  0.10616090  1
  O  O43  1  0.62390297  0.35990835  0.14247959  1
  O  O44  1  0.62103718  0.10711170  0.89611555  1
  O  O45  1  0.64046863  0.13453141  0.35793609  1
  O  O46  1  0.64490099  0.88199898  0.64718985  1
  O  O47  1  0.63916986  0.64349566  0.87048103  1
  O  O48  1  0.85156548  0.35653260  0.37798659  1
  O  O49  1  0.85828577  0.13441165  0.13898757  1
  O  O50  1  0.86547570  0.85626001  0.86578880  1
  O  O51  1  0.87438770  0.89351136  0.38948721  1
  O  O52  1  0.87094238  0.64681854  0.64278191  1
  O  O53  1  0.89064297  0.10737801  0.61602613  1
  O  O54  1  0.89467850  0.39842568  0.86758793  1
  O  O55  1  0.88933279  0.61984175  0.10757767  1
