# generated using pymatgen
data_Li9Mn2Co5O16
_symmetry_space_group_name_H-M   'P 1'
_cell_length_a   5.04847100
_cell_length_b   5.09736275
_cell_length_c   11.20098692
_cell_angle_alpha   81.00880586
_cell_angle_beta   86.34578639
_cell_angle_gamma   81.26877670
_symmetry_Int_Tables_number   1
_chemical_formula_structural   Li9Mn2Co5O16
_chemical_formula_sum   'Li9 Mn2 Co5 O16'
_cell_volume   281.16732727
_cell_formula_units_Z   1
loop_
 _symmetry_equiv_pos_site_id
 _symmetry_equiv_pos_as_xyz
  1  'x, y, z'
loop_
 _atom_site_type_symbol
 _atom_site_label
 _atom_site_symmetry_multiplicity
 _atom_site_fract_x
 _atom_site_fract_y
 _atom_site_fract_z
 _atom_site_occupancy
  Li  Li0  1  0.73456300  0.56709300  0.93412100  1
  Li  Li1  1  0.25493300  0.43798600  0.06785900  1
  Li  Li2  1  0.26586800  0.68537500  0.80596900  1
  Li  Li3  1  0.74196000  0.81372100  0.68301300  1
  Li  Li4  1  0.25600800  0.93795800  0.55853900  1
  Li  Li5  1  0.75087900  0.05522200  0.43474300  1
  Li  Li6  1  0.24311900  0.18720000  0.31755400  1
  Li  Li7  1  0.75431100  0.31604400  0.19757200  1
  Li  Li8  1  0.00081500  0.74613100  0.25435700  1
  Mn  Mn9  1  0.99834100  0.99986600  0.99965000  1
  Mn  Mn10  1  0.49987100  0.87436900  0.12804600  1
  Co  Co11  1  0.50425000  0.62552100  0.37588800  1
  Co  Co12  1  0.99973000  0.50233700  0.50003500  1
  Co  Co13  1  0.49595100  0.37569400  0.62118500  1
  Co  Co14  1  0.00298700  0.25023300  0.74888300  1
  Co  Co15  1  0.49911900  0.12361200  0.87460700  1
  O  O16  1  0.13544200  0.31000200  0.90084500  1
  O  O17  1  0.63994700  0.19215000  0.02564300  1
  O  O18  1  0.61244900  0.43904800  0.78438400  1
  O  O19  1  0.11883100  0.57075900  0.65666600  1
  O  O20  1  0.61914400  0.71153700  0.53283600  1
  O  O21  1  0.13744700  0.80448200  0.41116800  1
  O  O22  1  0.60602000  0.96437400  0.27076900  1
  O  O23  1  0.14394200  0.08145300  0.14146100  1
  O  O24  1  0.35903900  0.80961700  0.97152200  1
  O  O25  1  0.85497200  0.69408000  0.08569000  1
  O  O26  1  0.85926900  0.93540300  0.84883400  1
  O  O27  1  0.38096300  0.04177900  0.72888200  1
  O  O28  1  0.88333300  0.18690800  0.59968400  1
  O  O29  1  0.38833200  0.28387400  0.47446500  1
  O  O30  1  0.86305500  0.41876900  0.35438000  1
  O  O31  1  0.39510900  0.55740200  0.21075000  1
