# generated using pymatgen
data_Li2Mn3CoO8
_symmetry_space_group_name_H-M   'P 1'
_cell_length_a   5.92612712
_cell_length_b   5.91714456
_cell_length_c   10.17340887
_cell_angle_alpha   72.46084041
_cell_angle_beta   88.50729807
_cell_angle_gamma   60.15585112
_symmetry_Int_Tables_number   1
_chemical_formula_structural   Li2Mn3CoO8
_chemical_formula_sum   'Li4 Mn6 Co2 O16'
_cell_volume   291.71290502
_cell_formula_units_Z   2
loop_
 _symmetry_equiv_pos_site_id
 _symmetry_equiv_pos_as_xyz
  1  'x, y, z'
loop_
 _atom_site_type_symbol
 _atom_site_label
 _atom_site_symmetry_multiplicity
 _atom_site_fract_x
 _atom_site_fract_y
 _atom_site_fract_z
 _atom_site_occupancy
  Li  Li0  1  0.17111300  0.13202100  0.05683900  1
  Li  Li1  1  0.67815000  0.12005600  0.55949100  1
  Li  Li2  1  0.32863300  0.86848000  0.44286700  1
  Li  Li3  1  0.82193900  0.88061800  0.94030100  1
  Mn  Mn4  1  0.25011700  0.99981600  0.75020600  1
  Mn  Mn5  1  0.00854800  0.49385200  0.50092000  1
  Mn  Mn6  1  0.74992300  0.50014000  0.75021800  1
  Mn  Mn7  1  0.75172500  0.99902900  0.25056200  1
  Mn  Mn8  1  0.49181800  0.50665400  0.99878100  1
  Mn  Mn9  1  0.25012000  0.49983100  0.24998900  1
  Co  Co10  1  0.75019100  0.50044200  0.25021200  1
  Co  Co11  1  0.24981200  0.50032200  0.74936600  1
  O  O12  1  0.36237400  0.29457800  0.12163200  1
  O  O13  1  0.89677800  0.25763500  0.63375500  1
  O  O14  1  0.13763800  0.70652100  0.37837000  1
  O  O15  1  0.60353100  0.74283100  0.86628700  1
  O  O16  1  0.82653700  0.26798100  0.12352800  1
  O  O17  1  0.33695400  0.25162400  0.62550000  1
  O  O18  1  0.38471000  0.71455200  0.12940900  1
  O  O19  1  0.88516800  0.70738600  0.62486700  1
  O  O20  1  0.60689300  0.26836600  0.35208600  1
  O  O21  1  0.10234100  0.25576900  0.85293700  1
  O  O22  1  0.89282400  0.73105400  0.14788900  1
  O  O23  1  0.39767700  0.74490300  0.64665200  1
  O  O24  1  0.11427200  0.28533100  0.37068200  1
  O  O25  1  0.61483900  0.29193700  0.87528500  1
  O  O26  1  0.67269700  0.73022100  0.37659700  1
  O  O27  1  0.16267500  0.74805100  0.87477500  1
