# generated using pymatgen
data_Li9Mn2Co5O16
_symmetry_space_group_name_H-M   'P 1'
_cell_length_a   2.95982100
_cell_length_b   5.10387330
_cell_length_c   19.24047755
_cell_angle_alpha   93.60108211
_cell_angle_beta   92.58440810
_cell_angle_gamma   91.21593924
_symmetry_Int_Tables_number   1
_chemical_formula_structural   Li9Mn2Co5O16
_chemical_formula_sum   'Li9 Mn2 Co5 O16'
_cell_volume   289.70397997
_cell_formula_units_Z   1
loop_
 _symmetry_equiv_pos_site_id
 _symmetry_equiv_pos_as_xyz
  1  'x, y, z'
loop_
 _atom_site_type_symbol
 _atom_site_label
 _atom_site_symmetry_multiplicity
 _atom_site_fract_x
 _atom_site_fract_y
 _atom_site_fract_z
 _atom_site_occupancy
  Li  Li0  1  0.01050500  0.60771800  0.87409100  1
  Li  Li1  1  0.49185100  0.75249700  0.74992000  1
  Li  Li2  1  0.99592300  0.87664000  0.62568800  1
  Li  Li3  1  0.49859600  0.00176000  0.50075400  1
  Li  Li4  1  0.00284500  0.12300600  0.37501400  1
  Li  Li5  1  0.49940400  0.24921300  0.25007000  1
  Li  Li6  1  0.99537100  0.38290100  0.12681900  1
  Li  Li7  1  0.50773200  0.49146300  0.99596500  1
  Li  Li8  1  0.48898900  0.13987600  0.87658300  1
  Mn  Mn9  1  0.00085800  0.01104400  0.99590000  1
  Mn  Mn10  1  0.99840900  0.49494900  0.50023100  1
  Co  Co11  1  0.99633700  0.24929500  0.75536700  1
  Co  Co12  1  0.49303100  0.36909100  0.62750200  1
  Co  Co13  1  0.50515000  0.62617900  0.37398300  1
  Co  Co14  1  0.00323800  0.74892100  0.25011700  1
  Co  Co15  1  0.51016200  0.86760300  0.12472000  1
  O  O16  1  0.48146500  0.83823500  0.94541600  1
  O  O17  1  0.00115500  0.97325400  0.80385300  1
  O  O18  1  0.53249800  0.08417500  0.68758000  1
  O  O19  1  0.98628600  0.20570400  0.56221100  1
  O  O20  1  0.53243600  0.32216500  0.43685700  1
  O  O21  1  0.99883600  0.46422500  0.31317000  1
  O  O22  1  0.54793500  0.57491000  0.19102100  1
  O  O23  1  0.01860800  0.71650400  0.06505000  1
  O  O24  1  0.47380400  0.43036700  0.80786400  1
  O  O25  1  0.01043400  0.52756100  0.69034000  1
  O  O26  1  0.45936800  0.66585200  0.56501500  1
  O  O27  1  0.99270700  0.78894900  0.43565000  1
  O  O28  1  0.45304200  0.92362600  0.30913200  1
  O  O29  1  0.99682600  0.03455500  0.18580200  1
  O  O30  1  0.52348300  0.16288000  0.05572300  1
  O  O31  1  0.99272200  0.29488600  0.94258900  1
