# generated using pymatgen
data_Li7Mn2(CoO4)3
_symmetry_space_group_name_H-M   'P 1'
_cell_length_a   2.91008468
_cell_length_b   12.11638428
_cell_length_c   12.69868125
_cell_angle_alpha   107.21966332
_cell_angle_beta   89.85074232
_cell_angle_gamma   85.19302693
_symmetry_Int_Tables_number   1
_chemical_formula_structural   Li7Mn2(CoO4)3
_chemical_formula_sum   'Li14 Mn4 Co6 O24'
_cell_volume   426.00100501
_cell_formula_units_Z   2
loop_
 _symmetry_equiv_pos_site_id
 _symmetry_equiv_pos_as_xyz
  1  'x, y, z'
loop_
 _atom_site_type_symbol
 _atom_site_label
 _atom_site_symmetry_multiplicity
 _atom_site_fract_x
 _atom_site_fract_y
 _atom_site_fract_z
 _atom_site_occupancy
  Li  Li0  1  0.58383407  0.83296596  0.08324877  1
  Li  Li1  1  0.08514151  0.83448844  0.58293446  1
  Li  Li2  1  0.87334466  0.25061062  0.12880688  1
  Li  Li3  1  0.37446088  0.25259263  0.62687572  1
  Li  Li4  1  0.28986665  0.41582529  0.03836201  1
  Li  Li5  1  0.79147988  0.41457443  0.53758854  1
  Li  Li6  1  0.19563725  0.59089851  0.46222071  1
  Li  Li7  1  0.69392782  0.59164455  0.96252279  1
  Li  Li8  1  0.47464651  0.07503811  0.20659224  1
  Li  Li9  1  0.97322094  0.07556162  0.70458523  1
  Li  Li10  1  0.63084040  0.74880323  0.38334249  1
  Li  Li11  1  0.13044159  0.74918797  0.88369559  1
  Li  Li12  1  0.03570919  0.91763574  0.28250123  1
  Li  Li13  1  0.53644964  0.91755559  0.78282519  1
  Mn  Mn14  1  0.01073348  0.99601042  0.00545104  1
  Mn  Mn15  1  0.51857532  0.99597160  0.50101068  1
  Mn  Mn16  1  0.15741077  0.67041762  0.16214510  1
  Mn  Mn17  1  0.65636378  0.67121517  0.66155468  1
  Co  Co18  1  0.83299564  0.33329265  0.83309957  1
  Co  Co19  1  0.73092194  0.50004726  0.25322424  1
  Co  Co20  1  0.93411052  0.16517922  0.41518791  1
  Co  Co21  1  0.32546629  0.33258112  0.33593284  1
  Co  Co22  1  0.23371102  0.50145271  0.75278202  1
  Co  Co23  1  0.43264861  0.16556693  0.91385774  1
  O  O24  1  0.46639982  0.11226916  0.05464019  1
  O  O25  1  0.97095748  0.11404738  0.54768601  1
  O  O26  1  0.70007655  0.55384342  0.11326142  1
  O  O27  1  0.19912364  0.55536594  0.61291760  1
  O  O28  1  0.73186704  0.44903360  0.38936938  1
  O  O29  1  0.24457454  0.44826888  0.88892389  1
  O  O30  1  0.92024860  0.21518778  0.28369641  1
  O  O31  1  0.42216937  0.21803311  0.77691612  1
  O  O32  1  0.33178025  0.28574916  0.47210735  1
  O  O33  1  0.84979646  0.28436855  0.97097539  1
  O  O34  1  0.31329995  0.37935261  0.19709921  1
  O  O35  1  0.81538298  0.38258840  0.69591419  1
  O  O36  1  0.16377214  0.61871146  0.30208486  1
  O  O37  1  0.66309862  0.61955691  0.80291401  1
  O  O38  1  0.52475740  0.04682936  0.36351543  1
  O  O39  1  0.00342840  0.04756406  0.86370377  1
  O  O40  1  0.61715783  0.77570900  0.22347631  1
  O  O41  1  0.11631425  0.77660901  0.72338708  1
  O  O42  1  0.05818165  0.89034993  0.44200234  1
  O  O43  1  0.55022091  0.89102356  0.94327977  1
  O  O44  1  0.02107489  0.96312286  0.13624978  1
  O  O45  1  0.51994712  0.96629660  0.63459490  1
  O  O46  1  0.14692383  0.70312703  0.03059351  1
  O  O47  1  0.64750892  0.70387286  0.53034438  1
