# generated using pymatgen
data_Li32Ti13Cr3O48
_symmetry_space_group_name_H-M   'P 1'
_cell_length_a   5.09028200
_cell_length_b   8.84759283
_cell_length_c   19.64748235
_cell_angle_alpha   98.45499367
_cell_angle_beta   94.69302906
_cell_angle_gamma   89.95419623
_symmetry_Int_Tables_number   1
_chemical_formula_structural   Li32Ti13Cr3O48
_chemical_formula_sum   'Li32 Ti13 Cr3 O48'
_cell_volume   872.25067838
_cell_formula_units_Z   1
loop_
 _symmetry_equiv_pos_site_id
 _symmetry_equiv_pos_as_xyz
  1  'x, y, z'
loop_
 _atom_site_type_symbol
 _atom_site_label
 _atom_site_symmetry_multiplicity
 _atom_site_fract_x
 _atom_site_fract_y
 _atom_site_fract_z
 _atom_site_occupancy
  Li  Li0  1  0.98923100  0.16902000  0.25008500  1
  Li  Li1  1  0.87414700  0.37643900  0.37490400  1
  Li  Li2  1  0.75058900  0.24980600  0.99979300  1
  Li  Li3  1  0.74075400  0.91929100  0.99975400  1
  Li  Li4  1  0.99101800  0.17002000  0.74946200  1
  Li  Li5  1  0.76055900  0.58028900  0.49932300  1
  Li  Li6  1  0.87548700  0.37618500  0.87502800  1
  Li  Li7  1  0.75354200  0.24970100  0.50020600  1
  Li  Li8  1  0.74009500  0.91870500  0.49950300  1
  Li  Li9  1  0.62506200  0.12498800  0.12492700  1
  Li  Li10  1  0.76092700  0.58003800  0.99919200  1
  Li  Li11  1  0.51108800  0.33015300  0.24983100  1
  Li  Li12  1  0.62382300  0.12558500  0.62508300  1
  Li  Li13  1  0.49861700  0.00065300  0.24960500  1
  Li  Li14  1  0.49299800  0.66958500  0.25001600  1
  Li  Li15  1  0.50644200  0.32824100  0.74963900  1
  Li  Li16  1  0.37397700  0.87461100  0.37526500  1
  Li  Li17  1  0.50007600  0.99982500  0.75005300  1
  Li  Li18  1  0.24624100  0.75015800  0.99995300  1
  Li  Li19  1  0.49370100  0.67210200  0.75067500  1
  Li  Li20  1  0.23996800  0.42015500  0.00020300  1
  Li  Li21  1  0.37664500  0.87443500  0.87484800  1
  Li  Li22  1  0.26079600  0.08094800  0.50064100  1
  Li  Li23  1  0.24521200  0.75133400  0.49992100  1
  Li  Li24  1  0.12495200  0.62500100  0.12500300  1
  Li  Li25  1  0.24040100  0.41941400  0.50075300  1
  Li  Li26  1  0.01011700  0.82966200  0.25042000  1
  Li  Li27  1  0.26114900  0.08048400  0.00020600  1
  Li  Li28  1  0.12476500  0.62402300  0.62499300  1
  Li  Li29  1  0.99672200  0.50098900  0.25046600  1
  Li  Li30  1  0.00878300  0.83040400  0.75040700  1
  Li  Li31  1  0.99939200  0.49985200  0.75004500  1
  Ti  Ti32  1  0.88340900  0.04062700  0.37712500  1
  Ti  Ti33  1  0.87082800  0.03921400  0.87284100  1
  Ti  Ti34  1  0.62619000  0.79086700  0.12497200  1
  Ti  Ti35  1  0.62395800  0.45888500  0.12490300  1
  Ti  Ti36  1  0.62731500  0.79149400  0.62441200  1
  Ti  Ti37  1  0.62425400  0.45868900  0.62404800  1
  Ti  Ti38  1  0.37337600  0.54025500  0.37313000  1
  Ti  Ti39  1  0.37889800  0.20854700  0.37486600  1
  Ti  Ti40  1  0.37726500  0.54113500  0.87631300  1
  Ti  Ti41  1  0.37019500  0.20877300  0.87542000  1
  Ti  Ti42  1  0.12348300  0.95897100  0.12516800  1
  Ti  Ti43  1  0.12656200  0.29135900  0.12522500  1
  Ti  Ti44  1  0.12666100  0.96115700  0.62632400  1
  Cr  Cr45  1  0.86880100  0.70991400  0.37543700  1
  Cr  Cr46  1  0.87814300  0.70908000  0.87457800  1
  Cr  Cr47  1  0.12344500  0.29063700  0.62510300  1
  O  O48  1  0.96301900  0.10591200  0.06825700  1
  O  O49  1  0.92876300  0.78456600  0.06830800  1
  O  O50  1  0.92815000  0.42730100  0.06723400  1
  O  O51  1  0.96409300  0.11140100  0.56932900  1
  O  O52  1  0.82123400  0.96530000  0.18178800  1
  O  O53  1  0.82194500  0.32245000  0.18257400  1
  O  O54  1  0.92830200  0.78590200  0.56850300  1
  O  O55  1  0.92559900  0.42820800  0.56728600  1
  O  O56  1  0.78753700  0.64351800  0.18134000  1
  O  O57  1  0.71561400  0.85095200  0.31939900  1
  O  O58  1  0.82100400  0.96569300  0.68172700  1
  O  O59  1  0.83038100  0.32043200  0.68198300  1
  O  O60  1  0.67473900  0.53325100  0.31811900  1
  O  O61  1  0.67662900  0.17607300  0.31728800  1
  O  O62  1  0.78498400  0.64263000  0.68169500  1
  O  O63  1  0.70894600  0.85790100  0.81804400  1
  O  O64  1  0.46274000  0.60636100  0.06821600  1
  O  O65  1  0.58073700  0.71687900  0.43111600  1
  O  O66  1  0.57165300  0.07256800  0.43289400  1
  O  O67  1  0.68168100  0.53762000  0.81909400  1
  O  O68  1  0.67886900  0.17689700  0.81726300  1
  O  O69  1  0.42785800  0.92723500  0.06713000  1
  O  O70  1  0.42872400  0.28448400  0.06826700  1
  O  O71  1  0.53412500  0.39411400  0.43176700  1
  O  O72  1  0.46374000  0.60582400  0.56802300  1
  O  O73  1  0.57611400  0.71674500  0.93040200  1
  O  O74  1  0.57235400  0.07266100  0.93284400  1
  O  O75  1  0.32224900  0.82246700  0.18271300  1
  O  O76  1  0.32126400  0.46558900  0.18157800  1
  O  O77  1  0.42805400  0.92730200  0.56717500  1
  O  O78  1  0.42308500  0.28308500  0.56959700  1
  O  O79  1  0.53721500  0.39411600  0.93179500  1
  O  O80  1  0.28737100  0.14358300  0.18150800  1
  O  O81  1  0.21274800  0.35658900  0.31809700  1
  O  O82  1  0.32185200  0.82334700  0.68273300  1
  O  O83  1  0.31900800  0.46304400  0.68110800  1
  O  O84  1  0.17411300  0.67973800  0.31858300  1
  O  O85  1  0.17843700  0.03443400  0.31826300  1
  O  O86  1  0.28969900  0.14286500  0.68173800  1
  O  O87  1  0.21541000  0.35732400  0.81842500  1
  O  O88  1  0.06877700  0.57503400  0.43159400  1
  O  O89  1  0.07039800  0.21510000  0.43173900  1
  O  O90  1  0.16870200  0.67931400  0.81790200  1
  O  O91  1  0.17890100  0.03427200  0.81826000  1
  O  O92  1  0.04036300  0.89577400  0.43225500  1
  O  O93  1  0.07537500  0.57103700  0.93284700  1
  O  O94  1  0.07237600  0.21398900  0.93166000  1
  O  O95  1  0.03500900  0.88741700  0.93048000  1
