# generated using pymatgen
data_Li32Ti13Cr3O48
_symmetry_space_group_name_H-M   'P 1'
_cell_length_a   5.09277500
_cell_length_b   8.82592993
_cell_length_c   19.62290579
_cell_angle_alpha   98.29619092
_cell_angle_beta   94.88754751
_cell_angle_gamma   89.76549117
_symmetry_Int_Tables_number   1
_chemical_formula_structural   Li32Ti13Cr3O48
_chemical_formula_sum   'Li32 Ti13 Cr3 O48'
_cell_volume   869.58601100
_cell_formula_units_Z   1
loop_
 _symmetry_equiv_pos_site_id
 _symmetry_equiv_pos_as_xyz
  1  'x, y, z'
loop_
 _atom_site_type_symbol
 _atom_site_label
 _atom_site_symmetry_multiplicity
 _atom_site_fract_x
 _atom_site_fract_y
 _atom_site_fract_z
 _atom_site_occupancy
  Li  Li0  1  0.98708200  0.16835300  0.24943000  1
  Li  Li1  1  0.87505000  0.37630700  0.37507800  1
  Li  Li2  1  0.74958100  0.25026900  0.00011400  1
  Li  Li3  1  0.74211800  0.91926200  0.99977100  1
  Li  Li4  1  0.98921700  0.16999200  0.74956900  1
  Li  Li5  1  0.75653400  0.57873400  0.49964700  1
  Li  Li6  1  0.87399800  0.37643100  0.87475000  1
  Li  Li7  1  0.75623300  0.24830200  0.50050500  1
  Li  Li8  1  0.73977500  0.92178800  0.50027800  1
  Li  Li9  1  0.62500600  0.12504100  0.12508600  1
  Li  Li10  1  0.76012900  0.58000600  0.99946500  1
  Li  Li11  1  0.51104800  0.33277600  0.25100900  1
  Li  Li12  1  0.62532600  0.12568600  0.62482500  1
  Li  Li13  1  0.49992400  0.00023000  0.25021300  1
  Li  Li14  1  0.49109800  0.66842000  0.25041300  1
  Li  Li15  1  0.50754500  0.32962300  0.74966800  1
  Li  Li16  1  0.37463800  0.87474200  0.37499200  1
  Li  Li17  1  0.50014500  0.99987300  0.74991100  1
  Li  Li18  1  0.24541200  0.75127900  0.99980200  1
  Li  Li19  1  0.49319100  0.67056200  0.75036300  1
  Li  Li20  1  0.24106400  0.41997500  0.00008700  1
  Li  Li21  1  0.37423500  0.87452800  0.87524400  1
  Li  Li22  1  0.25817100  0.08101500  0.50017400  1
  Li  Li23  1  0.24971800  0.74876700  0.49949200  1
  Li  Li24  1  0.12507100  0.62501600  0.12503000  1
  Li  Li25  1  0.24055700  0.42091000  0.49997800  1
  Li  Li26  1  0.01002400  0.83126500  0.24982200  1
  Li  Li27  1  0.26088500  0.07954500  0.00020000  1
  Li  Li28  1  0.12584800  0.62381100  0.62509300  1
  Li  Li29  1  0.00256700  0.49901000  0.25008100  1
  Li  Li30  1  0.01023400  0.82997300  0.75026900  1
  Li  Li31  1  0.99915700  0.49992800  0.75003000  1
  Ti  Ti32  1  0.87225300  0.70415700  0.37469300  1
  Ti  Ti33  1  0.87763100  0.04023900  0.37492700  1
  Ti  Ti34  1  0.88336400  0.04071300  0.87700800  1
  Ti  Ti35  1  0.62639300  0.79115100  0.12515500  1
  Ti  Ti36  1  0.62409900  0.45892100  0.12518400  1
  Ti  Ti37  1  0.62298100  0.79064000  0.62491200  1
  Ti  Ti38  1  0.62426400  0.45782200  0.62617000  1
  Ti  Ti39  1  0.37454600  0.21083200  0.37532900  1
  Ti  Ti40  1  0.37413700  0.54053600  0.87295200  1
  Ti  Ti41  1  0.37823800  0.20828400  0.87464500  1
  Ti  Ti42  1  0.12361300  0.95873400  0.12518400  1
  Ti  Ti43  1  0.12718800  0.29118900  0.12516300  1
  Ti  Ti44  1  0.11862500  0.95883000  0.62363500  1
  Cr  Cr45  1  0.86900200  0.70953900  0.87532200  1
  Cr  Cr46  1  0.37487600  0.54318500  0.37512000  1
  Cr  Cr47  1  0.12831600  0.29046900  0.62460600  1
  O  O48  1  0.96233900  0.10661900  0.06834200  1
  O  O49  1  0.92899600  0.78435100  0.06853200  1
  O  O50  1  0.92772300  0.42781800  0.06710700  1
  O  O51  1  0.96046900  0.10691800  0.56823300  1
  O  O52  1  0.82144800  0.96571100  0.18172200  1
  O  O53  1  0.82299300  0.32238100  0.18283700  1
  O  O54  1  0.92862100  0.78527300  0.56810700  1
  O  O55  1  0.93077300  0.42589200  0.56810900  1
  O  O56  1  0.78832300  0.64326800  0.18176800  1
  O  O57  1  0.71363500  0.85579500  0.31820000  1
  O  O58  1  0.82160900  0.96545600  0.68180500  1
  O  O59  1  0.82598200  0.32059000  0.68205000  1
  O  O60  1  0.68094000  0.53376600  0.31809600  1
  O  O61  1  0.67697100  0.17762900  0.31719800  1
  O  O62  1  0.78779200  0.64287300  0.68193500  1
  O  O63  1  0.71493200  0.85128500  0.81917800  1
  O  O64  1  0.46238300  0.60673700  0.06814600  1
  O  O65  1  0.56432700  0.71171600  0.43086500  1
  O  O66  1  0.57178700  0.07364700  0.43292300  1
  O  O67  1  0.67455300  0.53302900  0.81801500  1
  O  O68  1  0.67571000  0.17621300  0.81701800  1
  O  O69  1  0.42771500  0.92777800  0.06732600  1
  O  O70  1  0.42902200  0.28427800  0.06839400  1
  O  O71  1  0.53757700  0.39675300  0.43087100  1
  O  O72  1  0.46516400  0.60633800  0.56837100  1
  O  O73  1  0.58109500  0.71687100  0.93099500  1
  O  O74  1  0.57207500  0.07201000  0.93274500  1
  O  O75  1  0.32248400  0.82219900  0.18289100  1
  O  O76  1  0.32142500  0.46581000  0.18155900  1
  O  O77  1  0.42754100  0.92787700  0.56707400  1
  O  O78  1  0.42239700  0.28365500  0.56866900  1
  O  O79  1  0.53468200  0.39383000  0.93172300  1
  O  O80  1  0.28730200  0.14357600  0.18182100  1
  O  O81  1  0.21411600  0.36130400  0.31944500  1
  O  O82  1  0.32331800  0.82365500  0.68289700  1
  O  O83  1  0.32174800  0.46544500  0.68149500  1
  O  O84  1  0.18347800  0.67509800  0.31812600  1
  O  O85  1  0.17890800  0.03575700  0.31826400  1
  O  O86  1  0.28617700  0.14734900  0.68061200  1
  O  O87  1  0.21185400  0.35685700  0.81798600  1
  O  O88  1  0.06990500  0.57203100  0.43300700  1
  O  O89  1  0.07133800  0.21559400  0.43156600  1
  O  O90  1  0.17388900  0.68010600  0.81838600  1
  O  O91  1  0.17829100  0.03444800  0.81808000  1
  O  O92  1  0.03516600  0.89298900  0.43170300  1
  O  O93  1  0.06926500  0.57461600  0.93162100  1
  O  O94  1  0.07029300  0.21510600  0.93165300  1
  O  O95  1  0.04136200  0.89504600  0.93213500  1
