# generated using pymatgen
data_Li2TiV5O12
_symmetry_space_group_name_H-M   'P 1'
_cell_length_a   5.72463555
_cell_length_b   6.83887664
_cell_length_c   13.12205220
_cell_angle_alpha   99.55998573
_cell_angle_beta   96.78560923
_cell_angle_gamma   108.17020910
_symmetry_Int_Tables_number   1
_chemical_formula_structural   Li2TiV5O12
_chemical_formula_sum   'Li4 Ti2 V10 O24'
_cell_volume   473.34898629
_cell_formula_units_Z   2
loop_
 _symmetry_equiv_pos_site_id
 _symmetry_equiv_pos_as_xyz
  1  'x, y, z'
loop_
 _atom_site_type_symbol
 _atom_site_label
 _atom_site_symmetry_multiplicity
 _atom_site_fract_x
 _atom_site_fract_y
 _atom_site_fract_z
 _atom_site_occupancy
  Li  Li0  1  0.40715900  0.30843400  0.15540700  1
  Li  Li1  1  0.89185100  0.30298900  0.65268800  1
  Li  Li2  1  0.08363900  0.69521500  0.35438100  1
  Li  Li3  1  0.60034900  0.68745900  0.84754800  1
  Ti  Ti4  1  0.71694800  0.92450100  0.46106200  1
  Ti  Ti5  1  0.21355400  0.92383900  0.96330300  1
  V  V6  1  0.49948500  0.16624000  0.81656900  1
  V  V7  1  0.90645400  0.62947200  0.08644400  1
  V  V8  1  0.57565900  0.37654500  0.41865500  1
  V  V9  1  0.09875200  0.36013000  0.91570500  1
  V  V10  1  0.99199800  0.83882300  0.68224400  1
  V  V11  1  0.79033600  0.07292500  0.03787900  1
  V  V12  1  0.30082200  0.09210800  0.54255400  1
  V  V13  1  0.97305300  0.16266100  0.31546300  1
  V  V14  1  0.38168900  0.65910900  0.60075900  1
  V  V15  1  0.49325200  0.81975400  0.17456400  1
  O  O16  1  0.05601300  0.99777300  0.40558600  1
  O  O17  1  0.54453600  0.97302400  0.90402800  1
  O  O18  1  0.36685800  0.80609800  0.48816200  1
  O  O19  1  0.84988100  0.80314900  0.98744600  1
  O  O20  1  0.88697200  0.02588400  0.17314300  1
  O  O21  1  0.37749400  0.00445200  0.67749500  1
  O  O22  1  0.81572200  0.34996500  0.01218700  1
  O  O23  1  0.34447800  0.38905200  0.52097800  1
  O  O24  1  0.13997300  0.18325200  0.01936500  1
  O  O25  1  0.64768800  0.19817500  0.50667600  1
  O  O26  1  0.47790200  0.04090900  0.09409400  1
  O  O27  1  0.95799800  0.03915300  0.59411200  1
  O  O28  1  0.87608000  0.38136700  0.34736600  1
  O  O29  1  0.39849700  0.38765500  0.84560400  1
  O  O30  1  0.14238700  0.69007500  0.19909600  1
  O  O31  1  0.64190200  0.69849900  0.69937000  1
  O  O32  1  0.33626800  0.29924600  0.30604400  1
  O  O33  1  0.82927400  0.28563100  0.79919900  1
  O  O34  1  0.61019400  0.58897500  0.13987700  1
  O  O35  1  0.08421400  0.59068800  0.64620100  1
  O  O36  1  0.74085000  0.66215600  0.46720700  1
  O  O37  1  0.20310200  0.65775000  0.99002400  1
  O  O38  1  0.62839000  0.95692000  0.32096400  1
  O  O39  1  0.11833200  0.96995100  0.83055000  1
