# generated using pymatgen
data_Sr2LiIr
_symmetry_space_group_name_H-M   'P 1'
_cell_length_a   12.29194834
_cell_length_b   12.16371779
_cell_length_c   12.16371774
_cell_angle_alpha   59.84948193
_cell_angle_beta   59.65065466
_cell_angle_gamma   59.65065515
_symmetry_Int_Tables_number   1
_chemical_formula_structural   Sr2LiIr
_chemical_formula_sum   'Sr2 Li1 Ir1'
_cell_volume   1277.71409764
_cell_formula_units_Z   1
loop_
 _symmetry_equiv_pos_site_id
 _symmetry_equiv_pos_as_xyz
  1  'x, y, z'
loop_
 _atom_site_type_symbol
 _atom_site_label
 _atom_site_symmetry_multiplicity
 _atom_site_fract_x
 _atom_site_fract_y
 _atom_site_fract_z
 _atom_site_occupancy
  Sr  Sr0  1  0.70647864  0.00000000  1.00000000  1
  Sr  Sr1  1  0.29352136  1.00000000  0.00000000  1
  Li  Li2  1  0.00000000  0.00000000  0.00000000  1
  Ir  Ir3  1  0.50000000  0.00000000  0.00000000  1
