# generated using pymatgen
data_Li4Mn3O7
_symmetry_space_group_name_H-M   'P 1'
_cell_length_a   5.31891800
_cell_length_b   5.99562722
_cell_length_c   8.69189138
_cell_angle_alpha   91.67064002
_cell_angle_beta   93.90562590
_cell_angle_gamma   110.29926805
_symmetry_Int_Tables_number   1
_chemical_formula_structural   Li4Mn3O7
_chemical_formula_sum   'Li8 Mn6 O14'
_cell_volume   258.95469943
_cell_formula_units_Z   2
loop_
 _symmetry_equiv_pos_site_id
 _symmetry_equiv_pos_as_xyz
  1  'x, y, z'
loop_
 _atom_site_type_symbol
 _atom_site_label
 _atom_site_symmetry_multiplicity
 _atom_site_fract_x
 _atom_site_fract_y
 _atom_site_fract_z
 _atom_site_occupancy
  Li  Li0  1  0.42186900  0.85116500  0.36167500  1
  Li  Li1  1  0.28558800  0.57068500  0.07456500  1
  Li  Li2  1  0.85490000  0.71449300  0.21531100  1
  Li  Li3  1  0.71441200  0.42931500  0.92543500  1
  Li  Li4  1  0.14510000  0.28550700  0.78468900  1
  Li  Li5  1  0.57813100  0.14883500  0.63832500  1
  Li  Li6  1  0.00000000  0.00000000  0.50000000  1
  Li  Li7  1  0.00000000  0.50000000  0.50000000  1
  Mn  Mn8  1  0.57066700  0.64182000  0.64141500  1
  Mn  Mn9  1  0.42933300  0.35818000  0.35858500  1
  Mn  Mn10  1  0.28556200  0.07052700  0.07211800  1
  Mn  Mn11  1  0.14115300  0.78172300  0.78257700  1
  Mn  Mn12  1  0.85884700  0.21827700  0.21742300  1
  Mn  Mn13  1  0.71443800  0.92947300  0.92788200  1
  O  O14  1  0.68568200  0.66523200  0.43450200  1
  O  O15  1  0.54883300  0.38275800  0.15064400  1
  O  O16  1  0.15740800  0.50251000  0.28997600  1
  O  O17  1  0.97487300  0.23705300  0.00269700  1
  O  O18  1  0.40251500  0.09420500  0.86375000  1
  O  O19  1  0.83444200  0.95228800  0.71479100  1
  O  O20  1  0.30687200  0.80056600  0.58911500  1
  O  O21  1  0.16555800  0.04771200  0.28520900  1
  O  O22  1  0.02512700  0.76294700  0.99730300  1
  O  O23  1  0.59748500  0.90579500  0.13625000  1
  O  O24  1  0.45116700  0.61724200  0.84935600  1
  O  O25  1  0.84259200  0.49749000  0.71002400  1
  O  O26  1  0.31431800  0.33476800  0.56549800  1
  O  O27  1  0.69312800  0.19943400  0.41088500  1
