# generated using pymatgen
data_Li3(CoO2)4
_symmetry_space_group_name_H-M   'P 1'
_cell_length_a   5.78914250
_cell_length_b   5.93760982
_cell_length_c   8.26087373
_cell_angle_alpha   87.95077994
_cell_angle_beta   89.98851960
_cell_angle_gamma   89.99426642
_symmetry_Int_Tables_number   1
_chemical_formula_structural   Li3(CoO2)4
_chemical_formula_sum   'Li6 Co8 O16'
_cell_volume   283.77493886
_cell_formula_units_Z   2
loop_
 _symmetry_equiv_pos_site_id
 _symmetry_equiv_pos_as_xyz
  1  'x, y, z'
loop_
 _atom_site_type_symbol
 _atom_site_label
 _atom_site_symmetry_multiplicity
 _atom_site_fract_x
 _atom_site_fract_y
 _atom_site_fract_z
 _atom_site_occupancy
  Li  Li0  1  0.50004700  0.00001100  0.99999200  1
  Li  Li1  1  0.99994000  0.49998600  0.50000400  1
  Li  Li2  1  0.24860900  0.74813300  0.25150900  1
  Li  Li3  1  0.75139600  0.25188000  0.74849600  1
  Li  Li4  1  0.75140000  0.74816800  0.25143300  1
  Li  Li5  1  0.24857500  0.25180400  0.74857200  1
  Co  Co6  1  0.75483600  0.24791500  0.25328600  1
  Co  Co7  1  0.24517900  0.75204900  0.74668900  1
  Co  Co8  1  0.24523700  0.24787200  0.25308800  1
  Co  Co9  1  0.75479900  0.75218100  0.74692900  1
  Co  Co10  1  0.50002100  0.00003800  0.50001700  1
  Co  Co11  1  0.00001000  0.49996900  0.99998200  1
  Co  Co12  1  0.50005500  0.49999100  0.99997600  1
  Co  Co13  1  0.99994200  0.00000100  0.50002000  1
  O  O14  1  0.49999400  0.01009000  0.26910500  1
  O  O15  1  0.99986800  0.51296900  0.75501000  1
  O  O16  1  0.49997100  0.98988700  0.73091800  1
  O  O17  1  0.00015100  0.48706400  0.24495600  1
  O  O18  1  0.00006500  0.01336700  0.26418200  1
  O  O19  1  0.50021800  0.51496000  0.77162200  1
  O  O20  1  0.24174900  0.22387100  0.49459000  1
  O  O21  1  0.73627600  0.72524100  0.99273700  1
  O  O22  1  0.24139500  0.77552300  0.50552000  1
  O  O23  1  0.73652600  0.27484900  0.00729700  1
  O  O24  1  0.75852000  0.22445900  0.49458600  1
  O  O25  1  0.26356700  0.72518300  0.99257600  1
  O  O26  1  0.75817600  0.77614400  0.50536900  1
  O  O27  1  0.26378800  0.27472000  0.00732400  1
  O  O28  1  0.99970200  0.98669300  0.73583300  1
  O  O29  1  0.49998800  0.48497900  0.22838300  1
