# generated using pymatgen
data_Li7Mn5O12
_symmetry_space_group_name_H-M   'P 1'
_cell_length_a   5.27524903
_cell_length_b   11.34113122
_cell_length_c   7.64063262
_cell_angle_alpha   77.59842032
_cell_angle_beta   82.60692002
_cell_angle_gamma   84.65335419
_symmetry_Int_Tables_number   1
_chemical_formula_structural   Li7Mn5O12
_chemical_formula_sum   'Li14 Mn10 O24'
_cell_volume   441.72561224
_cell_formula_units_Z   2
loop_
 _symmetry_equiv_pos_site_id
 _symmetry_equiv_pos_as_xyz
  1  'x, y, z'
loop_
 _atom_site_type_symbol
 _atom_site_label
 _atom_site_symmetry_multiplicity
 _atom_site_fract_x
 _atom_site_fract_y
 _atom_site_fract_z
 _atom_site_occupancy
  Li  Li0  1  0.58903800  0.41546200  0.66476500  1
  Li  Li1  1  0.08786500  0.91534800  0.66480900  1
  Li  Li2  1  0.47465400  0.03815800  0.17542800  1
  Li  Li3  1  0.97497300  0.53788600  0.17535300  1
  Li  Li4  1  0.21707900  0.29026700  0.16640100  1
  Li  Li5  1  0.71471300  0.79054100  0.16577000  1
  Li  Li6  1  0.09854300  0.38397700  0.49995000  1
  Li  Li7  1  0.59822800  0.88355200  0.49984300  1
  Li  Li8  1  0.05196800  0.45228600  0.82816000  1
  Li  Li9  1  0.54718000  0.95356900  0.82748600  1
  Li  Li10  1  0.29428500  0.21467300  0.82128000  1
  Li  Li11  1  0.79199500  0.71494600  0.82111500  1
  Li  Li12  1  0.37179700  0.11819000  0.51108900  1
  Li  Li13  1  0.87033200  0.61821200  0.51131400  1
  Mn  Mn14  1  0.83225500  0.16577800  0.66770700  1
  Mn  Mn15  1  0.49862900  0.50107900  0.99682900  1
  Mn  Mn16  1  0.16998600  0.83436400  0.33544600  1
  Mn  Mn17  1  0.24184000  0.75398000  0.99636000  1
  Mn  Mn18  1  0.42245600  0.57881400  0.34202900  1
  Mn  Mn19  1  0.33068100  0.66572700  0.66750000  1
  Mn  Mn20  1  0.99746900  0.00107000  0.99670800  1
  Mn  Mn21  1  0.67070200  0.33431500  0.33565500  1
  Mn  Mn22  1  0.74283900  0.25431900  0.99636900  1
  Mn  Mn23  1  0.92291700  0.07901000  0.34189100  1
  O  O24  1  0.05123800  0.15010900  0.08305400  1
  O  O25  1  0.55095500  0.65003600  0.08279700  1
  O  O26  1  0.57205100  0.20002300  0.23465000  1
  O  O27  1  0.07234900  0.69951600  0.23502000  1
  O  O28  1  0.76948900  0.47248800  0.40662800  1
  O  O29  1  0.26952000  0.97252300  0.40646100  1
  O  O30  1  0.43472100  0.35142400  0.92733000  1
  O  O31  1  0.93367700  0.85102300  0.92801200  1
  O  O32  1  0.92966800  0.30208400  0.75922600  1
  O  O33  1  0.42757600  0.80209400  0.75896800  1
  O  O34  1  0.73546800  0.02861900  0.58351400  1
  O  O35  1  0.23422800  0.52844500  0.58347400  1
  O  O36  1  0.85227600  0.38647700  0.08354400  1
  O  O37  1  0.35070100  0.88656300  0.08325000  1
  O  O38  1  0.32058800  0.44779800  0.24411900  1
  O  O39  1  0.81995800  0.94809900  0.24389000  1
  O  O40  1  0.02069000  0.21447700  0.43299800  1
  O  O41  1  0.51964500  0.71440300  0.43267200  1
  O  O42  1  0.64362400  0.11832100  0.90583700  1
  O  O43  1  0.14277400  0.61798300  0.90571300  1
  O  O44  1  0.13897000  0.07031800  0.75612300  1
  O  O45  1  0.63733400  0.57061500  0.75575500  1
  O  O46  1  0.53084400  0.26046600  0.57906300  1
  O  O47  1  0.02923300  0.76057100  0.57864500  1
