# generated using pymatgen
data_Li4Zn(PS4)2
_symmetry_space_group_name_H-M   'P 1'
_cell_length_a   5.74672700
_cell_length_b   9.54728971
_cell_length_c   11.52904082
_cell_angle_alpha   90.08105299
_cell_angle_beta   90.11006383
_cell_angle_gamma   90.02210265
_symmetry_Int_Tables_number   1
_chemical_formula_structural   Li4Zn(PS4)2
_chemical_formula_sum   'Li8 Zn2 P4 S16'
_cell_volume   632.54667311
_cell_formula_units_Z   2
loop_
 _symmetry_equiv_pos_site_id
 _symmetry_equiv_pos_as_xyz
  1  'x, y, z'
loop_
 _atom_site_type_symbol
 _atom_site_label
 _atom_site_symmetry_multiplicity
 _atom_site_fract_x
 _atom_site_fract_y
 _atom_site_fract_z
 _atom_site_occupancy
  Li  Li0  1  0.99780200  0.24794400  0.24379500  1
  Li  Li1  1  0.49859400  0.75016700  0.50542400  1
  Li  Li2  1  0.50018300  0.01252400  0.75255700  1
  Li  Li3  1  0.50209900  0.98997000  0.24837300  1
  Li  Li4  1  0.99628700  0.49406700  0.50169100  1
  Li  Li5  1  0.00262600  0.50765100  0.99644100  1
  Li  Li6  1  0.50482600  0.49241300  0.75302500  1
  Li  Li7  1  0.49428800  0.50637100  0.24841900  1
  Zn  Zn8  1  0.99662300  0.99266800  0.99844100  1
  Zn  Zn9  1  0.00354600  0.00627900  0.50094500  1
  P  P10  1  0.49594400  0.24815500  0.00445600  1
  P  P11  1  0.50420000  0.25157800  0.49438200  1
  P  P12  1  0.00109600  0.75148500  0.74780800  1
  P  P13  1  0.99935000  0.74873800  0.25350500  1
  S  S14  1  0.71710100  0.13266500  0.60052800  1
  S  S15  1  0.71575400  0.12201900  0.10885300  1
  S  S16  1  0.21584600  0.63562700  0.36066300  1
  S  S17  1  0.21822000  0.64039400  0.84835500  1
  S  S18  1  0.28589400  0.36475900  0.11202000  1
  S  S19  1  0.30035600  0.36496300  0.60044700  1
  S  S20  1  0.78808300  0.87108400  0.85338300  1
  S  S21  1  0.78870600  0.87204700  0.36391800  1
  S  S22  1  0.27875200  0.12865500  0.90092500  1
  S  S23  1  0.28503100  0.12651400  0.38869600  1
  S  S24  1  0.78334300  0.63558600  0.64295100  1
  S  S25  1  0.78845300  0.63509600  0.15082800  1
  S  S26  1  0.70605700  0.35861700  0.89969800  1
  S  S27  1  0.71204900  0.36507800  0.38422000  1
  S  S28  1  0.21448700  0.87715100  0.63939900  1
  S  S29  1  0.20440700  0.86973500  0.14584900  1
