# generated using pymatgen
data_LiSiAu2
_symmetry_space_group_name_H-M   'P 1'
_cell_length_a   10.36572833
_cell_length_b   10.36572833
_cell_length_c   10.36572833
_cell_angle_alpha   123.00484397
_cell_angle_beta   118.99373607
_cell_angle_gamma   88.31388932
_symmetry_Int_Tables_number   1
_chemical_formula_structural   LiSiAu2
_chemical_formula_sum   'Li1 Si1 Au2'
_cell_volume   774.06931997
_cell_formula_units_Z   1
loop_
 _symmetry_equiv_pos_site_id
 _symmetry_equiv_pos_as_xyz
  1  'x, y, z'
loop_
 _atom_site_type_symbol
 _atom_site_label
 _atom_site_symmetry_multiplicity
 _atom_site_fract_x
 _atom_site_fract_y
 _atom_site_fract_z
 _atom_site_occupancy
  Li  Li0  1  0.00000000  0.00000000  0.00000000  1
  Si  Si1  1  0.00000000  0.50000000  0.50000000  1
  Au  Au2  1  0.00000000  0.26494900  0.26494900  1
  Au  Au3  1  0.00000000  0.73505100  0.73505100  1
