# generated using pymatgen
data_Li7Mn5O12
_symmetry_space_group_name_H-M   'P 1'
_cell_length_a   5.04508343
_cell_length_b   9.93206888
_cell_length_c   5.04468869
_cell_angle_alpha   92.94259600
_cell_angle_beta   62.43437442
_cell_angle_gamma   101.28497854
_symmetry_Int_Tables_number   1
_chemical_formula_structural   Li7Mn5O12
_chemical_formula_sum   'Li7 Mn5 O12'
_cell_volume   219.52839659
_cell_formula_units_Z   1
loop_
 _symmetry_equiv_pos_site_id
 _symmetry_equiv_pos_as_xyz
  1  'x, y, z'
loop_
 _atom_site_type_symbol
 _atom_site_label
 _atom_site_symmetry_multiplicity
 _atom_site_fract_x
 _atom_site_fract_y
 _atom_site_fract_z
 _atom_site_occupancy
  Li  Li0  1  0.33335400  0.00000500  0.33333800  1
  Li  Li1  1  0.74689500  0.24244200  0.00120000  1
  Li  Li2  1  0.91978100  0.75756100  0.66546100  1
  Li  Li3  1  0.57973300  0.75241300  0.33153300  1
  Li  Li4  1  0.08692300  0.24759600  0.33514400  1
  Li  Li5  1  0.41345200  0.24764300  0.66215300  1
  Li  Li6  1  0.25322500  0.75236400  0.00449600  1
  Mn  Mn7  1  0.50035800  0.49882700  0.99934700  1
  Mn  Mn8  1  0.16629700  0.50119100  0.66733400  1
  Mn  Mn9  1  0.83328100  0.49997800  0.33338400  1
  Mn  Mn10  1  0.00131000  0.00001000  0.00126000  1
  Mn  Mn11  1  0.66537100  0.99998600  0.66540200  1
  O  O12  1  0.01590300  0.11194800  0.68789400  1
  O  O13  1  0.65077400  0.88804800  0.97876500  1
  O  O14  1  0.84458000  0.61737800  0.02780800  1
  O  O15  1  0.82209600  0.38262500  0.63886100  1
  O  O16  1  0.74056400  0.10892800  0.31897200  1
  O  O17  1  0.92615100  0.89107700  0.34765600  1
  O  O18  1  0.38418300  0.10897800  0.96207600  1
  O  O19  1  0.28249200  0.89101400  0.70459800  1
  O  O20  1  0.18014300  0.62074100  0.36077700  1
  O  O21  1  0.48650200  0.37925400  0.30588200  1
  O  O22  1  0.51257100  0.61819900  0.69355200  1
  O  O23  1  0.15405900  0.38179300  0.97310800  1
