# generated using pymatgen
data_Li2TiVO4
_symmetry_space_group_name_H-M   'P 1'
_cell_length_a   5.99177304
_cell_length_b   8.45039087
_cell_length_c   5.99178311
_cell_angle_alpha   89.60842132
_cell_angle_beta   90.00379913
_cell_angle_gamma   89.60671417
_symmetry_Int_Tables_number   1
_chemical_formula_structural   Li2TiVO4
_chemical_formula_sum   'Li8 Ti4 V4 O16'
_cell_volume   303.36666649
_cell_formula_units_Z   4
loop_
 _symmetry_equiv_pos_site_id
 _symmetry_equiv_pos_as_xyz
  1  'x, y, z'
loop_
 _atom_site_type_symbol
 _atom_site_label
 _atom_site_symmetry_multiplicity
 _atom_site_fract_x
 _atom_site_fract_y
 _atom_site_fract_z
 _atom_site_occupancy
  Li  Li0  1  0.25041100  0.24910800  0.75041000  1
  Li  Li1  1  0.75226000  0.75133000  0.25060500  1
  Li  Li2  1  0.99959900  0.00091600  0.49959100  1
  Li  Li3  1  0.49938700  0.49866700  0.99774200  1
  Li  Li4  1  0.25101700  0.24925000  0.24909000  1
  Li  Li5  1  0.74606200  0.75089000  0.75010300  1
  Li  Li6  1  0.50090300  0.00074500  0.49895100  1
  Li  Li7  1  0.99992200  0.49913200  0.00397500  1
  Ti  Ti8  1  0.75118700  0.24638500  0.75632400  1
  Ti  Ti9  1  0.25299100  0.75509300  0.24380700  1
  Ti  Ti10  1  0.99371900  0.00352700  0.99894400  1
  Ti  Ti11  1  0.50615000  0.49493100  0.49689400  1
  V  V12  1  0.00427500  0.50362500  0.50689300  1
  V  V13  1  0.24303400  0.74635800  0.74578100  1
  V  V14  1  0.49595700  0.99631900  0.99727400  1
  V  V15  1  0.75270800  0.25363800  0.25398700  1
  O  O16  1  0.76275700  0.00195300  0.23226200  1
  O  O17  1  0.26527200  0.50194200  0.73338400  1
  O  O18  1  0.51771900  0.24803900  0.98727700  1
  O  O19  1  0.01668300  0.74816200  0.48479200  1
  O  O20  1  0.98595300  0.25696900  0.51906400  1
  O  O21  1  0.47918300  0.74707100  0.00526200  1
  O  O22  1  0.74466600  0.50295300  0.27071600  1
  O  O23  1  0.23095500  0.99294800  0.76403500  1
  O  O24  1  0.99516200  0.24420700  0.99515000  1
  O  O25  1  0.48567600  0.74067700  0.48898300  1
  O  O26  1  0.75483100  0.00583700  0.75483900  1
  O  O27  1  0.26106700  0.50932500  0.26431600  1
  O  O28  1  0.74089000  0.49377800  0.73894500  1
  O  O29  1  0.24192100  0.99095100  0.24343000  1
  O  O30  1  0.50664900  0.25911500  0.50814900  1
  O  O31  1  0.01103600  0.75615800  0.00902600  1
