# generated using pymatgen
data_Li9Mn2Co5O16
_symmetry_space_group_name_H-M   'P 1'
_cell_length_a   5.17483217
_cell_length_b   10.38050523
_cell_length_c   5.88474552
_cell_angle_alpha   104.57093843
_cell_angle_beta   71.35323606
_cell_angle_gamma   85.16193337
_symmetry_Int_Tables_number   1
_chemical_formula_structural   Li9Mn2Co5O16
_chemical_formula_sum   'Li9 Mn2 Co5 O16'
_cell_volume   285.16793870
_cell_formula_units_Z   1
loop_
 _symmetry_equiv_pos_site_id
 _symmetry_equiv_pos_as_xyz
  1  'x, y, z'
loop_
 _atom_site_type_symbol
 _atom_site_label
 _atom_site_symmetry_multiplicity
 _atom_site_fract_x
 _atom_site_fract_y
 _atom_site_fract_z
 _atom_site_occupancy
  Li  Li0  1  0.50133024  0.12250244  0.93691446  1
  Li  Li1  1  0.50400958  0.37813940  0.31819303  1
  Li  Li2  1  0.50340310  0.63061039  0.68538830  1
  Li  Li3  1  0.50606132  0.86547634  0.05473949  1
  Li  Li4  1  0.50118697  0.12270118  0.43851110  1
  Li  Li5  1  0.50013770  0.38208170  0.81305411  1
  Li  Li6  1  0.49329656  0.62593518  0.19760196  1
  Li  Li7  1  0.48974263  0.86674721  0.55333359  1
  Li  Li8  1  0.00240333  0.74831458  0.62650234  1
  Mn  Mn9  1  0.99456882  0.99825044  0.99649548  1
  Mn  Mn10  1  0.00353592  0.25057224  0.87159789  1
  Co  Co11  1  0.99911793  0.25169349  0.37483901  1
  Co  Co12  1  0.00473892  0.51038905  0.74819874  1
  Co  Co13  1  0.99421740  0.74952064  0.12845701  1
  Co  Co14  1  0.99870639  0.99659540  0.49946045  1
  Co  Co15  1  0.00329406  0.50478104  0.25562556  1
  O  O16  1  0.23597243  0.06990697  0.74607474  1
  O  O17  1  0.20829248  0.31244853  0.09371532  1
  O  O18  1  0.24798388  0.55263244  0.47140643  1
  O  O19  1  0.22888792  0.82567509  0.86842773  1
  O  O20  1  0.19979361  0.06825024  0.22492171  1
  O  O21  1  0.24309483  0.30578232  0.60620679  1
  O  O22  1  0.23016974  0.56227638  0.98361846  1
  O  O23  1  0.21781856  0.82715378  0.35095198  1
  O  O24  1  0.76628332  0.18291974  0.13368049  1
  O  O25  1  0.78589712  0.43100071  0.51166880  1
  O  O26  1  0.76113847  0.68025190  0.91486201  1
  O  O27  1  0.75384849  0.94163944  0.26195162  1
  O  O28  1  0.79480478  0.18569970  0.65193402  1
  O  O29  1  0.77341672  0.42310625  0.00774328  1
  O  O30  1  0.76819040  0.67935398  0.38955716  1
  O  O31  1  0.78465641  0.94759183  0.78436690  1
