# generated using pymatgen
data_Li2V(Si2O5)3
_symmetry_space_group_name_H-M   'P 1'
_cell_length_a   7.24074172
_cell_length_b   7.44053758
_cell_length_c   15.29571051
_cell_angle_alpha   75.41063613
_cell_angle_beta   90.00000000
_cell_angle_gamma   60.88436307
_symmetry_Int_Tables_number   1
_chemical_formula_structural   Li2V(Si2O5)3
_chemical_formula_sum   'Li4 V2 Si12 O30'
_cell_volume   689.35545139
_cell_formula_units_Z   2
loop_
 _symmetry_equiv_pos_site_id
 _symmetry_equiv_pos_as_xyz
  1  'x, y, z'
loop_
 _atom_site_type_symbol
 _atom_site_label
 _atom_site_symmetry_multiplicity
 _atom_site_fract_x
 _atom_site_fract_y
 _atom_site_fract_z
 _atom_site_occupancy
  Li  Li0  1  0.85570773  0.81878145  0.92857410  1
  Li  Li1  1  0.35439202  0.60193754  0.84653869  1
  Li  Li2  1  0.32551081  0.81878145  0.42857410  1
  Li  Li3  1  0.04367044  0.60193754  0.34653869  1
  V  V4  1  0.32047962  0.90450414  0.90992536  1
  V  V5  1  0.77501724  0.90450414  0.40992536  1
  Si  Si6  1  0.63987741  0.79878539  0.74567399  1
  Si  Si7  1  0.07280395  0.88653452  0.57129246  1
  Si  Si8  1  0.56133720  0.79878539  0.24567399  1
  Si  Si9  1  0.04066153  0.88653452  0.07129246  1
  Si  Si10  1  0.16755066  0.47323947  0.55293580  1
  Si  Si11  1  0.00495444  0.34243172  0.74237645  1
  Si  Si12  1  0.35920987  0.47323947  0.05293580  1
  Si  Si13  1  0.65261383  0.34243172  0.24237645  1
  Si  Si14  1  0.92929852  0.98316592  0.75521147  1
  Si  Si15  1  0.41278284  0.02382500  0.53913121  1
  Si  Si16  1  0.08753556  0.98316592  0.25521147  1
  Si  Si17  1  0.56339216  0.02382500  0.03913121  1
  O  O18  1  0.55846308  0.91834418  0.95841973  1
  O  O19  1  0.07448537  0.85463904  0.85534138  1
  O  O20  1  0.06030875  0.86582504  0.67980391  1
  O  O21  1  0.47424971  0.78043715  0.81155098  1
  O  O22  1  0.54331184  0.86981767  0.63912539  1
  O  O23  1  0.52319173  0.91834418  0.45841973  1
  O  O24  1  0.43388680  0.59756248  0.97067092  1
  O  O25  1  0.07087459  0.85463904  0.35534138  1
  O  O26  1  0.86121935  0.56655720  0.76656281  1
  O  O27  1  0.07386621  0.86582504  0.17980391  1
  O  O28  1  0.74531315  0.78043715  0.31155098  1
  O  O29  1  0.24810595  0.64373359  0.56128584  1
  O  O30  1  0.58687050  0.86981767  0.13912539  1
  O  O31  1  0.96855072  0.59756248  0.47067092  1
  O  O32  1  0.11453253  0.38229950  0.65222362  1
  O  O33  1  0.57222445  0.56655720  0.26656281  1
  O  O34  1  0.18699538  0.17607909  0.83027689  1
  O  O35  1  0.85943522  0.23794333  0.72382714  1
  O  O36  1  0.10816046  0.64373359  0.06128584  1
  O  O37  1  0.36176751  0.27040553  0.52505166  1
  O  O38  1  0.50316697  0.38229950  0.15222362  1
  O  O39  1  0.71115938  0.96697370  0.76462441  1
  O  O40  1  0.63692553  0.17607909  0.33027689  1
  O  O41  1  0.90262145  0.23794333  0.22382714  1
  O  O42  1  0.17938918  0.03391991  0.52877477  1
  O  O43  1  0.84494986  0.97333743  0.51370902  1
  O  O44  1  0.36782796  0.27040553  0.02505166  1
  O  O45  1  0.32186492  0.96697370  0.26462441  1
  O  O46  1  0.78669091  0.03391991  0.02877477  1
  O  O47  1  0.18171270  0.97333743  0.01370902  1
