# generated using pymatgen
data_Li4MnCo2O7
_symmetry_space_group_name_H-M   'P 1'
_cell_length_a   5.06682400
_cell_length_b   5.08555297
_cell_length_c   10.05514511
_cell_angle_alpha   101.15871530
_cell_angle_beta   99.28072171
_cell_angle_gamma   98.84713787
_symmetry_Int_Tables_number   1
_chemical_formula_structural   Li4MnCo2O7
_chemical_formula_sum   'Li8 Mn2 Co4 O14'
_cell_volume   246.24904025
_cell_formula_units_Z   2
loop_
 _symmetry_equiv_pos_site_id
 _symmetry_equiv_pos_as_xyz
  1  'x, y, z'
loop_
 _atom_site_type_symbol
 _atom_site_label
 _atom_site_symmetry_multiplicity
 _atom_site_fract_x
 _atom_site_fract_y
 _atom_site_fract_z
 _atom_site_occupancy
  Li  Li0  1  0.29163500  0.56402800  0.08252900  1
  Li  Li1  1  0.41457300  0.86536000  0.34978300  1
  Li  Li2  1  0.86142200  0.71380300  0.21866300  1
  Li  Li3  1  0.99734800  0.00264100  0.49556400  1
  Li  Li4  1  0.56530400  0.14574200  0.64113800  1
  Li  Li5  1  0.14266700  0.28144800  0.78256900  1
  Li  Li6  1  0.71820200  0.42741000  0.93189100  1
  Li  Li7  1  0.13934500  0.28804300  0.28448300  1
  Mn  Mn8  1  0.00585300  0.00137400  0.00638600  1
  Mn  Mn9  1  0.71074800  0.42968600  0.42241100  1
  Co  Co10  1  0.27982000  0.57068500  0.56372100  1
  Co  Co11  1  0.43244700  0.84535900  0.85378900  1
  Co  Co12  1  0.57480800  0.14242700  0.14469900  1
  Co  Co13  1  0.85856000  0.71463800  0.71296800  1
  O  O14  1  0.06249200  0.66412300  0.88502600  1
  O  O15  1  0.22536000  0.93781900  0.16442800  1
  O  O16  1  0.66636900  0.81387100  0.03931500  1
  O  O17  1  0.76342700  0.09769300  0.31882100  1
  O  O18  1  0.37362100  0.24888400  0.46882900  1
  O  O19  1  0.91549300  0.37890700  0.59956300  1
  O  O20  1  0.49476000  0.51452500  0.75647500  1
  O  O21  1  0.51778100  0.48041400  0.25409300  1
  O  O22  1  0.64960100  0.76628600  0.54246800  1
  O  O23  1  0.04887900  0.63607300  0.39852300  1
  O  O24  1  0.22218800  0.91419800  0.67987000  1
  O  O25  1  0.79994000  0.04826700  0.82834500  1
  O  O26  1  0.35287300  0.18455000  0.97213600  1
  O  O27  1  0.91448500  0.32174600  0.10151400  1
