# generated using pymatgen
data_Li4FeC6ClO21
_symmetry_space_group_name_H-M   'P 1'
_cell_length_a   9.16672005
_cell_length_b   9.16672005
_cell_length_c   24.66825800
_cell_angle_alpha   90.00000000
_cell_angle_beta   90.00000000
_cell_angle_gamma   119.88168709
_symmetry_Int_Tables_number   1
_chemical_formula_structural   Li4FeC6ClO21
_chemical_formula_sum   'Li16 Fe4 C24 Cl4 O84'
_cell_volume   1797.27106490
_cell_formula_units_Z   4
loop_
 _symmetry_equiv_pos_site_id
 _symmetry_equiv_pos_as_xyz
  1  'x, y, z'
loop_
 _atom_site_type_symbol
 _atom_site_label
 _atom_site_symmetry_multiplicity
 _atom_site_fract_x
 _atom_site_fract_y
 _atom_site_fract_z
 _atom_site_occupancy
  Li  Li0  1  0.00019900  0.00076600  0.10519900  1
  Li  Li1  1  0.00019900  0.00076600  0.39480100  1
  Li  Li2  1  0.99923400  0.99980100  0.60519900  1
  Li  Li3  1  0.99923400  0.99980100  0.89480100  1
  Li  Li4  1  0.31904600  0.15764600  0.99997500  1
  Li  Li5  1  0.84235400  0.68095400  0.00002500  1
  Li  Li6  1  0.83847400  0.16152600  0.00000000  1
  Li  Li7  1  0.31904600  0.15764600  0.50002500  1
  Li  Li8  1  0.84235400  0.68095400  0.49997500  1
  Li  Li9  1  0.83847400  0.16152600  0.50000000  1
  Li  Li10  1  0.32289300  0.99214800  0.25000000  1
  Li  Li11  1  0.67161500  0.67634000  0.25000000  1
  Li  Li12  1  0.00336800  0.32848300  0.25000000  1
  Li  Li13  1  0.00785200  0.67710700  0.75000000  1
  Li  Li14  1  0.32366000  0.32838500  0.75000000  1
  Li  Li15  1  0.67151700  0.99663200  0.75000000  1
  Fe  Fe16  1  0.33138600  0.66109500  0.10326300  1
  Fe  Fe17  1  0.33138600  0.66109500  0.39673700  1
  Fe  Fe18  1  0.33890500  0.66861400  0.60326300  1
  Fe  Fe19  1  0.33890500  0.66861400  0.89673700  1
  C  C20  1  0.20933600  0.87520100  0.07867500  1
  C  C21  1  0.66973700  0.78967500  0.07554100  1
  C  C22  1  0.12232700  0.33524700  0.07693700  1
  C  C23  1  0.20933600  0.87520100  0.42132500  1
  C  C24  1  0.66973700  0.78967500  0.42445900  1
  C  C25  1  0.12232700  0.33524700  0.42306300  1
  C  C26  1  0.12479900  0.79066400  0.57867500  1
  C  C27  1  0.21032500  0.33026300  0.57554100  1
  C  C28  1  0.66475300  0.87767300  0.57693700  1
  C  C29  1  0.12479900  0.79066400  0.92132500  1
  C  C30  1  0.21032500  0.33026300  0.92445900  1
  C  C31  1  0.66475300  0.87767300  0.92306300  1
  C  C32  1  0.11093900  0.78000300  0.13178300  1
  C  C33  1  0.66588600  0.88362000  0.12885800  1
  C  C34  1  0.21694000  0.33384200  0.12957600  1
  C  C35  1  0.11093900  0.78000300  0.36821700  1
  C  C36  1  0.66588600  0.88362000  0.37114200  1
  C  C37  1  0.21694000  0.33384200  0.37042400  1
  C  C38  1  0.21999700  0.88906100  0.63178300  1
  C  C39  1  0.11638000  0.33411400  0.62885800  1
  C  C40  1  0.66615800  0.78306000  0.62957600  1
  C  C41  1  0.21999700  0.88906100  0.86821700  1
  C  C42  1  0.11638000  0.33411400  0.87114200  1
  C  C43  1  0.66615800  0.78306000  0.87042400  1
  Cl  Cl44  1  0.66793200  0.33432400  0.07393100  1
  Cl  Cl45  1  0.66793200  0.33432400  0.42606900  1
  Cl  Cl46  1  0.66567600  0.33206800  0.57393100  1
  Cl  Cl47  1  0.66567600  0.33206800  0.92606900  1
  O  O48  1  0.31415900  0.83326300  0.06097200  1
  O  O49  1  0.52653400  0.68334400  0.05717000  1
  O  O50  1  0.16015700  0.48157300  0.05932100  1
  O  O51  1  0.31415900  0.83326300  0.43902800  1
  O  O52  1  0.52653400  0.68334400  0.44283000  1
  O  O53  1  0.16015700  0.48157300  0.44067900  1
  O  O54  1  0.16673700  0.68584100  0.56097200  1
  O  O55  1  0.31665700  0.47346600  0.55717000  1
  O  O56  1  0.51842700  0.83984300  0.55932100  1
  O  O57  1  0.16673700  0.68584100  0.93902800  1
  O  O58  1  0.31665700  0.47346600  0.94283000  1
  O  O59  1  0.51842700  0.83984300  0.94067900  1
  O  O60  1  0.18000300  0.98122000  0.05728300  1
  O  O61  1  0.80944700  0.82601200  0.05550300  1
  O  O62  1  0.01872300  0.19932900  0.05552500  1
  O  O63  1  0.18000300  0.98122000  0.44271700  1
  O  O64  1  0.80944700  0.82601200  0.44449700  1
  O  O65  1  0.01872300  0.19932900  0.44447500  1
  O  O66  1  0.01878000  0.81999700  0.55728300  1
  O  O67  1  0.17398800  0.19055300  0.55550300  1
  O  O68  1  0.80067100  0.98127700  0.55552500  1
  O  O69  1  0.01878000  0.81999700  0.94271700  1
  O  O70  1  0.17398800  0.19055300  0.94449700  1
  O  O71  1  0.80067100  0.98127700  0.94447500  1
  O  O72  1  0.00770200  0.81825800  0.15061200  1
  O  O73  1  0.80279200  0.98816400  0.14934500  1
  O  O74  1  0.18270800  0.19740900  0.15010500  1
  O  O75  1  0.00770200  0.81825800  0.34938800  1
  O  O76  1  0.80279200  0.98816400  0.35065500  1
  O  O77  1  0.18270800  0.19740900  0.34989500  1
  O  O78  1  0.18174200  0.99229800  0.65061200  1
  O  O79  1  0.01183600  0.19720800  0.64934500  1
  O  O80  1  0.80259100  0.81729200  0.65010500  1
  O  O81  1  0.18174200  0.99229800  0.84938800  1
  O  O82  1  0.01183600  0.19720800  0.85065500  1
  O  O83  1  0.80259100  0.81729200  0.84989500  1
  O  O84  1  0.14974100  0.67414100  0.14999000  1
  O  O85  1  0.51826400  0.84056500  0.14648700  1
  O  O86  1  0.32423900  0.48185200  0.14744200  1
  O  O87  1  0.14974100  0.67414100  0.35001000  1
  O  O88  1  0.51826400  0.84056500  0.35351300  1
  O  O89  1  0.32423900  0.48185200  0.35255800  1
  O  O90  1  0.32585900  0.85025900  0.64999000  1
  O  O91  1  0.15943500  0.48173600  0.64648700  1
  O  O92  1  0.51814800  0.67576100  0.64744200  1
  O  O93  1  0.32585900  0.85025900  0.85001000  1
  O  O94  1  0.15943500  0.48173600  0.85351300  1
  O  O95  1  0.51814800  0.67576100  0.85255800  1
  O  O96  1  0.51021700  0.32548800  0.05381300  1
  O  O97  1  0.81694100  0.49098700  0.05320300  1
  O  O98  1  0.67471800  0.18509500  0.05278700  1
  O  O99  1  0.51021700  0.32548800  0.44618700  1
  O  O100  1  0.81694100  0.49098700  0.44679700  1
  O  O101  1  0.67471800  0.18509500  0.44721300  1
  O  O102  1  0.67451200  0.48978300  0.55381300  1
  O  O103  1  0.50901300  0.18305900  0.55320300  1
  O  O104  1  0.81490500  0.32528200  0.55278700  1
  O  O105  1  0.67451200  0.48978300  0.94618700  1
  O  O106  1  0.50901300  0.18305900  0.94679700  1
  O  O107  1  0.81490500  0.32528200  0.94721300  1
  O  O108  1  0.41674200  0.12873200  0.18182300  1
  O  O109  1  0.72679000  0.59405900  0.18037000  1
  O  O110  1  0.86486900  0.27749400  0.18112000  1
  O  O111  1  0.41674200  0.12873200  0.31817700  1
  O  O112  1  0.72679000  0.59405900  0.31963000  1
  O  O113  1  0.86486900  0.27749400  0.31888000  1
  O  O114  1  0.87126800  0.58325800  0.68182300  1
  O  O115  1  0.40594100  0.27321000  0.68037000  1
  O  O116  1  0.72250600  0.13513100  0.68112000  1
  O  O117  1  0.87126800  0.58325800  0.81817700  1
  O  O118  1  0.40594100  0.27321000  0.81963000  1
  O  O119  1  0.72250600  0.13513100  0.81888000  1
  O  O120  1  0.06253100  0.91107800  0.25000000  1
  O  O121  1  0.84750200  0.93648600  0.25000000  1
  O  O122  1  0.08771000  0.15258500  0.25000000  1
  O  O123  1  0.08892200  0.93746900  0.75000000  1
  O  O124  1  0.06351400  0.15249800  0.75000000  1
  O  O125  1  0.84741500  0.91229000  0.75000000  1
  O  O126  1  0.42829200  0.81595500  0.25000000  1
  O  O127  1  0.39010500  0.57176400  0.25000000  1
  O  O128  1  0.18421500  0.61053800  0.25000000  1
  O  O129  1  0.18404500  0.57170800  0.75000000  1
  O  O130  1  0.42823600  0.60989500  0.75000000  1
  O  O131  1  0.38946200  0.81578500  0.75000000  1
