# generated using pymatgen
data_Li2V2(PO4)3
_symmetry_space_group_name_H-M   'P 1'
_cell_length_a   8.70492942
_cell_length_b   8.66157405
_cell_length_c   8.67615747
_cell_angle_alpha   60.26527759
_cell_angle_beta   91.07156973
_cell_angle_gamma   60.71830874
_symmetry_Int_Tables_number   1
_chemical_formula_structural   Li2V2(PO4)3
_chemical_formula_sum   'Li4 V4 P6 O24'
_cell_volume   465.03648148
_cell_formula_units_Z   2
loop_
 _symmetry_equiv_pos_site_id
 _symmetry_equiv_pos_as_xyz
  1  'x, y, z'
loop_
 _atom_site_type_symbol
 _atom_site_label
 _atom_site_symmetry_multiplicity
 _atom_site_fract_x
 _atom_site_fract_y
 _atom_site_fract_z
 _atom_site_occupancy
  Li  Li0  1  0.68040528  0.77397319  0.55396469  1
  Li  Li1  1  0.17842541  0.87146957  0.94024227  1
  Li  Li2  1  0.82142452  0.12890606  0.05963370  1
  Li  Li3  1  0.31949536  0.22612188  0.44601689  1
  V  V4  1  0.63561038  0.72145114  0.91630002  1
  V  V5  1  0.86054698  0.28370386  0.57702222  1
  V  V6  1  0.13935423  0.71633386  0.42291822  1
  V  V7  1  0.36443130  0.27839141  0.08380272  1
  P  P8  1  0.96809870  0.78267012  0.74978768  1
  P  P9  1  0.54337493  0.49208167  0.74944971  1
  P  P10  1  0.25165623  0.21332094  0.74613821  1
  P  P11  1  0.74819013  0.78693072  0.25362834  1
  P  P12  1  0.45656219  0.50767066  0.25073636  1
  P  P13  1  0.03236844  0.21703064  0.25038219  1
  O  O14  1  0.95094972  0.97219001  0.74647945  1
  O  O15  1  0.00965325  0.79059787  0.57276690  1
  O  O16  1  0.78255932  0.80259016  0.73655657  1
  O  O17  1  0.73355902  0.32550591  0.75001189  1
  O  O18  1  0.53641637  0.35086313  0.94340395  1
  O  O19  1  0.56139043  0.66927058  0.73067996  1
  O  O20  1  0.30060924  0.20733594  0.91768186  1
  O  O21  1  0.41380176  0.03558872  0.73403769  1
  O  O22  1  0.81121601  0.57380126  0.44775848  1
  O  O23  1  0.90740147  0.82489240  0.24518534  1
  O  O24  1  0.13299727  0.57763450  0.93013349  1
  O  O25  1  0.62288754  0.39558383  0.41998176  1
  O  O26  1  0.37710396  0.60431480  0.57998778  1
  O  O27  1  0.86731031  0.42222253  0.06984967  1
  O  O28  1  0.09230402  0.17562451  0.75464613  1
  O  O29  1  0.18848785  0.42646106  0.55190885  1
  O  O30  1  0.58617594  0.96450786  0.26594676  1
  O  O31  1  0.69930457  0.79307094  0.08200613  1
  O  O32  1  0.43848196  0.33065706  0.26959773  1
  O  O33  1  0.46325680  0.64931723  0.05673666  1
  O  O34  1  0.26627299  0.67420590  0.25027575  1
  O  O35  1  0.21786747  0.19677189  0.26359818  1
  O  O36  1  0.99070497  0.20932997  0.42722179  1
  O  O37  1  0.04934269  0.02760722  0.25352402  1
