# generated using pymatgen
data_Li2V3CrO8
_symmetry_space_group_name_H-M   'P 1'
_cell_length_a   6.06371996
_cell_length_b   10.13271578
_cell_length_c   5.96009813
_cell_angle_alpha   105.17626912
_cell_angle_beta   59.40956752
_cell_angle_gamma   90.00807298
_symmetry_Int_Tables_number   1
_chemical_formula_structural   Li2V3CrO8
_chemical_formula_sum   'Li4 V6 Cr2 O16'
_cell_volume   300.31239262
_cell_formula_units_Z   2
loop_
 _symmetry_equiv_pos_site_id
 _symmetry_equiv_pos_as_xyz
  1  'x, y, z'
loop_
 _atom_site_type_symbol
 _atom_site_label
 _atom_site_symmetry_multiplicity
 _atom_site_fract_x
 _atom_site_fract_y
 _atom_site_fract_z
 _atom_site_occupancy
  Li  Li0  1  0.31191300  0.55962900  0.37085800  1
  Li  Li1  1  0.81904900  0.05957000  0.36842200  1
  Li  Li2  1  0.18790900  0.94037300  0.62929200  1
  Li  Li3  1  0.68093500  0.44047800  0.63157800  1
  V  V4  1  0.24997000  0.75012600  0.99994700  1
  V  V5  1  0.75014400  0.25003400  0.99976400  1
  V  V6  1  0.74979600  0.75003600  0.00032700  1
  V  V7  1  0.25017500  0.25002100  0.99972800  1
  V  V8  1  0.00380900  0.50035600  0.00283000  1
  V  V9  1  0.49626100  0.99956200  0.99717900  1
  Cr  Cr10  1  0.74975200  0.74995100  0.50007700  1
  Cr  Cr11  1  0.25025400  0.24993500  0.49972800  1
  O  O12  1  0.09498000  0.62524200  0.78773000  1
  O  O13  1  0.61886700  0.12540100  0.78510700  1
  O  O14  1  0.40485600  0.87477500  0.21237600  1
  O  O15  1  0.88115500  0.37459700  0.21487500  1
  O  O16  1  0.88475700  0.85532600  0.22333200  1
  O  O17  1  0.39112900  0.35563700  0.22297900  1
  O  O18  1  0.09984300  0.62561900  0.23983600  1
  O  O19  1  0.61040300  0.13456900  0.23372700  1
  O  O20  1  0.65414200  0.63465700  0.23580800  1
  O  O21  1  0.16316700  0.12487000  0.23848200  1
  O  O22  1  0.84563000  0.86531600  0.76451400  1
  O  O23  1  0.33693200  0.37515000  0.76151100  1
  O  O24  1  0.40001200  0.87443600  0.76040400  1
  O  O25  1  0.88994900  0.36530400  0.76599600  1
  O  O26  1  0.61504400  0.64476200  0.77680600  1
  O  O27  1  0.10916600  0.14427000  0.77678500  1
