# generated using pymatgen
data_LiAlSiH2O5
_symmetry_space_group_name_H-M   'P 1'
_cell_length_a   5.42474407
_cell_length_b   7.33215663
_cell_length_c   12.20498692
_cell_angle_alpha   90.00000000
_cell_angle_beta   90.00000000
_cell_angle_gamma   90.00000000
_symmetry_Int_Tables_number   1
_chemical_formula_structural   LiAlSiH2O5
_chemical_formula_sum   'Li4 Al4 Si4 H8 O20'
_cell_volume   485.45424813
_cell_formula_units_Z   4
loop_
 _symmetry_equiv_pos_site_id
 _symmetry_equiv_pos_as_xyz
  1  'x, y, z'
loop_
 _atom_site_type_symbol
 _atom_site_label
 _atom_site_symmetry_multiplicity
 _atom_site_fract_x
 _atom_site_fract_y
 _atom_site_fract_z
 _atom_site_occupancy
  Li  Li0  1  0.34726899  0.98500175  0.58470977  1
  Li  Li1  1  0.84726899  0.48500175  0.91529023  1
  Li  Li2  1  0.84726899  0.01499825  0.41529023  1
  Li  Li3  1  0.34726899  0.51499825  0.08470977  1
  Al  Al4  1  0.59526697  0.61949291  0.30691744  1
  Al  Al5  1  0.09526697  0.11949291  0.19308256  1
  Al  Al6  1  0.59526697  0.88050709  0.80691744  1
  Al  Al7  1  0.09526697  0.38050709  0.69308256  1
  Si  Si8  1  0.09294110  0.40082706  0.30712614  1
  Si  Si9  1  0.59294110  0.90082706  0.19287386  1
  Si  Si10  1  0.59294110  0.59917294  0.69287386  1
  Si  Si11  1  0.09294110  0.09917294  0.80712614  1
  H  H12  1  0.78598468  0.13402499  0.59265806  1
  H  H13  1  0.28598468  0.63402499  0.90734194  1
  H  H14  1  0.28598468  0.86597501  0.40734194  1
  H  H15  1  0.61160262  0.26974432  0.53080678  1
  H  H16  1  0.11160262  0.73025568  0.46919322  1
  H  H17  1  0.11160262  0.76974432  0.96919322  1
  H  H18  1  0.78598468  0.36597501  0.09265806  1
  H  H19  1  0.61160262  0.23025568  0.03080678  1
  O  O20  1  0.36764573  0.47592766  0.64931530  1
  O  O21  1  0.86764573  0.97592766  0.85068470  1
  O  O22  1  0.65248924  0.35998059  0.03690242  1
  O  O23  1  0.09371471  0.13306427  0.66915462  1
  O  O24  1  0.84706074  0.99130711  0.14954088  1
  O  O25  1  0.84706074  0.50869289  0.64954088  1
  O  O26  1  0.56532522  0.81971349  0.66319680  1
  O  O27  1  0.56532522  0.68028651  0.16319680  1
  O  O28  1  0.34706074  0.49130711  0.35045912  1
  O  O29  1  0.34706074  0.00869289  0.85045912  1
  O  O30  1  0.15248924  0.64001941  0.96309758  1
  O  O31  1  0.65248924  0.14001941  0.53690242  1
  O  O32  1  0.15248924  0.85998059  0.46309758  1
  O  O33  1  0.06532522  0.31971349  0.83680320  1
  O  O34  1  0.86764573  0.52407234  0.35068470  1
  O  O35  1  0.09371471  0.36693573  0.16915462  1
  O  O36  1  0.59371471  0.86693573  0.33084538  1
  O  O37  1  0.06532522  0.18028651  0.33680320  1
  O  O38  1  0.36764573  0.02407234  0.14931530  1
  O  O39  1  0.59371471  0.63306427  0.83084538  1
