# generated using pymatgen
data_Li7V3P8O29
_symmetry_space_group_name_H-M   'P 1'
_cell_length_a   9.84747500
_cell_length_b   9.85221179
_cell_length_c   13.92124655
_cell_angle_alpha   89.85441892
_cell_angle_beta   89.71063160
_cell_angle_gamma   60.05410897
_symmetry_Int_Tables_number   1
_chemical_formula_structural   Li7V3P8O29
_chemical_formula_sum   'Li14 V6 P16 O58'
_cell_volume   1170.30316459
_cell_formula_units_Z   2
loop_
 _symmetry_equiv_pos_site_id
 _symmetry_equiv_pos_as_xyz
  1  'x, y, z'
loop_
 _atom_site_type_symbol
 _atom_site_label
 _atom_site_symmetry_multiplicity
 _atom_site_fract_x
 _atom_site_fract_y
 _atom_site_fract_z
 _atom_site_occupancy
  Li  Li0  1  0.89939200  0.33648000  0.93391500  1
  Li  Li1  1  0.75823700  0.34664400  0.43905100  1
  Li  Li2  1  0.90713000  0.77264900  0.44223000  1
  Li  Li3  1  0.76402800  0.89607500  0.94347600  1
  Li  Li4  1  0.33431800  0.76574400  0.94121700  1
  Li  Li5  1  0.67391700  0.09427100  0.56040000  1
  Li  Li6  1  0.33420200  0.89977500  0.43741900  1
  Li  Li7  1  0.22966400  0.08818800  0.06286200  1
  Li  Li8  1  0.33566300  0.32158000  0.38847400  1
  Li  Li9  1  0.33461500  0.33803300  0.88645500  1
  Li  Li10  1  0.23289200  0.67977300  0.56397200  1
  Li  Li11  1  0.08781700  0.67832000  0.06128700  1
  Li  Li12  1  0.92374300  0.06520200  0.01492300  1
  Li  Li13  1  0.00920800  0.05813000  0.51309000  1
  V  V14  1  0.56461500  0.99890200  0.74769600  1
  V  V15  1  0.43606200  0.99883500  0.24706600  1
  V  V16  1  0.56450700  0.43198700  0.24569200  1
  V  V17  1  0.43818800  0.56407800  0.75033600  1
  V  V18  1  0.00244900  0.43179700  0.74602000  1
  V  V19  1  0.99703800  0.56091800  0.25240900  1
  P  P20  1  0.91338400  0.31216900  0.15502500  1
  P  P21  1  0.77317300  0.31031200  0.65622000  1
  P  P22  1  0.91498000  0.77294700  0.65653600  1
  P  P23  1  0.66418200  0.67140200  0.87179000  1
  P  P24  1  0.66635800  0.66015100  0.37169300  1
  P  P25  1  0.77734000  0.91057000  0.15711900  1
  P  P26  1  0.68295400  0.09199400  0.34184400  1
  P  P27  1  0.31325300  0.76886800  0.15661100  1
  P  P28  1  0.68852400  0.21863600  0.84108000  1
  P  P29  1  0.31220900  0.91410500  0.65644800  1
  P  P30  1  0.22677400  0.08854600  0.84275100  1
  P  P31  1  0.33893600  0.33129400  0.62935700  1
  P  P32  1  0.32823700  0.33871800  0.12831500  1
  P  P33  1  0.08682900  0.21795100  0.34080300  1
  P  P34  1  0.22732000  0.67984400  0.34324000  1
  P  P35  1  0.09254700  0.68038700  0.84172900  1
  O  O36  1  0.98366000  0.21801400  0.42059400  1
  O  O37  1  0.91453900  0.32996900  0.66209200  1
  O  O38  1  0.79195800  0.21778500  0.92041700  1
  O  O39  1  0.74948500  0.33408500  0.16207000  1
  O  O40  1  0.91454000  0.46703500  0.16663700  1
  O  O41  1  0.81128700  0.51911300  0.83838600  1
  O  O42  1  0.90568600  0.62504300  0.66747500  1
  O  O43  1  0.00018200  0.76756900  0.92999800  1
  O  O44  1  0.92288100  0.74443400  0.16439300  1
  O  O45  1  0.66750100  0.51321000  0.32503800  1
  O  O46  1  0.61766100  0.46692100  0.67403600  1
  O  O47  1  0.81598800  0.66354600  0.32865000  1
  O  O48  1  0.65435400  0.70252000  0.97741100  1
  O  O49  1  0.68210300  0.63864100  0.47793600  1
  O  O50  1  0.66614800  0.81611400  0.81933400  1
  O  O51  1  0.47188100  0.61821000  0.16926200  1
  O  O52  1  0.51317700  0.67263400  0.83408900  1
  O  O53  1  0.75135500  0.92195500  0.65836600  1
  O  O54  1  0.79013600  0.00388200  0.24965000  1
  O  O55  1  0.76737300  0.99936300  0.43065700  1
  O  O56  1  0.79241800  0.98699800  0.06671600  1
  O  O57  1  0.62553900  0.90652900  0.16646500  1
  O  O58  1  0.51855400  0.81068100  0.33756500  1
  O  O59  1  0.66326700  0.07658100  0.84704900  1
  O  O60  1  0.46595700  0.91738200  0.66339500  1
  O  O61  1  0.33878600  0.74499600  0.66308300  1
  O  O62  1  0.78100800  0.19561000  0.74112100  1
  O  O63  1  0.76938600  0.23096800  0.56327400  1
  O  O64  1  0.23608100  0.76559600  0.43086600  1
  O  O65  1  0.66796100  0.25548300  0.34274300  1
  O  O66  1  0.51774200  0.11309000  0.32998100  1
  O  O67  1  0.32918400  0.91553100  0.15742700  1
  O  O68  1  0.49364100  0.18642600  0.67197400  1
  O  O69  1  0.37397700  0.10674700  0.82816300  1
  O  O70  1  0.23982500  0.99406800  0.93166100  1
  O  O71  1  0.22115900  0.98787000  0.56596100  1
  O  O72  1  0.20802900  0.00071300  0.75022900  1
  O  O73  1  0.25319700  0.07681200  0.34499800  1
  O  O74  1  0.47729200  0.33307200  0.17333500  1
  O  O75  1  0.52604200  0.36986200  0.83273100  1
  O  O76  1  0.32320400  0.18963000  0.15860200  1
  O  O77  1  0.31803100  0.36300200  0.02157900  1
  O  O78  1  0.35716700  0.32677200  0.52143100  1
  O  O79  1  0.19849600  0.32201600  0.66783300  1
  O  O80  1  0.37472400  0.51621900  0.33035000  1
  O  O81  1  0.33080300  0.48670300  0.66765700  1
  O  O82  1  0.08043100  0.25064200  0.84516400  1
  O  O83  1  0.01607900  0.19783600  0.24092400  1
  O  O84  1  0.99387300  0.22514200  0.06282000  1
  O  O85  1  0.09892300  0.36963200  0.33355100  1
  O  O86  1  0.18393800  0.48594600  0.17667300  1
  O  O87  1  0.11457200  0.51582700  0.83061700  1
  O  O88  1  0.25933800  0.66293300  0.84207800  1
  O  O89  1  0.22805400  0.76399800  0.06766200  1
  O  O90  1  0.20576900  0.78480900  0.24972700  1
  O  O91  1  0.08129200  0.66019000  0.34759000  1
  O  O92  1  0.00384000  0.77823700  0.56818200  1
  O  O93  1  0.00698000  0.78770100  0.74967300  1
