# generated using pymatgen
data_Li4Nb3V2Ni3O16
_symmetry_space_group_name_H-M   'P 1'
_cell_length_a   6.05418856
_cell_length_b   6.05418856
_cell_length_c   9.74245226
_cell_angle_alpha   89.92148510
_cell_angle_beta   89.92148510
_cell_angle_gamma   60.47568783
_symmetry_Int_Tables_number   1
_chemical_formula_structural   Li4Nb3V2Ni3O16
_chemical_formula_sum   'Li4 Nb3 V2 Ni3 O16'
_cell_volume   310.72206000
_cell_formula_units_Z   1
loop_
 _symmetry_equiv_pos_site_id
 _symmetry_equiv_pos_as_xyz
  1  'x, y, z'
loop_
 _atom_site_type_symbol
 _atom_site_label
 _atom_site_symmetry_multiplicity
 _atom_site_fract_x
 _atom_site_fract_y
 _atom_site_fract_z
 _atom_site_occupancy
  Li  Li0  1  0.66258200  0.66258200  0.11590000  1
  Li  Li1  1  0.97979600  0.97979600  0.01774300  1
  Li  Li2  1  0.99839100  0.99839100  0.49357500  1
  Li  Li3  1  0.32924000  0.32924000  0.59648200  1
  Nb  Nb4  1  0.33911300  0.83664300  0.78762700  1
  Nb  Nb5  1  0.83664300  0.33911300  0.78762700  1
  Nb  Nb6  1  0.17540100  0.17540100  0.27846900  1
  V  V7  1  0.67817700  0.67817700  0.49699800  1
  V  V8  1  0.34573000  0.34573000  0.02318900  1
  Ni  Ni9  1  0.83028700  0.83028700  0.78387100  1
  Ni  Ni10  1  0.18448800  0.65422400  0.28836400  1
  Ni  Ni11  1  0.65422400  0.18448800  0.28836400  1
  O  O12  1  0.34542900  0.83486500  0.40579600  1
  O  O13  1  0.51578300  0.51578300  0.66547300  1
  O  O14  1  0.65992200  0.65992200  0.89960400  1
  O  O15  1  0.00363400  0.00363400  0.68225500  1
  O  O16  1  0.99966900  0.99966900  0.20230800  1
  O  O17  1  0.83486500  0.34542900  0.40579600  1
  O  O18  1  0.50923600  0.95384600  0.65687300  1
  O  O19  1  0.95384600  0.50923600  0.65687300  1
  O  O20  1  0.16562100  0.16562100  0.89472500  1
  O  O21  1  0.82580000  0.82580000  0.41440200  1
  O  O22  1  0.03068900  0.47502600  0.15533700  1
  O  O23  1  0.47502600  0.03068900  0.15533700  1
  O  O24  1  0.32483100  0.32483100  0.40097800  1
  O  O25  1  0.17850700  0.67166900  0.89650800  1
  O  O26  1  0.48080400  0.48080400  0.15271800  1
  O  O27  1  0.67166900  0.17850700  0.89650800  1
