# generated using pymatgen
data_Li4MnCo2O7
_symmetry_space_group_name_H-M   'P 1'
_cell_length_a   5.90073487
_cell_length_b   6.52641960
_cell_length_c   7.70043721
_cell_angle_alpha   115.41571477
_cell_angle_beta   111.13878256
_cell_angle_gamma   75.87284077
_symmetry_Int_Tables_number   1
_chemical_formula_structural   Li4MnCo2O7
_chemical_formula_sum   'Li8 Mn2 Co4 O14'
_cell_volume   248.41718185
_cell_formula_units_Z   2
loop_
 _symmetry_equiv_pos_site_id
 _symmetry_equiv_pos_as_xyz
  1  'x, y, z'
loop_
 _atom_site_type_symbol
 _atom_site_label
 _atom_site_symmetry_multiplicity
 _atom_site_fract_x
 _atom_site_fract_y
 _atom_site_fract_z
 _atom_site_occupancy
  Li  Li0  1  0.21760047  0.43454100  0.14671501  1
  Li  Li1  1  0.92693277  0.85933646  0.28591408  1
  Li  Li2  1  0.64199684  0.28405594  0.43061644  1
  Li  Li3  1  0.35852070  0.71537508  0.56578978  1
  Li  Li4  1  0.06687718  0.14273617  0.71003622  1
  Li  Li5  1  0.78633215  0.57111162  0.85816122  1
  Li  Li6  1  0.50241574  0.99357307  0.00563864  1
  Li  Li7  1  0.42688134  0.85605590  0.28611647  1
  Mn  Mn8  1  0.00159031  0.99972944  0.00175582  1
  Mn  Mn9  1  0.71120943  0.43152951  0.14381116  1
  Co  Co10  1  0.14210989  0.27924763  0.42626276  1
  Co  Co11  1  0.84770796  0.71476468  0.56709410  1
  Co  Co12  1  0.56395968  0.13851858  0.70415127  1
  Co  Co13  1  0.29650406  0.57666229  0.86084447  1
  O  O14  1  0.88876655  0.27612169  0.94146022  1
  O  O15  1  0.61264985  0.69244090  0.07428746  1
  O  O16  1  0.28195093  0.13933127  0.21095323  1
  O  O17  1  0.01122878  0.55044519  0.34622164  1
  O  O18  1  0.75087216  0.99593256  0.51649711  1
  O  O19  1  0.45969239  0.43277648  0.65201196  1
  O  O20  1  0.17072340  0.86436714  0.79855121  1
  O  O21  1  0.55178471  0.56210728  0.34981988  1
  O  O22  1  0.25319960  0.02397228  0.50756849  1
  O  O23  1  0.97998380  0.43631002  0.63102343  1
  O  O24  1  0.70307768  0.86778539  0.79566428  1
  O  O25  1  0.42303787  0.29671046  0.93765544  1
  O  O26  1  0.10609721  0.72123630  0.05151703  1
  O  O27  1  0.81629654  0.14322565  0.19386118  1
