# generated using pymatgen
data_Li7Mn4CoO12
_symmetry_space_group_name_H-M   'P 1'
_cell_length_a   6.68586749
_cell_length_b   8.74847377
_cell_length_c   8.27571008
_cell_angle_alpha   103.10989710
_cell_angle_beta   71.65945708
_cell_angle_gamma   80.64174566
_symmetry_Int_Tables_number   1
_chemical_formula_structural   Li7Mn4CoO12
_chemical_formula_sum   'Li14 Mn8 Co2 O24'
_cell_volume   432.92201207
_cell_formula_units_Z   2
loop_
 _symmetry_equiv_pos_site_id
 _symmetry_equiv_pos_as_xyz
  1  'x, y, z'
loop_
 _atom_site_type_symbol
 _atom_site_label
 _atom_site_symmetry_multiplicity
 _atom_site_fract_x
 _atom_site_fract_y
 _atom_site_fract_z
 _atom_site_occupancy
  Li  Li0  1  0.91518700  0.25145700  0.33530000  1
  Li  Li1  1  0.41516100  0.75135300  0.33525000  1
  Li  Li2  1  0.68210700  0.99572000  0.82543200  1
  Li  Li3  1  0.18191100  0.49582500  0.82558000  1
  Li  Li4  1  0.41474000  0.74898900  0.83139500  1
  Li  Li5  1  0.91472600  0.24908700  0.83140100  1
  Li  Li6  1  0.83133300  0.49775400  0.15878600  1
  Li  Li7  1  0.33116600  0.99773900  0.15886600  1
  Li  Li8  1  0.49597100  0.50614100  0.51268900  1
  Li  Li9  1  0.99584600  0.00613300  0.51270200  1
  Li  Li10  1  0.74685700  0.74990400  0.99405800  1
  Li  Li11  1  0.24673400  0.24995000  0.99405600  1
  Li  Li12  1  0.58103700  0.24880900  0.67437600  1
  Li  Li13  1  0.08103200  0.74879000  0.67427400  1
  Mn  Mn14  1  0.99771700  0.00010600  0.99528100  1
  Mn  Mn15  1  0.32963800  0.00087200  0.66802100  1
  Mn  Mn16  1  0.58464400  0.25050100  0.16427000  1
  Mn  Mn17  1  0.75271000  0.75162200  0.50277500  1
  Mn  Mn18  1  0.49776900  0.50003800  0.99524000  1
  Mn  Mn19  1  0.82981300  0.50088400  0.66793500  1
  Mn  Mn20  1  0.08472800  0.75051800  0.16422900  1
  Mn  Mn21  1  0.25280200  0.25174300  0.50289600  1
  Co  Co22  1  0.16931000  0.50001500  0.33644700  1
  Co  Co23  1  0.66928300  0.00003400  0.33652900  1
  O  O24  1  0.50695600  0.48496100  0.22939900  1
  O  O25  1  0.00693400  0.98493000  0.22944000  1
  O  O26  1  0.83066800  0.51430400  0.43138100  1
  O  O27  1  0.33065000  0.01433900  0.43153300  1
  O  O28  1  0.06638800  0.75107600  0.40619300  1
  O  O29  1  0.56650400  0.25111500  0.40622200  1
  O  O30  1  0.77660800  0.74707900  0.25680200  1
  O  O31  1  0.27667800  0.24709100  0.25685800  1
  O  O32  1  0.89495200  0.23697300  0.08950000  1
  O  O33  1  0.39496400  0.73694600  0.08947600  1
  O  O34  1  0.44501500  0.76136800  0.57397200  1
  O  O35  1  0.94524900  0.26138000  0.57395300  1
  O  O36  1  0.68116800  0.98495100  0.57862000  1
  O  O37  1  0.18134600  0.48501700  0.57858600  1
  O  O38  1  0.17749000  0.51407600  0.08312500  1
  O  O39  1  0.67741300  0.01410900  0.08320400  1
  O  O40  1  0.75694500  0.73880600  0.72954400  1
  O  O41  1  0.25695300  0.23894300  0.72961000  1
  O  O42  1  0.56964600  0.26457100  0.93891700  1
  O  O43  1  0.06958500  0.76461800  0.93892200  1
  O  O44  1  0.29739900  0.00513800  0.91465800  1
  O  O45  1  0.79763000  0.50506800  0.91462100  1
  O  O46  1  0.49544000  0.49454000  0.76880600  1
  O  O47  1  0.99519800  0.99461900  0.76887200  1
