# generated using pymatgen
data_Li9Mn2Co5O16
_symmetry_space_group_name_H-M   'P 1'
_cell_length_a   2.96912400
_cell_length_b   7.79256039
_cell_length_c   12.58283118
_cell_angle_alpha   88.90008152
_cell_angle_beta   89.69097144
_cell_angle_gamma   81.55865770
_symmetry_Int_Tables_number   1
_chemical_formula_structural   Li9Mn2Co5O16
_chemical_formula_sum   'Li9 Mn2 Co5 O16'
_cell_volume   287.92200122
_cell_formula_units_Z   1
loop_
 _symmetry_equiv_pos_site_id
 _symmetry_equiv_pos_as_xyz
  1  'x, y, z'
loop_
 _atom_site_type_symbol
 _atom_site_label
 _atom_site_symmetry_multiplicity
 _atom_site_fract_x
 _atom_site_fract_y
 _atom_site_fract_z
 _atom_site_occupancy
  Li  Li0  1  0.19825000  0.62193700  0.05740400  1
  Li  Li1  1  0.93794100  0.12588800  0.31139100  1
  Li  Li2  1  0.68500700  0.62514300  0.56525200  1
  Li  Li3  1  0.79409600  0.38132600  0.93226900  1
  Li  Li4  1  0.55653500  0.87623200  0.18886700  1
  Li  Li5  1  0.30946200  0.37545100  0.43834900  1
  Li  Li6  1  0.44948700  0.11287500  0.81158500  1
  Li  Li7  1  0.06793800  0.87177900  0.69697700  1
  Li  Li8  1  0.60684800  0.75909700  0.87084900  1
  Mn  Mn9  1  0.00936600  0.99302000  0.99649800  1
  Mn  Mn10  1  0.50039900  0.00113100  0.50135800  1
  Co  Co11  1  0.74436000  0.49998100  0.24625400  1
  Co  Co12  1  0.24358700  0.51076400  0.75547500  1
  Co  Co13  1  0.38316600  0.24728400  0.12450100  1
  Co  Co14  1  0.13014500  0.74739900  0.37586400  1
  Co  Co15  1  0.86825100  0.25293100  0.62945600  1
  O  O16  1  0.57458300  0.83486600  0.02827100  1
  O  O17  1  0.33095700  0.31987700  0.26926000  1
  O  O18  1  0.13454600  0.81508200  0.52443200  1
  O  O19  1  0.22438600  0.54975400  0.89192200  1
  O  O20  1  0.00346300  0.07175200  0.14833400  1
  O  O21  1  0.71714900  0.56790900  0.39810200  1
  O  O22  1  0.87866800  0.32118000  0.77410600  1
  O  O23  1  0.45461300  0.06910300  0.65041500  1
  O  O24  1  0.74924300  0.42715700  0.09613400  1
  O  O25  1  0.54325100  0.93090500  0.35081100  1
  O  O26  1  0.28822100  0.43468500  0.60842600  1
  O  O27  1  0.43947100  0.16663500  0.97979700  1
  O  O28  1  0.15757000  0.67950500  0.22351600  1
  O  O29  1  0.86244000  0.19053400  0.47713900  1
  O  O30  1  0.02273200  0.94691300  0.85540700  1
  O  O31  1  0.63387100  0.67190600  0.72157500  1
