# generated using pymatgen
data_Li2CaV12O32
_symmetry_space_group_name_H-M   'P 1'
_cell_length_a   7.96539415
_cell_length_b   7.96539415
_cell_length_c   12.27502559
_cell_angle_alpha   74.39486444
_cell_angle_beta   74.39486444
_cell_angle_gamma   54.23289301
_symmetry_Int_Tables_number   1
_chemical_formula_structural   Li2CaV12O32
_chemical_formula_sum   'Li2 Ca1 V12 O32'
_cell_volume   602.38232689
_cell_formula_units_Z   1
loop_
 _symmetry_equiv_pos_site_id
 _symmetry_equiv_pos_as_xyz
  1  'x, y, z'
loop_
 _atom_site_type_symbol
 _atom_site_label
 _atom_site_symmetry_multiplicity
 _atom_site_fract_x
 _atom_site_fract_y
 _atom_site_fract_z
 _atom_site_occupancy
  Li  Li0  1  0.37145600  0.86574200  0.69612200  1
  Li  Li1  1  0.86574200  0.37145600  0.69612200  1
  Ca  Ca2  1  0.12712700  0.12712700  0.31996900  1
  V  V3  1  0.30302200  0.30302200  0.46333100  1
  V  V4  1  0.79858100  0.79858100  0.46271700  1
  V  V5  1  0.19659100  0.69933300  0.54375100  1
  V  V6  1  0.69933300  0.19659100  0.54375100  1
  V  V7  1  0.97422400  0.97422400  0.91975100  1
  V  V8  1  0.47333200  0.47333200  0.91822700  1
  V  V9  1  0.52544500  0.02773000  0.07628100  1
  V  V10  1  0.02773000  0.52544500  0.07628100  1
  V  V11  1  0.41664900  0.41664900  0.18817500  1
  V  V12  1  0.90603000  0.90603000  0.19349200  1
  V  V13  1  0.08577200  0.58657700  0.80761200  1
  V  V14  1  0.58657700  0.08577200  0.80761200  1
  O  O15  1  0.51158900  0.51158900  0.04350300  1
  O  O16  1  0.00715800  0.00715800  0.04689300  1
  O  O17  1  0.98832000  0.49089200  0.94992500  1
  O  O18  1  0.49089200  0.98832000  0.94992500  1
  O  O19  1  0.36873700  0.36873700  0.82573700  1
  O  O20  1  0.86897400  0.86897400  0.82582400  1
  O  O21  1  0.12992400  0.62841100  0.17140600  1
  O  O22  1  0.62841100  0.12992400  0.17140600  1
  O  O23  1  0.81498500  0.81498500  0.07271700  1
  O  O24  1  0.31940700  0.31940700  0.06567300  1
  O  O25  1  0.68233000  0.18233000  0.92666600  1
  O  O26  1  0.18233000  0.68233000  0.92666600  1
  O  O27  1  0.28885700  0.28885700  0.32502800  1
  O  O28  1  0.78529600  0.78529600  0.32516200  1
  O  O29  1  0.21624800  0.71743100  0.67854400  1
  O  O30  1  0.71743100  0.21624800  0.67854400  1
  O  O31  1  0.40829800  0.40829800  0.54164400  1
  O  O32  1  0.90343800  0.90343800  0.54505700  1
  O  O33  1  0.09289000  0.59319800  0.46260800  1
  O  O34  1  0.59319800  0.09289000  0.46260800  1
  O  O35  1  0.19031000  0.19031000  0.55353000  1
  O  O36  1  0.68834600  0.68834600  0.55729600  1
  O  O37  1  0.29536700  0.82206600  0.45079900  1
  O  O38  1  0.82206600  0.29536700  0.45079900  1
  O  O39  1  0.07787500  0.07787500  0.81188600  1
  O  O40  1  0.57625900  0.57625900  0.80918200  1
  O  O41  1  0.40646000  0.93791400  0.18032400  1
  O  O42  1  0.93791400  0.40646000  0.18032400  1
  O  O43  1  0.48725600  0.48725600  0.26981200  1
  O  O44  1  0.98021300  0.98021300  0.27365500  1
  O  O45  1  0.01557300  0.51453400  0.72433100  1
  O  O46  1  0.51453400  0.01557300  0.72433100  1
