# generated using pymatgen
data_Li7Mn5O12
_symmetry_space_group_name_H-M   'P 1'
_cell_length_a   5.93221025
_cell_length_b   6.02049432
_cell_length_c   12.69579894
_cell_angle_alpha   103.44360286
_cell_angle_beta   88.24205386
_cell_angle_gamma   93.78039980
_symmetry_Int_Tables_number   1
_chemical_formula_structural   Li7Mn5O12
_chemical_formula_sum   'Li14 Mn10 O24'
_cell_volume   439.98949167
_cell_formula_units_Z   2
loop_
 _symmetry_equiv_pos_site_id
 _symmetry_equiv_pos_as_xyz
  1  'x, y, z'
loop_
 _atom_site_type_symbol
 _atom_site_label
 _atom_site_symmetry_multiplicity
 _atom_site_fract_x
 _atom_site_fract_y
 _atom_site_fract_z
 _atom_site_occupancy
  Li  Li0  1  0.25001000  0.33332000  0.16667100  1
  Li  Li1  1  0.75000200  0.33332500  0.16667000  1
  Li  Li2  1  0.00000700  0.83333500  0.66666700  1
  Li  Li3  1  0.50000800  0.83333300  0.66666400  1
  Li  Li4  1  0.25001300  0.83332800  0.16666300  1
  Li  Li5  1  0.75000400  0.83333300  0.16666400  1
  Li  Li6  1  0.99843400  0.51968300  0.01627500  1
  Li  Li7  1  0.49843400  0.51968700  0.01627800  1
  Li  Li8  1  0.50158500  0.14698000  0.31705500  1
  Li  Li9  1  0.00158400  0.14698100  0.31705900  1
  Li  Li10  1  0.24757900  0.67025300  0.83562000  1
  Li  Li11  1  0.74758800  0.67025200  0.83562000  1
  Li  Li12  1  0.25242600  0.99640200  0.49772000  1
  Li  Li13  1  0.75242800  0.99640200  0.49772000  1
  Mn  Mn14  1  0.49995200  0.33334900  0.66667300  1
  Mn  Mn15  1  0.50607100  0.99728200  0.00863600  1
  Mn  Mn16  1  0.49393000  0.66939600  0.32470100  1
  Mn  Mn17  1  0.24198100  0.50315800  0.49881800  1
  Mn  Mn18  1  0.75802800  0.16350800  0.83450600  1
  Mn  Mn19  1  0.99993900  0.33338000  0.66667000  1
  Mn  Mn20  1  0.00606500  0.99727400  0.00864300  1
  Mn  Mn21  1  0.99393200  0.66938200  0.32469600  1
  Mn  Mn22  1  0.74196400  0.50315800  0.49881800  1
  Mn  Mn23  1  0.25802500  0.16349800  0.83450500  1
  O  O24  1  0.26754400  0.21798300  0.99717900  1
  O  O25  1  0.76754100  0.21798200  0.99717900  1
  O  O26  1  0.23247000  0.44870100  0.33615100  1
  O  O27  1  0.73246400  0.44870000  0.33615000  1
  O  O28  1  0.49975800  0.07945900  0.15511400  1
  O  O29  1  0.99975700  0.07946300  0.15512400  1
  O  O30  1  0.00025300  0.58719600  0.17820000  1
  O  O31  1  0.50025100  0.58720100  0.17820300  1
  O  O32  1  0.48716800  0.40479100  0.82858700  1
  O  O33  1  0.98716300  0.40479300  0.82858300  1
  O  O34  1  0.01282900  0.26186500  0.50475200  1
  O  O35  1  0.51282000  0.26186000  0.50475600  1
  O  O36  1  0.23143600  0.57427100  0.66000200  1
  O  O37  1  0.73142400  0.57425900  0.66000200  1
  O  O38  1  0.26854900  0.09239100  0.67333900  1
  O  O39  1  0.76855600  0.09240400  0.67333900  1
  O  O40  1  0.47726100  0.73571600  0.48955900  1
  O  O41  1  0.97726100  0.73570600  0.48955600  1
  O  O42  1  0.02274200  0.93094700  0.84377700  1
  O  O43  1  0.52273600  0.93093800  0.84377400  1
  O  O44  1  0.25651900  0.88548200  0.33210500  1
  O  O45  1  0.75652200  0.88548000  0.33210500  1
  O  O46  1  0.24349300  0.78120600  0.00122600  1
  O  O47  1  0.74349400  0.78120600  0.00122600  1
