# generated using pymatgen
data_Li4MnCo2O7
_symmetry_space_group_name_H-M   'P 1'
_cell_length_a   14.86161318
_cell_length_b   14.86161318
_cell_length_c   5.91189051
_cell_angle_alpha   83.52153048
_cell_angle_beta   83.52153048
_cell_angle_gamma   11.21489623
_symmetry_Int_Tables_number   1
_chemical_formula_structural   Li4MnCo2O7
_chemical_formula_sum   'Li8 Mn2 Co4 O14'
_cell_volume   252.31614143
_cell_formula_units_Z   2
loop_
 _symmetry_equiv_pos_site_id
 _symmetry_equiv_pos_as_xyz
  1  'x, y, z'
loop_
 _atom_site_type_symbol
 _atom_site_label
 _atom_site_symmetry_multiplicity
 _atom_site_fract_x
 _atom_site_fract_y
 _atom_site_fract_z
 _atom_site_occupancy
  Li  Li0  1  0.57138000  0.57138000  0.20905000  1
  Li  Li1  1  0.71063100  0.71063100  0.64108200  1
  Li  Li2  1  0.85923800  0.85923800  0.06905000  1
  Li  Li3  1  0.13552900  0.13552900  0.92523900  1
  Li  Li4  1  0.28477300  0.28477300  0.35951200  1
  Li  Li5  1  0.43120100  0.43120100  0.78338800  1
  Li  Li6  1  0.00585900  0.00585900  0.50259800  1
  Li  Li7  1  0.57128600  0.57128600  0.72006000  1
  Mn  Mn8  1  0.00296100  0.00296100  0.99463700  1
  Mn  Mn9  1  0.28584500  0.28584500  0.85680800  1
  Co  Co10  1  0.13475000  0.13475000  0.44692900  1
  Co  Co11  1  0.42874600  0.42874600  0.28784100  1
  Co  Co12  1  0.70933000  0.70933000  0.15321100  1
  Co  Co13  1  0.85968600  0.85968600  0.56477800  1
  O  O14  1  0.49876400  0.49876400  0.22458800  1
  O  O15  1  0.64260500  0.64260500  0.66344500  1
  O  O16  1  0.78567700  0.78567700  0.07843900  1
  O  O17  1  0.06498500  0.06498500  0.96851800  1
  O  O18  1  0.21522900  0.21522900  0.37364600  1
  O  O19  1  0.35328300  0.35328300  0.80982600  1
  O  O20  1  0.92957800  0.92957800  0.52381900  1
  O  O21  1  0.64574700  0.64574700  0.18632500  1
  O  O22  1  0.78652200  0.78652200  0.63555400  1
  O  O23  1  0.93250100  0.93250100  0.05073300  1
  O  O24  1  0.22067600  0.22067600  0.90400900  1
  O  O25  1  0.35878900  0.35878900  0.32974000  1
  O  O26  1  0.50009700  0.50009700  0.77944700  1
  O  O27  1  0.07433000  0.07433000  0.45772700  1
