# generated using pymatgen
data_Li9Mn2Co5O16
_symmetry_space_group_name_H-M   'P 1'
_cell_length_a   5.74055700
_cell_length_b   5.82756796
_cell_length_c   9.77561265
_cell_angle_alpha   91.04304629
_cell_angle_beta   98.49038459
_cell_angle_gamma   119.19509704
_symmetry_Int_Tables_number   1
_chemical_formula_structural   Li9Mn2Co5O16
_chemical_formula_sum   'Li9 Mn2 Co5 O16'
_cell_volume   280.80935766
_cell_formula_units_Z   1
loop_
 _symmetry_equiv_pos_site_id
 _symmetry_equiv_pos_as_xyz
  1  'x, y, z'
loop_
 _atom_site_type_symbol
 _atom_site_label
 _atom_site_symmetry_multiplicity
 _atom_site_fract_x
 _atom_site_fract_y
 _atom_site_fract_z
 _atom_site_occupancy
  Li  Li0  1  0.75609200  0.86792800  0.26930900  1
  Li  Li1  1  0.75716600  0.62969700  0.73031200  1
  Li  Li2  1  0.76224000  0.38612300  0.26242700  1
  Li  Li3  1  0.25307600  0.38039700  0.26532800  1
  Li  Li4  1  0.24162300  0.11226200  0.73182300  1
  Li  Li5  1  0.24565500  0.86566000  0.26649900  1
  Li  Li6  1  0.74463700  0.12316800  0.73645300  1
  Li  Li7  1  0.24143400  0.62683400  0.73694200  1
  Li  Li8  1  0.00005500  0.74968000  0.49941100  1
  Mn  Mn9  1  0.00081200  0.00117500  0.00090000  1
  Mn  Mn10  1  0.49928500  0.49965200  0.99969700  1
  Co  Co11  1  0.99971600  0.50003700  0.99917800  1
  Co  Co12  1  0.99998500  0.25112400  0.50083900  1
  Co  Co13  1  0.49842200  0.24902600  0.49878200  1
  Co  Co14  1  0.49971000  0.00081100  0.00022300  1
  Co  Co15  1  0.50029200  0.75012300  0.50073800  1
  O  O16  1  0.87040900  0.19287100  0.10504900  1
  O  O17  1  0.85328100  0.93195900  0.61396700  1
  O  O18  1  0.85556700  0.65760400  0.11649400  1
  O  O19  1  0.36980900  0.68943600  0.10485300  1
  O  O20  1  0.38339300  0.45771700  0.61531300  1
  O  O21  1  0.37440800  0.19295200  0.10683000  1
  O  O22  1  0.86204900  0.41803300  0.61549600  1
  O  O23  1  0.38600600  0.93187700  0.61368900  1
  O  O24  1  0.61289700  0.56856800  0.38740400  1
  O  O25  1  0.62768000  0.30956600  0.89389900  1
  O  O26  1  0.61717200  0.04210900  0.38440900  1
  O  O27  1  0.13541600  0.08115400  0.38259700  1
  O  O28  1  0.12892500  0.81048900  0.89390600  1
  O  O29  1  0.14918700  0.56967400  0.38810500  1
  O  O30  1  0.62733500  0.80928500  0.89456300  1
  O  O31  1  0.14626800  0.34301200  0.88456200  1
