# generated using pymatgen
data_Li2Mg
_symmetry_space_group_name_H-M   'P 1'
_cell_length_a   5.29340411
_cell_length_b   5.29340411
_cell_length_c   6.05865469
_cell_angle_alpha   60.41580176
_cell_angle_beta   60.41580176
_cell_angle_gamma   61.31444485
_symmetry_Int_Tables_number   1
_chemical_formula_structural   Li2Mg
_chemical_formula_sum   'Li4 Mg2'
_cell_volume   121.95971230
_cell_formula_units_Z   2
loop_
 _symmetry_equiv_pos_site_id
 _symmetry_equiv_pos_as_xyz
  1  'x, y, z'
loop_
 _atom_site_type_symbol
 _atom_site_label
 _atom_site_symmetry_multiplicity
 _atom_site_fract_x
 _atom_site_fract_y
 _atom_site_fract_z
 _atom_site_occupancy
  Li  Li0  1  0.24962000  0.41980100  0.24751400  1
  Li  Li1  1  0.58019900  0.75038000  0.25248600  1
  Li  Li2  1  0.41980100  0.24962000  0.74751400  1
  Li  Li3  1  0.75038000  0.58019900  0.75248600  1
  Mg  Mg4  1  0.08693200  0.91306800  0.75000000  1
  Mg  Mg5  1  0.91306800  0.08693200  0.25000000  1
