# generated using pymatgen
data_LiV3OF11
_symmetry_space_group_name_H-M   'P 1'
_cell_length_a   5.24875900
_cell_length_b   5.39097959
_cell_length_c   15.67548598
_cell_angle_alpha   80.25282652
_cell_angle_beta   89.58468337
_cell_angle_gamma   88.69205826
_symmetry_Int_Tables_number   1
_chemical_formula_structural   LiV3OF11
_chemical_formula_sum   'Li2 V6 O2 F22'
_cell_volume   437.03338860
_cell_formula_units_Z   2
loop_
 _symmetry_equiv_pos_site_id
 _symmetry_equiv_pos_as_xyz
  1  'x, y, z'
loop_
 _atom_site_type_symbol
 _atom_site_label
 _atom_site_symmetry_multiplicity
 _atom_site_fract_x
 _atom_site_fract_y
 _atom_site_fract_z
 _atom_site_occupancy
  Li  Li0  1  0.75962000  0.34104500  0.84690700  1
  Li  Li1  1  0.24038000  0.65895500  0.15309300  1
  V  V2  1  0.00192900  0.66870200  0.66253700  1
  V  V3  1  0.50000000  0.50000000  0.00000000  1
  V  V4  1  0.50239300  0.83334000  0.33692000  1
  V  V5  1  0.00000000  0.00000000  0.00000000  1
  V  V6  1  0.99807100  0.33129800  0.33746300  1
  V  V7  1  0.49760700  0.16666000  0.66308000  1
  O  O8  1  0.75808000  0.28278000  0.98795000  1
  O  O9  1  0.24192000  0.71722000  0.01205000  1
  F  F10  1  0.19384500  0.34529600  0.69281000  1
  F  F11  1  0.68748300  0.47843800  0.64388200  1
  F  F12  1  0.09365500  0.69456600  0.55213700  1
  F  F13  1  0.43850800  0.52496000  0.88383400  1
  F  F14  1  0.40763400  0.86845300  0.22286300  1
  F  F15  1  0.93914700  0.91554800  0.11517200  1
  F  F16  1  0.59098100  0.79035800  0.44602400  1
  F  F17  1  0.90956900  0.62383100  0.77887500  1
  F  F18  1  0.19308300  0.01125700  0.35998100  1
  F  F19  1  0.31122600  0.85617400  0.68861800  1
  F  F20  1  0.27398400  0.21423200  0.02684500  1
  F  F21  1  0.72601600  0.78576800  0.97315500  1
  F  F22  1  0.68877400  0.14382600  0.31138200  1
  F  F23  1  0.80691700  0.98874300  0.64001900  1
  F  F24  1  0.09043100  0.37616900  0.22112500  1
  F  F25  1  0.40901900  0.20964200  0.55397600  1
  F  F26  1  0.06085300  0.08445200  0.88482800  1
  F  F27  1  0.59236600  0.13154700  0.77713700  1
  F  F28  1  0.56149200  0.47504000  0.11616600  1
  F  F29  1  0.90634500  0.30543400  0.44786300  1
  F  F30  1  0.31251700  0.52156200  0.35611800  1
  F  F31  1  0.80615500  0.65470400  0.30719000  1
