# generated using pymatgen
data_KLiY2(MoO4)4
_symmetry_space_group_name_H-M   'P 1'
_cell_length_a   6.92507184
_cell_length_b   6.92507184
_cell_length_c   19.63667590
_cell_angle_alpha   88.83394483
_cell_angle_beta   88.83394483
_cell_angle_gamma   135.12971952
_symmetry_Int_Tables_number   1
_chemical_formula_structural   KLiY2(MoO4)4
_chemical_formula_sum   'K2 Li2 Y4 Mo8 O32'
_cell_volume   663.43403494
_cell_formula_units_Z   2
loop_
 _symmetry_equiv_pos_site_id
 _symmetry_equiv_pos_as_xyz
  1  'x, y, z'
loop_
 _atom_site_type_symbol
 _atom_site_label
 _atom_site_symmetry_multiplicity
 _atom_site_fract_x
 _atom_site_fract_y
 _atom_site_fract_z
 _atom_site_occupancy
  K  K0  1  0.53104300  0.46895700  0.75000000  1
  K  K1  1  0.46895700  0.53104300  0.25000000  1
  Li  Li2  1  0.81369200  0.18630800  0.75000000  1
  Li  Li3  1  0.18630800  0.81369200  0.25000000  1
  Y  Y4  1  0.64743700  0.35349600  0.53262100  1
  Y  Y5  1  0.35256300  0.64650400  0.46737900  1
  Y  Y6  1  0.64650400  0.35256300  0.96737900  1
  Y  Y7  1  0.35349600  0.64743700  0.03262100  1
  Mo  Mo8  1  0.91825000  0.04312600  0.59158700  1
  Mo  Mo9  1  0.08175000  0.95687400  0.40841300  1
  Mo  Mo10  1  0.95687400  0.08175000  0.90841300  1
  Mo  Mo11  1  0.04312600  0.91825000  0.09158700  1
  Mo  Mo12  1  0.23207600  0.74739500  0.64801400  1
  Mo  Mo13  1  0.76792400  0.25260500  0.35198600  1
  Mo  Mo14  1  0.25260500  0.76792400  0.85198600  1
  Mo  Mo15  1  0.74739500  0.23207600  0.14801400  1
  O  O16  1  0.66680200  0.00698100  0.54232400  1
  O  O17  1  0.33319800  0.99301900  0.45767600  1
  O  O18  1  0.99301900  0.33319800  0.95767600  1
  O  O19  1  0.00698100  0.66680200  0.04232400  1
  O  O20  1  0.48944800  0.76797800  0.67338100  1
  O  O21  1  0.51055200  0.23202200  0.32661900  1
  O  O22  1  0.23202200  0.51055200  0.82661900  1
  O  O23  1  0.76797800  0.48944800  0.17338100  1
  O  O24  1  0.72226200  0.76131900  0.96270400  1
  O  O25  1  0.27773800  0.23868100  0.03729600  1
  O  O26  1  0.23868100  0.27773800  0.53729600  1
  O  O27  1  0.76131900  0.72226200  0.46270400  1
  O  O28  1  0.43609900  0.91664900  0.93340300  1
  O  O29  1  0.56390100  0.08335100  0.06659700  1
  O  O30  1  0.08335100  0.56390100  0.56659700  1
  O  O31  1  0.91664900  0.43609900  0.43340300  1
  O  O32  1  0.80064900  0.98379000  0.82940300  1
  O  O33  1  0.19935100  0.01621000  0.17059700  1
  O  O34  1  0.01621000  0.19935100  0.67059700  1
  O  O35  1  0.98379000  0.80064900  0.32940300  1
  O  O36  1  0.72113400  0.81158600  0.10154000  1
  O  O37  1  0.27886600  0.18841400  0.89846000  1
  O  O38  1  0.18841400  0.27886600  0.39846000  1
  O  O39  1  0.81158600  0.72113400  0.60154000  1
  O  O40  1  0.39964400  0.09794000  0.63247600  1
  O  O41  1  0.60035600  0.90206000  0.36752400  1
  O  O42  1  0.90206000  0.60035600  0.86752400  1
  O  O43  1  0.09794000  0.39964400  0.13247600  1
  O  O44  1  0.43556900  0.02874700  0.78616700  1
  O  O45  1  0.56443100  0.97125300  0.21383300  1
  O  O46  1  0.97125300  0.56443100  0.71383300  1
  O  O47  1  0.02874700  0.43556900  0.28616700  1
