# generated using pymatgen
data_Li3MnV(PO4)3
_symmetry_space_group_name_H-M   'P 1'
_cell_length_a   8.65611200
_cell_length_b   8.68140063
_cell_length_c   15.13305389
_cell_angle_alpha   89.53113182
_cell_angle_beta   105.30834885
_cell_angle_gamma   118.85786001
_symmetry_Int_Tables_number   1
_chemical_formula_structural   Li3MnV(PO4)3
_chemical_formula_sum   'Li12 Mn4 V4 P12 O48'
_cell_volume   951.03052874
_cell_formula_units_Z   4
loop_
 _symmetry_equiv_pos_site_id
 _symmetry_equiv_pos_as_xyz
  1  'x, y, z'
loop_
 _atom_site_type_symbol
 _atom_site_label
 _atom_site_symmetry_multiplicity
 _atom_site_fract_x
 _atom_site_fract_y
 _atom_site_fract_z
 _atom_site_occupancy
  Li  Li0  1  0.75299300  0.69796000  0.31750900  1
  Li  Li1  1  0.71572400  0.81540300  0.54925100  1
  Li  Li2  1  0.71556100  0.31430200  0.05415900  1
  Li  Li3  1  0.25669600  0.82757300  0.18934600  1
  Li  Li4  1  0.67775300  0.78672100  0.83002200  1
  Li  Li5  1  0.68024000  0.28771800  0.33120100  1
  Li  Li6  1  0.22204800  0.72941400  0.63624900  1
  Li  Li7  1  0.22532600  0.23523700  0.13439500  1
  Li  Li8  1  0.74317700  0.18361900  0.81375600  1
  Li  Li9  1  0.24422200  0.32081900  0.68808900  1
  Li  Li10  1  0.18129400  0.63731100  0.97814100  1
  Li  Li11  1  0.17968200  0.14278400  0.47903700  1
  Mn  Mn12  1  0.86308900  0.71807700  0.07392700  1
  Mn  Mn13  1  0.34827200  0.96588900  0.81804400  1
  Mn  Mn14  1  0.85443500  0.21800100  0.57166800  1
  Mn  Mn15  1  0.13745700  0.27685700  0.92363300  1
  V  V16  1  0.63698300  0.52666400  0.68052300  1
  V  V17  1  0.35728400  0.46858200  0.31967300  1
  V  V18  1  0.13856200  0.78492200  0.42425100  1
  V  V19  1  0.64603700  0.02846600  0.18103400  1
  P  P20  1  0.94305300  0.98849200  0.73207800  1
  P  P21  1  0.95513300  0.48925300  0.23516800  1
  P  P22  1  0.25737900  0.97774700  0.02294300  1
  P  P23  1  0.53800800  0.89793800  0.37459600  1
  P  P24  1  0.46082500  0.59978700  0.12379700  1
  P  P25  1  0.74823300  0.51978900  0.47676900  1
  P  P26  1  0.25096400  0.47908700  0.52407100  1
  P  P27  1  0.53052400  0.39238800  0.87560700  1
  P  P28  1  0.45207400  0.09656300  0.62449600  1
  P  P29  1  0.76391200  0.02342200  0.97863500  1
  P  P30  1  0.04123700  0.51690500  0.76597300  1
  P  P31  1  0.04615700  0.01593400  0.26491900  1
  O  O32  1  0.84493500  0.97686600  0.24115900  1
  O  O33  1  0.91650200  0.54112600  0.13533300  1
  O  O34  1  0.93972400  0.60162700  0.30806500  1
  O  O35  1  0.67717400  0.98386700  0.47019300  1
  O  O36  1  0.91001200  0.70071600  0.46834200  1
  O  O37  1  0.65709300  0.65044100  0.12372200  1
  O  O38  1  0.45113300  0.76799400  0.14887500  1
  O  O39  1  0.54868700  0.73036600  0.34886900  1
  O  O40  1  0.78604500  0.79374100  0.72455900  1
  O  O41  1  0.79640400  0.29588800  0.22761600  1
  O  O42  1  0.10226500  0.79394900  0.03808000  1
  O  O43  1  0.33782900  0.84314600  0.36965700  1
  O  O44  1  0.06793100  0.90341400  0.19623400  1
  O  O45  1  0.29436700  0.99130400  0.53439500  1
  O  O46  1  0.81486300  0.87446600  0.99425500  1
  O  O47  1  0.68659000  0.56360100  0.55508800  1
  O  O48  1  0.30628000  0.50062800  0.03284900  1
  O  O49  1  0.41753000  0.97225100  0.70140900  1
  O  O50  1  0.61768800  0.95780800  0.88239100  1
  O  O51  1  0.80289600  0.37313200  0.49143600  1
  O  O52  1  0.70204600  0.06960500  0.05637300  1
  O  O53  1  0.08849700  0.97293200  0.36614500  1
  O  O54  1  0.42206500  0.47401500  0.19946600  1
  O  O55  1  0.59567600  0.44636500  0.38077100  1
  O  O56  1  0.84152700  0.48274800  0.73956400  1
  O  O57  1  0.14815300  0.51228000  0.25872200  1
  O  O58  1  0.41078600  0.55509400  0.61647800  1
  O  O59  1  0.42093300  0.05610400  0.11368000  1
  O  O60  1  0.90520200  0.04139800  0.63208800  1
  O  O61  1  0.58056100  0.52444700  0.80371500  1
  O  O62  1  0.30456200  0.92470500  0.94059800  1
  O  O63  1  0.18935900  0.61949400  0.50878000  1
  O  O64  1  0.58327700  0.02913000  0.30189800  1
  O  O65  1  0.30492300  0.43208000  0.44313000  1
  O  O66  1  0.19859600  0.11999600  0.00824800  1
  O  O67  1  0.92428100  0.09938300  0.80365500  1
  O  O68  1  0.66916900  0.47410800  0.97157900  1
  O  O69  1  0.93385700  0.20778600  0.97616200  1
  O  O70  1  0.64653400  0.14838100  0.62225200  1
  O  O71  1  0.18564800  0.71333100  0.76371200  1
  O  O72  1  0.18548200  0.21104900  0.26199700  1
  O  O73  1  0.43884300  0.26312200  0.64716500  1
  O  O74  1  0.53618200  0.22143400  0.84860800  1
  O  O75  1  0.09481500  0.29374300  0.53663700  1
  O  O76  1  0.32961200  0.34375500  0.86751200  1
  O  O77  1  0.06206000  0.40834800  0.69421300  1
  O  O78  1  0.07891200  0.46831200  0.86531300  1
  O  O79  1  0.13599100  0.01390000  0.75504800  1
