# generated using pymatgen
data_Li3Mn4SnO8
_symmetry_space_group_name_H-M   'P 1'
_cell_length_a   6.25229199
_cell_length_b   10.65065987
_cell_length_c   6.21908400
_cell_angle_alpha   74.22350029
_cell_angle_beta   60.60739437
_cell_angle_gamma   74.38236055
_symmetry_Int_Tables_number   1
_chemical_formula_structural   Li3Mn4SnO8
_chemical_formula_sum   'Li6 Mn8 Sn2 O16'
_cell_volume   342.65096704
_cell_formula_units_Z   2
loop_
 _symmetry_equiv_pos_site_id
 _symmetry_equiv_pos_as_xyz
  1  'x, y, z'
loop_
 _atom_site_type_symbol
 _atom_site_label
 _atom_site_symmetry_multiplicity
 _atom_site_fract_x
 _atom_site_fract_y
 _atom_site_fract_z
 _atom_site_occupancy
  Li  Li0  1  0.74129200  0.24950400  0.74794000  1
  Li  Li1  1  0.25910600  0.75048200  0.25161400  1
  Li  Li2  1  0.76434000  0.23649800  0.25992700  1
  Li  Li3  1  0.23603100  0.76347100  0.73988200  1
  Li  Li4  1  0.24599200  0.25383800  0.74094800  1
  Li  Li5  1  0.75392600  0.74611900  0.25905900  1
  Mn  Mn6  1  0.24462700  0.24892300  0.24936100  1
  Mn  Mn7  1  0.75557300  0.75128300  0.75051200  1
  Mn  Mn8  1  0.00031300  0.99998600  0.49984600  1
  Mn  Mn9  1  0.49958800  0.50006200  0.00002600  1
  Mn  Mn10  1  0.50021800  0.00008000  0.99991700  1
  Mn  Mn11  1  0.99988400  0.50003200  0.50000800  1
  Mn  Mn12  1  0.49941700  0.49989000  0.50052700  1
  Mn  Mn13  1  0.00013100  0.99985800  0.00011700  1
  Sn  Sn14  1  0.50014800  0.99995900  0.49989300  1
  Sn  Sn15  1  0.99972000  0.49997500  0.00013300  1
  O  O16  1  0.88724000  0.39015400  0.84571400  1
  O  O17  1  0.37423700  0.88219700  0.37937500  1
  O  O18  1  0.62627600  0.11787300  0.62048800  1
  O  O19  1  0.11222800  0.60976500  0.15450700  1
  O  O20  1  0.32948100  0.38796100  0.38453800  1
  O  O21  1  0.87937900  0.88519300  0.86961900  1
  O  O22  1  0.12101500  0.11479200  0.13020400  1
  O  O23  1  0.67003500  0.61207600  0.61567400  1
  O  O24  1  0.87215000  0.37386800  0.34939700  1
  O  O25  1  0.38069600  0.87581500  0.85705600  1
  O  O26  1  0.35328700  0.37809000  0.88141000  1
  O  O27  1  0.85770500  0.88001400  0.37510100  1
  O  O28  1  0.14262400  0.12001200  0.62479900  1
  O  O29  1  0.64615900  0.62189000  0.11874500  1
  O  O30  1  0.61965900  0.12424700  0.14289200  1
  O  O31  1  0.12752400  0.62609300  0.65077300  1
