# generated using pymatgen
data_LiCoP2O7
_symmetry_space_group_name_H-M   'P 1'
_cell_length_a   5.05271602
_cell_length_b   8.77883258
_cell_length_c   14.58791208
_cell_angle_alpha   102.65664569
_cell_angle_beta   89.99385666
_cell_angle_gamma   90.00978845
_symmetry_Int_Tables_number   1
_chemical_formula_structural   LiCoP2O7
_chemical_formula_sum   'Li4 Co4 P8 O28'
_cell_volume   631.35171682
_cell_formula_units_Z   4
loop_
 _symmetry_equiv_pos_site_id
 _symmetry_equiv_pos_as_xyz
  1  'x, y, z'
loop_
 _atom_site_type_symbol
 _atom_site_label
 _atom_site_symmetry_multiplicity
 _atom_site_fract_x
 _atom_site_fract_y
 _atom_site_fract_z
 _atom_site_occupancy
  Li  Li0  1  0.93228700  0.41049600  0.44906900  1
  Li  Li1  1  0.41960400  0.90684900  0.94945900  1
  Li  Li2  1  0.56767000  0.91046500  0.44904800  1
  Li  Li3  1  0.08028400  0.40685100  0.94946500  1
  Co  Co4  1  0.23180400  0.25306700  0.74467000  1
  Co  Co5  1  0.26821600  0.75307300  0.74464800  1
  Co  Co6  1  0.73153000  0.75443600  0.24868800  1
  Co  Co7  1  0.76850500  0.25447000  0.24870400  1
  P  P8  1  0.09595200  0.03804600  0.34688400  1
  P  P9  1  0.60601700  0.53836400  0.84945900  1
  P  P10  1  0.40402200  0.53801600  0.34687400  1
  P  P11  1  0.89395100  0.03826900  0.84943400  1
  P  P12  1  0.41191900  0.45435900  0.15022500  1
  P  P13  1  0.88591700  0.95495900  0.64936700  1
  P  P14  1  0.08809600  0.95434900  0.15024200  1
  P  P15  1  0.61414800  0.45498900  0.64939500  1
  O  O16  1  0.53645600  0.69997900  0.34664000  1
  O  O17  1  0.03036400  0.19719700  0.84744200  1
  O  O18  1  0.96356700  0.19996900  0.34665500  1
  O  O19  1  0.46961900  0.69724300  0.84744900  1
  O  O20  1  0.57495200  0.30483400  0.15372800  1
  O  O21  1  0.05818800  0.81027100  0.65366700  1
  O  O22  1  0.92525400  0.80471300  0.15372300  1
  O  O23  1  0.44202200  0.31020200  0.65366300  1
  O  O24  1  0.25945600  0.99001800  0.24871900  1
  O  O25  1  0.77240200  0.49126200  0.74992200  1
  O  O26  1  0.24056600  0.48989200  0.24871800  1
  O  O27  1  0.72761100  0.99115700  0.74989700  1
  O  O28  1  0.86729800  0.91495000  0.34204000  1
  O  O29  1  0.38285200  0.41229900  0.84212600  1
  O  O30  1  0.63266500  0.41497100  0.34203400  1
  O  O31  1  0.11709000  0.91225100  0.84210700  1
  O  O32  1  0.59909200  0.59654800  0.15717400  1
  O  O33  1  0.07097400  0.09855400  0.65685800  1
  O  O34  1  0.90075700  0.09643500  0.15723100  1
  O  O35  1  0.42895100  0.59850800  0.65690000  1
  O  O36  1  0.28224800  0.04365200  0.42597700  1
  O  O37  1  0.79910300  0.54245500  0.92635900  1
  O  O38  1  0.21770400  0.54367000  0.42597700  1
  O  O39  1  0.70081000  0.04241200  0.92633300  1
  O  O40  1  0.27262500  0.92921100  0.06970600  1
  O  O41  1  0.80727900  0.43078100  0.57147700  1
  O  O42  1  0.22737500  0.42912000  0.06969800  1
  O  O43  1  0.69279500  0.93066200  0.57145100  1
