# generated using pymatgen
data_Li9Mn2Co5O16
_symmetry_space_group_name_H-M   'P 1'
_cell_length_a   5.15553600
_cell_length_b   5.89180590
_cell_length_c   10.49795588
_cell_angle_alpha   74.09162296
_cell_angle_beta   76.17771391
_cell_angle_gamma   73.90956584
_symmetry_Int_Tables_number   1
_chemical_formula_structural   Li9Mn2Co5O16
_chemical_formula_sum   'Li9 Mn2 Co5 O16'
_cell_volume   290.03610386
_cell_formula_units_Z   1
loop_
 _symmetry_equiv_pos_site_id
 _symmetry_equiv_pos_as_xyz
  1  'x, y, z'
loop_
 _atom_site_type_symbol
 _atom_site_label
 _atom_site_symmetry_multiplicity
 _atom_site_fract_x
 _atom_site_fract_y
 _atom_site_fract_z
 _atom_site_occupancy
  Li  Li0  1  0.50641300  0.55517500  0.13394700  1
  Li  Li1  1  0.50749600  0.05491100  0.13224500  1
  Li  Li2  1  0.48684700  0.17757300  0.38061900  1
  Li  Li3  1  0.49006200  0.69342100  0.37805000  1
  Li  Li4  1  0.51315300  0.82242700  0.61938100  1
  Li  Li5  1  0.50993800  0.30657900  0.62195000  1
  Li  Li6  1  0.49358700  0.44482500  0.86605300  1
  Li  Li7  1  0.49250400  0.94508900  0.86775500  1
  Li  Li8  1  0.00000000  0.00000000  0.50000000  1
  Mn  Mn9  1  0.00010400  0.74997600  0.00009700  1
  Mn  Mn10  1  0.99989600  0.25002400  0.99990300  1
  Co  Co11  1  0.99664500  0.36417800  0.26351900  1
  Co  Co12  1  0.98827700  0.87354900  0.26663400  1
  Co  Co13  1  0.00000000  0.50000000  0.50000000  1
  Co  Co14  1  0.00335500  0.63582200  0.73648100  1
  Co  Co15  1  0.01172300  0.12645100  0.73336600  1
  O  O16  1  0.21422300  0.91665600  0.05888500  1
  O  O17  1  0.21554900  0.41971700  0.05883900  1
  O  O18  1  0.23374000  0.53353800  0.31896600  1
  O  O19  1  0.23713000  0.04227200  0.30131000  1
  O  O20  1  0.24633300  0.15041400  0.57247100  1
  O  O21  1  0.22303700  0.63882200  0.56554200  1
  O  O22  1  0.22606200  0.78082400  0.82197700  1
  O  O23  1  0.22178000  0.28463600  0.82406000  1
  O  O24  1  0.77393800  0.21917600  0.17802300  1
  O  O25  1  0.77822000  0.71536400  0.17594000  1
  O  O26  1  0.75366700  0.84958600  0.42752900  1
  O  O27  1  0.77696300  0.36117800  0.43445800  1
  O  O28  1  0.76626000  0.46646200  0.68103400  1
  O  O29  1  0.76287000  0.95772800  0.69869000  1
  O  O30  1  0.78577700  0.08334400  0.94111500  1
  O  O31  1  0.78445100  0.58028300  0.94116100  1
