# generated using pymatgen
data_Li5V3P8O29
_symmetry_space_group_name_H-M   'P 1'
_cell_length_a   9.78348500
_cell_length_b   9.81912794
_cell_length_c   14.08710112
_cell_angle_alpha   90.27213114
_cell_angle_beta   89.97286330
_cell_angle_gamma   119.77683808
_symmetry_Int_Tables_number   1
_chemical_formula_structural   Li5V3P8O29
_chemical_formula_sum   'Li10 V6 P16 O58'
_cell_volume   1174.58666843
_cell_formula_units_Z   2
loop_
 _symmetry_equiv_pos_site_id
 _symmetry_equiv_pos_as_xyz
  1  'x, y, z'
loop_
 _atom_site_type_symbol
 _atom_site_label
 _atom_site_symmetry_multiplicity
 _atom_site_fract_x
 _atom_site_fract_y
 _atom_site_fract_z
 _atom_site_occupancy
  Li  Li0  1  0.77206400  0.67463800  0.93969500  1
  Li  Li1  1  0.89813800  0.66178000  0.44186500  1
  Li  Li2  1  0.33084000  0.22910100  0.44243100  1
  Li  Li3  1  0.31847900  0.08783600  0.93719600  1
  Li  Li4  1  0.90500900  0.22859100  0.93843500  1
  Li  Li5  1  0.76226600  0.09382000  0.44262800  1
  Li  Li6  1  0.68398800  0.90728700  0.05812500  1
  Li  Li7  1  0.09932400  0.33548900  0.56289300  1
  Li  Li8  1  0.22970000  0.31886000  0.05979600  1
  Li  Li9  1  0.98035300  0.95652700  0.50808900  1
  V  V10  1  0.43050500  0.99789900  0.74647000  1
  V  V11  1  0.56450900  0.00000200  0.25079900  1
  V  V12  1  0.00148600  0.57113800  0.24716400  1
  V  V13  1  0.99925900  0.43508000  0.75266500  1
  V  V14  1  0.56594200  0.57098600  0.74550400  1
  V  V15  1  0.43585600  0.43281500  0.25406800  1
  P  P16  1  0.76624800  0.67861200  0.15727100  1
  P  P17  1  0.91328900  0.68567300  0.65693800  1
  P  P18  1  0.31531900  0.22855400  0.66012100  1
  P  P19  1  0.66194800  0.33350200  0.86968800  1
  P  P20  1  0.67278600  0.33602400  0.37171400  1
  P  P21  1  0.31902700  0.08789000  0.15625800  1
  P  P22  1  0.22215000  0.91578600  0.33947400  1
  P  P23  1  0.91253000  0.23165600  0.15894300  1
  P  P24  1  0.08640000  0.77207600  0.83940200  1
  P  P25  1  0.77540500  0.08884700  0.65735800  1
  P  P26  1  0.68185500  0.91316400  0.83919600  1
  P  P27  1  0.32929400  0.66260200  0.62826900  1
  P  P28  1  0.33304400  0.66247500  0.13073800  1
  P  P29  1  0.69046600  0.77581700  0.34016800  1
  P  P30  1  0.08680100  0.31801200  0.34208600  1
  P  P31  1  0.23299000  0.32110200  0.84276100  1
  O  O32  1  0.79536400  0.78888100  0.42081800  1
  O  O33  1  0.74294800  0.65949500  0.67099200  1
  O  O34  1  0.98957500  0.76117300  0.92267100  1
  O  O35  1  0.91427600  0.65943300  0.16593700  1
  O  O36  1  0.61947000  0.51954200  0.17694500  1
  O  O37  1  0.66456500  0.48375500  0.82606800  1
  O  O38  1  0.47238300  0.38446900  0.67253600  1
  O  O39  1  0.24742600  0.24479600  0.93133200  1
  O  O40  1  0.33837500  0.25485200  0.16496500  1
  O  O41  1  0.81699200  0.48950900  0.32760300  1
  O  O42  1  0.91220100  0.53092200  0.66815000  1
  O  O43  1  0.51506300  0.32339600  0.33348400  1
  O  O44  1  0.66480300  0.34213500  0.97561200  1
  O  O45  1  0.68209600  0.34927200  0.47740700  1
  O  O46  1  0.51038300  0.18510800  0.83088400  1
  O  O47  1  0.90242000  0.38197300  0.17852100  1
  O  O48  1  0.81151500  0.32775600  0.83176500  1
  O  O49  1  0.34362500  0.08847100  0.66326200  1
  O  O50  1  0.20224700  0.99034900  0.24135300  1
  O  O51  1  0.20384300  0.00384500  0.42099700  1
  O  O52  1  0.25489600  0.01328700  0.06334500  1
  O  O53  1  0.47986100  0.09784600  0.18051800  1
  O  O54  1  0.68166200  0.19049500  0.33370900  1
  O  O55  1  0.25410400  0.91613100  0.83987100  1
  O  O56  1  0.62106400  0.09009900  0.66897800  1
  O  O57  1  0.91986000  0.25795800  0.66670300  1
  O  O58  1  0.01086600  0.79886100  0.74321400  1
  O  O59  1  0.97694800  0.76966400  0.56518900  1
  O  O60  1  0.99967700  0.23329600  0.43039800  1
  O  O61  1  0.07991300  0.74356300  0.33742400  1
  O  O62  1  0.37805900  0.91526700  0.33178800  1
  O  O63  1  0.74782200  0.08379300  0.15849600  1
  O  O64  1  0.32623000  0.80573000  0.67204000  1
  O  O65  1  0.52342000  0.90592600  0.82194400  1
  O  O66  1  0.76028900  0.99952900  0.92941700  1
  O  O67  1  0.79379900  0.01700300  0.56747000  1
  O  O68  1  0.79293700  0.99831900  0.74916900  1
  O  O69  1  0.65953400  0.91680400  0.33870200  1
  O  O70  1  0.18398000  0.66236100  0.17900300  1
  O  O71  1  0.09550800  0.61967800  0.82187700  1
  O  O72  1  0.48374800  0.81274800  0.16916000  1
  O  O73  1  0.32211900  0.65783100  0.02564500  1
  O  O74  1  0.34057700  0.65553800  0.52338200  1
  O  O75  1  0.48189500  0.66543900  0.67648100  1
  O  O76  1  0.08855600  0.47388800  0.32642200  1
  O  O77  1  0.18635100  0.50819000  0.66749200  1
  O  O78  1  0.66069400  0.74542700  0.83957400  1
  O  O79  1  0.78565600  0.79706400  0.24196900  1
  O  O80  1  0.75798800  0.75244600  0.06626700  1
  O  O81  1  0.53453700  0.61949900  0.33093900  1
  O  O82  1  0.32811600  0.51192500  0.17190400  1
  O  O83  1  0.38204300  0.47886300  0.82232800  1
  O  O84  1  0.08392600  0.33726400  0.84400700  1
  O  O85  1  0.00194800  0.24627300  0.06935300  1
  O  O86  1  0.00243100  0.21069800  0.24920600  1
  O  O87  1  0.25495800  0.34009500  0.34249100  1
  O  O88  1  0.22835600  0.22716800  0.57123500  1
  O  O89  1  0.20885000  0.20952900  0.75169400  1
