# generated using pymatgen
data_Li4Ti3V3(TeO8)2
_symmetry_space_group_name_H-M   'P 1'
_cell_length_a   6.08455419
_cell_length_b   10.39229279
_cell_length_c   10.28018843
_cell_angle_alpha   89.88568247
_cell_angle_beta   89.88916356
_cell_angle_gamma   91.66928174
_symmetry_Int_Tables_number   1
_chemical_formula_structural   Li4Ti3V3(TeO8)2
_chemical_formula_sum   'Li8 Ti6 V6 Te4 O32'
_cell_volume   649.76324431
_cell_formula_units_Z   2
loop_
 _symmetry_equiv_pos_site_id
 _symmetry_equiv_pos_as_xyz
  1  'x, y, z'
loop_
 _atom_site_type_symbol
 _atom_site_label
 _atom_site_symmetry_multiplicity
 _atom_site_fract_x
 _atom_site_fract_y
 _atom_site_fract_z
 _atom_site_occupancy
  Li  Li0  1  0.49278800  0.16971500  0.90568000  1
  Li  Li1  1  0.99262500  0.66973900  0.90580800  1
  Li  Li2  1  0.00569300  0.99708900  0.98598700  1
  Li  Li3  1  0.50570300  0.49701500  0.98611600  1
  Li  Li4  1  0.00215600  0.99903300  0.49516800  1
  Li  Li5  1  0.50220000  0.49885700  0.49513500  1
  Li  Li6  1  0.50617900  0.83208800  0.39530800  1
  Li  Li7  1  0.00618100  0.33215500  0.39546300  1
  Ti  Ti8  1  0.26586800  0.90928800  0.73220400  1
  Ti  Ti9  1  0.76596400  0.40923400  0.73229500  1
  Ti  Ti10  1  0.51238200  0.32786500  0.21977900  1
  Ti  Ti11  1  0.01238900  0.82785500  0.21978100  1
  Ti  Ti12  1  0.26388100  0.07935800  0.21934200  1
  Ti  Ti13  1  0.76390000  0.57927300  0.21936600  1
  V  V14  1  0.24689800  0.58472900  0.20771300  1
  V  V15  1  0.23979500  0.41533000  0.71728200  1
  V  V16  1  0.49724300  0.67239600  0.71693900  1
  V  V17  1  0.74688200  0.08476300  0.20763100  1
  V  V18  1  0.73986100  0.91486100  0.71744800  1
  V  V19  1  0.99790600  0.17275800  0.71701300  1
  Te  Te20  1  0.50081500  0.16416400  0.51157500  1
  Te  Te21  1  0.00042500  0.66420700  0.51142400  1
  Te  Te22  1  0.51712400  0.82826300  0.99576500  1
  Te  Te23  1  0.01746900  0.32825600  0.99568000  1
  O  O24  1  0.27193900  0.24248100  0.32011800  1
  O  O25  1  0.77196200  0.74252500  0.32016900  1
  O  O26  1  0.48879700  0.17087200  0.10859300  1
  O  O27  1  0.98880600  0.67083300  0.10865500  1
  O  O28  1  0.00193900  0.99927300  0.31106300  1
  O  O29  1  0.50194900  0.49925200  0.31111100  1
  O  O30  1  0.00756500  0.99127900  0.80395800  1
  O  O31  1  0.50771400  0.49101400  0.80419200  1
  O  O32  1  0.21457900  0.92921000  0.10853900  1
  O  O33  1  0.71460400  0.42925400  0.10863700  1
  O  O34  1  0.75338200  0.07720000  0.59843000  1
  O  O35  1  0.25333900  0.57723900  0.59798000  1
  O  O36  1  0.48705100  0.84548000  0.60972000  1
  O  O37  1  0.98705100  0.34571700  0.60956100  1
  O  O38  1  0.72208800  0.76680300  0.85459700  1
  O  O39  1  0.22229300  0.26687700  0.85477300  1
  O  O40  1  0.49895800  0.33122600  0.60397300  1
  O  O41  1  0.99888500  0.83123300  0.60394600  1
  O  O42  1  0.25000200  0.08172500  0.60085200  1
  O  O43  1  0.74986900  0.58166700  0.60087700  1
  O  O44  1  0.73617700  0.24931200  0.31216900  1
  O  O45  1  0.23616000  0.74933300  0.31215900  1
  O  O46  1  0.49361600  0.00839000  0.31357900  1
  O  O47  1  0.99356800  0.50842100  0.31372500  1
  O  O48  1  0.48863800  0.99051200  0.83246300  1
  O  O49  1  0.98875000  0.49062300  0.83241800  1
  O  O50  1  0.25771500  0.76158000  0.83670700  1
  O  O51  1  0.75825500  0.26154900  0.83686800  1
  O  O52  1  0.76747500  0.91810300  0.09605600  1
  O  O53  1  0.26766600  0.41817300  0.09618300  1
  O  O54  1  0.50857200  0.65744600  0.09389600  1
  O  O55  1  0.00860700  0.15740200  0.09381300  1
