# generated using pymatgen
data_Li6V3P8O29
_symmetry_space_group_name_H-M   'P 1'
_cell_length_a   9.81765800
_cell_length_b   9.82103148
_cell_length_c   14.00449628
_cell_angle_alpha   89.76775803
_cell_angle_beta   89.74734455
_cell_angle_gamma   60.12759338
_symmetry_Int_Tables_number   1
_chemical_formula_structural   Li6V3P8O29
_chemical_formula_sum   'Li12 V6 P16 O58'
_cell_volume   1170.88664493
_cell_formula_units_Z   2
loop_
 _symmetry_equiv_pos_site_id
 _symmetry_equiv_pos_as_xyz
  1  'x, y, z'
loop_
 _atom_site_type_symbol
 _atom_site_label
 _atom_site_symmetry_multiplicity
 _atom_site_fract_x
 _atom_site_fract_y
 _atom_site_fract_z
 _atom_site_occupancy
  Li  Li0  1  0.22644100  0.68489300  0.06049400  1
  Li  Li1  1  0.09326200  0.66662200  0.56106400  1
  Li  Li2  1  0.66533100  0.23674800  0.55871600  1
  Li  Li3  1  0.32941300  0.33831800  0.88760400  1
  Li  Li4  1  0.68979600  0.08381400  0.06545700  1
  Li  Li5  1  0.09052100  0.22714000  0.06245400  1
  Li  Li6  1  0.23376300  0.09551100  0.55801400  1
  Li  Li7  1  0.31660800  0.90700100  0.94164900  1
  Li  Li8  1  0.33619000  0.76505900  0.43728700  1
  Li  Li9  1  0.89700500  0.33697200  0.43753300  1
  Li  Li10  1  0.77545800  0.31394900  0.94086300  1
  Li  Li11  1  0.96129100  0.98607400  0.48908400  1
  V  V12  1  0.57253800  0.99472700  0.25388800  1
  V  V13  1  0.43937000  0.00072600  0.74762300  1
  V  V14  1  0.99685600  0.56797300  0.75255600  1
  V  V15  1  0.99947800  0.43563300  0.24989500  1
  V  V16  1  0.43337300  0.56840900  0.24867100  1
  V  V17  1  0.56454100  0.43509600  0.74808500  1
  P  P18  1  0.22892500  0.67920400  0.84150100  1
  P  P19  1  0.08736500  0.68560400  0.34518100  1
  P  P20  1  0.68376400  0.22833000  0.34059300  1
  P  P21  1  0.33664600  0.33090900  0.12877100  1
  P  P22  1  0.33029500  0.33605500  0.62840500  1
  P  P23  1  0.67960700  0.09083500  0.84616600  1
  P  P24  1  0.77825000  0.91827000  0.66071900  1
  P  P25  1  0.09201900  0.22785300  0.84080100  1
  P  P26  1  0.91621200  0.77044300  0.16121200  1
  P  P27  1  0.22755700  0.08740600  0.34109400  1
  P  P28  1  0.32048400  0.91382500  0.15815500  1
  P  P29  1  0.66505600  0.66502200  0.37158100  1
  P  P30  1  0.66461300  0.66533900  0.87008900  1
  P  P31  1  0.31567300  0.77214300  0.65768800  1
  P  P32  1  0.91503900  0.31514700  0.65649300  1
  P  P33  1  0.76856800  0.32167800  0.15833500  1
  O  O34  1  0.22692300  0.77175200  0.56976800  1
  O  O35  1  0.25627300  0.66160600  0.33537900  1
  O  O36  1  0.01162100  0.76063300  0.07636800  1
  O  O37  1  0.08355300  0.66136400  0.84072900  1
  O  O38  1  0.37389500  0.51201600  0.82362000  1
  O  O39  1  0.32973500  0.48556200  0.16616500  1
  O  O40  1  0.53067700  0.38382800  0.33206900  1
  O  O41  1  0.75528600  0.24497900  0.06871400  1
  O  O42  1  0.66633300  0.25485200  0.84019300  1
  O  O43  1  0.18586900  0.48850100  0.67038900  1
  O  O44  1  0.08796800  0.53089600  0.33359500  1
  O  O45  1  0.48609100  0.32715800  0.66783900  1
  O  O46  1  0.33374200  0.33329700  0.02065000  1
  O  O47  1  0.32970600  0.33634100  0.52192400  1
  O  O48  1  0.48883600  0.18477100  0.16621600  1
  O  O49  1  0.11599100  0.37149500  0.82528500  1
  O  O50  1  0.18756400  0.32651600  0.16720900  1
  O  O51  1  0.65788300  0.08648200  0.33596700  1
  O  O52  1  0.79429600  0.99204300  0.76002300  1
  O  O53  1  0.78976100  0.01279100  0.57957800  1
  O  O54  1  0.74325800  0.01071500  0.93855100  1
  O  O55  1  0.51177600  0.11633400  0.82330700  1
  O  O56  1  0.32323400  0.18874400  0.66930800  1
  O  O57  1  0.74912200  0.91436000  0.16076900  1
  O  O58  1  0.37916200  0.09192100  0.33031300  1
  O  O59  1  0.08110200  0.25481100  0.33832800  1
  O  O60  1  0.99256300  0.79661000  0.25698400  1
  O  O61  1  0.01753100  0.77338800  0.43680700  1
  O  O62  1  0.00267900  0.22626900  0.56784600  1
  O  O63  1  0.91688200  0.74904200  0.65963400  1
  O  O64  1  0.61871300  0.92201200  0.66678400  1
  O  O65  1  0.25520700  0.07816000  0.84164400  1
  O  O66  1  0.67761100  0.80443000  0.32724700  1
  O  O67  1  0.47784100  0.90622500  0.17662100  1
  O  O68  1  0.24197700  0.00290000  0.06808600  1
  O  O69  1  0.22015800  0.00145200  0.42965500  1
  O  O70  1  0.20706000  0.00139700  0.24827300  1
  O  O71  1  0.33791200  0.91659200  0.65816400  1
  O  O72  1  0.81507800  0.65838700  0.82449600  1
  O  O73  1  0.90700200  0.61808500  0.17868300  1
  O  O74  1  0.51853600  0.81697300  0.82737100  1
  O  O75  1  0.66327100  0.66162100  0.97591000  1
  O  O76  1  0.65714400  0.66146100  0.47823700  1
  O  O77  1  0.50890800  0.67874000  0.32879700  1
  O  O78  1  0.91372900  0.47057500  0.66861200  1
  O  O79  1  0.80991300  0.50865900  0.33243800  1
  O  O80  1  0.33802900  0.74851500  0.15668600  1
  O  O81  1  0.21205100  0.79043900  0.75171800  1
  O  O82  1  0.25104900  0.75147200  0.93023000  1
  O  O83  1  0.47262200  0.61794700  0.66928800  1
  O  O84  1  0.66258400  0.51646700  0.82793300  1
  O  O85  1  0.62113300  0.48145400  0.17715600  1
  O  O86  1  0.91785300  0.33648100  0.15777200  1
  O  O87  1  0.99954800  0.24435100  0.93034300  1
  O  O88  1  0.00203600  0.20952400  0.75036500  1
  O  O89  1  0.74931100  0.33489700  0.65809900  1
  O  O90  1  0.77863900  0.21655200  0.42932300  1
  O  O91  1  0.79157000  0.20933200  0.24844900  1
