# generated using pymatgen
data_Li6MnV3(PO4)6
_symmetry_space_group_name_H-M   'P 1'
_cell_length_a   8.58230800
_cell_length_b   8.68063071
_cell_length_c   15.18177581
_cell_angle_alpha   89.90964642
_cell_angle_beta   105.62635468
_cell_angle_gamma   118.57652300
_symmetry_Int_Tables_number   1
_chemical_formula_structural   Li6MnV3(PO4)6
_chemical_formula_sum   'Li12 Mn2 V6 P12 O48'
_cell_volume   945.65086665
_cell_formula_units_Z   2
loop_
 _symmetry_equiv_pos_site_id
 _symmetry_equiv_pos_as_xyz
  1  'x, y, z'
loop_
 _atom_site_type_symbol
 _atom_site_label
 _atom_site_symmetry_multiplicity
 _atom_site_fract_x
 _atom_site_fract_y
 _atom_site_fract_z
 _atom_site_occupancy
  Li  Li0  1  0.75339000  0.69475400  0.31870200  1
  Li  Li1  1  0.73970800  0.82149500  0.54715000  1
  Li  Li2  1  0.74049300  0.32387000  0.04531900  1
  Li  Li3  1  0.26197300  0.83747300  0.19192200  1
  Li  Li4  1  0.68727800  0.79268300  0.83338400  1
  Li  Li5  1  0.68312100  0.28252500  0.33679400  1
  Li  Li6  1  0.24831900  0.71464600  0.64634600  1
  Li  Li7  1  0.25087900  0.23139200  0.14155800  1
  Li  Li8  1  0.76193300  0.21110600  0.81812900  1
  Li  Li9  1  0.24902100  0.32700000  0.68666400  1
  Li  Li10  1  0.18072900  0.64234400  0.97587200  1
  Li  Li11  1  0.18218400  0.14738800  0.47235200  1
  Mn  Mn12  1  0.85601400  0.21634000  0.57251600  1
  Mn  Mn13  1  0.13544200  0.27710900  0.92516000  1
  V  V14  1  0.85762300  0.71449800  0.07282100  1
  V  V15  1  0.35732200  0.97010700  0.82029800  1
  V  V16  1  0.63636700  0.52657000  0.68027400  1
  V  V17  1  0.35838800  0.46456900  0.32065300  1
  V  V18  1  0.13745300  0.78438900  0.42447400  1
  V  V19  1  0.63940800  0.03092500  0.18041400  1
  P  P20  1  0.94790200  0.98534500  0.73433000  1
  P  P21  1  0.95227800  0.48385100  0.23669100  1
  P  P22  1  0.25106900  0.97851600  0.02379200  1
  P  P23  1  0.53704200  0.89400600  0.37499200  1
  P  P24  1  0.45377700  0.60043800  0.12428600  1
  P  P25  1  0.74619700  0.51859100  0.47693500  1
  P  P26  1  0.24566500  0.47560400  0.52354800  1
  P  P27  1  0.53583900  0.40126700  0.87649300  1
  P  P28  1  0.45292700  0.09527000  0.62145300  1
  P  P29  1  0.75110500  0.02357800  0.97533700  1
  P  P30  1  0.04376000  0.51587900  0.76590400  1
  P  P31  1  0.04249100  0.01408100  0.26186200  1
  O  O32  1  0.84491900  0.98679800  0.23710200  1
  O  O33  1  0.91448100  0.53678500  0.13802100  1
  O  O34  1  0.94071000  0.60091900  0.30906300  1
  O  O35  1  0.67834700  0.97894100  0.47095500  1
  O  O36  1  0.90266500  0.70000800  0.46531000  1
  O  O37  1  0.64845800  0.65678700  0.11795300  1
  O  O38  1  0.44501800  0.76897200  0.15052300  1
  O  O39  1  0.54600800  0.72630100  0.34725300  1
  O  O40  1  0.78924000  0.79104300  0.72473600  1
  O  O41  1  0.79000000  0.29351500  0.23072000  1
  O  O42  1  0.09252500  0.79259400  0.03207300  1
  O  O43  1  0.33452600  0.83844900  0.36872400  1
  O  O44  1  0.05572400  0.89739800  0.19042000  1
  O  O45  1  0.30034100  0.00052000  0.52742600  1
  O  O46  1  0.80618200  0.87863600  0.98964700  1
  O  O47  1  0.68608100  0.56450800  0.55520100  1
  O  O48  1  0.29367300  0.50028200  0.03447700  1
  O  O49  1  0.40965500  0.96896400  0.69473000  1
  O  O50  1  0.59430900  0.95100000  0.87929700  1
  O  O51  1  0.80336500  0.37419800  0.49179300  1
  O  O52  1  0.69427700  0.07307100  0.05432300  1
  O  O53  1  0.07952600  0.96553800  0.36141900  1
  O  O54  1  0.42736800  0.47705000  0.19993800  1
  O  O55  1  0.58948900  0.43977000  0.38089000  1
  O  O56  1  0.84190400  0.48125200  0.73877100  1
  O  O57  1  0.14271500  0.49725900  0.26097600  1
  O  O58  1  0.40187000  0.54850800  0.61887800  1
  O  O59  1  0.40645900  0.05241900  0.11939700  1
  O  O60  1  0.92147300  0.04213000  0.63579800  1
  O  O61  1  0.57689900  0.52915500  0.80314300  1
  O  O62  1  0.31151800  0.93814700  0.94489800  1
  O  O63  1  0.18787200  0.61894600  0.50904700  1
  O  O64  1  0.58181700  0.02587700  0.30357100  1
  O  O65  1  0.30102800  0.42594300  0.44450200  1
  O  O66  1  0.19129500  0.12156600  0.01037000  1
  O  O67  1  0.92414700  0.09462400  0.80431800  1
  O  O68  1  0.68317700  0.48874900  0.97140600  1
  O  O69  1  0.91225800  0.20743100  0.96553500  1
  O  O70  1  0.65149000  0.14634900  0.62233000  1
  O  O71  1  0.19042200  0.71072000  0.76821300  1
  O  O72  1  0.19485100  0.20567700  0.26267900  1
  O  O73  1  0.44306400  0.26379700  0.64638700  1
  O  O74  1  0.54424800  0.23326400  0.84841100  1
  O  O75  1  0.08579300  0.28985100  0.53385500  1
  O  O76  1  0.33524600  0.34843900  0.87388500  1
  O  O77  1  0.06611700  0.40691300  0.69513900  1
  O  O78  1  0.07547100  0.46360600  0.86481100  1
  O  O79  1  0.14270400  0.00672300  0.76426100  1
