# generated using pymatgen
data_Li3MnCo3O8
_symmetry_space_group_name_H-M   'P 1'
_cell_length_a   5.88265183
_cell_length_b   10.36762129
_cell_length_c   5.89929846
_cell_angle_alpha   89.88864551
_cell_angle_beta   59.36772104
_cell_angle_gamma   105.92831547
_symmetry_Int_Tables_number   1
_chemical_formula_structural   Li3MnCo3O8
_chemical_formula_sum   'Li6 Mn2 Co6 O16'
_cell_volume   293.29666716
_cell_formula_units_Z   2
loop_
 _symmetry_equiv_pos_site_id
 _symmetry_equiv_pos_as_xyz
  1  'x, y, z'
loop_
 _atom_site_type_symbol
 _atom_site_label
 _atom_site_symmetry_multiplicity
 _atom_site_fract_x
 _atom_site_fract_y
 _atom_site_fract_z
 _atom_site_occupancy
  Li  Li0  1  0.50451100  0.24973400  0.74085500  1
  Li  Li1  1  0.49548400  0.75029100  0.25903000  1
  Li  Li2  1  0.00003500  0.24945900  0.74170100  1
  Li  Li3  1  0.99999300  0.75056400  0.25823300  1
  Li  Li4  1  0.99694700  0.25139900  0.25800200  1
  Li  Li5  1  0.00295700  0.74864400  0.74196600  1
  Mn  Mn6  1  0.00001200  0.50002800  0.50007200  1
  Mn  Mn7  1  0.99990500  0.99993300  0.99999600  1
  Co  Co8  1  0.49998300  0.99997000  0.00000700  1
  Co  Co9  1  0.50005800  0.50005200  0.49999100  1
  Co  Co10  1  0.00000600  0.99998100  0.49996800  1
  Co  Co11  1  0.00007600  0.50005700  0.99998400  1
  Co  Co12  1  0.49994000  0.99992300  0.50009000  1
  Co  Co13  1  0.50001100  0.50003100  0.00000900  1
  O  O14  1  0.74261400  0.11689600  0.62945400  1
  O  O15  1  0.74928800  0.61129500  0.13338900  1
  O  O16  1  0.25081000  0.38874800  0.86655200  1
  O  O17  1  0.25736200  0.88306100  0.37050400  1
  O  O18  1  0.23181400  0.10653700  0.11847400  1
  O  O19  1  0.22740900  0.60809000  0.61907900  1
  O  O20  1  0.75041100  0.10650800  0.13184200  1
  O  O21  1  0.75786500  0.61013400  0.61816300  1
  O  O22  1  0.22311300  0.10779600  0.64709100  1
  O  O23  1  0.24168900  0.60679900  0.14256900  1
  O  O24  1  0.75846800  0.39322000  0.85743100  1
  O  O25  1  0.77680600  0.89212800  0.35290700  1
  O  O26  1  0.24215500  0.38990000  0.38187900  1
  O  O27  1  0.24936400  0.89340600  0.86846300  1
  O  O28  1  0.77277300  0.39203000  0.38087800  1
  O  O29  1  0.76814100  0.89338400  0.88141800  1
