# generated using pymatgen
data_Li6Zn3(PS4)4
_symmetry_space_group_name_H-M   'P 1'
_cell_length_a   9.34976500
_cell_length_b   11.60542384
_cell_length_c   23.10993744
_cell_angle_alpha   90.04169038
_cell_angle_beta   90.03882042
_cell_angle_gamma   90.07831538
_symmetry_Int_Tables_number   1
_chemical_formula_structural   Li6Zn3(PS4)4
_chemical_formula_sum   'Li24 Zn12 P16 S64'
_cell_volume   2507.60917608
_cell_formula_units_Z   4
loop_
 _symmetry_equiv_pos_site_id
 _symmetry_equiv_pos_as_xyz
  1  'x, y, z'
loop_
 _atom_site_type_symbol
 _atom_site_label
 _atom_site_symmetry_multiplicity
 _atom_site_fract_x
 _atom_site_fract_y
 _atom_site_fract_z
 _atom_site_occupancy
  Li  Li0  1  0.25775400  0.50334400  0.87736100  1
  Li  Li1  1  0.24969400  0.99382900  0.87246700  1
  Li  Li2  1  0.74881200  0.24246800  0.75280900  1
  Li  Li3  1  0.75522600  0.25832400  0.99611500  1
  Li  Li4  1  0.49398000  0.50208200  0.25034400  1
  Li  Li5  1  0.49508000  0.00232800  0.25182700  1
  Li  Li6  1  0.49866600  0.50012100  0.49961000  1
  Li  Li7  1  0.49458400  0.99797000  0.49874200  1
  Li  Li8  1  0.99720600  0.24984500  0.37493500  1
  Li  Li9  1  0.99886200  0.75023200  0.37467200  1
  Li  Li10  1  0.50305000  0.50212400  0.74789600  1
  Li  Li11  1  0.49730200  0.99558800  0.74890200  1
  Li  Li12  1  0.00162300  0.24825400  0.62276700  1
  Li  Li13  1  0.99676700  0.74960500  0.62421300  1
  Li  Li14  1  0.50542800  0.50379800  0.99970800  1
  Li  Li15  1  0.00771900  0.25138400  0.87517300  1
  Li  Li16  1  0.98760200  0.75061200  0.87498600  1
  Li  Li17  1  0.00184600  0.25050600  0.12771200  1
  Li  Li18  1  0.99685100  0.74954900  0.12477600  1
  Li  Li19  1  0.51772500  0.75129600  0.87432900  1
  Li  Li20  1  0.49759300  0.25077700  0.87567300  1
  Li  Li21  1  0.99713500  0.99694300  0.74920900  1
  Li  Li22  1  0.00707600  0.50144900  0.00266900  1
  Li  Li23  1  0.00002900  0.99725700  0.00038400  1
  Zn  Zn24  1  0.50257600  0.99838500  0.00186500  1
  Zn  Zn25  1  0.50399900  0.74879800  0.12440800  1
  Zn  Zn26  1  0.49074900  0.25213500  0.12716400  1
  Zn  Zn27  1  0.50078900  0.74975500  0.37483100  1
  Zn  Zn28  1  0.50207600  0.25024600  0.37513300  1
  Zn  Zn29  1  0.00032900  0.50003600  0.25032900  1
  Zn  Zn30  1  0.99921400  0.00041000  0.24936900  1
  Zn  Zn31  1  0.50021200  0.75089200  0.62613300  1
  Zn  Zn32  1  0.49311600  0.24822700  0.62308100  1
  Zn  Zn33  1  0.00125600  0.50054800  0.49956000  1
  Zn  Zn34  1  0.00043200  0.99976600  0.49975800  1
  Zn  Zn35  1  0.00101600  0.50031800  0.74987600  1
  P  P36  1  0.24916900  0.75100000  0.24952100  1
  P  P37  1  0.24864200  0.25035000  0.25064700  1
  P  P38  1  0.24997200  0.74937900  0.50001900  1
  P  P39  1  0.24910800  0.25018400  0.49931200  1
  P  P40  1  0.74999400  0.50020900  0.37506200  1
  P  P41  1  0.75015600  0.00004000  0.37483400  1
  P  P42  1  0.24959100  0.75195600  0.74812700  1
  P  P43  1  0.25032600  0.25592800  0.75192300  1
  P  P44  1  0.75229100  0.49900400  0.62512600  1
  P  P45  1  0.74563000  0.00564700  0.62390400  1
  P  P46  1  0.25195900  0.74845400  0.99697500  1
  P  P47  1  0.24978500  0.24463600  0.00224000  1
  P  P48  1  0.75212300  0.49875200  0.87427500  1
  P  P49  1  0.75045200  0.01029000  0.87647600  1
  P  P50  1  0.74663100  0.49367200  0.12619400  1
  P  P51  1  0.75127800  0.99244600  0.12552800  1
  S  S52  1  0.13954000  0.64882300  0.05233800  1
  S  S53  1  0.12953600  0.14358400  0.05395500  1
  S  S54  1  0.13562900  0.63927300  0.30185800  1
  S  S55  1  0.13271300  0.13926500  0.30223200  1
  S  S56  1  0.62887800  0.38681600  0.17953300  1
  S  S57  1  0.62521200  0.89198900  0.17813900  1
  S  S58  1  0.13580000  0.63791600  0.55214400  1
  S  S59  1  0.13801500  0.13737300  0.55160100  1
  S  S60  1  0.63635300  0.38880200  0.42742300  1
  S  S61  1  0.63586900  0.88859800  0.42690400  1
  S  S62  1  0.13190400  0.63992500  0.80235800  1
  S  S63  1  0.13271000  0.14424500  0.80215300  1
  S  S64  1  0.63170800  0.38609800  0.67611800  1
  S  S65  1  0.63627700  0.89168800  0.67648300  1
  S  S66  1  0.63196400  0.39158500  0.92682400  1
  S  S67  1  0.63284800  0.90249800  0.93021400  1
  S  S68  1  0.36441100  0.35336800  0.30641800  1
  S  S69  1  0.36335100  0.85395100  0.30609800  1
  S  S70  1  0.36064400  0.35591100  0.55536600  1
  S  S71  1  0.36496500  0.85278600  0.55577700  1
  S  S72  1  0.86474800  0.10386100  0.43068600  1
  S  S73  1  0.86404200  0.60454200  0.43094200  1
  S  S74  1  0.37232900  0.36077900  0.80377200  1
  S  S75  1  0.36950500  0.85137500  0.80363000  1
  S  S76  1  0.86572000  0.10772000  0.67800300  1
  S  S77  1  0.86273300  0.60346600  0.68135400  1
  S  S78  1  0.37629000  0.35164500  0.05251300  1
  S  S79  1  0.37152100  0.85708600  0.05324700  1
  S  S80  1  0.87203300  0.11441800  0.92969700  1
  S  S81  1  0.87938300  0.59565800  0.92593100  1
  S  S82  1  0.85967000  0.10285000  0.18022200  1
  S  S83  1  0.86347100  0.59927400  0.18064500  1
  S  S84  1  0.13469800  0.86228500  0.19749600  1
  S  S85  1  0.13780300  0.36309100  0.19839700  1
  S  S86  1  0.13558000  0.86080800  0.44793500  1
  S  S87  1  0.13375300  0.36081200  0.44731000  1
  S  S88  1  0.63570600  0.61120100  0.32278600  1
  S  S89  1  0.63670500  0.11219700  0.32283900  1
  S  S90  1  0.12871500  0.85400400  0.69720600  1
  S  S91  1  0.12965100  0.35893200  0.69777400  1
  S  S92  1  0.63381200  0.60858400  0.57409100  1
  S  S93  1  0.62694400  0.11159600  0.57062000  1
  S  S94  1  0.13448100  0.85703700  0.94541300  1
  S  S95  1  0.13957700  0.35452700  0.94840300  1
  S  S96  1  0.63354200  0.60067000  0.82191500  1
  S  S97  1  0.62309600  0.10886600  0.82264600  1
  S  S98  1  0.63703200  0.60771800  0.07372600  1
  S  S99  1  0.62991800  0.10991400  0.07328300  1
  S  S100  1  0.36254100  0.64750500  0.19327900  1
  S  S101  1  0.35965000  0.14424900  0.19472600  1
  S  S102  1  0.36401600  0.64576400  0.44389800  1
  S  S103  1  0.36407600  0.14690100  0.44355300  1
  S  S104  1  0.86442200  0.39615500  0.31948400  1
  S  S105  1  0.86390500  0.89627500  0.31881900  1
  S  S106  1  0.36848600  0.64521900  0.69505600  1
  S  S107  1  0.36767300  0.15086500  0.69705600  1
  S  S108  1  0.86552000  0.39560500  0.56909900  1
  S  S109  1  0.86254600  0.90053900  0.56933700  1
  S  S110  1  0.37852700  0.64718300  0.94520600  1
  S  S111  1  0.37213500  0.13712400  0.94824100  1
  S  S112  1  0.87283500  0.38958000  0.81889800  1
  S  S113  1  0.86678300  0.90335200  0.82553400  1
  S  S114  1  0.86696200  0.39192100  0.07226200  1
  S  S115  1  0.85866600  0.89119000  0.07018600  1
