# generated using pymatgen
data_Li3AuN2
_symmetry_space_group_name_H-M   'P 1'
_cell_length_a   8.16101513
_cell_length_b   7.42154441
_cell_length_c   12.50000184
_cell_angle_alpha   90.00000290
_cell_angle_beta   139.98143587
_cell_angle_gamma   117.04530737
_symmetry_Int_Tables_number   1
_chemical_formula_structural   Li3AuN2
_chemical_formula_sum   'Li12 Au4 N8'
_cell_volume   344.24582270
_cell_formula_units_Z   4
loop_
 _symmetry_equiv_pos_site_id
 _symmetry_equiv_pos_as_xyz
  1  'x, y, z'
loop_
 _atom_site_type_symbol
 _atom_site_label
 _atom_site_symmetry_multiplicity
 _atom_site_fract_x
 _atom_site_fract_y
 _atom_site_fract_z
 _atom_site_occupancy
  Li  Li0  1  -0.00000000  0.50000000  0.40553854  1
  Li  Li1  1  0.00000000  0.00000000  0.84446146  1
  Li  Li2  1  0.00000000  0.50000000  0.09446146  1
  Li  Li3  1  -0.00000000  -0.00000000  0.15553854  1
  Li  Li4  1  0.58138755  0.50000000  0.54069327  1
  Li  Li5  1  0.41861245  0.50000000  0.95930673  1
  Li  Li6  1  0.58138755  0.00000000  0.29069327  1
  Li  Li7  1  0.41861245  -0.00000000  0.70930673  1
  Li  Li8  1  0.41861245  0.91861245  0.95930673  1
  Li  Li9  1  0.58138755  0.08138755  0.54069327  1
  Li  Li10  1  0.41861245  0.41861245  0.70930673  1
  Li  Li11  1  0.58138755  0.58138755  0.29069327  1
  Au  Au12  1  -0.00000000  0.50000000  0.62507076  1
  Au  Au13  1  0.00000000  0.00000000  0.62492924  1
  Au  Au14  1  0.00000000  0.50000000  0.87492924  1
  Au  Au15  1  -0.00000000  -0.00000000  0.37507076  1
  N  N16  1  0.26587995  0.13293998  0.13264474  1
  N  N17  1  0.73412005  0.86706002  0.86676478  1
  N  N18  1  0.26587995  0.63293998  0.38323522  1
  N  N19  1  0.73412005  0.36706002  0.11735526  1
  N  N20  1  0.00000000  0.86706002  0.00029524  1
  N  N21  1  -0.00000000  0.13293998  0.00029524  1
  N  N22  1  0.00000000  0.36706002  0.24970476  1
  N  N23  1  -0.00000000  0.63293998  0.24970476  1
