# generated using pymatgen
data_Li2ReN2
_symmetry_space_group_name_H-M   'P 1'
_cell_length_a   2.93560944
_cell_length_b   2.93584442
_cell_length_c   7.66993153
_cell_angle_alpha   89.99999748
_cell_angle_beta   89.88693671
_cell_angle_gamma   120.00265403
_symmetry_Int_Tables_number   1
_chemical_formula_structural   Li2ReN2
_chemical_formula_sum   'Li2 Re1 N2'
_cell_volume   57.24541229
_cell_formula_units_Z   1
loop_
 _symmetry_equiv_pos_site_id
 _symmetry_equiv_pos_as_xyz
  1  'x, y, z'
loop_
 _atom_site_type_symbol
 _atom_site_label
 _atom_site_symmetry_multiplicity
 _atom_site_fract_x
 _atom_site_fract_y
 _atom_site_fract_z
 _atom_site_occupancy
  Li  Li0  1  0.66461765  0.33230883  0.30234920  1
  Li  Li1  1  0.33538235  0.66769117  0.69765080  1
  Re  Re2  1  0.00000000  0.00000000  0.00000000  1
  N  N3  1  0.66788319  0.33394210  0.83626702  1
  N  N4  1  0.33211681  0.66605790  0.16373298  1
