# generated using pymatgen
data_Li4MnCo2O7
_symmetry_space_group_name_H-M   'P 1'
_cell_length_a   2.97155100
_cell_length_b   5.96416844
_cell_length_c   14.31517202
_cell_angle_alpha   82.94021351
_cell_angle_beta   84.55545228
_cell_angle_gamma   85.98913098
_symmetry_Int_Tables_number   1
_chemical_formula_structural   Li4MnCo2O7
_chemical_formula_sum   'Li8 Mn2 Co4 O14'
_cell_volume   250.20940861
_cell_formula_units_Z   2
loop_
 _symmetry_equiv_pos_site_id
 _symmetry_equiv_pos_as_xyz
  1  'x, y, z'
loop_
 _atom_site_type_symbol
 _atom_site_label
 _atom_site_symmetry_multiplicity
 _atom_site_fract_x
 _atom_site_fract_y
 _atom_site_fract_z
 _atom_site_occupancy
  Li  Li0  1  0.00544900  0.49668900  0.99543900  1
  Li  Li1  1  0.57790900  0.79658800  0.85250500  1
  Li  Li2  1  0.13715800  0.07656000  0.72179200  1
  Li  Li3  1  0.42609300  0.21286800  0.14475900  1
  Li  Li4  1  0.85722900  0.92873700  0.28623200  1
  Li  Li5  1  0.28597100  0.64137500  0.42732300  1
  Li  Li6  1  0.71176700  0.35664000  0.57309700  1
  Li  Li7  1  0.56599500  0.27646900  0.85414400  1
  Mn  Mn8  1  0.00555300  0.00681000  0.99602600  1
  Mn  Mn9  1  0.71228900  0.85686800  0.57228400  1
  Co  Co10  1  0.13244500  0.55802100  0.72150800  1
  Co  Co11  1  0.28918300  0.14499800  0.42771200  1
  Co  Co12  1  0.85717400  0.42881400  0.28522900  1
  Co  Co13  1  0.43595600  0.71609900  0.14392500  1
  O  O14  1  0.52197700  0.77548400  0.00625400  1
  O  O15  1  0.06129400  0.02951000  0.86780500  1
  O  O16  1  0.61735800  0.34023500  0.71390700  1
  O  O17  1  0.89887300  0.47645500  0.14778200  1
  O  O18  1  0.32854000  0.19042700  0.29167200  1
  O  O19  1  0.75669400  0.90167600  0.43269100  1
  O  O20  1  0.18633700  0.61251400  0.58150500  1
  O  O21  1  0.47706300  0.21972200  0.00083700  1
  O  O22  1  0.08116300  0.54179900  0.84458800  1
  O  O23  1  0.66833600  0.81105600  0.70944700  1
  O  O24  1  0.96185500  0.95037900  0.13786900  1
  O  O25  1  0.38309100  0.66622500  0.27910700  1
  O  O26  1  0.81589800  0.38359000  0.42107500  1
  O  O27  1  0.24135100  0.10339300  0.56348700  1
