# generated using pymatgen
data_Li2TiCo3O8
_symmetry_space_group_name_H-M   'P 1'
_cell_length_a   8.10126600
_cell_length_b   8.45798567
_cell_length_c   8.53070590
_cell_angle_alpha   90.17889730
_cell_angle_beta   90.09718660
_cell_angle_gamma   90.06020878
_symmetry_Int_Tables_number   1
_chemical_formula_structural   Li2TiCo3O8
_chemical_formula_sum   'Li8 Ti4 Co12 O32'
_cell_volume   584.52329407
_cell_formula_units_Z   4
loop_
 _symmetry_equiv_pos_site_id
 _symmetry_equiv_pos_as_xyz
  1  'x, y, z'
loop_
 _atom_site_type_symbol
 _atom_site_label
 _atom_site_symmetry_multiplicity
 _atom_site_fract_x
 _atom_site_fract_y
 _atom_site_fract_z
 _atom_site_occupancy
  Li  Li0  1  0.00669900  0.00106000  0.99968000  1
  Li  Li1  1  0.74385200  0.75117700  0.75093000  1
  Li  Li2  1  0.25468900  0.75187600  0.24664000  1
  Li  Li3  1  0.99410800  0.49700900  0.50019600  1
  Li  Li4  1  0.49496500  0.50292800  0.99703700  1
  Li  Li5  1  0.75483600  0.24974800  0.25402400  1
  Li  Li6  1  0.24326100  0.24859500  0.75154200  1
  Li  Li7  1  0.50680000  0.99790400  0.50035700  1
  Ti  Ti8  1  0.12478500  0.86934000  0.62372500  1
  Ti  Ti9  1  0.87322000  0.63507600  0.11218100  1
  Ti  Ti10  1  0.37131400  0.36581000  0.38752700  1
  Ti  Ti11  1  0.62848700  0.12572200  0.87830300  1
  Co  Co12  1  0.87061500  0.87792300  0.37725100  1
  Co  Co13  1  0.61896400  0.87067600  0.12344000  1
  Co  Co14  1  0.37427500  0.87994900  0.87135200  1
  Co  Co15  1  0.62425400  0.62084600  0.37102800  1
  Co  Co16  1  0.38368700  0.63049500  0.62892400  1
  Co  Co17  1  0.13099400  0.62556300  0.87907300  1
  Co  Co18  1  0.62889300  0.37507900  0.62451000  1
  Co  Co19  1  0.88162200  0.37066400  0.87142100  1
  Co  Co20  1  0.12480700  0.37909100  0.12826600  1
  Co  Co21  1  0.87531900  0.12077800  0.62681800  1
  Co  Co22  1  0.12180000  0.12545600  0.37585200  1
  Co  Co23  1  0.37002900  0.12193900  0.11997200  1
  O  O24  1  0.88168900  0.89719600  0.61945200  1
  O  O25  1  0.11320400  0.88073800  0.39383900  1
  O  O26  1  0.38241700  0.88463900  0.09547000  1
  O  O27  1  0.86403600  0.86098100  0.13348000  1
  O  O28  1  0.60638200  0.89051600  0.88363600  1
  O  O29  1  0.63216900  0.85284100  0.35856400  1
  O  O30  1  0.36574100  0.87254300  0.64630300  1
  O  O31  1  0.14241100  0.86869200  0.85791700  1
  O  O32  1  0.84918400  0.63242800  0.36221400  1
  O  O33  1  0.63827300  0.63075100  0.12901300  1
  O  O34  1  0.36651600  0.65442000  0.86503400  1
  O  O35  1  0.39934500  0.61335500  0.38184300  1
  O  O36  1  0.13787900  0.64281600  0.63041200  1
  O  O37  1  0.61481000  0.60831700  0.61874000  1
  O  O38  1  0.88692700  0.61879600  0.88968300  1
  O  O39  1  0.11370400  0.61547400  0.11730300  1
  O  O40  1  0.61544100  0.39182900  0.38331000  1
  O  O41  1  0.38417100  0.38220900  0.60899200  1
  O  O42  1  0.11519900  0.39027500  0.88942500  1
  O  O43  1  0.63913800  0.35694100  0.86947900  1
  O  O44  1  0.90117300  0.38751200  0.11885200  1
  O  O45  1  0.86810400  0.34574200  0.63586400  1
  O  O46  1  0.13644700  0.36846800  0.36552500  1
  O  O47  1  0.34858100  0.36984100  0.13708400  1
  O  O48  1  0.64259600  0.13219200  0.64127700  1
  O  O49  1  0.86718200  0.12881000  0.85521900  1
  O  O50  1  0.13538700  0.13737900  0.14321400  1
  O  O51  1  0.10490600  0.11179800  0.61360700  1
  O  O52  1  0.36901500  0.14207600  0.36612100  1
  O  O53  1  0.88129300  0.11182800  0.40200400  1
  O  O54  1  0.61112200  0.11979800  0.10737900  1
  O  O55  1  0.38314500  0.10409400  0.87955600  1
