# generated using pymatgen
data_Li2V5O10
_symmetry_space_group_name_H-M   'P 1'
_cell_length_a   5.13870005
_cell_length_b   7.76989142
_cell_length_c   10.36798054
_cell_angle_alpha   103.86539027
_cell_angle_beta   103.66744104
_cell_angle_gamma   77.59224890
_symmetry_Int_Tables_number   1
_chemical_formula_structural   Li2V5O10
_chemical_formula_sum   'Li4 V10 O20'
_cell_volume   384.98771125
_cell_formula_units_Z   2
loop_
 _symmetry_equiv_pos_site_id
 _symmetry_equiv_pos_as_xyz
  1  'x, y, z'
loop_
 _atom_site_type_symbol
 _atom_site_label
 _atom_site_symmetry_multiplicity
 _atom_site_fract_x
 _atom_site_fract_y
 _atom_site_fract_z
 _atom_site_occupancy
  Li  Li0  1  0.54453200  0.39831800  0.10720700  1
  Li  Li1  1  0.54450200  0.39829100  0.60717400  1
  Li  Li2  1  0.45655100  0.59945500  0.39635100  1
  Li  Li3  1  0.45668200  0.59933800  0.89627700  1
  V  V4  1  0.49827200  0.00388600  0.00125400  1
  V  V5  1  0.01646200  0.68582500  0.56849200  1
  V  V6  1  0.98676200  0.31485600  0.43562200  1
  V  V7  1  0.95629400  0.89344100  0.34582700  1
  V  V8  1  0.04049200  0.10372500  0.65267300  1
  V  V9  1  0.49804900  0.00404000  0.50120400  1
  V  V10  1  0.01657200  0.68580300  0.06851700  1
  V  V11  1  0.98677600  0.31486600  0.93562700  1
  V  V12  1  0.95640600  0.89347400  0.84580700  1
  V  V13  1  0.04060800  0.10370400  0.15267800  1
  O  O14  1  0.21579100  0.86509600  0.02453700  1
  O  O15  1  0.21560000  0.86509200  0.52453700  1
  O  O16  1  0.78163200  0.13022000  0.46750700  1
  O  O17  1  0.78162500  0.13021800  0.96753000  1
  O  O18  1  0.77948900  0.51153200  0.03301900  1
  O  O19  1  0.77942900  0.51152500  0.53298900  1
  O  O20  1  0.21980800  0.49596400  0.46932400  1
  O  O21  1  0.21989600  0.49595100  0.96931700  1
  O  O22  1  0.78572100  0.93268000  0.16091400  1
  O  O23  1  0.78556900  0.93273700  0.66092100  1
  O  O24  1  0.20719000  0.05403200  0.34011100  1
  O  O25  1  0.20713800  0.05408400  0.84011300  1
  O  O26  1  0.27231500  0.22295800  0.09085200  1
  O  O27  1  0.27229000  0.22296300  0.59088100  1
  O  O28  1  0.73394000  0.78294400  0.39990400  1
  O  O29  1  0.73412700  0.78295500  0.89991600  1
  O  O30  1  0.17062800  0.68958500  0.24370100  1
  O  O31  1  0.17065100  0.68959200  0.74367800  1
  O  O32  1  0.83412100  0.31541100  0.26275200  1
  O  O33  1  0.83408300  0.31543900  0.76278600  1
