# generated using pymatgen
data_Li2TiV3O8
_symmetry_space_group_name_H-M   'P 1'
_cell_length_a   5.98382411
_cell_length_b   8.50770357
_cell_length_c   5.98305318
_cell_angle_alpha   89.99229977
_cell_angle_beta   90.01179523
_cell_angle_gamma   90.49798796
_symmetry_Int_Tables_number   1
_chemical_formula_structural   Li2TiV3O8
_chemical_formula_sum   'Li4 Ti2 V6 O16'
_cell_volume   304.57735815
_cell_formula_units_Z   2
loop_
 _symmetry_equiv_pos_site_id
 _symmetry_equiv_pos_as_xyz
  1  'x, y, z'
loop_
 _atom_site_type_symbol
 _atom_site_label
 _atom_site_symmetry_multiplicity
 _atom_site_fract_x
 _atom_site_fract_y
 _atom_site_fract_z
 _atom_site_occupancy
  Li  Li0  1  0.25120400  0.12286600  0.00174600  1
  Li  Li1  1  0.75153800  0.62523200  0.49784000  1
  Li  Li2  1  0.74873000  0.87714300  0.00176800  1
  Li  Li3  1  0.24850700  0.37475500  0.49786900  1
  Ti  Ti4  1  0.99998900  0.50009600  0.99515900  1
  Ti  Ti5  1  0.50005300  0.99988100  0.50368200  1
  V  V6  1  0.00002000  0.00001900  0.49576800  1
  V  V7  1  0.25011700  0.75106400  0.75017800  1
  V  V8  1  0.74984100  0.24898900  0.75023000  1
  V  V9  1  0.50002900  0.49996300  0.00735800  1
  V  V10  1  0.74768400  0.24837300  0.24783300  1
  V  V11  1  0.25233400  0.75162200  0.24783000  1
  O  O12  1  0.53346800  0.25481200  0.01599600  1
  O  O13  1  0.03122100  0.76031600  0.48351300  1
  O  O14  1  0.46641900  0.74519500  0.01581400  1
  O  O15  1  0.96888200  0.23964400  0.48340400  1
  O  O16  1  0.75467300  0.48517000  0.22735600  1
  O  O17  1  0.25655000  0.99024900  0.72262300  1
  O  O18  1  0.75424400  0.49126900  0.78057200  1
  O  O19  1  0.25810200  0.98497600  0.27125700  1
  O  O20  1  0.97992800  0.26576300  0.00427700  1
  O  O21  1  0.47950500  0.76543500  0.49572900  1
  O  O22  1  0.01991300  0.73423100  0.00445600  1
  O  O23  1  0.52065900  0.23459900  0.49590000  1
  O  O24  1  0.24543600  0.51485700  0.22735600  1
  O  O25  1  0.74348200  0.00973300  0.72264500  1
  O  O26  1  0.24573800  0.50877200  0.78058700  1
  O  O27  1  0.74173200  0.01497500  0.27125300  1
