# generated using pymatgen
data_Li3MnV(PO4)3
_symmetry_space_group_name_H-M   'P 1'
_cell_length_a   8.66279400
_cell_length_b   8.67159320
_cell_length_c   12.64493092
_cell_angle_alpha   105.85300428
_cell_angle_beta   105.75683248
_cell_angle_gamma   95.53353289
_symmetry_Int_Tables_number   1
_chemical_formula_structural   Li3MnV(PO4)3
_chemical_formula_sum   'Li12 Mn4 V4 P12 O48'
_cell_volume   864.36398877
_cell_formula_units_Z   4
loop_
 _symmetry_equiv_pos_site_id
 _symmetry_equiv_pos_as_xyz
  1  'x, y, z'
loop_
 _atom_site_type_symbol
 _atom_site_label
 _atom_site_symmetry_multiplicity
 _atom_site_fract_x
 _atom_site_fract_y
 _atom_site_fract_z
 _atom_site_occupancy
  Li  Li0  1  0.00328500  0.00143100  0.12493400  1
  Li  Li1  1  0.00318500  0.99477000  0.62407500  1
  Li  Li2  1  0.70756200  0.28995000  0.37330200  1
  Li  Li3  1  0.50067100  0.50197100  0.25117200  1
  Li  Li4  1  0.71202700  0.29296100  0.87666200  1
  Li  Li5  1  0.49935500  0.50015000  0.49771500  1
  Li  Li6  1  0.29177200  0.71281600  0.12667700  1
  Li  Li7  1  0.50072800  0.50184300  0.75093900  1
  Li  Li8  1  0.50072800  0.49946600  0.00118000  1
  Li  Li9  1  0.28741300  0.70928200  0.62265600  1
  Li  Li10  1  0.99932800  0.99720500  0.37322000  1
  Li  Li11  1  0.99977000  0.00445200  0.87530400  1
  Mn  Mn12  1  0.62678900  0.94182500  0.43480300  1
  Mn  Mn13  1  0.37494600  0.05524400  0.06647300  1
  Mn  Mn14  1  0.05549400  0.37645900  0.31402400  1
  Mn  Mn15  1  0.05516900  0.37577100  0.81428700  1
  V  V16  1  0.94186800  0.62280200  0.17998500  1
  V  V17  1  0.94267300  0.62357700  0.67917700  1
  V  V18  1  0.62347400  0.94196200  0.93284700  1
  V  V19  1  0.37778900  0.05574900  0.56857900  1
  P  P20  1  0.71104900  0.28776300  0.12518200  1
  P  P21  1  0.86769200  0.66694700  0.43326700  1
  P  P22  1  0.66535300  0.85930400  0.18465000  1
  P  P23  1  0.71135300  0.28829900  0.62422800  1
  P  P24  1  0.86055700  0.66637000  0.93161400  1
  P  P25  1  0.66262600  0.86238800  0.68062300  1
  P  P26  1  0.33437200  0.13605100  0.31561600  1
  P  P27  1  0.13303400  0.33801600  0.06591300  1
  P  P28  1  0.28715200  0.71185900  0.37385500  1
  P  P29  1  0.33690300  0.13196400  0.81931900  1
  P  P30  1  0.13970700  0.33835400  0.56780500  1
  P  P31  1  0.28721500  0.71165700  0.87513200  1
  O  O32  1  0.98622100  0.66352800  0.04517400  1
  O  O33  1  0.94947200  0.61084200  0.33623600  1
  O  O34  1  0.73964600  0.17549300  0.01651900  1
  O  O35  1  0.99319700  0.65640100  0.54519300  1
  O  O36  1  0.82621600  0.26795700  0.23796300  1
  O  O37  1  0.84893000  0.84089100  0.20379300  1
  O  O38  1  0.73130400  0.46305500  0.11578800  1
  O  O39  1  0.85735000  0.85182600  0.45538100  1
  O  O40  1  0.94519600  0.61535000  0.83588900  1
  O  O41  1  0.73406000  0.17387000  0.51306700  1
  O  O42  1  0.82701900  0.26537500  0.73526700  1
  O  O43  1  0.84475500  0.84425900  0.69309500  1
  O  O44  1  0.70593100  0.55215500  0.39985500  1
  O  O45  1  0.61592200  0.94749900  0.09105600  1
  O  O46  1  0.66306300  0.98327900  0.30021700  1
  O  O47  1  0.53678400  0.25783900  0.13666200  1
  O  O48  1  0.73509200  0.46250000  0.61347500  1
  O  O49  1  0.54513600  0.70073800  0.14887600  1
  O  O50  1  0.84140400  0.84988700  0.95105800  1
  O  O51  1  0.70217700  0.54610400  0.89751800  1
  O  O52  1  0.60067000  0.95210700  0.58629300  1
  O  O53  1  0.45077500  0.29720900  0.35085800  1
  O  O54  1  0.66343100  0.98638600  0.79578400  1
  O  O55  1  0.53774600  0.26311300  0.63665200  1
  O  O56  1  0.46453900  0.73671400  0.36696800  1
  O  O57  1  0.34181100  0.01268400  0.20095500  1
  O  O58  1  0.54482700  0.70310300  0.64576700  1
  O  O59  1  0.38895000  0.05152400  0.41132100  1
  O  O60  1  0.29580000  0.45111200  0.10180700  1
  O  O61  1  0.14231900  0.15480500  0.05159400  1
  O  O62  1  0.45032300  0.29445500  0.85419400  1
  O  O63  1  0.26055200  0.53481500  0.38174800  1
  O  O64  1  0.46361100  0.73246300  0.86701900  1
  O  O65  1  0.34351300  0.00964700  0.70547700  1
  O  O66  1  0.40306700  0.04582800  0.91545100  1
  O  O67  1  0.29919700  0.45674100  0.60392700  1
  O  O68  1  0.14976500  0.14709300  0.29501900  1
  O  O69  1  0.17650700  0.73813300  0.26376800  1
  O  O70  1  0.26074500  0.82380200  0.48391800  1
  O  O71  1  0.04359600  0.40283200  0.16018900  1
  O  O72  1  0.15843700  0.15690100  0.55724100  1
  O  O73  1  0.25734900  0.53635500  0.88484300  1
  O  O74  1  0.15351900  0.14145900  0.80457100  1
  O  O75  1  0.17584200  0.74046800  0.76668700  1
  O  O76  1  0.01735600  0.33494300  0.45112200  1
  O  O77  1  0.26671400  0.82568500  0.98794100  1
  O  O78  1  0.04781300  0.39999100  0.66131700  1
  O  O79  1  0.01130700  0.34212300  0.95026900  1
