# generated using pymatgen
data_Li2Fe(CoO3)2
_symmetry_space_group_name_H-M   'P 1'
_cell_length_a   5.03885228
_cell_length_b   10.09622755
_cell_length_c   4.98416641
_cell_angle_alpha   95.08214845
_cell_angle_beta   59.63544647
_cell_angle_gamma   100.10224066
_symmetry_Int_Tables_number   1
_chemical_formula_structural   Li2Fe(CoO3)2
_chemical_formula_sum   'Li4 Fe2 Co4 O12'
_cell_volume   215.38769803
_cell_formula_units_Z   2
loop_
 _symmetry_equiv_pos_site_id
 _symmetry_equiv_pos_as_xyz
  1  'x, y, z'
loop_
 _atom_site_type_symbol
 _atom_site_label
 _atom_site_symmetry_multiplicity
 _atom_site_fract_x
 _atom_site_fract_y
 _atom_site_fract_z
 _atom_site_occupancy
  Li  Li0  1  0.22201200  0.74583500  0.34033800  1
  Li  Li1  1  0.43770200  0.25416400  0.34048700  1
  Li  Li2  1  0.58825800  0.74817900  0.64493800  1
  Li  Li3  1  0.76686200  0.25183100  0.64501400  1
  Fe  Fe4  1  0.00063600  0.99998200  0.99892200  1
  Fe  Fe5  1  0.49857300  0.49987900  0.00228300  1
  Co  Co6  1  0.82927700  0.49998300  0.34122300  1
  Co  Co7  1  0.15892800  0.50001500  0.68192800  1
  Co  Co8  1  0.66866200  0.00003900  0.66286100  1
  Co  Co9  1  0.33522500  0.00004000  0.32978400  1
  O  O10  1  0.18914500  0.60329400  0.01210200  1
  O  O11  1  0.38589300  0.10410300  0.00266200  1
  O  O12  1  0.61155400  0.89597200  0.00273100  1
  O  O13  1  0.79867500  0.39669300  0.01211600  1
  O  O14  1  0.96966500  0.89541100  0.34550600  1
  O  O15  1  0.11349400  0.39896900  0.36059600  1
  O  O16  1  0.52577700  0.60099700  0.36040500  1
  O  O17  1  0.68504500  0.10463500  0.34543400  1
  O  O18  1  0.04343500  0.10383700  0.64088700  1
  O  O19  1  0.31587100  0.89620600  0.64091200  1
  O  O20  1  0.49829600  0.38827400  0.64439700  1
  O  O21  1  0.85701400  0.61166200  0.64447300  1
