# generated using pymatgen
data_Li5SbS
_symmetry_space_group_name_H-M   'P 1'
_cell_length_a   8.02812100
_cell_length_b   11.44258200
_cell_length_c   15.88089580
_cell_angle_alpha   48.34634720
_cell_angle_beta   90.00000000
_cell_angle_gamma   90.00000000
_symmetry_Int_Tables_number   1
_chemical_formula_structural   Li5SbS
_chemical_formula_sum   'Li40 Sb8 S8'
_cell_volume   1090.02355225
_cell_formula_units_Z   8
loop_
 _symmetry_equiv_pos_site_id
 _symmetry_equiv_pos_as_xyz
  1  'x, y, z'
loop_
 _atom_site_type_symbol
 _atom_site_label
 _atom_site_symmetry_multiplicity
 _atom_site_fract_x
 _atom_site_fract_y
 _atom_site_fract_z
 _atom_site_occupancy
  Li  Li0  1  0.26029300  0.42542200  0.08684100  1
  Li  Li1  1  0.74728100  0.97767400  0.51213700  1
  Li  Li2  1  0.74920600  0.26691800  0.12581200  1
  Li  Li3  1  0.09563600  0.01694100  0.32222400  1
  Li  Li4  1  0.07508100  0.73449600  0.71039700  1
  Li  Li5  1  0.43063100  0.73324900  0.71005900  1
  Li  Li6  1  0.41045900  0.01350100  0.32415400  1
  Li  Li7  1  0.08169700  0.28782700  0.98366800  1
  Li  Li8  1  0.42768700  0.28341100  0.98320100  1
  Li  Li9  1  0.75426900  0.53299600  0.74036600  1
  Li  Li10  1  0.91045900  0.98649900  0.17584600  1
  Li  Li11  1  0.25426900  0.46700400  0.75963400  1
  Li  Li12  1  0.92768700  0.71658900  0.51679900  1
  Li  Li13  1  0.58169700  0.71217300  0.51633200  1
  Li  Li14  1  0.59563600  0.98305900  0.17777600  1
  Li  Li15  1  0.24920600  0.73308200  0.37418800  1
  Li  Li16  1  0.93063100  0.26675100  0.78994100  1
  Li  Li17  1  0.57508100  0.26550400  0.78960300  1
  Li  Li18  1  0.76029300  0.57457800  0.41315900  1
  Li  Li19  1  0.24728100  0.02232600  0.98786300  1
  Li  Li20  1  0.75271900  0.97767400  0.01213700  1
  Li  Li21  1  0.23970700  0.42542200  0.58684100  1
  Li  Li22  1  0.42491900  0.73449600  0.21039700  1
  Li  Li23  1  0.06936900  0.73324900  0.21005900  1
  Li  Li24  1  0.75079400  0.26691800  0.62581200  1
  Li  Li25  1  0.40436400  0.01694100  0.82222400  1
  Li  Li26  1  0.41830300  0.28782700  0.48366800  1
  Li  Li27  1  0.07231300  0.28341100  0.48320100  1
  Li  Li28  1  0.74573100  0.53299600  0.24036600  1
  Li  Li29  1  0.08954100  0.01350100  0.82415400  1
  Li  Li30  1  0.24573100  0.46700400  0.25963400  1
  Li  Li31  1  0.57231300  0.71658900  0.01679900  1
  Li  Li32  1  0.91830300  0.71217300  0.01633200  1
  Li  Li33  1  0.58954100  0.98649900  0.67584600  1
  Li  Li34  1  0.56936900  0.26675100  0.28994100  1
  Li  Li35  1  0.92491900  0.26550400  0.28960300  1
  Li  Li36  1  0.90436400  0.98305900  0.67777600  1
  Li  Li37  1  0.25079400  0.73308200  0.87418800  1
  Li  Li38  1  0.25271900  0.02232600  0.48786300  1
  Li  Li39  1  0.73970700  0.57457800  0.91315900  1
  Sb  Sb40  1  0.75345100  0.98900900  0.33785600  1
  Sb  Sb41  1  0.75485400  0.26261200  0.95685800  1
  Sb  Sb42  1  0.25345100  0.01099100  0.16214400  1
  Sb  Sb43  1  0.25485400  0.73738800  0.54314200  1
  Sb  Sb44  1  0.74514600  0.26261200  0.45685800  1
  Sb  Sb45  1  0.74654900  0.98900900  0.83785600  1
  Sb  Sb46  1  0.24514600  0.73738800  0.04314200  1
  Sb  Sb47  1  0.24654900  0.01099100  0.66214400  1
  S  S48  1  0.24992400  0.23477400  0.29109400  1
  S  S49  1  0.25846600  0.51438100  0.88860700  1
  S  S50  1  0.75846600  0.48561900  0.61139300  1
  S  S51  1  0.74992400  0.76522600  0.20890600  1
  S  S52  1  0.25007600  0.23477400  0.79109400  1
  S  S53  1  0.24153400  0.51438100  0.38860700  1
  S  S54  1  0.74153400  0.48561900  0.11139300  1
  S  S55  1  0.75007600  0.76522600  0.70890600  1
