# generated using pymatgen
data_LiZn2(BH4)5
_symmetry_space_group_name_H-M   'P 1'
_cell_length_a   10.11669233
_cell_length_b   10.11669233
_cell_length_c   15.88802800
_cell_angle_alpha   90.00000000
_cell_angle_beta   90.00000000
_cell_angle_gamma   128.50318170
_symmetry_Int_Tables_number   1
_chemical_formula_structural   LiZn2(BH4)5
_chemical_formula_sum   'Li4 Zn8 B20 H80'
_cell_volume   1272.54241573
_cell_formula_units_Z   4
loop_
 _symmetry_equiv_pos_site_id
 _symmetry_equiv_pos_as_xyz
  1  'x, y, z'
loop_
 _atom_site_type_symbol
 _atom_site_label
 _atom_site_symmetry_multiplicity
 _atom_site_fract_x
 _atom_site_fract_y
 _atom_site_fract_z
 _atom_site_occupancy
  Li  Li0  1  0.64302500  0.35697500  0.93731600  1
  Li  Li1  1  0.35697500  0.64302500  0.06268400  1
  Li  Li2  1  0.85697500  0.14302500  0.43731600  1
  Li  Li3  1  0.14302500  0.85697500  0.56268400  1
  Zn  Zn4  1  0.14979400  0.85020600  0.26246100  1
  Zn  Zn5  1  0.85020600  0.14979400  0.73753900  1
  Zn  Zn6  1  0.35020600  0.64979400  0.76246100  1
  Zn  Zn7  1  0.64979400  0.35020600  0.23753900  1
  Zn  Zn8  1  0.92918200  0.07081800  0.12493000  1
  Zn  Zn9  1  0.07081800  0.92918200  0.87507000  1
  Zn  Zn10  1  0.57081800  0.42918200  0.62493000  1
  Zn  Zn11  1  0.42918200  0.57081800  0.37507000  1
  B  B12  1  0.75907300  0.24092700  0.82843500  1
  B  B13  1  0.24092700  0.75907300  0.17156500  1
  B  B14  1  0.74092700  0.25907300  0.32843500  1
  B  B15  1  0.25907300  0.74092700  0.67156500  1
  B  B16  1  0.86234400  0.13765600  0.59471700  1
  B  B17  1  0.13765600  0.86234400  0.40528300  1
  B  B18  1  0.63765600  0.36234400  0.09471700  1
  B  B19  1  0.36234400  0.63765600  0.90528300  1
  B  B20  1  0.04578400  0.95421600  0.18088300  1
  B  B21  1  0.95421600  0.04578400  0.81911700  1
  B  B22  1  0.45421600  0.54578400  0.68088300  1
  B  B23  1  0.54578400  0.45421600  0.31911700  1
  B  B24  1  0.65869200  0.88089700  0.10265700  1
  B  B25  1  0.88089700  0.65869200  0.89734300  1
  B  B26  1  0.38089700  0.15869200  0.60265700  1
  B  B27  1  0.15869200  0.38089700  0.39734300  1
  B  B28  1  0.34130800  0.11910300  0.89734300  1
  B  B29  1  0.11910300  0.34130800  0.10265700  1
  B  B30  1  0.61910300  0.84130800  0.39734300  1
  B  B31  1  0.84130800  0.61910300  0.60265700  1
  H  H32  1  0.75700700  0.24299300  0.74829900  1
  H  H33  1  0.24299300  0.75700700  0.25170100  1
  H  H34  1  0.74299300  0.25700700  0.24829900  1
  H  H35  1  0.25700700  0.74299300  0.75170100  1
  H  H36  1  0.69243900  0.30756100  0.82812900  1
  H  H37  1  0.30756100  0.69243900  0.17187100  1
  H  H38  1  0.80756100  0.19243900  0.32812900  1
  H  H39  1  0.19243900  0.80756100  0.67187100  1
  H  H40  1  0.90080800  0.33165500  0.85721500  1
  H  H41  1  0.33165500  0.90080800  0.14278500  1
  H  H42  1  0.83165500  0.40080800  0.35721500  1
  H  H43  1  0.40080800  0.83165500  0.64278500  1
  H  H44  1  0.09919200  0.66834500  0.14278500  1
  H  H45  1  0.66834500  0.09919200  0.85721500  1
  H  H46  1  0.16834500  0.59919200  0.64278500  1
  H  H47  1  0.59919200  0.16834500  0.35721500  1
  H  H48  1  0.79818100  0.20181900  0.61816800  1
  H  H49  1  0.20181900  0.79818100  0.38183200  1
  H  H50  1  0.70181900  0.29818100  0.11816800  1
  H  H51  1  0.29818100  0.70181900  0.88183200  1
  H  H52  1  0.91150400  0.08849600  0.65097200  1
  H  H53  1  0.08849600  0.91150400  0.34902800  1
  H  H54  1  0.58849600  0.41150400  0.15097200  1
  H  H55  1  0.41150400  0.58849600  0.84902800  1
  H  H56  1  0.99228200  0.24293400  0.55765400  1
  H  H57  1  0.24293400  0.99228200  0.44234600  1
  H  H58  1  0.74293400  0.49228200  0.05765400  1
  H  H59  1  0.49228200  0.74293400  0.94234600  1
  H  H60  1  0.00771800  0.75706600  0.44234600  1
  H  H61  1  0.75706600  0.00771800  0.55765400  1
  H  H62  1  0.25706600  0.50771800  0.94234600  1
  H  H63  1  0.50771800  0.25706600  0.05765400  1
  H  H64  1  0.04132500  0.95867500  0.10388800  1
  H  H65  1  0.95867500  0.04132500  0.89611200  1
  H  H66  1  0.45867500  0.54132500  0.60388800  1
  H  H67  1  0.54132500  0.45867500  0.39611200  1
  H  H68  1  0.98818900  0.01181100  0.22259600  1
  H  H69  1  0.01181100  0.98818900  0.77740400  1
  H  H70  1  0.51181100  0.48818900  0.72259600  1
  H  H71  1  0.48818900  0.51181100  0.27740400  1
  H  H72  1  0.19694100  0.04219200  0.19991300  1
  H  H73  1  0.04219200  0.19694100  0.80008700  1
  H  H74  1  0.54219200  0.69694100  0.69991300  1
  H  H75  1  0.69694100  0.54219200  0.30008700  1
  H  H76  1  0.80305900  0.95780800  0.80008700  1
  H  H77  1  0.95780800  0.80305900  0.19991300  1
  H  H78  1  0.45780800  0.30305900  0.30008700  1
  H  H79  1  0.30305900  0.45780800  0.69991300  1
  H  H80  1  0.71590600  0.96558200  0.16972500  1
  H  H81  1  0.96558200  0.71590600  0.83027500  1
  H  H82  1  0.46558200  0.21590600  0.66972500  1
  H  H83  1  0.21590600  0.46558200  0.33027500  1
  H  H84  1  0.28409400  0.03441800  0.83027500  1
  H  H85  1  0.03441800  0.28409400  0.16972500  1
  H  H86  1  0.53441800  0.78409400  0.33027500  1
  H  H87  1  0.78409400  0.53441800  0.66972500  1
  H  H88  1  0.76770900  0.92416200  0.04691000  1
  H  H89  1  0.92416200  0.76770900  0.95309000  1
  H  H90  1  0.42416200  0.26770900  0.54691000  1
  H  H91  1  0.26770900  0.42416200  0.45309000  1
  H  H92  1  0.23229100  0.07583800  0.95309000  1
  H  H93  1  0.07583800  0.23229100  0.04691000  1
  H  H94  1  0.57583800  0.73229100  0.45309000  1
  H  H95  1  0.73229100  0.57583800  0.54691000  1
  H  H96  1  0.57006700  0.91081500  0.07267800  1
  H  H97  1  0.91081500  0.57006700  0.92732200  1
  H  H98  1  0.41081500  0.07006700  0.57267800  1
  H  H99  1  0.07006700  0.41081500  0.42732200  1
  H  H100  1  0.42993300  0.08918500  0.92732200  1
  H  H101  1  0.08918500  0.42993300  0.07267800  1
  H  H102  1  0.58918500  0.92993300  0.42732200  1
  H  H103  1  0.92993300  0.58918500  0.57267800  1
  H  H104  1  0.59389200  0.73582900  0.12111500  1
  H  H105  1  0.73582900  0.59389200  0.87888500  1
  H  H106  1  0.23582900  0.09389200  0.62111500  1
  H  H107  1  0.09389200  0.23582900  0.37888500  1
  H  H108  1  0.40610800  0.26417100  0.87888500  1
  H  H109  1  0.26417100  0.40610800  0.12111500  1
  H  H110  1  0.76417100  0.90610800  0.37888500  1
  H  H111  1  0.90610800  0.76417100  0.62111500  1
