# generated using pymatgen
data_LiMg2Cd
_symmetry_space_group_name_H-M   'P 1'
_cell_length_a   11.90159830
_cell_length_b   11.90159830
_cell_length_c   11.90159830
_cell_angle_alpha   120.20951631
_cell_angle_beta   119.35411816
_cell_angle_gamma   90.37990671
_symmetry_Int_Tables_number   1
_chemical_formula_structural   LiMg2Cd
_chemical_formula_sum   'Li1 Mg2 Cd1'
_cell_volume   1195.88768949
_cell_formula_units_Z   1
loop_
 _symmetry_equiv_pos_site_id
 _symmetry_equiv_pos_as_xyz
  1  'x, y, z'
loop_
 _atom_site_type_symbol
 _atom_site_label
 _atom_site_symmetry_multiplicity
 _atom_site_fract_x
 _atom_site_fract_y
 _atom_site_fract_z
 _atom_site_occupancy
  Li  Li0  1  0.00000000  0.00000000  0.00000000  1
  Mg  Mg1  1  0.75129000  0.00000000  0.75129000  1
  Mg  Mg2  1  0.24871000  0.00000000  0.24871000  1
  Cd  Cd3  1  0.50000000  0.00000000  0.50000000  1
