# generated using pymatgen
data_Li7V3P8O29
_symmetry_space_group_name_H-M   'P 1'
_cell_length_a   9.80790300
_cell_length_b   9.81119134
_cell_length_c   13.88508756
_cell_angle_alpha   90.04627899
_cell_angle_beta   90.04775100
_cell_angle_gamma   119.75049061
_symmetry_Int_Tables_number   1
_chemical_formula_structural   Li7V3P8O29
_chemical_formula_sum   'Li14 V6 P16 O58'
_cell_volume   1160.01341775
_cell_formula_units_Z   2
loop_
 _symmetry_equiv_pos_site_id
 _symmetry_equiv_pos_as_xyz
  1  'x, y, z'
loop_
 _atom_site_type_symbol
 _atom_site_label
 _atom_site_symmetry_multiplicity
 _atom_site_fract_x
 _atom_site_fract_y
 _atom_site_fract_z
 _atom_site_occupancy
  Li  Li0  1  0.23838200  0.89651900  0.43819500  1
  Li  Li1  1  0.09834400  0.33480300  0.43373000  1
  Li  Li2  1  0.32116400  0.66212900  0.11600900  1
  Li  Li3  1  0.23310900  0.32228100  0.93981900  1
  Li  Li4  1  0.67436100  0.90654900  0.93925800  1
  Li  Li5  1  0.33377900  0.23732800  0.55799100  1
  Li  Li6  1  0.66569200  0.76447200  0.43504600  1
  Li  Li7  1  0.34277800  0.10416000  0.06050700  1
  Li  Li8  1  0.76542600  0.66317500  0.06515200  1
  Li  Li9  1  0.90256500  0.66408300  0.55972000  1
  Li  Li10  1  0.76488700  0.09860500  0.55813100  1
  Li  Li11  1  0.89774200  0.23301900  0.06324600  1
  Li  Li12  1  0.01925800  0.96413500  0.99705300  1
  Li  Li13  1  0.00550200  0.99981100  0.48982800  1
  V  V14  1  0.43885200  0.43906000  0.74944100  1
  V  V15  1  0.56536800  0.56477100  0.25127300  1
  V  V16  1  0.43590600  0.00127300  0.25069100  1
  V  V17  1  0.56383600  0.00062400  0.75045200  1
  V  V18  1  0.00119000  0.56621900  0.75243800  1
  V  V19  1  0.99910600  0.43728700  0.25030500  1
  P  P20  1  0.08961800  0.78212600  0.15799100  1
  P  P21  1  0.22509600  0.91344700  0.65970000  1
  P  P22  1  0.08656900  0.31246000  0.65659500  1
  P  P23  1  0.33446900  0.66554900  0.87049900  1
  P  P24  1  0.33496700  0.67122200  0.37367100  1
  P  P25  1  0.22496700  0.31561900  0.15603200  1
  P  P26  1  0.31174000  0.22461600  0.34350900  1
  P  P27  1  0.68397100  0.91014700  0.15583800  1
  P  P28  1  0.31277900  0.08886700  0.84527900  1
  P  P29  1  0.68628200  0.77540200  0.65723300  1
  P  P30  1  0.77502100  0.68738000  0.84185100  1
  P  P31  1  0.66884300  0.33649400  0.63065000  1
  P  P32  1  0.66338500  0.32836700  0.12576400  1
  P  P33  1  0.91637000  0.69038500  0.34654100  1
  P  P34  1  0.77446800  0.08561500  0.34304600  1
  P  P35  1  0.91290500  0.22594800  0.84216300  1
  O  O36  1  0.00384400  0.78151200  0.43733400  1
  O  O37  1  0.08212000  0.74632100  0.65874900  1
  O  O38  1  0.22501500  0.00955500  0.93560200  1
  O  O39  1  0.25651700  0.92665700  0.15483200  1
  O  O40  1  0.10406300  0.63297000  0.16246600  1
  O  O41  1  0.19275500  0.66864700  0.82401100  1
  O  O42  1  0.08618300  0.46785800  0.67066300  1
  O  O43  1  0.99853700  0.22038400  0.93147000  1
  O  O44  1  0.07558000  0.32852800  0.15394700  1
  O  O45  1  0.32498800  0.81412400  0.32465200  1
  O  O46  1  0.38022700  0.91041000  0.67270000  1
  O  O47  1  0.19255700  0.51592100  0.33503900  1
  O  O48  1  0.33205500  0.65651500  0.97848100  1
  O  O49  1  0.33225300  0.68905200  0.48083600  1
  O  O50  1  0.33110900  0.51254900  0.82915500  1
  O  O51  1  0.51866300  0.89290000  0.16892900  1
  O  O52  1  0.48938200  0.81104100  0.83382500  1
  O  O53  1  0.25397800  0.33686600  0.65595700  1
  O  O54  1  0.20768200  0.20878500  0.24901800  1
  O  O55  1  0.21430000  0.21575600  0.43221300  1
  O  O56  1  0.23347600  0.22820700  0.06768900  1
  O  O57  1  0.36827500  0.48115000  0.16768100  1
  O  O58  1  0.49024400  0.68219900  0.33663800  1
  O  O59  1  0.33726100  0.25631000  0.83990100  1
  O  O60  1  0.52845200  0.62344100  0.66861500  1
  O  O61  1  0.66296300  0.92054100  0.65805400  1
  O  O62  1  0.20390400  0.99900800  0.75243300  1
  O  O63  1  0.22601700  0.00257800  0.57019500  1
  O  O64  1  0.77794600  0.99595100  0.43225300  1
  O  O65  1  0.32939900  0.07689800  0.34382500  1
  O  O66  1  0.46786000  0.37533700  0.33616100  1
  O  O67  1  0.66789300  0.74721200  0.15321200  1
  O  O68  1  0.51397500  0.32974200  0.67196700  1
  O  O69  1  0.62028800  0.53155700  0.83150400  1
  O  O70  1  0.78064000  0.77758000  0.93184300  1
  O  O71  1  0.77650600  0.77684700  0.56843300  1
  O  O72  1  0.79416900  0.79810800  0.75040800  1
  O  O73  1  0.75344100  0.67557300  0.34372900  1
  O  O74  1  0.51390900  0.18323600  0.17622000  1
  O  O75  1  0.46759200  0.08753200  0.83078000  1
  O  O76  1  0.67038200  0.48175500  0.16223000  1
  O  O77  1  0.63962500  0.30479700  0.01901700  1
  O  O78  1  0.66696000  0.33714800  0.52316100  1
  O  O79  1  0.81199400  0.48998500  0.67146900  1
  O  O80  1  0.61936400  0.08717200  0.33383100  1
  O  O81  1  0.67519200  0.18978500  0.67085700  1
  O  O82  1  0.91557000  0.65992700  0.83606800  1
  O  O83  1  0.01416000  0.80094700  0.25726500  1
  O  O84  1  0.98991300  0.78897000  0.07741200  1
  O  O85  1  0.90808800  0.53213200  0.33577900  1
  O  O86  1  0.80989800  0.32281500  0.16299600  1
  O  O87  1  0.90849300  0.37830000  0.83153000  1
  O  O88  1  0.74493400  0.08026000  0.83895800  1
  O  O89  1  0.76630400  0.00321600  0.06627300  1
  O  O90  1  0.79105500  0.99806500  0.24838300  1
  O  O91  1  0.91901800  0.24931300  0.34372800  1
  O  O92  1  0.99777200  0.22325900  0.56730400  1
  O  O93  1  0.00102000  0.20421500  0.74972600  1
