# generated using pymatgen
data_Li4MnCo2O7
_symmetry_space_group_name_H-M   'P 1'
_cell_length_a   15.02160522
_cell_length_b   15.02160522
_cell_length_c   5.86427190
_cell_angle_alpha   84.26858434
_cell_angle_beta   84.26858434
_cell_angle_gamma   10.99376897
_symmetry_Int_Tables_number   1
_chemical_formula_structural   Li4MnCo2O7
_chemical_formula_sum   'Li8 Mn2 Co4 O14'
_cell_volume   251.07635995
_cell_formula_units_Z   2
loop_
 _symmetry_equiv_pos_site_id
 _symmetry_equiv_pos_as_xyz
  1  'x, y, z'
loop_
 _atom_site_type_symbol
 _atom_site_label
 _atom_site_symmetry_multiplicity
 _atom_site_fract_x
 _atom_site_fract_y
 _atom_site_fract_z
 _atom_site_occupancy
  Li  Li0  1  0.56860700  0.56860700  0.21661300  1
  Li  Li1  1  0.71647800  0.71647800  0.64192500  1
  Li  Li2  1  0.85999200  0.85999200  0.07464800  1
  Li  Li3  1  0.14360300  0.14360300  0.92871900  1
  Li  Li4  1  0.28841000  0.28841000  0.35996800  1
  Li  Li5  1  0.42844800  0.42844800  0.79299900  1
  Li  Li6  1  0.99413200  0.99413200  0.49775500  1
  Li  Li7  1  0.42843300  0.42843300  0.27962300  1
  Mn  Mn8  1  0.99562400  0.99562400  0.00687200  1
  Mn  Mn9  1  0.14308800  0.14308800  0.42823000  1
  Co  Co10  1  0.28721300  0.28721300  0.84452800  1
  Co  Co11  1  0.56863400  0.56863400  0.71696300  1
  Co  Co12  1  0.71797300  0.71797300  0.14037400  1
  Co  Co13  1  0.86556500  0.86556500  0.56005700  1
  O  O14  1  0.50037300  0.50037300  0.22351700  1
  O  O15  1  0.64131700  0.64131700  0.65761500  1
  O  O16  1  0.78538200  0.78538200  0.08906400  1
  O  O17  1  0.06684000  0.06684000  0.94029500  1
  O  O18  1  0.21378000  0.21378000  0.38194700  1
  O  O19  1  0.35599700  0.35599700  0.79652000  1
  O  O20  1  0.92554800  0.92554800  0.53990700  1
  O  O21  1  0.64225400  0.64225400  0.20072600  1
  O  O22  1  0.78554800  0.78554800  0.62532700  1
  O  O23  1  0.93478300  0.93478300  0.03370200  1
  O  O24  1  0.21510000  0.21510000  0.90503000  1
  O  O25  1  0.35724300  0.35724300  0.34551500  1
  O  O26  1  0.49926900  0.49926900  0.77731300  1
  O  O27  1  0.07036600  0.07036600  0.49424800  1
