# generated using pymatgen
data_Li4Co3O7
_symmetry_space_group_name_H-M   'P 1'
_cell_length_a   5.05633400
_cell_length_b   5.88074029
_cell_length_c   8.70626877
_cell_angle_alpha   91.04756426
_cell_angle_beta   95.08614736
_cell_angle_gamma   107.24646011
_symmetry_Int_Tables_number   1
_chemical_formula_structural   Li4Co3O7
_chemical_formula_sum   'Li8 Co6 O14'
_cell_volume   245.99714646
_cell_formula_units_Z   2
loop_
 _symmetry_equiv_pos_site_id
 _symmetry_equiv_pos_as_xyz
  1  'x, y, z'
loop_
 _atom_site_type_symbol
 _atom_site_label
 _atom_site_symmetry_multiplicity
 _atom_site_fract_x
 _atom_site_fract_y
 _atom_site_fract_z
 _atom_site_occupancy
  Li  Li0  1  0.85495400  0.20865000  0.71954100  1
  Li  Li1  1  0.70971600  0.92694300  0.42882900  1
  Li  Li2  1  0.28838700  0.06829800  0.57918300  1
  Li  Li3  1  0.14308000  0.78673700  0.28537700  1
  Li  Li4  1  0.57478700  0.64634800  0.13375900  1
  Li  Li5  1  0.00430000  0.50732900  0.99765800  1
  Li  Li6  1  0.42510900  0.35574400  0.85534500  1
  Li  Li7  1  0.42833100  0.85767400  0.85742000  1
  Co  Co8  1  0.99826600  0.99707600  0.99545200  1
  Co  Co9  1  0.86631100  0.71926200  0.71685600  1
  Co  Co10  1  0.71185300  0.42437400  0.42857900  1
  Co  Co11  1  0.56792100  0.13675500  0.13670400  1
  Co  Co12  1  0.28769900  0.57589300  0.57710700  1
  Co  Co13  1  0.14251500  0.28524100  0.28512300  1
  O  O14  1  0.11961300  0.02446000  0.79759500  1
  O  O15  1  0.00633600  0.73284800  0.51558000  1
  O  O16  1  0.55622500  0.85757300  0.63699400  1
  O  O17  1  0.41421200  0.58975800  0.37040700  1
  O  O18  1  0.84732700  0.45548400  0.22119300  1
  O  O19  1  0.27283700  0.30054300  0.07124600  1
  O  O20  1  0.74086400  0.16811900  0.94230500  1
  O  O21  1  0.55888700  0.41077500  0.63580500  1
  O  O22  1  0.43662500  0.11785300  0.35288300  1
  O  O23  1  0.01494000  0.27586700  0.49880300  1
  O  O24  1  0.86788900  0.97831900  0.20405500  1
  O  O25  1  0.27114300  0.84561400  0.07090600  1
  O  O26  1  0.74915900  0.70494500  0.92118500  1
  O  O27  1  0.14071600  0.54151800  0.76411000  1
