# generated using pymatgen
data_Li4MnCo2O7
_symmetry_space_group_name_H-M   'P 1'
_cell_length_a   17.02856087
_cell_length_b   17.02856087
_cell_length_c   5.18548734
_cell_angle_alpha   86.69174146
_cell_angle_beta   86.69174146
_cell_angle_gamma   9.81609991
_symmetry_Int_Tables_number   1
_chemical_formula_structural   Li4MnCo2O7
_chemical_formula_sum   'Li8 Mn2 Co4 O14'
_cell_volume   255.92073853
_cell_formula_units_Z   2
loop_
 _symmetry_equiv_pos_site_id
 _symmetry_equiv_pos_as_xyz
  1  'x, y, z'
loop_
 _atom_site_type_symbol
 _atom_site_label
 _atom_site_symmetry_multiplicity
 _atom_site_fract_x
 _atom_site_fract_y
 _atom_site_fract_z
 _atom_site_occupancy
  Li  Li0  1  0.50200600  0.50200600  0.49960500  1
  Li  Li1  1  0.07525300  0.07525300  0.64219900  1
  Li  Li2  1  0.64409800  0.64409800  0.79654700  1
  Li  Li3  1  0.21357000  0.21357000  0.92501700  1
  Li  Li4  1  0.78104200  0.78104200  0.06002900  1
  Li  Li5  1  0.92856000  0.92856000  0.35621500  1
  Li  Li6  1  0.35497100  0.35497100  0.21861200  1
  Li  Li7  1  0.71409300  0.71409300  0.42752200  1
  Mn  Mn8  1  0.00020700  0.00020700  0.00705700  1
  Mn  Mn9  1  0.85676000  0.85676000  0.71488800  1
  Co  Co10  1  0.57536000  0.57536000  0.15202100  1
  Co  Co11  1  0.14829300  0.14829300  0.30684200  1
  Co  Co12  1  0.28019600  0.28019600  0.54423000  1
  Co  Co13  1  0.42871700  0.42871700  0.85475800  1
  O  O14  1  0.46819900  0.46819900  0.16915400  1
  O  O15  1  0.03464400  0.03464400  0.29052700  1
  O  O16  1  0.60538700  0.60538700  0.44054700  1
  O  O17  1  0.17528900  0.17528900  0.59067200  1
  O  O18  1  0.75336100  0.75336100  0.73401500  1
  O  O19  1  0.89234000  0.89234000  0.00186700  1
  O  O20  1  0.32674100  0.32674100  0.87462700  1
  O  O21  1  0.53161600  0.53161600  0.85135600  1
  O  O22  1  0.10408000  0.10408000  0.96979800  1
  O  O23  1  0.67540600  0.67540600  0.11931700  1
  O  O24  1  0.25373700  0.25373700  0.25797500  1
  O  O25  1  0.82159100  0.82159100  0.43648800  1
  O  O26  1  0.96598500  0.96598500  0.71247900  1
  O  O27  1  0.38849600  0.38849600  0.54563700  1
