# generated using pymatgen
data_BaLi(B3O5)3
_symmetry_space_group_name_H-M   'P 1'
_cell_length_a   8.64252472
_cell_length_b   8.64252473
_cell_length_c   8.64252473
_cell_angle_alpha   80.65567383
_cell_angle_beta   80.65567384
_cell_angle_gamma   80.65567384
_symmetry_Int_Tables_number   1
_chemical_formula_structural   BaLi(B3O5)3
_chemical_formula_sum   'Ba2 Li2 B18 O30'
_cell_volume   622.35755557
_cell_formula_units_Z   2
loop_
 _symmetry_equiv_pos_site_id
 _symmetry_equiv_pos_as_xyz
  1  'x, y, z'
loop_
 _atom_site_type_symbol
 _atom_site_label
 _atom_site_symmetry_multiplicity
 _atom_site_fract_x
 _atom_site_fract_y
 _atom_site_fract_z
 _atom_site_occupancy
  Li  Li0  1  0.24639355  0.24639355  0.24639355  1
  Li  Li1  1  0.74639355  0.74639355  0.74639355  1
  B  B2  1  0.74318197  0.60622736  0.08082945  1
  B  B3  1  0.25012412  0.68028605  0.81921598  1
  B  B4  1  0.75012412  0.31921598  0.18028605  1
  B  B5  1  0.31921598  0.18028605  0.75012412  1
  B  B6  1  0.10622736  0.24318197  0.58082945  1
  B  B7  1  0.24318197  0.58082945  0.10622736  1
  B  B8  1  0.58082945  0.10622736  0.24318197  1
  B  B9  1  0.81921598  0.25012412  0.68028605  1
  B  B10  1  0.08082945  0.74318197  0.60622736  1
  B  B11  1  0.60622736  0.08082945  0.74318197  1
  B  B12  1  0.91873400  0.25651886  0.39359769  1
  B  B13  1  0.25651886  0.39359769  0.91873400  1
  B  B14  1  0.39359769  0.91873400  0.25651886  1
  B  B15  1  0.89359769  0.75651886  0.41873400  1
  B  B16  1  0.75651886  0.41873400  0.89359769  1
  B  B17  1  0.41873400  0.89359769  0.75651886  1
  B  B18  1  0.68028605  0.81921598  0.25012412  1
  B  B19  1  0.18028605  0.75012412  0.31921598  1
  O  O20  1  0.75676539  0.75563185  0.10220070  1
  O  O21  1  0.75563185  0.10220070  0.75676539  1
  O  O22  1  0.48737640  0.20330417  0.72160766  1
  O  O23  1  0.72160766  0.48737640  0.20330417  1
  O  O24  1  0.10220070  0.75676539  0.75563185  1
  O  O25  1  0.70330417  0.98737640  0.22160766  1
  O  O26  1  0.22160766  0.70330417  0.98737640  1
  O  O27  1  0.98737640  0.22160766  0.70330417  1
  O  O28  1  0.24295997  0.24401793  0.89791912  1
  O  O29  1  0.89791912  0.24295997  0.24401793  1
  O  O30  1  0.24401793  0.89791912  0.24295997  1
  O  O31  1  0.74401793  0.74295997  0.39791912  1
  O  O32  1  0.39791912  0.74401793  0.74295997  1
  O  O33  1  0.74295997  0.39791912  0.74401793  1
  O  O34  1  0.60220070  0.25563185  0.25676539  1
  O  O35  1  0.25563185  0.25676539  0.60220070  1
  O  O36  1  0.79612982  0.27845835  0.51221331  1
  O  O37  1  0.27845835  0.51221331  0.79612982  1
  O  O38  1  0.51221331  0.79612982  0.27845835  1
  O  O39  1  0.01221331  0.77845835  0.29612982  1
  O  O40  1  0.77845835  0.29612982  0.01221331  1
  O  O41  1  0.29612982  0.01221331  0.77845835  1
  O  O42  1  0.07596011  0.24961695  0.42376689  1
  O  O43  1  0.24961695  0.42376689  0.07596011  1
  O  O44  1  0.42376689  0.07596011  0.24961695  1
  O  O45  1  0.92376689  0.74961695  0.57596011  1
  O  O46  1  0.74961695  0.57596011  0.92376689  1
  O  O47  1  0.57596011  0.92376689  0.74961695  1
  O  O48  1  0.20330417  0.72160766  0.48737640  1
  O  O49  1  0.25676539  0.60220070  0.25563185  1
  Ba  Ba50  1  0.49796237  0.49796237  0.49796237  1
  Ba  Ba51  1  0.99796237  0.99796237  0.99796237  1
