# generated using pymatgen
data_LiRu2N3
_symmetry_space_group_name_H-M   'P 1'
_cell_length_a   5.65953053
_cell_length_b   5.69931139
_cell_length_c   5.25814577
_cell_angle_alpha   90.00000000
_cell_angle_beta   90.00000000
_cell_angle_gamma   120.23278882
_symmetry_Int_Tables_number   1
_chemical_formula_structural   LiRu2N3
_chemical_formula_sum   'Li2 Ru4 N6'
_cell_volume   146.53538849
_cell_formula_units_Z   2
loop_
 _symmetry_equiv_pos_site_id
 _symmetry_equiv_pos_as_xyz
  1  'x, y, z'
loop_
 _atom_site_type_symbol
 _atom_site_label
 _atom_site_symmetry_multiplicity
 _atom_site_fract_x
 _atom_site_fract_y
 _atom_site_fract_z
 _atom_site_occupancy
  Li  Li0  1  -0.00000000  0.66581098  0.48926643  1
  Li  Li1  1  0.00000000  0.33418902  0.98926643  1
  Ru  Ru2  1  0.33307815  0.33342050  0.48855864  1
  Ru  Ru3  1  0.66692185  0.00034235  0.48855864  1
  Ru  Ru4  1  0.66692185  0.66657950  0.98855864  1
  Ru  Ru5  1  0.33307815  0.99965765  0.98855864  1
  N  N6  1  0.35933451  0.33356912  0.86114181  1
  N  N7  1  0.64066549  0.97423461  0.86114181  1
  N  N8  1  0.64066549  0.66643088  0.36114181  1
  N  N9  1  0.35933451  0.02576539  0.36114181  1
  N  N10  1  1.00000000  0.69108267  0.89933267  1
  N  N11  1  0.00000000  0.30891733  0.39933267  1
