# generated using pymatgen
data_Li9Mn2Co5O16
_symmetry_space_group_name_H-M   'P 1'
_cell_length_a   5.83226700
_cell_length_b   5.88803400
_cell_length_c   8.38415090
_cell_angle_alpha   88.99416035
_cell_angle_beta   90.00000000
_cell_angle_gamma   90.00000000
_symmetry_Int_Tables_number   1
_chemical_formula_structural   Li9Mn2Co5O16
_chemical_formula_sum   'Li9 Mn2 Co5 O16'
_cell_volume   287.87229371
_cell_formula_units_Z   1
loop_
 _symmetry_equiv_pos_site_id
 _symmetry_equiv_pos_as_xyz
  1  'x, y, z'
loop_
 _atom_site_type_symbol
 _atom_site_label
 _atom_site_symmetry_multiplicity
 _atom_site_fract_x
 _atom_site_fract_y
 _atom_site_fract_z
 _atom_site_occupancy
  Li  Li0  1  0.25606000  0.75012400  0.74221100  1
  Li  Li1  1  0.25606000  0.24987600  0.25778900  1
  Li  Li2  1  0.50000000  0.00000000  0.50000000  1
  Li  Li3  1  0.50000000  0.50000000  0.00000000  1
  Li  Li4  1  0.74394000  0.24987600  0.25778900  1
  Li  Li5  1  0.74394000  0.75012400  0.74221100  1
  Li  Li6  1  0.00000000  0.50000000  0.00000000  1
  Li  Li7  1  0.00000000  0.00000000  0.50000000  1
  Li  Li8  1  0.50000000  0.50000000  0.50000000  1
  Mn  Mn9  1  0.00000000  0.00000000  0.00000000  1
  Mn  Mn10  1  0.00000000  0.50000000  0.50000000  1
  Co  Co11  1  0.25742600  0.25605900  0.74160300  1
  Co  Co12  1  0.25742600  0.74394100  0.25839700  1
  Co  Co13  1  0.50000000  0.00000000  0.00000000  1
  Co  Co14  1  0.74257400  0.74394100  0.25839700  1
  Co  Co15  1  0.74257400  0.25605900  0.74160300  1
  O  O16  1  0.24133500  0.77274400  0.00243500  1
  O  O17  1  0.23344000  0.26289700  0.50783200  1
  O  O18  1  0.50000000  0.00877100  0.75395600  1
  O  O19  1  0.50000000  0.52535500  0.23956400  1
  O  O20  1  0.76656000  0.26289700  0.50783200  1
  O  O21  1  0.75866500  0.77274400  0.00243500  1
  O  O22  1  0.00000000  0.50196400  0.26702100  1
  O  O23  1  0.00000000  0.02395600  0.76761000  1
  O  O24  1  0.23344000  0.73710300  0.49216800  1
  O  O25  1  0.24133500  0.22725600  0.99756500  1
  O  O26  1  0.50000000  0.99122900  0.24604400  1
  O  O27  1  0.50000000  0.47464500  0.76043600  1
  O  O28  1  0.75866500  0.22725600  0.99756500  1
  O  O29  1  0.76656000  0.73710300  0.49216800  1
  O  O30  1  0.00000000  0.49803600  0.73297900  1
  O  O31  1  0.00000000  0.97604400  0.23239000  1
