# generated using pymatgen
data_Li7V3P8O29
_symmetry_space_group_name_H-M   'P 1'
_cell_length_a   9.83083600
_cell_length_b   9.86216467
_cell_length_c   13.93546555
_cell_angle_alpha   90.49571732
_cell_angle_beta   90.26174774
_cell_angle_gamma   119.72347878
_symmetry_Int_Tables_number   1
_chemical_formula_structural   Li7V3P8O29
_chemical_formula_sum   'Li14 V6 P16 O58'
_cell_volume   1173.21972575
_cell_formula_units_Z   2
loop_
 _symmetry_equiv_pos_site_id
 _symmetry_equiv_pos_as_xyz
  1  'x, y, z'
loop_
 _atom_site_type_symbol
 _atom_site_label
 _atom_site_symmetry_multiplicity
 _atom_site_fract_x
 _atom_site_fract_y
 _atom_site_fract_z
 _atom_site_occupancy
  Li  Li0  1  0.31511200  0.08788100  0.93901000  1
  Li  Li1  1  0.64507900  0.30776900  0.61007400  1
  Li  Li2  1  0.66909200  0.33462400  0.11551600  1
  Li  Li3  1  0.91020000  0.23479200  0.93811200  1
  Li  Li4  1  0.76165000  0.67055100  0.93817700  1
  Li  Li5  1  0.09886500  0.33947300  0.56088100  1
  Li  Li6  1  0.90870200  0.67672700  0.43366700  1
  Li  Li7  1  0.23122100  0.33117500  0.06582500  1
  Li  Li8  1  0.09447100  0.76317100  0.06296200  1
  Li  Li9  1  0.33595400  0.66735800  0.38307200  1
  Li  Li10  1  0.23043600  0.90911400  0.56162300  1
  Li  Li11  1  0.68901700  0.77802100  0.55536700  1
  Li  Li12  1  0.91022100  0.98726400  0.03118400  1
  Li  Li13  1  0.03162300  0.06042400  0.49032500  1
  V  V14  1  0.99940500  0.43054600  0.75182000  1
  V  V15  1  0.00224900  0.56527400  0.25020000  1
  V  V16  1  0.43680000  0.43402500  0.25002300  1
  V  V17  1  0.56119800  0.56475900  0.74808900  1
  V  V18  1  0.43678800  0.99714500  0.75130600  1
  V  V19  1  0.56546700  0.99710800  0.25111500  1
  P  P20  1  0.31533200  0.08722700  0.15796900  1
  P  P21  1  0.30530600  0.21964600  0.66138500  1
  P  P22  1  0.77958700  0.08696200  0.65494700  1
  P  P23  1  0.66649100  0.33803100  0.87266500  1
  P  P24  1  0.66670300  0.33276100  0.37172700  1
  P  P25  1  0.90520100  0.22206800  0.16107200  1
  P  P26  1  0.09968000  0.32331700  0.34453800  1
  P  P27  1  0.77305800  0.68302600  0.15340400  1
  P  P28  1  0.23400100  0.31990900  0.84714400  1
  P  P29  1  0.90578100  0.67513700  0.65532600  1
  P  P30  1  0.08385900  0.76856800  0.84100000  1
  P  P31  1  0.33037500  0.66118300  0.62578900  1
  P  P32  1  0.33442100  0.66618900  0.12605400  1
  P  P33  1  0.22658200  0.91508200  0.34668300  1
  P  P34  1  0.68439400  0.77483300  0.33967900  1
  P  P35  1  0.69620100  0.91764800  0.84235700  1
  O  O36  1  0.22021100  0.99860900  0.43607900  1
  O  O37  1  0.33600900  0.08119900  0.65788200  1
  O  O38  1  0.23926000  0.24352600  0.93938900  1
  O  O39  1  0.33272900  0.25162500  0.15555100  1
  O  O40  1  0.48009300  0.10450600  0.16711000  1
  O  O41  1  0.51322800  0.19141400  0.83971300  1
  O  O42  1  0.63173300  0.10212000  0.66294100  1
  O  O43  1  0.80056800  0.00987200  0.92556200  1
  O  O44  1  0.74484700  0.07453600  0.16188600  1
  O  O45  1  0.52737600  0.34322200  0.32120200  1
  O  O46  1  0.46845100  0.37125400  0.66836400  1
  O  O47  1  0.66019800  0.18468700  0.32495000  1
  O  O48  1  0.67833400  0.36157700  0.98013600  1
  O  O49  1  0.64918500  0.32396600  0.47832900  1
  O  O50  1  0.81325100  0.32757000  0.83599100  1
  O  O51  1  0.62505000  0.52086000  0.16358200  1
  O  O52  1  0.67119500  0.48672100  0.82523400  1
  O  O53  1  0.92323300  0.25796900  0.66255300  1
  O  O54  1  0.99923600  0.21615300  0.25365900  1
  O  O55  1  0.01892600  0.24095500  0.43485800  1
  O  O56  1  0.99589500  0.21887100  0.07265100  1
  O  O57  1  0.88746900  0.36849600  0.16673500  1
  O  O58  1  0.81829300  0.48200900  0.34144500  1
  O  O59  1  0.08521900  0.33682200  0.84255500  1
  O  O60  1  0.88599200  0.51140800  0.67171200  1
  O  O61  1  0.74237300  0.66087800  0.65280800  1
  O  O62  1  0.21523100  0.20175300  0.76160400  1
  O  O63  1  0.19902200  0.21411000  0.58228100  1
  O  O64  1  0.77210400  0.76817700  0.42760000  1
  O  O65  1  0.26068500  0.33621000  0.33572500  1
  O  O66  1  0.11808300  0.48727000  0.33306500  1
  O  O67  1  0.91938100  0.66531900  0.15663900  1
  O  O68  1  0.18535400  0.51117800  0.66437500  1
  O  O69  1  0.09210800  0.61672500  0.82120600  1
  O  O70  1  0.99196500  0.75407300  0.93034700  1
  O  O71  1  0.99907800  0.75671400  0.56745800  1
  O  O72  1  0.99403800  0.78419800  0.74812200  1
  O  O73  1  0.08069600  0.75149800  0.34064700  1
  O  O74  1  0.33542000  0.51713500  0.16936200  1
  O  O75  1  0.38179600  0.47746700  0.82952700  1
  O  O76  1  0.18476400  0.66719900  0.16142500  1
  O  O77  1  0.34324400  0.66349200  0.01952600  1
  O  O78  1  0.33895800  0.65048800  0.51826800  1
  O  O79  1  0.32747800  0.80879300  0.66010400  1
  O  O80  1  0.51998900  0.62665700  0.32843300  1
  O  O81  1  0.48332700  0.66683300  0.67085100  1
  O  O82  1  0.24661400  0.91252300  0.84286100  1
  O  O83  1  0.21689600  0.00614300  0.25265100  1
  O  O84  1  0.22483800  0.99318800  0.07018800  1
  O  O85  1  0.37519000  0.89905600  0.33642800  1
  O  O86  1  0.47471000  0.81342600  0.17800200  1
  O  O87  1  0.54240100  0.91958000  0.83446200  1
  O  O88  1  0.67112000  0.75010200  0.83837000  1
  O  O89  1  0.77410400  0.77015800  0.06479100  1
  O  O90  1  0.78622200  0.78715100  0.24670100  1
  O  O91  1  0.66436700  0.91831900  0.34107200  1
  O  O92  1  0.79663800  0.00309500  0.56954900  1
  O  O93  1  0.79688700  0.00129800  0.74746000  1
