# generated using pymatgen
data_Li2V5O10
_symmetry_space_group_name_H-M   'P 1'
_cell_length_a   6.39998215
_cell_length_b   8.12763111
_cell_length_c   8.35395099
_cell_angle_alpha   102.58163159
_cell_angle_beta   113.71673509
_cell_angle_gamma   90.65448396
_symmetry_Int_Tables_number   1
_chemical_formula_structural   Li2V5O10
_chemical_formula_sum   'Li4 V10 O20'
_cell_volume   385.89956618
_cell_formula_units_Z   2
loop_
 _symmetry_equiv_pos_site_id
 _symmetry_equiv_pos_as_xyz
  1  'x, y, z'
loop_
 _atom_site_type_symbol
 _atom_site_label
 _atom_site_symmetry_multiplicity
 _atom_site_fract_x
 _atom_site_fract_y
 _atom_site_fract_z
 _atom_site_occupancy
  Li  Li0  1  0.57703900  0.36175900  0.39975500  1
  Li  Li1  1  0.07349800  0.87352100  0.39551300  1
  Li  Li2  1  0.42410800  0.63687500  0.59880000  1
  Li  Li3  1  0.92385600  0.12878900  0.60542300  1
  V  V4  1  0.75357300  0.74931500  0.99748400  1
  V  V5  1  0.42206300  0.28428400  0.68534400  1
  V  V6  1  0.91333800  0.78212200  0.68461200  1
  V  V7  1  0.57683000  0.71696900  0.31324900  1
  V  V8  1  0.08751800  0.21679600  0.31352200  1
  V  V9  1  0.24931500  0.25231500  0.00440400  1
  V  V10  1  0.76848400  0.07803700  0.89728500  1
  V  V11  1  0.27314900  0.58116800  0.89185600  1
  V  V12  1  0.22198600  0.91747100  0.10336000  1
  V  V13  1  0.73189700  0.42233700  0.10925000  1
  O  O14  1  0.06764600  0.01377600  0.86863700  1
  O  O15  1  0.57001700  0.51451800  0.86815800  1
  O  O16  1  0.92389600  0.98454400  0.13642200  1
  O  O17  1  0.43557800  0.48745300  0.13345100  1
  O  O18  1  0.17075500  0.11704300  0.50988400  1
  O  O19  1  0.67804900  0.60853300  0.50320800  1
  O  O20  1  0.82679900  0.88439600  0.48997300  1
  O  O21  1  0.32307500  0.39127100  0.49415300  1
  O  O22  1  0.52191900  0.21032400  0.93988900  1
  O  O23  1  0.02747000  0.69545200  0.93541700  1
  O  O24  1  0.47995700  0.78868100  0.06216000  1
  O  O25  1  0.97307500  0.30204200  0.06090300  1
  O  O26  1  0.33729100  0.15752400  0.22316600  1
  O  O27  1  0.84858400  0.64087700  0.21626300  1
  O  O28  1  0.66423700  0.83842000  0.77540000  1
  O  O29  1  0.15675900  0.36056700  0.78646200  1
  O  O30  1  0.66292800  0.18704800  0.68006800  1
  O  O31  1  0.17239200  0.68632900  0.69157200  1
  O  O32  1  0.33167500  0.81290200  0.31697100  1
  O  O33  1  0.83124200  0.31654500  0.30798600  1
