# generated using pymatgen
data_Li17(CoO4)3
_symmetry_space_group_name_H-M   'P 1'
_cell_length_a   6.58970800
_cell_length_b   8.08293693
_cell_length_c   11.46712178
_cell_angle_alpha   89.73630675
_cell_angle_beta   89.92285361
_cell_angle_gamma   89.95122413
_symmetry_Int_Tables_number   1
_chemical_formula_structural   Li17(CoO4)3
_chemical_formula_sum   'Li34 Co6 O24'
_cell_volume   610.77976029
_cell_formula_units_Z   2
loop_
 _symmetry_equiv_pos_site_id
 _symmetry_equiv_pos_as_xyz
  1  'x, y, z'
loop_
 _atom_site_type_symbol
 _atom_site_label
 _atom_site_symmetry_multiplicity
 _atom_site_fract_x
 _atom_site_fract_y
 _atom_site_fract_z
 _atom_site_occupancy
  Li  Li0  1  0.03263400  0.28167100  0.74013100  1
  Li  Li1  1  0.03099800  0.93945200  0.40769700  1
  Li  Li2  1  0.03574100  0.60265900  0.07168600  1
  Li  Li3  1  0.02973200  0.89545300  0.92056300  1
  Li  Li4  1  0.02582400  0.23662900  0.26784100  1
  Li  Li5  1  0.25036700  0.06901000  0.81214700  1
  Li  Li6  1  0.26942100  0.21691300  0.98751800  1
  Li  Li7  1  0.22612700  0.71880300  0.49282500  1
  Li  Li8  1  0.24486500  0.39445000  0.15067800  1
  Li  Li9  1  0.24662900  0.90023200  0.64842100  1
  Li  Li10  1  0.25061800  0.56649000  0.31077800  1
  Li  Li11  1  0.48167600  0.27962400  0.73671600  1
  Li  Li12  1  0.46570900  0.92753400  0.40956500  1
  Li  Li13  1  0.46793000  0.59228300  0.07268100  1
  Li  Li14  1  0.47232100  0.91506900  0.93194700  1
  Li  Li15  1  0.46747000  0.56096300  0.59274300  1
  Li  Li16  1  0.47934400  0.21714200  0.24474600  1
  Li  Li17  1  0.53695300  0.38815400  0.92713200  1
  Li  Li18  1  0.52870600  0.77108600  0.74287600  1
  Li  Li19  1  0.53952200  0.05634500  0.59679600  1
  Li  Li20  1  0.53292900  0.43361800  0.39683100  1
  Li  Li21  1  0.53880700  0.71983500  0.26208700  1
  Li  Li22  1  0.75075600  0.59950100  0.85318200  1
  Li  Li23  1  0.72612800  0.94815400  0.18140200  1
  Li  Li24  1  0.74439100  0.27323600  0.51836900  1
  Li  Li25  1  0.77136400  0.45266000  0.67559100  1
  Li  Li26  1  0.75044900  0.09853900  0.35534100  1
  Li  Li27  1  0.74759700  0.76569100  0.01808000  1
  Li  Li28  1  0.97351400  0.75064600  0.72916400  1
  Li  Li29  1  0.97618300  0.39195500  0.92963300  1
  Li  Li30  1  0.96460700  0.06830700  0.59590200  1
  Li  Li31  1  0.96928500  0.45502000  0.41931100  1
  Li  Li32  1  0.95996600  0.73226900  0.25968800  1
  Li  Li33  1  0.95386200  0.11056300  0.07261900  1
  Co  Co34  1  0.25345200  0.58181200  0.83508400  1
  Co  Co35  1  0.25335300  0.25346400  0.49954100  1
  Co  Co36  1  0.25277000  0.91884300  0.16429700  1
  Co  Co37  1  0.75296500  0.08517400  0.83118300  1
  Co  Co38  1  0.75297300  0.74613800  0.50313000  1
  Co  Co39  1  0.75396300  0.41556400  0.16761800  1
  O  O40  1  0.01794300  0.15098900  0.90477000  1
  O  O41  1  0.00701500  0.83891100  0.56618500  1
  O  O42  1  0.01282200  0.49208600  0.24024700  1
  O  O43  1  0.25383000  0.47095500  0.99496100  1
  O  O44  1  0.25239400  0.83148100  0.81470600  1
  O  O45  1  0.25208600  0.15356500  0.64888200  1
  O  O46  1  0.24606200  0.81450800  0.31887000  1
  O  O47  1  0.26211700  0.48046600  0.47230300  1
  O  O48  1  0.23130500  0.14937900  0.15746300  1
  O  O49  1  0.48531600  0.15722200  0.88740800  1
  O  O50  1  0.47997600  0.81855100  0.56942700  1
  O  O51  1  0.48329200  0.48173400  0.23385400  1
  O  O52  1  0.49444700  0.83284600  0.10322000  1
  O  O53  1  0.51814000  0.51706600  0.76039700  1
  O  O54  1  0.50256700  0.17556100  0.43098900  1
  O  O55  1  0.75047400  0.83819100  0.85369900  1
  O  O56  1  0.76385200  0.17581700  0.19772300  1
  O  O57  1  0.72874100  0.50414200  0.50863800  1
  O  O58  1  0.75429100  0.19278000  0.67170800  1
  O  O59  1  0.74521500  0.85683100  0.34109300  1
  O  O60  1  0.75178000  0.52258000  0.01168900  1
  O  O61  1  0.98739000  0.51067100  0.77644900  1
  O  O62  1  0.99350300  0.85019000  0.09864600  1
  O  O63  1  0.99569900  0.18622200  0.43628400  1
