# generated using pymatgen
data_Li2Fe3SnO8
_symmetry_space_group_name_H-M   'P 1'
_cell_length_a   8.54484300
_cell_length_b   8.54484300
_cell_length_c   8.54484300
_cell_angle_alpha   90.00000000
_cell_angle_beta   90.00000000
_cell_angle_gamma   90.00000000
_symmetry_Int_Tables_number   1
_chemical_formula_structural   Li2Fe3SnO8
_chemical_formula_sum   'Li8 Fe12 Sn4 O32'
_cell_volume   623.89608824
_cell_formula_units_Z   4
loop_
 _symmetry_equiv_pos_site_id
 _symmetry_equiv_pos_as_xyz
  1  'x, y, z'
loop_
 _atom_site_type_symbol
 _atom_site_label
 _atom_site_symmetry_multiplicity
 _atom_site_fract_x
 _atom_site_fract_y
 _atom_site_fract_z
 _atom_site_occupancy
  Li  Li0  1  0.12312200  0.87687800  0.37687800  1
  Li  Li1  1  0.24912300  0.74912300  0.75087700  1
  Li  Li2  1  0.25087700  0.25087700  0.25087700  1
  Li  Li3  1  0.37687800  0.12312200  0.87687800  1
  Li  Li4  1  0.62312200  0.62312200  0.62312200  1
  Li  Li5  1  0.74912300  0.75087700  0.24912300  1
  Li  Li6  1  0.75087700  0.24912300  0.74912300  1
  Li  Li7  1  0.87687800  0.37687800  0.12312200  1
  Fe  Fe8  1  0.11249100  0.61869000  0.12463300  1
  Fe  Fe9  1  0.11869000  0.37536700  0.88750900  1
  Fe  Fe10  1  0.12463300  0.11249100  0.61869000  1
  Fe  Fe11  1  0.37536700  0.88750900  0.11869000  1
  Fe  Fe12  1  0.38131000  0.62463300  0.38750900  1
  Fe  Fe13  1  0.38750900  0.38131000  0.62463300  1
  Fe  Fe14  1  0.61249100  0.88131000  0.87536700  1
  Fe  Fe15  1  0.61869000  0.12463300  0.11249100  1
  Fe  Fe16  1  0.62463300  0.38750900  0.38131000  1
  Fe  Fe17  1  0.87536700  0.61249100  0.88131000  1
  Fe  Fe18  1  0.88131000  0.87536700  0.61249100  1
  Fe  Fe19  1  0.88750900  0.11869000  0.37536700  1
  Sn  Sn20  1  0.00268200  0.49731800  0.50268200  1
  Sn  Sn21  1  0.49731800  0.50268200  0.00268200  1
  Sn  Sn22  1  0.50268200  0.00268200  0.49731800  1
  Sn  Sn23  1  0.99731800  0.99731800  0.99731800  1
  O  O24  1  0.11075800  0.12498000  0.38878500  1
  O  O25  1  0.11121500  0.88924200  0.62498000  1
  O  O26  1  0.11284900  0.61284900  0.88715100  1
  O  O27  1  0.12498000  0.38878500  0.11075800  1
  O  O28  1  0.12682100  0.13703900  0.86327500  1
  O  O29  1  0.13909400  0.36090600  0.63909400  1
  O  O30  1  0.13672500  0.62682100  0.36296100  1
  O  O31  1  0.13703900  0.86327500  0.12682100  1
  O  O32  1  0.36296100  0.13672500  0.62682100  1
  O  O33  1  0.36327500  0.37317900  0.86296100  1
  O  O34  1  0.36090600  0.63909400  0.13909400  1
  O  O35  1  0.37317900  0.86296100  0.36327500  1
  O  O36  1  0.37502000  0.61121500  0.61075800  1
  O  O37  1  0.38715100  0.38715100  0.38715100  1
  O  O38  1  0.38878500  0.11075800  0.12498000  1
  O  O39  1  0.38924200  0.87502000  0.88878500  1
  O  O40  1  0.61075800  0.37502000  0.61121500  1
  O  O41  1  0.61121500  0.61075800  0.37502000  1
  O  O42  1  0.61284900  0.88715100  0.11284900  1
  O  O43  1  0.62498000  0.11121500  0.88924200  1
  O  O44  1  0.62682100  0.36296100  0.13672500  1
  O  O45  1  0.63909400  0.13909400  0.36090600  1
  O  O46  1  0.63672500  0.87317900  0.63703900  1
  O  O47  1  0.63703900  0.63672500  0.87317900  1
  O  O48  1  0.86296100  0.36327500  0.37317900  1
  O  O49  1  0.86327500  0.12682100  0.13703900  1
  O  O50  1  0.86090600  0.86090600  0.86090600  1
  O  O51  1  0.87317900  0.63703900  0.63672500  1
  O  O52  1  0.87502000  0.88878500  0.38924200  1
  O  O53  1  0.88715100  0.11284900  0.61284900  1
  O  O54  1  0.88878500  0.38924200  0.87502000  1
  O  O55  1  0.88924200  0.62498000  0.11121500  1
