# generated using pymatgen
data_Li7Mn4(P2O7)4
_symmetry_space_group_name_H-M   'P 1'
_cell_length_a   9.91192900
_cell_length_b   9.94831000
_cell_length_c   11.37887923
_cell_angle_alpha   77.06310993
_cell_angle_beta   90.00000000
_cell_angle_gamma   90.00000000
_symmetry_Int_Tables_number   1
_chemical_formula_structural   Li7Mn4(P2O7)4
_chemical_formula_sum   'Li14 Mn8 P16 O56'
_cell_volume   1093.55611867
_cell_formula_units_Z   2
loop_
 _symmetry_equiv_pos_site_id
 _symmetry_equiv_pos_as_xyz
  1  'x, y, z'
loop_
 _atom_site_type_symbol
 _atom_site_label
 _atom_site_symmetry_multiplicity
 _atom_site_fract_x
 _atom_site_fract_y
 _atom_site_fract_z
 _atom_site_occupancy
  Li  Li0  1  0.28009600  0.13704800  0.94835100  1
  Li  Li1  1  0.57810200  0.07970200  0.04607500  1
  Li  Li2  1  0.89085000  0.16212300  0.52337100  1
  Li  Li3  1  0.39085000  0.83787700  0.47662900  1
  Li  Li4  1  0.07810200  0.92029800  0.95392500  1
  Li  Li5  1  0.78009600  0.86295200  0.05164900  1
  Li  Li6  1  0.21936200  0.63709700  0.94993900  1
  Li  Li7  1  0.92091300  0.57652700  0.04887800  1
  Li  Li8  1  0.60728800  0.66311600  0.53225900  1
  Li  Li9  1  0.41282300  0.39893600  0.45768200  1
  Li  Li10  1  0.91282300  0.60106400  0.54231800  1
  Li  Li11  1  0.10728800  0.33688400  0.46774100  1
  Li  Li12  1  0.42091300  0.42347300  0.95112200  1
  Li  Li13  1  0.71936200  0.36290300  0.05006100  1
  Mn  Mn14  1  0.08204200  0.04322200  0.18032200  1
  Mn  Mn15  1  0.78711100  0.98968000  0.32436500  1
  Mn  Mn16  1  0.28711100  0.01032000  0.67563500  1
  Mn  Mn17  1  0.58204200  0.95677800  0.81967800  1
  Mn  Mn18  1  0.42157500  0.54489800  0.17684800  1
  Mn  Mn19  1  0.71604900  0.48899300  0.32754500  1
  Mn  Mn20  1  0.21604900  0.51100700  0.67245500  1
  Mn  Mn21  1  0.92157500  0.45510200  0.82315200  1
  P  P22  1  0.55238100  0.21998100  0.25955800  1
  P  P23  1  0.29325600  0.12977100  0.39286400  1
  P  P24  1  0.06696200  0.19092100  0.74163600  1
  P  P25  1  0.85104100  0.12703500  0.92726700  1
  P  P26  1  0.35104100  0.87296500  0.07273300  1
  P  P27  1  0.56696200  0.80907900  0.25836400  1
  P  P28  1  0.94758700  0.72480800  0.26184900  1
  P  P29  1  0.79325600  0.87022900  0.60713600  1
  P  P30  1  0.20496300  0.63291300  0.39000800  1
  P  P31  1  0.05238100  0.78001900  0.74044200  1
  P  P32  1  0.43190900  0.69221400  0.74692500  1
  P  P33  1  0.64952100  0.62890900  0.92881600  1
  P  P34  1  0.14952100  0.37109100  0.07118400  1
  P  P35  1  0.93190900  0.30778600  0.25307500  1
  P  P36  1  0.70496300  0.36708700  0.60999200  1
  P  P37  1  0.44758700  0.27519200  0.73815100  1
  O  O38  1  0.57755100  0.22885400  0.12597800  1
  O  O39  1  0.15967500  0.22470100  0.05224100  1
  O  O40  1  0.91274000  0.16228600  0.22889100  1
  O  O41  1  0.65916400  0.13415600  0.34276700  1
  O  O42  1  0.41129800  0.14196000  0.28966800  1
  O  O43  1  0.17363000  0.07751200  0.33473500  1
  O  O44  1  0.34772600  0.02183400  0.50479100  1
  O  O45  1  0.73593800  0.23347000  0.57783700  1
  O  O46  1  0.92166600  0.13595500  0.79666800  1
  O  O47  1  0.06377000  0.18707400  0.60981600  1
  O  O48  1  0.44765900  0.12290100  0.71874900  1
  O  O49  1  0.71107000  0.06254400  0.92000600  1
  O  O50  1  0.17336900  0.08255500  0.80805100  1
  O  O51  1  0.93700500  0.02455100  0.01792700  1
  O  O52  1  0.43700500  0.97544900  0.98207300  1
  O  O53  1  0.67336900  0.91744500  0.19194900  1
  O  O54  1  0.21107000  0.93745600  0.07999400  1
  O  O55  1  0.94765900  0.87709900  0.28125100  1
  O  O56  1  0.42166600  0.86404500  0.20333200  1
  O  O57  1  0.56377000  0.81292600  0.39018400  1
  O  O58  1  0.23593800  0.76653000  0.42216300  1
  O  O59  1  0.84772600  0.97816600  0.49520900  1
  O  O60  1  0.67363000  0.92248800  0.66526500  1
  O  O61  1  0.91129800  0.85804000  0.71033200  1
  O  O62  1  0.41274000  0.83771400  0.77110900  1
  O  O63  1  0.15916400  0.86584400  0.65723300  1
  O  O64  1  0.90878700  0.72335300  0.13291500  1
  O  O65  1  0.65967500  0.77529900  0.94775900  1
  O  O66  1  0.34087700  0.72652800  0.05378000  1
  O  O67  1  0.07755100  0.77114600  0.87402200  1
  O  O68  1  0.86137600  0.63388300  0.36016800  1
  O  O69  1  0.58963700  0.66604800  0.23124300  1
  O  O70  1  0.09867100  0.66652200  0.27529700  1
  O  O71  1  0.32250600  0.55976100  0.34169200  1
  O  O72  1  0.13047700  0.52898200  0.49388100  1
  O  O73  1  0.77835000  0.73051400  0.57694400  1
  O  O74  1  0.43466400  0.68573400  0.61538100  1
  O  O75  1  0.57929500  0.63724500  0.79852000  1
  O  O76  1  0.03943400  0.63472800  0.71100600  1
  O  O77  1  0.78876300  0.56372700  0.92065000  1
  O  O78  1  0.32774100  0.58725300  0.81652400  1
  O  O79  1  0.56311900  0.52689500  0.02019800  1
  O  O80  1  0.06311900  0.47310500  0.97980200  1
  O  O81  1  0.82774100  0.41274700  0.18347600  1
  O  O82  1  0.28876300  0.43627300  0.07935000  1
  O  O83  1  0.53943400  0.36527200  0.28899400  1
  O  O84  1  0.93466400  0.31426600  0.38461900  1
  O  O85  1  0.07929500  0.36275500  0.20148000  1
  O  O86  1  0.27835000  0.26948600  0.42305600  1
  O  O87  1  0.63047700  0.47101800  0.50611900  1
  O  O88  1  0.82250600  0.44023900  0.65830800  1
  O  O89  1  0.59867100  0.33347800  0.72470300  1
  O  O90  1  0.36137600  0.36611700  0.63983200  1
  O  O91  1  0.08963700  0.33395200  0.76875700  1
  O  O92  1  0.84087700  0.27347200  0.94622000  1
  O  O93  1  0.40878700  0.27664700  0.86708500  1
