# generated using pymatgen
data_Li3Cr(PO4)2
_symmetry_space_group_name_H-M   'P 1'
_cell_length_a   9.90399700
_cell_length_b   8.74098300
_cell_length_c   16.46825371
_cell_angle_alpha   62.68424086
_cell_angle_beta   90.00000000
_cell_angle_gamma   90.00000000
_symmetry_Int_Tables_number   1
_chemical_formula_structural   Li3Cr(PO4)2
_chemical_formula_sum   'Li24 Cr8 P16 O64'
_cell_volume   1266.69303144
_cell_formula_units_Z   8
loop_
 _symmetry_equiv_pos_site_id
 _symmetry_equiv_pos_as_xyz
  1  'x, y, z'
loop_
 _atom_site_type_symbol
 _atom_site_label
 _atom_site_symmetry_multiplicity
 _atom_site_fract_x
 _atom_site_fract_y
 _atom_site_fract_z
 _atom_site_occupancy
  Li  Li0  1  0.39874000  0.98842700  0.44393800  1
  Li  Li1  1  0.88669200  0.62299000  0.79254600  1
  Li  Li2  1  0.62202900  0.58563300  0.72947300  1
  Li  Li3  1  0.08694800  0.27327100  0.01753200  1
  Li  Li4  1  0.11206200  0.02383700  0.24791700  1
  Li  Li5  1  0.58451900  0.25532300  0.00331200  1
  Li  Li6  1  0.08451900  0.74467700  0.49668800  1
  Li  Li7  1  0.61206200  0.97616300  0.25208300  1
  Li  Li8  1  0.58694800  0.72672900  0.48246800  1
  Li  Li9  1  0.12202900  0.41436700  0.77052700  1
  Li  Li10  1  0.38669200  0.37701000  0.70745400  1
  Li  Li11  1  0.89874000  0.01157300  0.05606200  1
  Li  Li12  1  0.10126000  0.98842700  0.94393800  1
  Li  Li13  1  0.61330800  0.62299000  0.29254600  1
  Li  Li14  1  0.87797100  0.58563300  0.22947300  1
  Li  Li15  1  0.41305200  0.27327100  0.51753200  1
  Li  Li16  1  0.38793800  0.02383700  0.74791700  1
  Li  Li17  1  0.91548100  0.25532300  0.50331200  1
  Li  Li18  1  0.41548100  0.74467700  0.99668800  1
  Li  Li19  1  0.88793800  0.97616300  0.75208300  1
  Li  Li20  1  0.91305200  0.72672900  0.98246800  1
  Li  Li21  1  0.37797100  0.41436700  0.27052700  1
  Li  Li22  1  0.11330800  0.37701000  0.20745400  1
  Li  Li23  1  0.60126000  0.01157300  0.55606200  1
  Cr  Cr24  1  0.85392400  0.03147500  0.38614500  1
  Cr  Cr25  1  0.37772900  0.55894100  0.85986100  1
  Cr  Cr26  1  0.87772900  0.44105900  0.64013900  1
  Cr  Cr27  1  0.35392400  0.96852500  0.11385500  1
  Cr  Cr28  1  0.64607600  0.03147500  0.88614500  1
  Cr  Cr29  1  0.12227100  0.55894100  0.35986100  1
  Cr  Cr30  1  0.62227100  0.44105900  0.14013900  1
  Cr  Cr31  1  0.14607600  0.96852500  0.61385500  1
  P  P32  1  0.84921300  0.25896700  0.16109400  1
  P  P33  1  0.36378600  0.77586000  0.63646700  1
  P  P34  1  0.85015100  0.82990600  0.59751000  1
  P  P35  1  0.33971700  0.35813800  0.08855700  1
  P  P36  1  0.83971700  0.64186200  0.41144300  1
  P  P37  1  0.35015100  0.17009400  0.90249000  1
  P  P38  1  0.86378600  0.22414000  0.86353300  1
  P  P39  1  0.34921300  0.74103300  0.33890600  1
  P  P40  1  0.65078700  0.25896700  0.66109400  1
  P  P41  1  0.13621400  0.77586000  0.13646700  1
  P  P42  1  0.64984900  0.82990600  0.09751000  1
  P  P43  1  0.16028300  0.35813800  0.58855700  1
  P  P44  1  0.66028300  0.64186200  0.91144300  1
  P  P45  1  0.14984900  0.17009400  0.40249000  1
  P  P46  1  0.63621400  0.22414000  0.36353300  1
  P  P47  1  0.15078700  0.74103300  0.83890600  1
  O  O48  1  0.05262000  0.02032400  0.41759300  1
  O  O49  1  0.58004700  0.59541800  0.84438800  1
  O  O50  1  0.76600600  0.77148100  0.68518600  1
  O  O51  1  0.19063300  0.32028600  0.11602300  1
  O  O52  1  0.35611300  0.51390500  0.99112900  1
  O  O53  1  0.92906600  0.15378700  0.25303600  1
  O  O54  1  0.75477400  0.90015800  0.51240300  1
  O  O55  1  0.65440300  0.06423800  0.34477400  1
  O  O56  1  0.16623100  0.54898900  0.85254000  1
  O  O57  1  0.40299700  0.60461900  0.72366400  1
  O  O58  1  0.92002200  0.23744100  0.08525500  1
  O  O59  1  0.69707400  0.20394300  0.16766600  1
  O  O60  1  0.47575500  0.81570100  0.56530100  1
  O  O61  1  0.21809200  0.75532900  0.60613400  1
  O  O62  1  0.93731600  0.67964000  0.60163700  1
  O  O63  1  0.41222100  0.19759700  0.09400700  1
  O  O64  1  0.91222100  0.80240300  0.40599300  1
  O  O65  1  0.43731600  0.32036000  0.89836300  1
  O  O66  1  0.71809200  0.24467100  0.89386600  1
  O  O67  1  0.19707400  0.79605700  0.33233400  1
  O  O68  1  0.97575500  0.18429900  0.93469900  1
  O  O69  1  0.42002200  0.76255900  0.41474500  1
  O  O70  1  0.90299700  0.39538100  0.77633600  1
  O  O71  1  0.66623100  0.45101100  0.64746000  1
  O  O72  1  0.15440300  0.93576200  0.15522600  1
  O  O73  1  0.25477400  0.09984200  0.98759700  1
  O  O74  1  0.42906600  0.84621300  0.24696400  1
  O  O75  1  0.69063300  0.67971400  0.38397700  1
  O  O76  1  0.85611300  0.48609500  0.50887100  1
  O  O77  1  0.26600600  0.22851900  0.81481400  1
  O  O78  1  0.55262000  0.97967600  0.08240700  1
  O  O79  1  0.08004700  0.40458200  0.65561200  1
  O  O80  1  0.91995300  0.59541800  0.34438800  1
  O  O81  1  0.44738000  0.02032400  0.91759300  1
  O  O82  1  0.73399400  0.77148100  0.18518600  1
  O  O83  1  0.14388700  0.51390500  0.49112900  1
  O  O84  1  0.30936700  0.32028600  0.61602300  1
  O  O85  1  0.57093400  0.15378700  0.75303600  1
  O  O86  1  0.74522600  0.90015800  0.01240300  1
  O  O87  1  0.84559700  0.06423800  0.84477400  1
  O  O88  1  0.33376900  0.54898900  0.35254000  1
  O  O89  1  0.09700300  0.60461900  0.22366400  1
  O  O90  1  0.57997800  0.23744100  0.58525500  1
  O  O91  1  0.02424500  0.81570100  0.06530100  1
  O  O92  1  0.80292600  0.20394300  0.66766600  1
  O  O93  1  0.28190800  0.75532900  0.10613400  1
  O  O94  1  0.56268400  0.67964000  0.10163700  1
  O  O95  1  0.08777900  0.19759700  0.59400700  1
  O  O96  1  0.58777900  0.80240300  0.90599300  1
  O  O97  1  0.06268400  0.32036000  0.39836300  1
  O  O98  1  0.78190800  0.24467100  0.39386600  1
  O  O99  1  0.52424500  0.18429900  0.43469900  1
  O  O100  1  0.30292600  0.79605700  0.83233400  1
  O  O101  1  0.07997800  0.76255900  0.91474500  1
  O  O102  1  0.59700300  0.39538100  0.27633600  1
  O  O103  1  0.83376900  0.45101100  0.14746000  1
  O  O104  1  0.34559700  0.93576200  0.65522600  1
  O  O105  1  0.24522600  0.09984200  0.48759700  1
  O  O106  1  0.07093400  0.84621300  0.74696400  1
  O  O107  1  0.64388700  0.48609500  0.00887100  1
  O  O108  1  0.80936700  0.67971400  0.88397700  1
  O  O109  1  0.23399400  0.22851900  0.31481400  1
  O  O110  1  0.41995300  0.40458200  0.15561200  1
  O  O111  1  0.94738000  0.97967600  0.58240700  1
