# generated using pymatgen
data_Li3Mn(PO4)2
_symmetry_space_group_name_H-M   'P 1'
_cell_length_a   4.99412452
_cell_length_b   12.61545290
_cell_length_c   4.85680897
_cell_angle_alpha   88.21679238
_cell_angle_beta   68.33343024
_cell_angle_gamma   92.53098241
_symmetry_Int_Tables_number   1
_chemical_formula_structural   Li3Mn(PO4)2
_chemical_formula_sum   'Li6 Mn2 P4 O16'
_cell_volume   283.72693453
_cell_formula_units_Z   2
loop_
 _symmetry_equiv_pos_site_id
 _symmetry_equiv_pos_as_xyz
  1  'x, y, z'
loop_
 _atom_site_type_symbol
 _atom_site_label
 _atom_site_symmetry_multiplicity
 _atom_site_fract_x
 _atom_site_fract_y
 _atom_site_fract_z
 _atom_site_occupancy
  Li  Li0  1  0.99944200  0.00009800  0.00059200  1
  Li  Li1  1  0.99923200  0.50011000  0.00083200  1
  Li  Li2  1  0.31480800  0.11191400  0.33555700  1
  Li  Li3  1  0.31667200  0.61200700  0.33415100  1
  Li  Li4  1  0.68279800  0.38791300  0.66619500  1
  Li  Li5  1  0.68465900  0.88798100  0.66466500  1
  Mn  Mn6  1  0.00094000  0.74988200  0.99897400  1
  Mn  Mn7  1  0.99939400  0.25029100  0.00088100  1
  P  P8  1  0.34668000  0.36882300  0.35000700  1
  P  P9  1  0.34839600  0.86857400  0.34866700  1
  P  P10  1  0.65214900  0.13142500  0.65085800  1
  P  P11  1  0.65328800  0.63116400  0.64996800  1
  O  O12  1  0.23545200  0.96643200  0.25046800  1
  O  O13  1  0.23429300  0.46666900  0.25101100  1
  O  O14  1  0.76563200  0.53328600  0.74892200  1
  O  O15  1  0.76469800  0.03354200  0.74923600  1
  O  O16  1  0.23906100  0.26571200  0.24005500  1
  O  O17  1  0.23956500  0.76548300  0.23943200  1
  O  O18  1  0.76063100  0.23448500  0.76046200  1
  O  O19  1  0.76116800  0.73428000  0.75986800  1
  O  O20  1  0.68093200  0.37220700  0.24636100  1
  O  O21  1  0.68287600  0.87204900  0.24379600  1
  O  O22  1  0.76477500  0.13898200  0.29754200  1
  O  O23  1  0.76586600  0.63878500  0.29687900  1
  O  O24  1  0.23413600  0.36117700  0.70298900  1
  O  O25  1  0.23634100  0.86094800  0.70185200  1
  O  O26  1  0.31779100  0.12800700  0.75558300  1
  O  O27  1  0.31893100  0.62777500  0.75359500  1
