# generated using pymatgen
data_Li3RhN2
_symmetry_space_group_name_H-M   'P 1'
_cell_length_a   6.58302900
_cell_length_b   7.52734137
_cell_length_c   8.09997618
_cell_angle_alpha   90.00000000
_cell_angle_beta   120.29052691
_cell_angle_gamma   90.00000000
_symmetry_Int_Tables_number   1
_chemical_formula_structural   Li3RhN2
_chemical_formula_sum   'Li12 Rh4 N8'
_cell_volume   346.57950686
_cell_formula_units_Z   4
loop_
 _symmetry_equiv_pos_site_id
 _symmetry_equiv_pos_as_xyz
  1  'x, y, z'
loop_
 _atom_site_type_symbol
 _atom_site_label
 _atom_site_symmetry_multiplicity
 _atom_site_fract_x
 _atom_site_fract_y
 _atom_site_fract_z
 _atom_site_occupancy
  Li  Li0  1  0.20413937  0.02655279  0.03817456  1
  Li  Li1  1  0.79586063  0.52655279  0.46182544  1
  Li  Li2  1  0.79586063  0.97344721  0.96182544  1
  Li  Li3  1  0.20413937  0.47344721  0.53817456  1
  Li  Li4  1  0.99097966  0.34143000  0.81321200  1
  Li  Li5  1  0.00902034  0.84143000  0.68678800  1
  Li  Li6  1  0.00902034  0.65857000  0.18678800  1
  Li  Li7  1  0.99097966  0.15857000  0.31321200  1
  Li  Li8  1  0.65053447  0.32882192  0.91583899  1
  Li  Li9  1  0.34946553  0.82882192  0.58416101  1
  Li  Li10  1  0.34946553  0.67117808  0.08416101  1
  Li  Li11  1  0.65053447  0.17117808  0.41583899  1
  Rh  Rh12  1  0.22116494  0.15220950  0.70098010  1
  Rh  Rh13  1  0.77883506  0.65220950  0.79901990  1
  Rh  Rh14  1  0.77883506  0.84779050  0.29901990  1
  Rh  Rh15  1  0.22116494  0.34779050  0.20098010  1
  N  N16  1  0.03366163  0.79166602  0.96407140  1
  N  N17  1  0.96633837  0.29166602  0.53592860  1
  N  N18  1  0.96633837  0.20833398  0.03592860  1
  N  N19  1  0.03366163  0.70833398  0.46407140  1
  N  N20  1  0.55306931  0.52944477  0.58069762  1
  N  N21  1  0.44693069  0.02944477  0.91930238  1
  N  N22  1  0.44693069  0.47055523  0.41930238  1
  N  N23  1  0.55306931  0.97055523  0.08069762  1
