# generated using pymatgen
data_Li7Co5O12
_symmetry_space_group_name_H-M   'P 1'
_cell_length_a   7.62266980
_cell_length_b   8.64250270
_cell_length_c   7.62190186
_cell_angle_alpha   72.50681053
_cell_angle_beta   110.79586461
_cell_angle_gamma   74.48833898
_symmetry_Int_Tables_number   1
_chemical_formula_structural   Li7Co5O12
_chemical_formula_sum   'Li14 Co10 O24'
_cell_volume   406.37455717
_cell_formula_units_Z   2
loop_
 _symmetry_equiv_pos_site_id
 _symmetry_equiv_pos_as_xyz
  1  'x, y, z'
loop_
 _atom_site_type_symbol
 _atom_site_label
 _atom_site_symmetry_multiplicity
 _atom_site_fract_x
 _atom_site_fract_y
 _atom_site_fract_z
 _atom_site_occupancy
  Li  Li0  1  0.57836300  0.25020700  0.82833000  1
  Li  Li1  1  0.07996100  0.75000500  0.82992600  1
  Li  Li2  1  0.95535300  0.12233500  0.58588300  1
  Li  Li3  1  0.45956900  0.61898000  0.58817900  1
  Li  Li4  1  0.20818400  0.37782600  0.07767200  1
  Li  Li5  1  0.70701300  0.88110700  0.07856800  1
  Li  Li6  1  0.12228700  0.62906300  0.24598500  1
  Li  Li7  1  0.61591500  0.12923200  0.24144300  1
  Li  Li8  1  0.29282000  0.13252900  0.91429000  1
  Li  Li9  1  0.79079400  0.63381200  0.91367400  1
  Li  Li10  1  0.37495200  0.87091500  0.75115100  1
  Li  Li11  1  0.87039700  0.37088100  0.74517900  1
  Li  Li12  1  0.54687500  0.36756500  0.42529500  1
  Li  Li13  1  0.04776100  0.86616200  0.42480700  1
  Co  Co14  1  0.16686100  0.49766900  0.66771500  1
  Co  Co15  1  0.66543200  0.00239300  0.66462500  1
  Co  Co16  1  0.25402600  0.24983400  0.50405800  1
  Co  Co17  1  0.75699500  0.74989100  0.50699800  1
  Co  Co18  1  0.41830100  0.74994400  0.16826400  1
  Co  Co19  1  0.83514200  0.50185100  0.33474500  1
  Co  Co20  1  0.33677400  0.99796500  0.33716500  1
  Co  Co21  1  0.99580400  0.00093000  0.99019900  1
  Co  Co22  1  0.49129500  0.49916700  0.99631800  1
  Co  Co23  1  0.91218400  0.24977400  0.16233500  1
  O  O24  1  0.02440900  0.42529900  0.22994100  1
  O  O25  1  0.52655700  0.92359100  0.23518600  1
  O  O26  1  0.15605000  0.07405100  0.45040500  1
  O  O27  1  0.65919100  0.57609300  0.45043000  1
  O  O28  1  0.76725200  0.17550400  0.70620300  1
  O  O29  1  0.27557000  0.66468800  0.71835200  1
  O  O30  1  0.38134200  0.32474800  0.94252400  1
  O  O31  1  0.88293500  0.83559900  0.94023300  1
  O  O32  1  0.18374900  0.93667000  0.89932800  1
  O  O33  1  0.67998500  0.44278600  0.89613800  1
  O  O34  1  0.33285400  0.42750100  0.53971900  1
  O  O35  1  0.83511600  0.92892400  0.53981900  1
  O  O36  1  0.33598600  0.56365000  0.12036100  1
  O  O37  1  0.83899100  0.05778200  0.12299500  1
  O  O38  1  0.46732600  0.07256300  0.76054300  1
  O  O39  1  0.96869900  0.57113400  0.76409800  1
  O  O40  1  0.43252900  0.17337800  0.39177000  1
  O  O41  1  0.93655000  0.67259300  0.39509900  1
  O  O42  1  0.11259900  0.16926200  0.05986200  1
  O  O43  1  0.60874000  0.68403700  0.06497700  1
  O  O44  1  0.06499200  0.32649900  0.60573000  1
  O  O45  1  0.56778700  0.82728300  0.60917300  1
  O  O46  1  0.72874400  0.33055700  0.28156000  1
  O  O47  1  0.24899200  0.81576800  0.29275000  1
