# generated using pymatgen
data_LiEuF2
_symmetry_space_group_name_H-M   'P 1'
_cell_length_a   7.50104886
_cell_length_b   7.50104886
_cell_length_c   7.50104886
_cell_angle_alpha   124.41005049
_cell_angle_beta   124.41005049
_cell_angle_gamma   82.51749444
_symmetry_Int_Tables_number   1
_chemical_formula_structural   LiEuF2
_chemical_formula_sum   'Li4 Eu4 F8'
_cell_volume   275.95662963
_cell_formula_units_Z   4
loop_
 _symmetry_equiv_pos_site_id
 _symmetry_equiv_pos_as_xyz
  1  'x, y, z'
loop_
 _atom_site_type_symbol
 _atom_site_label
 _atom_site_symmetry_multiplicity
 _atom_site_fract_x
 _atom_site_fract_y
 _atom_site_fract_z
 _atom_site_occupancy
  Li  Li0  1  0.87500000  0.62500000  0.25000000  1
  Li  Li1  1  0.37500000  0.62500000  0.75000000  1
  Li  Li2  1  0.37500000  0.62500000  0.25000000  1
  Li  Li3  1  0.37500000  0.12500000  0.75000000  1
  Eu  Eu4  1  0.37500000  0.12500000  0.25000000  1
  Eu  Eu5  1  0.87500000  0.12500000  0.75000000  1
  Eu  Eu6  1  0.87500000  0.12500000  0.25000000  1
  Eu  Eu7  1  0.87500000  0.62500000  0.75000000  1
  F  F8  1  0.21199500  0.42224300  0.21024800  1
  F  F9  1  0.21199500  0.00174700  0.78975200  1
  F  F10  1  0.17224300  0.46199500  0.71024800  1
  F  F11  1  0.53800500  0.82775700  0.28975200  1
  F  F12  1  0.75174700  0.46199500  0.28975200  1
  F  F13  1  0.53800500  0.24825300  0.71024800  1
  F  F14  1  0.57775700  0.78800500  0.78975200  1
  F  F15  1  0.99825300  0.78800500  0.21024800  1
