# generated using pymatgen
data_Li6V3P8O29
_symmetry_space_group_name_H-M   'P 1'
_cell_length_a   9.76197200
_cell_length_b   9.83625501
_cell_length_c   14.02219960
_cell_angle_alpha   90.01500923
_cell_angle_beta   90.18161414
_cell_angle_gamma   119.68045548
_symmetry_Int_Tables_number   1
_chemical_formula_structural   Li6V3P8O29
_chemical_formula_sum   'Li12 V6 P16 O58'
_cell_volume   1169.76974256
_cell_formula_units_Z   2
loop_
 _symmetry_equiv_pos_site_id
 _symmetry_equiv_pos_as_xyz
  1  'x, y, z'
loop_
 _atom_site_type_symbol
 _atom_site_label
 _atom_site_symmetry_multiplicity
 _atom_site_fract_x
 _atom_site_fract_y
 _atom_site_fract_z
 _atom_site_occupancy
  Li  Li0  1  0.76501500  0.66546400  0.94207100  1
  Li  Li1  1  0.89878600  0.66193600  0.43524300  1
  Li  Li2  1  0.33501300  0.23594900  0.43782800  1
  Li  Li3  1  0.32849100  0.09424900  0.94485900  1
  Li  Li4  1  0.89939000  0.23092700  0.94612300  1
  Li  Li5  1  0.23503300  0.90319500  0.55653600  1
  Li  Li6  1  0.75795500  0.09731900  0.43490100  1
  Li  Li7  1  0.34138600  0.67300400  0.89345100  1
  Li  Li8  1  0.09362200  0.33077800  0.55809300  1
  Li  Li9  1  0.23173500  0.32436400  0.06556600  1
  Li  Li10  1  0.97842700  0.95925300  0.01493600  1
  Li  Li11  1  0.94992600  0.96589100  0.49789700  1
  V  V12  1  0.43849100  0.00134000  0.74925200  1
  V  V13  1  0.56666200  0.99913700  0.24542400  1
  V  V14  1  0.00240400  0.56780900  0.24948200  1
  V  V15  1  0.99686400  0.43785100  0.75207800  1
  V  V16  1  0.56501900  0.56711700  0.74625000  1
  V  V17  1  0.44163000  0.44114300  0.25132700  1
  P  P18  1  0.77523400  0.68799900  0.15654400  1
  P  P19  1  0.91601200  0.68971500  0.65502300  1
  P  P20  1  0.31387500  0.22841200  0.65817100  1
  P  P21  1  0.66261500  0.33387700  0.87040300  1
  P  P22  1  0.66733600  0.33255000  0.36988600  1
  P  P23  1  0.30933200  0.08869600  0.15623100  1
  P  P24  1  0.22825100  0.91506000  0.33973000  1
  P  P25  1  0.91224100  0.22698600  0.15951100  1
  P  P26  1  0.08995300  0.78065000  0.83989100  1
  P  P27  1  0.77555000  0.08595900  0.65429000  1
  P  P28  1  0.69594100  0.91344400  0.83977900  1
  P  P29  1  0.32823600  0.66373300  0.63102200  1
  P  P30  1  0.33478900  0.66551600  0.13203300  1
  P  P31  1  0.69578600  0.78106900  0.33905500  1
  P  P32  1  0.08664200  0.31268700  0.34283900  1
  P  P33  1  0.22637700  0.31740500  0.84306200  1
  O  O34  1  0.80347500  0.79326300  0.41949500  1
  O  O35  1  0.74901200  0.66191600  0.66221900  1
  O  O36  1  0.99258800  0.78429600  0.92064900  1
  O  O37  1  0.91469500  0.65689100  0.17087800  1
  O  O38  1  0.61977400  0.53330400  0.16722200  1
  O  O39  1  0.66423600  0.48246700  0.82751500  1
  O  O40  1  0.47233000  0.37918000  0.67044500  1
  O  O41  1  0.23279900  0.23213100  0.93086900  1
  O  O42  1  0.33422500  0.25609600  0.16280900  1
  O  O43  1  0.81290600  0.48820900  0.33503300  1
  O  O44  1  0.91785900  0.53474000  0.66907100  1
  O  O45  1  0.51370500  0.32769000  0.32577600  1
  O  O46  1  0.66523100  0.33772200  0.97641700  1
  O  O47  1  0.65427400  0.32555200  0.47624300  1
  O  O48  1  0.51306400  0.18509300  0.83005100  1
  O  O49  1  0.91132000  0.38025600  0.16997300  1
  O  O50  1  0.81318800  0.33222200  0.82950100  1
  O  O51  1  0.33222200  0.08071400  0.66044000  1
  O  O52  1  0.20118200  0.99742900  0.24840900  1
  O  O53  1  0.22847300  0.00241500  0.42919600  1
  O  O54  1  0.21794700  0.01209700  0.06664100  1
  O  O55  1  0.46475600  0.08792800  0.16828000  1
  O  O56  1  0.67674700  0.18927800  0.32894800  1
  O  O57  1  0.26135300  0.92143200  0.84270400  1
  O  O58  1  0.61601400  0.08281800  0.67061600  1
  O  O59  1  0.91485000  0.25423700  0.66331100  1
  O  O60  1  0.01771300  0.80335200  0.74174500  1
  O  O61  1  0.99851800  0.77381500  0.56424800  1
  O  O62  1  0.99701900  0.22380400  0.43091200  1
  O  O63  1  0.08747800  0.74657400  0.34241300  1
  O  O64  1  0.38588900  0.91697700  0.32635700  1
  O  O65  1  0.74349500  0.08564200  0.16352100  1
  O  O66  1  0.32429200  0.81199100  0.67075300  1
  O  O67  1  0.52979000  0.89984200  0.82945500  1
  O  O68  1  0.79615700  0.01135600  0.92066200  1
  O  O69  1  0.78340200  0.01469300  0.56154700  1
  O  O70  1  0.78948000  0.98710900  0.74087600  1
  O  O71  1  0.66506100  0.92089800  0.34049100  1
  O  O72  1  0.19181300  0.66936200  0.17581600  1
  O  O73  1  0.10363200  0.62968200  0.83113300  1
  O  O74  1  0.48557100  0.80733300  0.17246800  1
  O  O75  1  0.32980400  0.65201400  0.02512600  1
  O  O76  1  0.32313500  0.65822800  0.52532400  1
  O  O77  1  0.47675200  0.66608200  0.67776900  1
  O  O78  1  0.08395000  0.46654800  0.32916900  1
  O  O79  1  0.18269400  0.51197200  0.67415700  1
  O  O80  1  0.66912600  0.74532100  0.84219900  1
  O  O81  1  0.79241600  0.80467200  0.24112700  1
  O  O82  1  0.79101600  0.77058100  0.06401100  1
  O  O83  1  0.54146600  0.62379000  0.33303500  1
  O  O84  1  0.32995800  0.51168400  0.17337400  1
  O  O85  1  0.37444300  0.48049900  0.83083400  1
  O  O86  1  0.07888400  0.33731100  0.84433600  1
  O  O87  1  0.99692100  0.21918700  0.07086200  1
  O  O88  1  0.00195300  0.20507200  0.25050600  1
  O  O89  1  0.25548200  0.33988700  0.34466000  1
  O  O90  1  0.22564900  0.22831000  0.56936100  1
  O  O91  1  0.20659200  0.21143900  0.75041700  1
