# generated using pymatgen
data_LiB2O3
_symmetry_space_group_name_H-M   'P 1'
_cell_length_a   11.20783797
_cell_length_b   11.20783797
_cell_length_c   11.20783797
_cell_angle_alpha   107.21160632
_cell_angle_beta   107.21160632
_cell_angle_gamma   114.09161669
_symmetry_Int_Tables_number   1
_chemical_formula_structural   LiB2O3
_chemical_formula_sum   'Li8 B16 O24'
_cell_volume   1078.45626103
_cell_formula_units_Z   8
loop_
 _symmetry_equiv_pos_site_id
 _symmetry_equiv_pos_as_xyz
  1  'x, y, z'
loop_
 _atom_site_type_symbol
 _atom_site_label
 _atom_site_symmetry_multiplicity
 _atom_site_fract_x
 _atom_site_fract_y
 _atom_site_fract_z
 _atom_site_occupancy
  Li  Li0  1  0.63615800  0.15696300  0.98933400  1
  Li  Li1  1  0.13615800  0.14682500  0.47919500  1
  Li  Li2  1  0.40696300  0.91763000  0.02080500  1
  Li  Li3  1  0.39682500  0.41763000  0.51066600  1
  Li  Li4  1  0.16763000  0.64682500  0.01066600  1
  Li  Li5  1  0.66763000  0.65696300  0.52080500  1
  Li  Li6  1  0.89682500  0.38615800  0.97919500  1
  Li  Li7  1  0.90696300  0.88615800  0.48933400  1
  B  B8  1  0.17765100  0.90829600  0.10086400  1
  B  B9  1  0.67765100  0.57678700  0.26935500  1
  B  B10  1  0.15829600  0.55743300  0.23064500  1
  B  B11  1  0.82678700  0.05743300  0.39913600  1
  B  B12  1  0.80743300  0.07678700  0.89913600  1
  B  B13  1  0.30743300  0.40829600  0.73064500  1
  B  B14  1  0.32678700  0.92765100  0.76935500  1
  B  B15  1  0.65829600  0.42765100  0.60086400  1
  B  B16  1  0.77656100  0.21007800  0.28608700  1
  B  B17  1  0.27656100  0.99047300  0.56648300  1
  B  B18  1  0.46007800  0.67399100  0.93351700  1
  B  B19  1  0.24047300  0.17399100  0.21391300  1
  B  B20  1  0.92399100  0.49047300  0.71391300  1
  B  B21  1  0.42399100  0.71007800  0.43351700  1
  B  B22  1  0.74047300  0.52656100  0.06648300  1
  B  B23  1  0.96007800  0.02656100  0.78608700  1
  O  O24  1  0.25488100  0.85551200  0.07334200  1
  O  O25  1  0.75488100  0.68153900  0.39936900  1
  O  O26  1  0.10551200  0.53217000  0.10063100  1
  O  O27  1  0.93153900  0.03217000  0.42665800  1
  O  O28  1  0.78217000  0.18153900  0.92665800  1
  O  O29  1  0.28217000  0.35551200  0.60063100  1
  O  O30  1  0.43153900  0.00488100  0.89936900  1
  O  O31  1  0.60551200  0.50488100  0.57334200  1
  O  O32  1  0.54070600  0.73204000  0.51835400  1
  O  O33  1  0.04070600  0.52235200  0.80866600  1
  O  O34  1  0.98204000  0.96368600  0.69133400  1
  O  O35  1  0.77235200  0.46368600  0.98164600  1
  O  O36  1  0.21368600  0.02235200  0.48164600  1
  O  O37  1  0.71368600  0.23204000  0.19133400  1
  O  O38  1  0.27235200  0.29070600  0.30866600  1
  O  O39  1  0.48204000  0.79070600  0.01835400  1
  O  O40  1  0.20499000  0.05101700  0.11541400  1
  O  O41  1  0.70499000  0.58957600  0.15397200  1
  O  O42  1  0.30101700  0.68560300  0.34602800  1
  O  O43  1  0.83957600  0.18560300  0.38458600  1
  O  O44  1  0.93560300  0.08957600  0.88458600  1
  O  O45  1  0.43560300  0.55101700  0.84602800  1
  O  O46  1  0.33957600  0.95499000  0.65397200  1
  O  O47  1  0.80101700  0.45499000  0.61541400  1
