# generated using pymatgen
data_Li3Mn(PO4)2
_symmetry_space_group_name_H-M   'P 1'
_cell_length_a   4.79045738
_cell_length_b   11.78910254
_cell_length_c   10.23099860
_cell_angle_alpha   91.61472438
_cell_angle_beta   88.08838263
_cell_angle_gamma   90.63673858
_symmetry_Int_Tables_number   1
_chemical_formula_structural   Li3Mn(PO4)2
_chemical_formula_sum   'Li12 Mn4 P8 O32'
_cell_volume   577.21682414
_cell_formula_units_Z   4
loop_
 _symmetry_equiv_pos_site_id
 _symmetry_equiv_pos_as_xyz
  1  'x, y, z'
loop_
 _atom_site_type_symbol
 _atom_site_label
 _atom_site_symmetry_multiplicity
 _atom_site_fract_x
 _atom_site_fract_y
 _atom_site_fract_z
 _atom_site_occupancy
  Li  Li0  1  0.09973100  0.37126400  0.93573400  1
  Li  Li1  1  0.09974500  0.87113200  0.93578400  1
  Li  Li2  1  0.90044300  0.12883600  0.06425300  1
  Li  Li3  1  0.90032000  0.62882200  0.06415400  1
  Li  Li4  1  0.51238400  0.37385300  0.77252400  1
  Li  Li5  1  0.51233000  0.87376900  0.77260100  1
  Li  Li6  1  0.48769600  0.12619000  0.22748100  1
  Li  Li7  1  0.48767000  0.62623900  0.22743800  1
  Li  Li8  1  0.50002700  0.00001200  0.49998000  1
  Li  Li9  1  0.50001300  0.49995900  0.50003400  1
  Li  Li10  1  0.50000800  0.25000100  0.49999300  1
  Li  Li11  1  0.49998800  0.75001800  0.49999400  1
  Mn  Mn12  1  0.97458000  0.62053500  0.72398800  1
  Mn  Mn13  1  0.02491600  0.87962600  0.27607800  1
  Mn  Mn14  1  0.97471900  0.12038000  0.72392600  1
  Mn  Mn15  1  0.02508400  0.37946700  0.27600800  1
  P  P16  1  0.39271000  0.11855300  0.90183700  1
  P  P17  1  0.39246400  0.61857600  0.90173300  1
  P  P18  1  0.60746700  0.38148500  0.09817400  1
  P  P19  1  0.60739400  0.88143300  0.09819000  1
  P  P20  1  0.92874800  0.37666600  0.58625700  1
  P  P21  1  0.92871800  0.87671500  0.58626700  1
  P  P22  1  0.07124900  0.12328200  0.41373700  1
  P  P23  1  0.07124200  0.62328900  0.41376100  1
  O  O24  1  0.68695200  0.36949400  0.95309100  1
  O  O25  1  0.68698500  0.86947100  0.95311500  1
  O  O26  1  0.31320100  0.13051400  0.04693900  1
  O  O27  1  0.31316200  0.63054800  0.04684400  1
  O  O28  1  0.71741600  0.12423700  0.88276100  1
  O  O29  1  0.71717600  0.62430200  0.88258300  1
  O  O30  1  0.28273800  0.37574900  0.11728800  1
  O  O31  1  0.28270600  0.87571400  0.11729200  1
  O  O32  1  0.24493600  0.37784500  0.58455100  1
  O  O33  1  0.24490700  0.87785900  0.58454900  1
  O  O34  1  0.75508700  0.12211900  0.41545100  1
  O  O35  1  0.75506800  0.62213000  0.41549900  1
  O  O36  1  0.19897600  0.12495100  0.55513400  1
  O  O37  1  0.19877600  0.62495800  0.55520900  1
  O  O38  1  0.80115200  0.37499000  0.44483200  1
  O  O39  1  0.80100400  0.87503900  0.44487500  1
  O  O40  1  0.26349300  0.00960700  0.83702600  1
  O  O41  1  0.26328300  0.50960100  0.83697500  1
  O  O42  1  0.24991800  0.21763400  0.82422800  1
  O  O43  1  0.24965100  0.71771800  0.82423000  1
  O  O44  1  0.75029600  0.28237900  0.17575800  1
  O  O45  1  0.75023200  0.78233900  0.17577900  1
  O  O46  1  0.73667600  0.49043200  0.16299400  1
  O  O47  1  0.73664300  0.99035500  0.16304700  1
  O  O48  1  0.78463500  0.27647700  0.65720900  1
  O  O49  1  0.78444800  0.77657600  0.65723800  1
  O  O50  1  0.78816500  0.48503500  0.65613400  1
  O  O51  1  0.78829600  0.98513200  0.65616000  1
  O  O52  1  0.21171500  0.01486600  0.34383900  1
  O  O53  1  0.21179800  0.51490000  0.34388700  1
  O  O54  1  0.21543500  0.22344300  0.34274800  1
  O  O55  1  0.21542600  0.72347800  0.34282100  1
