# generated using pymatgen
data_Li4TiCo3O8
_symmetry_space_group_name_H-M   'P 1'
_cell_length_a   5.85314693
_cell_length_b   8.38648100
_cell_length_c   5.93733164
_cell_angle_alpha   89.25189947
_cell_angle_beta   89.52336795
_cell_angle_gamma   90.25093843
_symmetry_Int_Tables_number   1
_chemical_formula_structural   Li4TiCo3O8
_chemical_formula_sum   'Li8 Ti2 Co6 O16'
_cell_volume   291.40974988
_cell_formula_units_Z   2
loop_
 _symmetry_equiv_pos_site_id
 _symmetry_equiv_pos_as_xyz
  1  'x, y, z'
loop_
 _atom_site_type_symbol
 _atom_site_label
 _atom_site_symmetry_multiplicity
 _atom_site_fract_x
 _atom_site_fract_y
 _atom_site_fract_z
 _atom_site_occupancy
  Li  Li0  1  0.00028600  0.49970600  0.00189700  1
  Li  Li1  1  0.49948400  0.00053500  0.49992300  1
  Li  Li2  1  0.49976500  0.50035000  0.99847400  1
  Li  Li3  1  0.00122200  0.99778400  0.50208000  1
  Li  Li4  1  0.74676800  0.24934600  0.24677300  1
  Li  Li5  1  0.25241800  0.75118700  0.75200300  1
  Li  Li6  1  0.25277000  0.24936500  0.24745900  1
  Li  Li7  1  0.74736500  0.75015100  0.75094600  1
  Ti  Ti8  1  0.50656500  0.50350800  0.49055900  1
  Ti  Ti9  1  0.99197700  0.99549500  0.00483100  1
  Co  Co10  1  0.49676600  0.00260700  0.99735800  1
  Co  Co11  1  0.00255200  0.49713600  0.50520200  1
  Co  Co12  1  0.74902700  0.74971100  0.24980600  1
  Co  Co13  1  0.25032300  0.25216100  0.74942700  1
  Co  Co14  1  0.24767100  0.74841900  0.25419100  1
  Co  Co15  1  0.75392300  0.25429700  0.74629800  1
  O  O16  1  0.48549600  0.77106200  0.02097900  1
  O  O17  1  0.99633900  0.24245100  0.52252400  1
  O  O18  1  0.50531600  0.23489100  0.97859900  1
  O  O19  1  0.01303100  0.75169400  0.47968900  1
  O  O20  1  0.49969000  0.26219100  0.50644700  1
  O  O21  1  0.00306900  0.76446500  0.99786800  1
  O  O22  1  0.49580200  0.73523700  0.50359900  1
  O  O23  1  0.00095100  0.23802300  0.99096300  1
  O  O24  1  0.26433000  0.50370300  0.26129400  1
  O  O25  1  0.74725600  0.00206700  0.77190900  1
  O  O26  1  0.74341300  0.49841100  0.26420600  1
  O  O27  1  0.25296600  0.00920200  0.77100200  1
  O  O28  1  0.73785300  0.49509200  0.74192200  1
  O  O29  1  0.24912500  0.00035000  0.22463600  1
  O  O30  1  0.26198700  0.48675400  0.74239800  1
  O  O31  1  0.74449500  0.00264500  0.22474300  1
