# generated using pymatgen
data_Li2Fe3SnO8
_symmetry_space_group_name_H-M   'P 1'
_cell_length_a   6.01638769
_cell_length_b   6.16020808
_cell_length_c   8.60017982
_cell_angle_alpha   88.42794838
_cell_angle_beta   89.92331853
_cell_angle_gamma   90.07294247
_symmetry_Int_Tables_number   1
_chemical_formula_structural   Li2Fe3SnO8
_chemical_formula_sum   'Li4 Fe6 Sn2 O16'
_cell_volume   318.62105707
_cell_formula_units_Z   2
loop_
 _symmetry_equiv_pos_site_id
 _symmetry_equiv_pos_as_xyz
  1  'x, y, z'
loop_
 _atom_site_type_symbol
 _atom_site_label
 _atom_site_symmetry_multiplicity
 _atom_site_fract_x
 _atom_site_fract_y
 _atom_site_fract_z
 _atom_site_occupancy
  Li  Li0  1  0.99917400  0.24697500  0.12072800  1
  Li  Li1  1  0.49948200  0.74674400  0.62104400  1
  Li  Li2  1  0.00056900  0.75327500  0.87898200  1
  Li  Li3  1  0.50088700  0.25301400  0.37928000  1
  Fe  Fe4  1  0.75006800  0.24993200  0.74993700  1
  Fe  Fe5  1  0.74987600  0.75005500  0.24996800  1
  Fe  Fe6  1  0.24992300  0.25004100  0.74998000  1
  Fe  Fe7  1  0.00094000  0.49981300  0.50066400  1
  Fe  Fe8  1  0.49903400  0.99999400  0.99929600  1
  Fe  Fe9  1  0.25009300  0.74992400  0.24997300  1
  Sn  Sn10  1  0.99877000  0.99862400  0.50079200  1
  Sn  Sn11  1  0.50125600  0.50153900  0.99928500  1
  O  O12  1  0.01779400  0.53634400  0.26081400  1
  O  O13  1  0.48464100  0.03588200  0.76117800  1
  O  O14  1  0.01530300  0.46414900  0.73882900  1
  O  O15  1  0.48216500  0.96364000  0.23920800  1
  O  O16  1  0.23287400  0.74633500  0.48360500  1
  O  O17  1  0.72522400  0.24255400  0.99000600  1
  O  O18  1  0.77216600  0.74268000  0.48797800  1
  O  O19  1  0.26601100  0.24741200  0.98019500  1
  O  O20  1  0.99686700  0.97757200  0.25823400  1
  O  O21  1  0.50550400  0.47886600  0.75772500  1
  O  O22  1  0.99448800  0.02114700  0.74227300  1
  O  O23  1  0.50313800  0.52239300  0.24177300  1
  O  O24  1  0.23399500  0.25263100  0.51980400  1
  O  O25  1  0.72783400  0.75737600  0.01204200  1
  O  O26  1  0.77478300  0.25743600  0.50999300  1
  O  O27  1  0.26714100  0.75365400  0.01641600  1
