# generated using pymatgen
data_Li2TiCrO4
_symmetry_space_group_name_H-M   'P 1'
_cell_length_a   5.20887210
_cell_length_b   5.20854074
_cell_length_c   5.90785600
_cell_angle_alpha   90.00029210
_cell_angle_beta   90.00086669
_cell_angle_gamma   69.05402319
_symmetry_Int_Tables_number   1
_chemical_formula_structural   Li2TiCrO4
_chemical_formula_sum   'Li4 Ti2 Cr2 O8'
_cell_volume   149.69192220
_cell_formula_units_Z   2
loop_
 _symmetry_equiv_pos_site_id
 _symmetry_equiv_pos_as_xyz
  1  'x, y, z'
loop_
 _atom_site_type_symbol
 _atom_site_label
 _atom_site_symmetry_multiplicity
 _atom_site_fract_x
 _atom_site_fract_y
 _atom_site_fract_z
 _atom_site_occupancy
  Li  Li0  1  0.00000300  0.49998400  0.25037100  1
  Li  Li1  1  0.50002800  0.99998500  0.74956100  1
  Li  Li2  1  0.50000600  0.49996100  0.00010400  1
  Li  Li3  1  0.99999500  0.99998900  0.49985900  1
  Ti  Ti4  1  0.50005700  0.99998000  0.24842900  1
  Ti  Ti5  1  0.99997700  0.49999600  0.75142800  1
  Cr  Cr6  1  0.50005300  0.49998200  0.49992300  1
  Cr  Cr7  1  0.99981700  0.00013300  0.00034700  1
  O  O8  1  0.28080500  0.76190500  0.26097300  1
  O  O9  1  0.76174100  0.28057600  0.73905200  1
  O  O10  1  0.71918800  0.23809300  0.26098200  1
  O  O11  1  0.23825800  0.71940200  0.73902300  1
  O  O12  1  0.73871800  0.73868900  0.49996700  1
  O  O13  1  0.24056800  0.24052900  0.00000500  1
  O  O14  1  0.75951900  0.75950800  0.00001600  1
  O  O15  1  0.26126600  0.26128800  0.49996100  1
