# generated using pymatgen
data_LiMg5
_symmetry_space_group_name_H-M   'P 1'
_cell_length_a   5.47036160
_cell_length_b   5.47036160
_cell_length_c   5.13344900
_cell_angle_alpha   90.00000000
_cell_angle_beta   90.00000000
_cell_angle_gamma   119.99999518
_symmetry_Int_Tables_number   1
_chemical_formula_structural   LiMg5
_chemical_formula_sum   'Li1 Mg5'
_cell_volume   133.03685651
_cell_formula_units_Z   1
loop_
 _symmetry_equiv_pos_site_id
 _symmetry_equiv_pos_as_xyz
  1  'x, y, z'
loop_
 _atom_site_type_symbol
 _atom_site_label
 _atom_site_symmetry_multiplicity
 _atom_site_fract_x
 _atom_site_fract_y
 _atom_site_fract_z
 _atom_site_occupancy
  Li  Li0  1  0.00000000  0.00000000  0.50000000  1
  Mg  Mg1  1  0.00000000  0.66778800  0.00000000  1
  Mg  Mg2  1  0.66778800  0.00000000  0.00000000  1
  Mg  Mg3  1  0.33221200  0.33221200  0.00000000  1
  Mg  Mg4  1  0.66666700  0.33333300  0.50000000  1
  Mg  Mg5  1  0.33333300  0.66666700  0.50000000  1
