# generated using pymatgen
data_Li10Zn(PS4)4
_symmetry_space_group_name_H-M   'P 1'
_cell_length_a   7.91054300
_cell_length_b   12.35572178
_cell_length_c   12.99232646
_cell_angle_alpha   89.84227232
_cell_angle_beta   89.98873693
_cell_angle_gamma   89.83735512
_symmetry_Int_Tables_number   1
_chemical_formula_structural   Li10Zn(PS4)4
_chemical_formula_sum   'Li20 Zn2 P8 S32'
_cell_volume   1269.86612385
_cell_formula_units_Z   2
loop_
 _symmetry_equiv_pos_site_id
 _symmetry_equiv_pos_as_xyz
  1  'x, y, z'
loop_
 _atom_site_type_symbol
 _atom_site_label
 _atom_site_symmetry_multiplicity
 _atom_site_fract_x
 _atom_site_fract_y
 _atom_site_fract_z
 _atom_site_occupancy
  Li  Li0  1  0.76024600  0.49403100  0.15654000  1
  Li  Li1  1  0.75744900  0.00343600  0.15808200  1
  Li  Li2  1  0.76019300  0.49943700  0.65811300  1
  Li  Li3  1  0.74753600  0.99753200  0.64857500  1
  Li  Li4  1  0.75682400  0.24183200  0.34098100  1
  Li  Li5  1  0.73989000  0.75413700  0.34272600  1
  Li  Li6  1  0.72828300  0.74938400  0.84003700  1
  Li  Li7  1  0.27522500  0.23752700  0.34004100  1
  Li  Li8  1  0.24709700  0.25018800  0.84877000  1
  Li  Li9  1  0.24297800  0.75329100  0.84255300  1
  Li  Li10  1  0.24461800  0.49057700  0.15713100  1
  Li  Li11  1  0.23690200  0.00127900  0.15645700  1
  Li  Li12  1  0.24585200  0.50292000  0.65888600  1
  Li  Li13  1  0.24994000  0.00076100  0.64899600  1
  Li  Li14  1  0.98690800  0.74132900  0.07013100  1
  Li  Li15  1  0.01422100  0.24220700  0.57218400  1
  Li  Li16  1  0.99518600  0.74742000  0.57537100  1
  Li  Li17  1  0.50612900  0.48534800  0.43007000  1
  Li  Li18  1  0.48981100  0.49226400  0.92790800  1
  Li  Li19  1  0.49239500  0.99593900  0.92467100  1
  Zn  Zn20  1  0.74934700  0.24822000  0.84831800  1
  Zn  Zn21  1  0.25668700  0.75383500  0.34391200  1
  P  P22  1  0.00903000  0.49644900  0.40951300  1
  P  P23  1  0.00179400  0.99408700  0.40724300  1
  P  P24  1  0.99945700  0.49857800  0.91349700  1
  P  P25  1  0.98978000  0.99904100  0.90688800  1
  P  P26  1  0.50906100  0.24925800  0.09560400  1
  P  P27  1  0.49771300  0.75104000  0.09291400  1
  P  P28  1  0.50338200  0.25395800  0.59493100  1
  P  P29  1  0.49214800  0.75414600  0.58855500  1
  S  S30  1  0.00152900  0.44188800  0.05849300  1
  S  S31  1  0.99414800  0.93966200  0.05505500  1
  S  S32  1  0.00591800  0.44641200  0.56033300  1
  S  S33  1  0.00098400  0.94401100  0.55891500  1
  S  S34  1  0.01561900  0.16120700  0.40141200  1
  S  S35  1  0.00401800  0.66785100  0.40137300  1
  S  S36  1  0.99333200  0.16693800  0.91369300  1
  S  S37  1  0.98627500  0.66516400  0.89804900  1
  S  S38  1  0.79277700  0.44435000  0.33877400  1
  S  S39  1  0.78779300  0.94559200  0.33660700  1
  S  S40  1  0.77944600  0.44133500  0.83890900  1
  S  S41  1  0.77494200  0.94581200  0.83300300  1
  S  S42  1  0.72852100  0.19860400  0.15835800  1
  S  S43  1  0.71063900  0.69222600  0.16418600  1
  S  S44  1  0.72348000  0.19718100  0.67070600  1
  S  S45  1  0.70848200  0.69408900  0.65789900  1
  S  S46  1  0.50467400  0.41708200  0.09798600  1
  S  S47  1  0.49681000  0.91672300  0.09800900  1
  S  S48  1  0.50323100  0.42063600  0.60561200  1
  S  S49  1  0.49660000  0.91636100  0.58011300  1
  S  S50  1  0.51653800  0.19587800  0.45041300  1
  S  S51  1  0.49303900  0.68843700  0.43768600  1
  S  S52  1  0.50355400  0.19826400  0.93869100  1
  S  S53  1  0.48499600  0.69421700  0.94447100  1
  S  S54  1  0.28886000  0.19593000  0.15631200  1
  S  S55  1  0.27952700  0.69312000  0.16778300  1
  S  S56  1  0.29056100  0.19662400  0.66836900  1
  S  S57  1  0.27860300  0.69748500  0.66199800  1
  S  S58  1  0.22355900  0.44103400  0.33903700  1
  S  S59  1  0.22699600  0.94253700  0.33913500  1
  S  S60  1  0.21116000  0.44540400  0.83615800  1
  S  S61  1  0.20729400  0.94896900  0.83286500  1
