# generated using pymatgen
data_Li9Mn2Co5O16
_symmetry_space_group_name_H-M   'P 1'
_cell_length_a   2.95823700
_cell_length_b   9.85459009
_cell_length_c   10.10175491
_cell_angle_alpha   78.87520916
_cell_angle_beta   87.13327063
_cell_angle_gamma   86.95285392
_symmetry_Int_Tables_number   1
_chemical_formula_structural   Li9Mn2Co5O16
_chemical_formula_sum   'Li9 Mn2 Co5 O16'
_cell_volume   288.30869264
_cell_formula_units_Z   1
loop_
 _symmetry_equiv_pos_site_id
 _symmetry_equiv_pos_as_xyz
  1  'x, y, z'
loop_
 _atom_site_type_symbol
 _atom_site_label
 _atom_site_symmetry_multiplicity
 _atom_site_fract_x
 _atom_site_fract_y
 _atom_site_fract_z
 _atom_site_occupancy
  Li  Li0  1  0.00265000  0.25015400  0.12639900  1
  Li  Li1  1  0.50200600  0.74656400  0.12754700  1
  Li  Li2  1  0.50667500  0.25189500  0.37183500  1
  Li  Li3  1  0.99808800  0.74082400  0.38022500  1
  Li  Li4  1  0.98983300  0.25262500  0.61896300  1
  Li  Li5  1  0.48721000  0.74417100  0.61841300  1
  Li  Li6  1  0.50396500  0.25284300  0.87674000  1
  Li  Li7  1  0.00473400  0.75431900  0.87680600  1
  Li  Li8  1  0.51275800  0.50915300  0.49943200  1
  Mn  Mn9  1  0.99804500  0.99792600  0.00250600  1
  Mn  Mn10  1  0.99557900  0.50104500  0.74435700  1
  Co  Co11  1  0.48988300  0.49696000  0.00239100  1
  Co  Co12  1  0.50423900  0.00054900  0.24975700  1
  Co  Co13  1  0.00438700  0.49838200  0.25959600  1
  Co  Co14  1  0.99864000  0.00326800  0.49683300  1
  Co  Co15  1  0.49843700  0.99860700  0.74969400  1
  O  O16  1  0.53051200  0.11642500  0.06970700  1
  O  O17  1  0.02330800  0.60683500  0.07216900  1
  O  O18  1  0.03526800  0.11496900  0.31100900  1
  O  O19  1  0.53038600  0.61493700  0.30544400  1
  O  O20  1  0.51096400  0.11998200  0.56056000  1
  O  O21  1  0.00556000  0.61919100  0.57886000  1
  O  O22  1  0.01674000  0.11507300  0.81537800  1
  O  O23  1  0.47043200  0.60437800  0.81582200  1
  O  O24  1  0.47878100  0.38908600  0.18143800  1
  O  O25  1  0.97067300  0.88499800  0.18603000  1
  O  O26  1  0.99797400  0.38445500  0.41518900  1
  O  O27  1  0.49381100  0.88876500  0.43192900  1
  O  O28  1  0.52161700  0.39088300  0.69537800  1
  O  O29  1  0.98563500  0.88628600  0.68845600  1
  O  O30  1  0.96646600  0.38713600  0.93340700  1
  O  O31  1  0.46474400  0.87731600  0.93772900  1
