# generated using pymatgen
data_Li4MnCo2O7
_symmetry_space_group_name_H-M   'P 1'
_cell_length_a   3.02070100
_cell_length_b   9.69370379
_cell_length_c   9.79053030
_cell_angle_alpha   116.40551284
_cell_angle_beta   95.15878451
_cell_angle_gamma   95.67835370
_symmetry_Int_Tables_number   1
_chemical_formula_structural   Li4MnCo2O7
_chemical_formula_sum   'Li8 Mn2 Co4 O14'
_cell_volume   252.61333242
_cell_formula_units_Z   2
loop_
 _symmetry_equiv_pos_site_id
 _symmetry_equiv_pos_as_xyz
  1  'x, y, z'
loop_
 _atom_site_type_symbol
 _atom_site_label
 _atom_site_symmetry_multiplicity
 _atom_site_fract_x
 _atom_site_fract_y
 _atom_site_fract_z
 _atom_site_occupancy
  Li  Li0  1  0.63733100  0.77659400  0.07067500  1
  Li  Li1  1  0.93668800  0.36115400  0.21666500  1
  Li  Li2  1  0.21487400  0.92706600  0.35725400  1
  Li  Li3  1  0.50000000  0.50000000  0.50000000  1
  Li  Li4  1  0.78512600  0.07293400  0.64274600  1
  Li  Li5  1  0.06331200  0.63884600  0.78333500  1
  Li  Li6  1  0.36266900  0.22340600  0.92932500  1
  Li  Li7  1  0.00000000  0.50000000  0.00000000  1
  Mn  Mn8  1  0.71576500  0.92676900  0.85329400  1
  Mn  Mn9  1  0.28423500  0.07323100  0.14670600  1
  Co  Co10  1  0.57021200  0.63883600  0.27478000  1
  Co  Co11  1  0.85960300  0.21733000  0.43386100  1
  Co  Co12  1  0.14039700  0.78267000  0.56613900  1
  Co  Co13  1  0.42978800  0.36116400  0.72522000  1
  O  O14  1  0.15207400  0.86546500  0.96826900  1
  O  O15  1  0.47099300  0.44802200  0.12757700  1
  O  O16  1  0.73377900  0.01548100  0.26157800  1
  O  O17  1  0.02753700  0.58570700  0.39501800  1
  O  O18  1  0.30148900  0.16283700  0.54486000  1
  O  O19  1  0.57688000  0.72266000  0.67561900  1
  O  O20  1  0.86910000  0.29059800  0.81313200  1
  O  O21  1  0.13090000  0.70940200  0.18686800  1
  O  O22  1  0.42312000  0.27734000  0.32438100  1
  O  O23  1  0.69851100  0.83716300  0.45514000  1
  O  O24  1  0.97246300  0.41429300  0.60498200  1
  O  O25  1  0.26622100  0.98451900  0.73842200  1
  O  O26  1  0.52900700  0.55197800  0.87242300  1
  O  O27  1  0.84792600  0.13453500  0.03173100  1
