# generated using pymatgen
data_Li9Mn2Co5O16
_symmetry_space_group_name_H-M   'P 1'
_cell_length_a   6.45487129
_cell_length_b   6.45392810
_cell_length_c   7.85316950
_cell_angle_alpha   87.72890977
_cell_angle_beta   113.94158723
_cell_angle_gamma   108.25910717
_symmetry_Int_Tables_number   1
_chemical_formula_structural   Li9Mn2Co5O16
_chemical_formula_sum   'Li9 Mn2 Co5 O16'
_cell_volume   282.50612828
_cell_formula_units_Z   1
loop_
 _symmetry_equiv_pos_site_id
 _symmetry_equiv_pos_as_xyz
  1  'x, y, z'
loop_
 _atom_site_type_symbol
 _atom_site_label
 _atom_site_symmetry_multiplicity
 _atom_site_fract_x
 _atom_site_fract_y
 _atom_site_fract_z
 _atom_site_occupancy
  Li  Li0  1  0.87761946  0.06263640  0.31628949  1
  Li  Li1  1  0.87630795  0.56095632  0.81065235  1
  Li  Li2  1  0.13035420  0.93871405  0.68438896  1
  Li  Li3  1  0.13252177  0.44317365  0.19482003  1
  Li  Li4  1  0.37690552  0.81499580  0.07024354  1
  Li  Li5  1  0.37293406  0.30824460  0.55887788  1
  Li  Li6  1  0.61201980  0.68811066  0.43277208  1
  Li  Li7  1  0.62236500  0.18549336  0.93660110  1
  Li  Li8  1  0.25382192  0.87236292  0.37584490  1
  Mn  Mn9  1  0.00418937  0.00412621  0.00275179  1
  Mn  Mn10  1  0.75461870  0.62628731  0.13253734  1
  Co  Co11  1  0.00131694  0.49768823  0.49881050  1
  Co  Co12  1  0.24858360  0.37739629  0.87548239  1
  Co  Co13  1  0.49392428  0.75077212  0.74204806  1
  Co  Co14  1  0.49962718  0.24508884  0.25158968  1
  Co  Co15  1  0.74546103  0.12367750  0.61929841  1
  O  O16  1  0.71052916  0.90111991  0.04038239  1
  O  O17  1  0.70538941  0.39881003  0.53437778  1
  O  O18  1  0.92332736  0.75163949  0.38793553  1
  O  O19  1  0.95429932  0.27413948  0.90795807  1
  O  O20  1  0.20691717  0.64926263  0.78630593  1
  O  O21  1  0.18545423  0.14633569  0.25310345  1
  O  O22  1  0.45369741  0.51993784  0.15872660  1
  O  O23  1  0.46035567  0.02728913  0.66513779  1
  O  O24  1  0.04857066  0.22808380  0.59529531  1
  O  O25  1  0.03796962  0.72428210  0.08254492  1
  O  O26  1  0.28899390  0.09876290  0.95785532  1
  O  O27  1  0.30029742  0.58703900  0.47976640  1
  O  O28  1  0.56075816  0.98843272  0.33971592  1
  O  O29  1  0.55888867  0.49083362  0.86361571  1
  O  O30  1  0.80687511  0.86215146  0.73272822  1
  O  O31  1  0.79510593  0.35216195  0.21154415  1
