# generated using pymatgen
data_Li7Mn4CoO12
_symmetry_space_group_name_H-M   'P 1'
_cell_length_a   5.20689705
_cell_length_b   14.87821793
_cell_length_c   5.73851701
_cell_angle_alpha   78.88549330
_cell_angle_beta   90.00636146
_cell_angle_gamma   87.25578568
_symmetry_Int_Tables_number   1
_chemical_formula_structural   Li7Mn4CoO12
_chemical_formula_sum   'Li14 Mn8 Co2 O24'
_cell_volume   435.70094289
_cell_formula_units_Z   2
loop_
 _symmetry_equiv_pos_site_id
 _symmetry_equiv_pos_as_xyz
  1  'x, y, z'
loop_
 _atom_site_type_symbol
 _atom_site_label
 _atom_site_symmetry_multiplicity
 _atom_site_fract_x
 _atom_site_fract_y
 _atom_site_fract_z
 _atom_site_occupancy
  Li  Li0  1  0.66692700  0.16667400  0.41661000  1
  Li  Li1  1  0.66627900  0.16661700  0.91662800  1
  Li  Li2  1  0.16678100  0.66673100  0.91748600  1
  Li  Li3  1  0.16639300  0.66656600  0.41577600  1
  Li  Li4  1  0.16671300  0.16667200  0.16669000  1
  Li  Li5  1  0.16671200  0.16667300  0.66668400  1
  Li  Li6  1  0.49611300  0.00789000  0.24591900  1
  Li  Li7  1  0.49611800  0.00789700  0.74632400  1
  Li  Li8  1  0.83733000  0.32543600  0.08746300  1
  Li  Li9  1  0.83732000  0.32543100  0.58704700  1
  Li  Li10  1  0.99329000  0.49906100  0.25068000  1
  Li  Li11  1  0.99384600  0.49878500  0.75073300  1
  Li  Li12  1  0.34003300  0.83429400  0.08266000  1
  Li  Li13  1  0.33950200  0.83456900  0.58260900  1
  Mn  Mn14  1  0.02363200  0.00764400  0.49614100  1
  Mn  Mn15  1  0.02343200  0.00758900  0.99618100  1
  Mn  Mn16  1  0.31001100  0.32576000  0.33717200  1
  Mn  Mn17  1  0.30981600  0.32570900  0.83720700  1
  Mn  Mn18  1  0.48815400  0.49861600  0.00109100  1
  Mn  Mn19  1  0.48819300  0.49859100  0.50068600  1
  Mn  Mn20  1  0.84511800  0.83473100  0.83261700  1
  Mn  Mn21  1  0.84515700  0.83470500  0.33221500  1
  Co  Co22  1  0.66655500  0.66668200  0.16666000  1
  Co  Co23  1  0.66654700  0.66668100  0.66666200  1
  O  O24  1  0.16642200  0.92792400  0.78601300  1
  O  O25  1  0.16641500  0.92792900  0.28626500  1
  O  O26  1  0.16690900  0.40539800  0.04709500  1
  O  O27  1  0.16689500  0.40540200  0.54735000  1
  O  O28  1  0.30450000  0.07626500  0.46187300  1
  O  O29  1  0.30444100  0.07634500  0.96182600  1
  O  O30  1  0.02910600  0.25696200  0.37156400  1
  O  O31  1  0.02903900  0.25704200  0.87152000  1
  O  O32  1  0.48472700  0.25875700  0.12072900  1
  O  O33  1  0.48472800  0.25876100  0.62083600  1
  O  O34  1  0.84877300  0.07461100  0.21261600  1
  O  O35  1  0.84876900  0.07460600  0.71251600  1
  O  O36  1  0.62355600  0.41865800  0.29084700  1
  O  O37  1  0.62360700  0.41918500  0.79061100  1
  O  O38  1  0.70984900  0.91467700  0.04246300  1
  O  O39  1  0.70982700  0.91415700  0.54268200  1
  O  O40  1  0.99529900  0.75772800  0.12098000  1
  O  O41  1  0.99509600  0.75737400  0.62120200  1
  O  O42  1  0.33785800  0.57556900  0.21232100  1
  O  O43  1  0.33806400  0.57592800  0.71211200  1
  O  O44  1  0.81578800  0.59310500  0.95429100  1
  O  O45  1  0.81581200  0.59307900  0.45279800  1
  O  O46  1  0.51726000  0.74027900  0.88051600  1
  O  O47  1  0.51728500  0.74025500  0.37903500  1
