# generated using pymatgen
data_Li3V4O8
_symmetry_space_group_name_H-M   'P 1'
_cell_length_a   5.92300881
_cell_length_b   10.20372179
_cell_length_c   6.13816127
_cell_angle_alpha   73.40118612
_cell_angle_beta   119.11146210
_cell_angle_gamma   90.36893127
_symmetry_Int_Tables_number   1
_chemical_formula_structural   Li3V4O8
_chemical_formula_sum   'Li6 V8 O16'
_cell_volume   306.68501441
_cell_formula_units_Z   2
loop_
 _symmetry_equiv_pos_site_id
 _symmetry_equiv_pos_as_xyz
  1  'x, y, z'
loop_
 _atom_site_type_symbol
 _atom_site_label
 _atom_site_symmetry_multiplicity
 _atom_site_fract_x
 _atom_site_fract_y
 _atom_site_fract_z
 _atom_site_occupancy
  Li  Li0  1  0.50151100  0.99929500  0.50265600  1
  Li  Li1  1  0.00613800  0.49549500  0.50384800  1
  Li  Li2  1  0.28516600  0.07169900  0.06997600  1
  Li  Li3  1  0.78999700  0.56965700  0.07147000  1
  Li  Li4  1  0.21750400  0.42558300  0.93373500  1
  Li  Li5  1  0.71316600  0.93040900  0.93440100  1
  V  V6  1  0.24757500  0.75129800  0.49744400  1
  V  V7  1  0.74686700  0.74715200  0.49976000  1
  V  V8  1  0.50583900  0.49937800  0.50081400  1
  V  V9  1  0.74636700  0.25129800  0.99573300  1
  V  V10  1  0.24908700  0.75088000  0.99804600  1
  V  V11  1  0.74637100  0.24948400  0.49721900  1
  V  V12  1  0.25100300  0.24992200  0.49880500  1
  V  V13  1  0.99688800  0.00581500  0.49981600  1
  O  O14  1  0.10104700  0.12263800  0.70539100  1
  O  O15  1  0.61460800  0.63917600  0.70347500  1
  O  O16  1  0.39774000  0.36996100  0.29545300  1
  O  O17  1  0.88763900  0.87100600  0.30520300  1
  O  O18  1  0.64662300  0.12385600  0.26108700  1
  O  O19  1  0.15049300  0.62896300  0.26545500  1
  O  O20  1  0.88588900  0.36250900  0.27146800  1
  O  O21  1  0.38731500  0.86344500  0.26537400  1
  O  O22  1  0.10983500  0.12263800  0.26128400  1
  O  O23  1  0.62539600  0.63434900  0.26042100  1
  O  O24  1  0.61460800  0.13500800  0.72940100  1
  O  O25  1  0.10983500  0.63741900  0.73059300  1
  O  O26  1  0.38598900  0.36994100  0.74308600  1
  O  O27  1  0.87926300  0.87370400  0.72982200  1
  O  O28  1  0.85500200  0.37245200  0.73940800  1
  O  O29  1  0.34524100  0.87557000  0.72935600  1
