# generated using pymatgen
data_Li3Co2Si3O10
_symmetry_space_group_name_H-M   'P 1'
_cell_length_a   5.39702813
_cell_length_b   5.39820040
_cell_length_c   16.90160117
_cell_angle_alpha   96.74412758
_cell_angle_beta   83.27100480
_cell_angle_gamma   118.85305414
_symmetry_Int_Tables_number   1
_chemical_formula_structural   Li3Co2Si3O10
_chemical_formula_sum   'Li6 Co4 Si6 O20'
_cell_volume   427.26523584
_cell_formula_units_Z   2
loop_
 _symmetry_equiv_pos_site_id
 _symmetry_equiv_pos_as_xyz
  1  'x, y, z'
loop_
 _atom_site_type_symbol
 _atom_site_label
 _atom_site_symmetry_multiplicity
 _atom_site_fract_x
 _atom_site_fract_y
 _atom_site_fract_z
 _atom_site_occupancy
  Li  Li0  1  0.42794850  0.81611717  0.72108363  1
  Li  Li1  1  0.34221926  0.85228645  0.04889291  1
  Li  Li2  1  0.18365029  0.57188722  0.22116376  1
  Li  Li3  1  0.14774561  0.65811887  0.54876228  1
  Li  Li4  1  0.83383064  0.43905296  0.78233563  1
  Li  Li5  1  0.56127483  0.16587053  0.28246592  1
  Co  Co6  1  0.80715830  0.01868867  0.58386611  1
  Co  Co7  1  0.99486111  0.81256794  0.92242004  1
  Co  Co8  1  0.98162361  0.19302247  0.08365792  1
  Co  Co9  1  0.18720875  0.00531029  0.42240682  1
  Si  Si10  1  0.89148117  0.89244541  0.24963447  1
  Si  Si11  1  0.52821429  0.67991385  0.40017703  1
  Si  Si12  1  0.31993573  0.47144883  0.90021146  1
  Si  Si13  1  0.65654286  0.53032277  0.09701526  1
  Si  Si14  1  0.46989363  0.34350074  0.59696128  1
  Si  Si15  1  0.10779352  0.10854657  0.74965187  1
  O  O16  1  0.14930034  0.90408431  0.29332692  1
  O  O17  1  0.09631181  0.85070829  0.79327700  1
  O  O18  1  0.24354611  0.69624007  0.43627748  1
  O  O19  1  0.30364508  0.75616407  0.93636963  1
  O  O20  1  0.60077709  0.81002803  0.31085674  1
  O  O21  1  0.79813362  0.88496088  0.45319555  1
  O  O22  1  0.90277739  0.79130015  0.04417957  1
  O  O23  1  0.45017563  0.64028328  0.60547138  1
  O  O24  1  0.35956634  0.54978694  0.10568168  1
  O  O25  1  0.18913708  0.39861566  0.81103326  1
  O  O26  1  0.79501610  0.60851806  0.18648707  1
  O  O27  1  0.64867796  0.52798639  0.88800467  1
  O  O28  1  0.47219611  0.35128873  0.38822510  1
  O  O29  1  0.11545657  0.20166323  0.95325920  1
  O  O30  1  0.20848172  0.09654098  0.54429873  1
  O  O31  1  0.39206709  0.20610481  0.68659952  1
  O  O32  1  0.63236567  0.22350410  0.06883422  1
  O  O33  1  0.77659301  0.36750080  0.56871974  1
  O  O34  1  0.93381364  0.16992869  0.20993194  1
  O  O35  1  0.83009957  0.06606673  0.70995621  1
