# generated using pymatgen
data_Li3Co3SbO8
_symmetry_space_group_name_H-M   'P 1'
_cell_length_a   6.03296370
_cell_length_b   6.03946446
_cell_length_c   10.51895957
_cell_angle_alpha   106.35274589
_cell_angle_beta   73.37816703
_cell_angle_gamma   119.96502248
_symmetry_Int_Tables_number   1
_chemical_formula_structural   Li3Co3SbO8
_chemical_formula_sum   'Li6 Co6 Sb2 O16'
_cell_volume   313.69090946
_cell_formula_units_Z   2
loop_
 _symmetry_equiv_pos_site_id
 _symmetry_equiv_pos_as_xyz
  1  'x, y, z'
loop_
 _atom_site_type_symbol
 _atom_site_label
 _atom_site_symmetry_multiplicity
 _atom_site_fract_x
 _atom_site_fract_y
 _atom_site_fract_z
 _atom_site_occupancy
  Li  Li0  1  0.74654600  0.75073600  0.75215900  1
  Li  Li1  1  0.25345000  0.24926500  0.24784200  1
  Li  Li2  1  0.25113800  0.24443600  0.75136800  1
  Li  Li3  1  0.74886000  0.75556100  0.24863200  1
  Li  Li4  1  0.74346600  0.24201300  0.25546900  1
  Li  Li5  1  0.25653700  0.75798800  0.74452800  1
  Co  Co6  1  0.99999800  0.49999800  0.99999900  1
  Co  Co7  1  0.50000700  0.00000000  0.99999900  1
  Co  Co8  1  0.50000300  0.50000500  0.00000000  1
  Co  Co9  1  0.49999900  0.99999800  0.50000100  1
  Co  Co10  1  0.99999800  0.50000100  0.50000100  1
  Co  Co11  1  0.99999200  0.99999600  0.50000200  1
  Sb  Sb12  1  0.50000800  0.50001000  0.50000600  1
  Sb  Sb13  1  0.99999900  0.99999900  0.99999500  1
  O  O14  1  0.39185300  0.64177400  0.89924800  1
  O  O15  1  0.89084000  0.14645100  0.39326700  1
  O  O16  1  0.10915700  0.85354900  0.60673400  1
  O  O17  1  0.60814500  0.35822800  0.10075300  1
  O  O18  1  0.85729300  0.62160200  0.38585600  1
  O  O19  1  0.34652500  0.09401600  0.87992800  1
  O  O20  1  0.65348400  0.90598700  0.12006800  1
  O  O21  1  0.14270300  0.37839800  0.61414500  1
  O  O22  1  0.37255700  0.14576800  0.38810200  1
  O  O23  1  0.84993900  0.63543600  0.89572000  1
  O  O24  1  0.15006000  0.36456800  0.10428100  1
  O  O25  1  0.62743700  0.85422100  0.61189500  1
  O  O26  1  0.87820500  0.11750800  0.88640000  1
  O  O27  1  0.37728600  0.62068300  0.38819200  1
  O  O28  1  0.62271000  0.37931700  0.61180900  1
  O  O29  1  0.12179800  0.88249100  0.11360400  1
