# generated using pymatgen
data_Li16Ta2N8O
_symmetry_space_group_name_H-M   'P 1'
_cell_length_a   9.19911595
_cell_length_b   9.19911595
_cell_length_c   9.19911688
_cell_angle_alpha   38.06644369
_cell_angle_beta   38.06644369
_cell_angle_gamma   38.06644333
_symmetry_Int_Tables_number   1
_chemical_formula_structural   Li16Ta2N8O
_chemical_formula_sum   'Li16 Ta2 N8 O1'
_cell_volume   265.68539928
_cell_formula_units_Z   1
loop_
 _symmetry_equiv_pos_site_id
 _symmetry_equiv_pos_as_xyz
  1  'x, y, z'
loop_
 _atom_site_type_symbol
 _atom_site_label
 _atom_site_symmetry_multiplicity
 _atom_site_fract_x
 _atom_site_fract_y
 _atom_site_fract_z
 _atom_site_occupancy
  Li  Li0  1  0.41744500  0.41744500  0.41744500  1
  Li  Li1  1  0.58255500  0.58255500  0.58255500  1
  Li  Li2  1  0.07767200  0.07767200  0.07767200  1
  Li  Li3  1  0.92232800  0.92232800  0.92232800  1
  Li  Li4  1  0.68246100  0.05715800  0.33148100  1
  Li  Li5  1  0.05715800  0.33148100  0.68246100  1
  Li  Li6  1  0.33148100  0.68246100  0.05715800  1
  Li  Li7  1  0.31753900  0.94284200  0.66851900  1
  Li  Li8  1  0.94284200  0.66851900  0.31753900  1
  Li  Li9  1  0.66851900  0.31753900  0.94284200  1
  Li  Li10  1  0.17404800  0.83262100  0.41890900  1
  Li  Li11  1  0.58109100  0.82595200  0.16737900  1
  Li  Li12  1  0.16737900  0.58109100  0.82595200  1
  Li  Li13  1  0.82595200  0.16737900  0.58109100  1
  Li  Li14  1  0.41890900  0.17404800  0.83262100  1
  Li  Li15  1  0.83262100  0.41890900  0.17404800  1
  Ta  Ta16  1  0.24931200  0.24931200  0.24931200  1
  Ta  Ta17  1  0.75068800  0.75068800  0.75068800  1
  N  N18  1  0.22597700  0.91293100  0.53482700  1
  N  N19  1  0.32621500  0.32621500  0.32621500  1
  N  N20  1  0.67378500  0.67378500  0.67378500  1
  N  N21  1  0.91293100  0.53482700  0.22597700  1
  N  N22  1  0.53482700  0.22597700  0.91293100  1
  N  N23  1  0.46517300  0.77402300  0.08706900  1
  N  N24  1  0.08706900  0.46517300  0.77402300  1
  N  N25  1  0.77402300  0.08706900  0.46517300  1
  O  O26  1  0.00000000  0.00000000  0.00000000  1
