# generated using pymatgen
data_Li3FeO3
_symmetry_space_group_name_H-M   'P 1'
_cell_length_a   3.57433300
_cell_length_b   9.08264700
_cell_length_c   9.08467600
_cell_angle_alpha   90.00158320
_cell_angle_beta   90.00016214
_cell_angle_gamma   90.00009225
_symmetry_Int_Tables_number   1
_chemical_formula_structural   Li3FeO3
_chemical_formula_sum   'Li12 Fe4 O12'
_cell_volume   294.92859999
_cell_formula_units_Z   4
loop_
 _symmetry_equiv_pos_site_id
 _symmetry_equiv_pos_as_xyz
  1  'x, y, z'
loop_
 _atom_site_type_symbol
 _atom_site_label
 _atom_site_symmetry_multiplicity
 _atom_site_fract_x
 _atom_site_fract_y
 _atom_site_fract_z
 _atom_site_occupancy
  Li  Li0  1  0.99999900  0.16921300  0.17380100  1
  Li  Li1  1  0.49999900  0.33078000  0.67378500  1
  Li  Li2  1  0.49999800  0.67371600  0.33013100  1
  Li  Li3  1  0.00000100  0.82629200  0.83014900  1
  Li  Li4  1  0.50000000  0.09147300  0.35614000  1
  Li  Li5  1  0.00000000  0.13858800  0.59359400  1
  Li  Li6  1  0.49999900  0.36134000  0.09362400  1
  Li  Li7  1  0.00000100  0.40853900  0.85615600  1
  Li  Li8  1  0.99999800  0.60060600  0.14053200  1
  Li  Li9  1  0.49999900  0.64551700  0.90175900  1
  Li  Li10  1  0.99999800  0.85451700  0.40176700  1
  Li  Li11  1  0.50000100  0.89937300  0.64057500  1
  Fe  Fe12  1  0.00000300  0.61648800  0.61601700  1
  Fe  Fe13  1  0.49999600  0.88353400  0.11602100  1
  Fe  Fe14  1  0.50000700  0.11569800  0.88378400  1
  Fe  Fe15  1  0.99999800  0.38430500  0.38376800  1
  O  O16  1  0.49999900  0.09702800  0.10458100  1
  O  O17  1  0.00000000  0.40298400  0.60456300  1
  O  O18  1  0.00000000  0.60425300  0.40303900  1
  O  O19  1  0.50000100  0.89575400  0.90305100  1
  O  O20  1  0.50000200  0.10957100  0.67544400  1
  O  O21  1  0.00000100  0.17642000  0.38879200  1
  O  O22  1  0.50000300  0.32357300  0.88879600  1
  O  O23  1  0.99999700  0.39041100  0.17545400  1
  O  O24  1  0.99999900  0.61429000  0.81942400  1
  O  O25  1  0.49999700  0.67973100  0.11290400  1
  O  O26  1  0.00000200  0.82028400  0.61291000  1
  O  O27  1  0.50000300  0.88572200  0.31943800  1
