# generated using pymatgen
data_LiZn(BH4)3
_symmetry_space_group_name_H-M   'P 1'
_cell_length_a   14.98312000
_cell_length_b   8.84007900
_cell_length_c   10.78584298
_cell_angle_alpha   69.07925536
_cell_angle_beta   90.00000000
_cell_angle_gamma   90.00000000
_symmetry_Int_Tables_number   1
_chemical_formula_structural   LiZn(BH4)3
_chemical_formula_sum   'Li8 Zn8 B24 H96'
_cell_volume   1334.42559464
_cell_formula_units_Z   8
loop_
 _symmetry_equiv_pos_site_id
 _symmetry_equiv_pos_as_xyz
  1  'x, y, z'
loop_
 _atom_site_type_symbol
 _atom_site_label
 _atom_site_symmetry_multiplicity
 _atom_site_fract_x
 _atom_site_fract_y
 _atom_site_fract_z
 _atom_site_occupancy
  Li  Li0  1  0.62835300  0.24947200  0.08402500  1
  Li  Li1  1  0.12835300  0.25052800  0.91597500  1
  Li  Li2  1  0.37164700  0.75052800  0.91597500  1
  Li  Li3  1  0.87164700  0.74947200  0.08402500  1
  Li  Li4  1  0.59517100  0.24394700  0.77420600  1
  Li  Li5  1  0.09517100  0.25605300  0.22579400  1
  Li  Li6  1  0.40482900  0.75605300  0.22579400  1
  Li  Li7  1  0.90482900  0.74394700  0.77420600  1
  Zn  Zn8  1  0.61326000  0.74740100  0.77065700  1
  Zn  Zn9  1  0.11326000  0.75259900  0.22934300  1
  Zn  Zn10  1  0.38674000  0.25259900  0.22934300  1
  Zn  Zn11  1  0.88674000  0.24740100  0.77065700  1
  Zn  Zn12  1  0.76785400  0.88875200  0.40998400  1
  Zn  Zn13  1  0.26785400  0.61124800  0.59001600  1
  Zn  Zn14  1  0.23214600  0.11124800  0.59001600  1
  Zn  Zn15  1  0.73214600  0.38875200  0.40998400  1
  B  B16  1  0.89504100  0.85430200  0.51674100  1
  B  B17  1  0.39504100  0.64569800  0.48325900  1
  B  B18  1  0.10495900  0.14569800  0.48325900  1
  B  B19  1  0.60495900  0.35430200  0.51674100  1
  B  B20  1  0.76238300  0.77544200  0.24467600  1
  B  B21  1  0.26238300  0.72455800  0.75532400  1
  B  B22  1  0.23761700  0.22455800  0.75532400  1
  B  B23  1  0.73761700  0.27544200  0.24467600  1
  B  B24  1  0.55861600  0.48916500  0.84648200  1
  B  B25  1  0.05861600  0.01083500  0.15351800  1
  B  B26  1  0.44138400  0.51083500  0.15351800  1
  B  B27  1  0.94138400  0.98916500  0.84648200  1
  B  B28  1  0.49975900  0.92839800  0.84391300  1
  B  B29  1  0.99975900  0.57160200  0.15608700  1
  B  B30  1  0.50024100  0.07160200  0.15608700  1
  B  B31  1  0.00024100  0.42839800  0.84391300  1
  B  B32  1  0.63179200  0.87287000  0.53112100  1
  B  B33  1  0.13179200  0.62713000  0.46887900  1
  B  B34  1  0.36820800  0.12713000  0.46887900  1
  B  B35  1  0.86820800  0.37287000  0.53112100  1
  B  B36  1  0.75821700  0.69117700  0.87178900  1
  B  B37  1  0.25821700  0.80882300  0.12821100  1
  B  B38  1  0.24178300  0.30882300  0.12821100  1
  B  B39  1  0.74178300  0.19117700  0.87178900  1
  H  H40  1  0.96081800  0.79707800  0.48796400  1
  H  H41  1  0.46081800  0.70292200  0.51203600  1
  H  H42  1  0.03918200  0.20292200  0.51203600  1
  H  H43  1  0.53918200  0.29707800  0.48796400  1
  H  H44  1  0.90203400  0.91073000  0.60418000  1
  H  H45  1  0.40203400  0.58927000  0.39582000  1
  H  H46  1  0.09796600  0.08927000  0.39582000  1
  H  H47  1  0.59796600  0.41073000  0.60418000  1
  H  H48  1  0.87648200  0.97702100  0.41613300  1
  H  H49  1  0.37648200  0.52297900  0.58386700  1
  H  H50  1  0.12351800  0.02297900  0.58386700  1
  H  H51  1  0.62351800  0.47702100  0.41613300  1
  H  H52  1  0.83623700  0.74644300  0.54811700  1
  H  H53  1  0.33623700  0.75355700  0.45188300  1
  H  H54  1  0.16376300  0.25355700  0.45188300  1
  H  H55  1  0.66376300  0.24644300  0.54811700  1
  H  H56  1  0.75325500  0.84705800  0.12597000  1
  H  H57  1  0.25325500  0.65294200  0.87403000  1
  H  H58  1  0.24674500  0.15294200  0.87403000  1
  H  H59  1  0.74674500  0.34705800  0.12597000  1
  H  H60  1  0.83896300  0.78718400  0.27969100  1
  H  H61  1  0.33896300  0.71281600  0.72030900  1
  H  H62  1  0.16103700  0.21281600  0.72030900  1
  H  H63  1  0.66103700  0.28718400  0.27969100  1
  H  H64  1  0.70197100  0.83692600  0.29308500  1
  H  H65  1  0.20197100  0.66307400  0.70691500  1
  H  H66  1  0.29802900  0.16307400  0.70691500  1
  H  H67  1  0.79802900  0.33692600  0.29308500  1
  H  H68  1  0.75759400  0.13161200  0.27649200  1
  H  H69  1  0.25759400  0.36838800  0.72350800  1
  H  H70  1  0.24240600  0.86838800  0.72350800  1
  H  H71  1  0.74240600  0.63161200  0.27649200  1
  H  H72  1  0.51290600  0.61562600  0.81557300  1
  H  H73  1  0.01290600  0.88437400  0.18442700  1
  H  H74  1  0.48709400  0.38437400  0.18442700  1
  H  H75  1  0.98709400  0.11562600  0.81557300  1
  H  H76  1  0.62971600  0.50847300  0.78634900  1
  H  H77  1  0.12971600  0.99152700  0.21365100  1
  H  H78  1  0.37028400  0.49152700  0.21365100  1
  H  H79  1  0.87028400  0.00847300  0.78634900  1
  H  H80  1  0.57033900  0.44345100  0.96564200  1
  H  H81  1  0.07033900  0.05654900  0.03435800  1
  H  H82  1  0.42966100  0.55654900  0.03435800  1
  H  H83  1  0.92966100  0.94345100  0.96564200  1
  H  H84  1  0.50981200  0.40180100  0.81116600  1
  H  H85  1  0.00981200  0.09819900  0.18883400  1
  H  H86  1  0.49018800  0.59819900  0.18883400  1
  H  H87  1  0.99018800  0.90180100  0.81116600  1
  H  H88  1  0.45782700  0.87910500  0.76868500  1
  H  H89  1  0.95782700  0.62089500  0.23131500  1
  H  H90  1  0.54217300  0.12089500  0.23131500  1
  H  H91  1  0.04217300  0.37910500  0.76868500  1
  H  H92  1  0.50499800  0.07582900  0.79197200  1
  H  H93  1  0.00499800  0.42417100  0.20802800  1
  H  H94  1  0.49500200  0.92417100  0.20802800  1
  H  H95  1  0.99500200  0.57582900  0.79197200  1
  H  H96  1  0.46557900  0.88969300  0.95396400  1
  H  H97  1  0.96557900  0.61030700  0.04603600  1
  H  H98  1  0.53442100  0.11030700  0.04603600  1
  H  H99  1  0.03442100  0.38969300  0.95396400  1
  H  H100  1  0.57718800  0.87001300  0.86762800  1
  H  H101  1  0.07718800  0.62998700  0.13237200  1
  H  H102  1  0.42281200  0.12998700  0.13237200  1
  H  H103  1  0.92281200  0.37001300  0.86762800  1
  H  H104  1  0.57973400  0.89986000  0.44202000  1
  H  H105  1  0.07973400  0.60014000  0.55798000  1
  H  H106  1  0.42026600  0.10014000  0.55798000  1
  H  H107  1  0.92026600  0.39986000  0.44202000  1
  H  H108  1  0.69689800  0.97023100  0.50360600  1
  H  H109  1  0.19689800  0.52976900  0.49639400  1
  H  H110  1  0.30310200  0.02976900  0.49639400  1
  H  H111  1  0.80310200  0.47023100  0.50360600  1
  H  H112  1  0.59602400  0.92251100  0.61397600  1
  H  H113  1  0.09602400  0.57748900  0.38602400  1
  H  H114  1  0.40397600  0.07748900  0.38602400  1
  H  H115  1  0.90397600  0.42251100  0.61397600  1
  H  H116  1  0.65605500  0.73073600  0.57427500  1
  H  H117  1  0.15605500  0.76926400  0.42572500  1
  H  H118  1  0.34394500  0.26926400  0.42572500  1
  H  H119  1  0.84394500  0.23073600  0.57427500  1
  H  H120  1  0.70343200  0.62179200  0.95542700  1
  H  H121  1  0.20343200  0.87820800  0.04457300  1
  H  H122  1  0.29656800  0.37820800  0.04457300  1
  H  H123  1  0.79656800  0.12179200  0.95542700  1
  H  H124  1  0.72865500  0.80560000  0.77323300  1
  H  H125  1  0.22865500  0.69440000  0.22676700  1
  H  H126  1  0.27134500  0.19440000  0.22676700  1
  H  H127  1  0.77134500  0.30560000  0.77323300  1
  H  H128  1  0.80891900  0.76684600  0.91674500  1
  H  H129  1  0.30891900  0.73315400  0.08325500  1
  H  H130  1  0.19108100  0.23315400  0.08325500  1
  H  H131  1  0.69108100  0.26684600  0.91674500  1
  H  H132  1  0.79637000  0.59659500  0.83049300  1
  H  H133  1  0.29637000  0.90340500  0.16950700  1
  H  H134  1  0.20363000  0.40340500  0.16950700  1
  H  H135  1  0.70363000  0.09659500  0.83049300  1
