# generated using pymatgen
data_Li9Mn2Co5O16
_symmetry_space_group_name_H-M   'P 1'
_cell_length_a   5.01537300
_cell_length_b   5.10004197
_cell_length_c   11.72762110
_cell_angle_alpha   90.75937271
_cell_angle_beta   91.04592061
_cell_angle_gamma   108.32859395
_symmetry_Int_Tables_number   1
_chemical_formula_structural   Li9Mn2Co5O16
_chemical_formula_sum   'Li9 Mn2 Co5 O16'
_cell_volume   284.65362093
_cell_formula_units_Z   1
loop_
 _symmetry_equiv_pos_site_id
 _symmetry_equiv_pos_as_xyz
  1  'x, y, z'
loop_
 _atom_site_type_symbol
 _atom_site_label
 _atom_site_symmetry_multiplicity
 _atom_site_fract_x
 _atom_site_fract_y
 _atom_site_fract_z
 _atom_site_occupancy
  Li  Li0  1  0.00120200  0.50172500  0.12867800  1
  Li  Li1  1  0.50344600  0.49895400  0.24690200  1
  Li  Li2  1  0.01540100  0.51005700  0.37062600  1
  Li  Li3  1  0.51569200  0.51189900  0.48946700  1
  Li  Li4  1  0.99253000  0.49567800  0.62076300  1
  Li  Li5  1  0.48761900  0.49199900  0.75369600  1
  Li  Li6  1  0.99624000  0.49630200  0.88207800  1
  Li  Li7  1  0.50136100  0.50207100  0.01023600  1
  Li  Li8  1  0.50849000  0.00545700  0.12054800  1
  Mn  Mn9  1  0.00182900  0.00101500  0.00288000  1
  Mn  Mn10  1  0.98570300  0.98525200  0.75191400  1
  Co  Co11  1  0.00656100  0.01650100  0.24659100  1
  Co  Co12  1  0.50472400  0.01040200  0.36361400  1
  Co  Co13  1  0.00303700  0.00611100  0.49898300  1
  Co  Co14  1  0.48896200  0.98693600  0.62255600  1
  Co  Co15  1  0.49297700  0.99426900  0.87651200  1
  O  O16  1  0.25348200  0.78213500  0.98975300  1
  O  O17  1  0.78709000  0.77252500  0.11573300  1
  O  O18  1  0.26449200  0.77873000  0.25652300  1
  O  O19  1  0.77788600  0.78339400  0.38027100  1
  O  O20  1  0.24744300  0.77462000  0.50662800  1
  O  O21  1  0.74685200  0.75112200  0.63712500  1
  O  O22  1  0.23809800  0.76900300  0.75538500  1
  O  O23  1  0.75402800  0.77834700  0.87442900  1
  O  O24  1  0.76752900  0.24307600  0.25331500  1
  O  O25  1  0.26199800  0.25096300  0.37745900  1
  O  O26  1  0.74526300  0.21586400  0.50280900  1
  O  O27  1  0.21033500  0.21236700  0.63398600  1
  O  O28  1  0.72784600  0.20358800  0.75254500  1
  O  O29  1  0.23265700  0.21081800  0.87298700  1
  O  O30  1  0.74971100  0.21992700  0.98883300  1
  O  O31  1  0.22951700  0.23889100  0.11616900  1
