# generated using pymatgen
data_Li3VFe(P2O7)2
_symmetry_space_group_name_H-M   'P 1'
_cell_length_a   7.21856007
_cell_length_b   8.31649026
_cell_length_c   9.88746692
_cell_angle_alpha   89.70365354
_cell_angle_beta   69.49043894
_cell_angle_gamma   90.32699911
_symmetry_Int_Tables_number   1
_chemical_formula_structural   Li3VFe(P2O7)2
_chemical_formula_sum   'Li6 V2 Fe2 P8 O28'
_cell_volume   555.92527379
_cell_formula_units_Z   2
loop_
 _symmetry_equiv_pos_site_id
 _symmetry_equiv_pos_as_xyz
  1  'x, y, z'
loop_
 _atom_site_type_symbol
 _atom_site_label
 _atom_site_symmetry_multiplicity
 _atom_site_fract_x
 _atom_site_fract_y
 _atom_site_fract_z
 _atom_site_occupancy
  Li  Li0  1  0.07925800  0.85623400  0.25358800  1
  Li  Li1  1  0.58191500  0.85548400  0.75319000  1
  Li  Li2  1  0.31255700  0.16312600  0.59373100  1
  Li  Li3  1  0.81279900  0.16225100  0.09322200  1
  Li  Li4  1  0.91745000  0.35573900  0.74309500  1
  Li  Li5  1  0.41564400  0.35607000  0.24279600  1
  V  V6  1  0.53117900  0.50431700  0.74463900  1
  V  V7  1  0.03189600  0.50493900  0.24238300  1
  Fe  Fe8  1  0.96602600  0.98840800  0.75879200  1
  Fe  Fe9  1  0.46430800  0.98661100  0.26066000  1
  P  P10  1  0.03944000  0.18145700  0.43608900  1
  P  P11  1  0.54093100  0.18057600  0.93530700  1
  P  P12  1  0.34951400  0.78446100  0.56746700  1
  P  P13  1  0.85194800  0.78448900  0.06425900  1
  P  P14  1  0.64862400  0.29381200  0.43918900  1
  P  P15  1  0.14872800  0.29127800  0.93920900  1
  P  P16  1  0.95928200  0.68156000  0.56106000  1
  P  P17  1  0.45985000  0.68174700  0.06100300  1
  O  O18  1  0.02900800  0.32725900  0.09846100  1
  O  O19  1  0.52891200  0.33002100  0.59878400  1
  O  O20  1  0.98268100  0.69142900  0.13196500  1
  O  O21  1  0.48073900  0.69416700  0.63521900  1
  O  O22  1  0.14858400  0.03873500  0.35063500  1
  O  O23  1  0.65166100  0.03731900  0.85130700  1
  O  O24  1  0.12261100  0.34282300  0.36024200  1
  O  O25  1  0.62527900  0.34095300  0.85870700  1
  O  O26  1  0.00942500  0.67536500  0.39688700  1
  O  O27  1  0.51124200  0.67402800  0.89621100  1
  O  O28  1  0.74513700  0.43866900  0.34746400  1
  O  O29  1  0.24378300  0.43595600  0.84638100  1
  O  O30  1  0.81489500  0.16329600  0.43834100  1
  O  O31  1  0.31720900  0.16145700  0.93624600  1
  O  O32  1  0.16539000  0.66070700  0.59029000  1
  O  O33  1  0.66544600  0.66130500  0.08997900  1
  O  O34  1  0.27147000  0.93994400  0.65259700  1
  O  O35  1  0.77730400  0.93900700  0.15100000  1
  O  O36  1  0.03349200  0.18578400  0.59357300  1
  O  O37  1  0.53320700  0.18594200  0.09319200  1
  O  O38  1  0.86721100  0.84098300  0.62392700  1
  O  O39  1  0.36714700  0.84138200  0.12275700  1
  O  O40  1  0.83689100  0.53531700  0.64202200  1
  O  O41  1  0.33675100  0.53559000  0.14101700  1
  O  O42  1  0.00747800  0.20007600  0.88051600  1
  O  O43  1  0.50728500  0.20285100  0.38032400  1
  O  O44  1  0.95360800  0.81320300  0.90435000  1
  O  O45  1  0.45312400  0.81521200  0.40782700  1
