# generated using pymatgen
data_Li5V3P8O29
_symmetry_space_group_name_H-M   'P 1'
_cell_length_a   9.82012477
_cell_length_b   9.82012477
_cell_length_c   13.98298408
_cell_angle_alpha   89.93211716
_cell_angle_beta   89.93211716
_cell_angle_gamma   59.95196487
_symmetry_Int_Tables_number   1
_chemical_formula_structural   Li5V3P8O29
_chemical_formula_sum   'Li10 V6 P16 O58'
_cell_volume   1167.22258825
_cell_formula_units_Z   2
loop_
 _symmetry_equiv_pos_site_id
 _symmetry_equiv_pos_as_xyz
  1  'x, y, z'
loop_
 _atom_site_type_symbol
 _atom_site_label
 _atom_site_symmetry_multiplicity
 _atom_site_fract_x
 _atom_site_fract_y
 _atom_site_fract_z
 _atom_site_occupancy
  Li  Li0  1  0.68214800  0.22838400  0.68738000  1
  Li  Li1  1  0.22768200  0.68040100  0.19277100  1
  Li  Li2  1  0.09477100  0.67880900  0.68627200  1
  Li  Li3  1  0.90314300  0.77606300  0.31205700  1
  Li  Li4  1  0.22393700  0.09685700  0.68794300  1
  Li  Li5  1  0.77047300  0.90929900  0.80681900  1
  Li  Li6  1  0.09070100  0.22952700  0.19318100  1
  Li  Li7  1  0.77161600  0.31785200  0.31262000  1
  Li  Li8  1  0.32119100  0.90522900  0.31372800  1
  Li  Li9  1  0.31959900  0.77231800  0.80722900  1
  V  V10  1  0.43602600  0.56397400  0.00000000  1
  V  V11  1  0.56630000  0.00603700  0.00517900  1
  V  V12  1  0.00063800  0.56498800  0.50138100  1
  V  V13  1  0.99396300  0.43370000  0.99482100  1
  V  V14  1  0.43501200  0.99936200  0.49861900  1
  V  V15  1  0.56927600  0.43072400  0.50000000  1
  P  P16  1  0.68129000  0.23150900  0.90788600  1
  P  P17  1  0.68227300  0.08636100  0.40742200  1
  P  P18  1  0.23159100  0.68137200  0.40775000  1
  P  P19  1  0.32761600  0.33659200  0.12136800  1
  P  P20  1  0.33337000  0.33348500  0.62317800  1
  P  P21  1  0.08821600  0.68186500  0.90724300  1
  P  P22  1  0.91303100  0.76709300  0.09055300  1
  P  P23  1  0.23290700  0.08696900  0.90944700  1
  P  P24  1  0.76795800  0.91327100  0.59266900  1
  P  P25  1  0.08672900  0.23204200  0.40733100  1
  P  P26  1  0.91363900  0.31772700  0.59257800  1
  P  P27  1  0.66340800  0.67238400  0.87863200  1
  P  P28  1  0.66651500  0.66663000  0.37682200  1
  P  P29  1  0.76849100  0.31871000  0.09211400  1
  P  P30  1  0.31813500  0.91178400  0.09275700  1
  P  P31  1  0.31862800  0.76840900  0.59225000  1
  O  O32  1  0.76700300  0.24481800  0.18303200  1
  O  O33  1  0.66250500  0.25336700  0.40792900  1
  O  O34  1  0.78609300  0.00613000  0.50295300  1
  O  O35  1  0.75696000  0.00213800  0.68284800  1
  O  O36  1  0.51943900  0.38129700  0.92569100  1
  O  O37  1  0.66143300  0.08245300  0.91505500  1
  O  O38  1  0.48629900  0.32634800  0.58284000  1
  O  O39  1  0.38153800  0.52144900  0.42573900  1
  O  O40  1  0.24129400  0.76031300  0.68060600  1
  O  O41  1  0.25175300  0.66558800  0.90818600  1
  O  O42  1  0.47853300  0.18704400  0.07499700  1
  O  O43  1  0.32728400  0.48743700  0.08215000  1
  O  O44  1  0.51982400  0.09877800  0.42541400  1
  O  O45  1  0.33189800  0.32816100  0.22712400  1
  O  O46  1  0.32764400  0.34001500  0.72999700  1
  O  O47  1  0.38460300  0.09513100  0.92712700  1
  O  O48  1  0.18414400  0.48932400  0.58067500  1
  O  O49  1  0.32402800  0.18901200  0.58317800  1
  O  O50  1  0.08317700  0.66707100  0.40725100  1
  O  O51  1  0.00087300  0.78972900  0.99946700  1
  O  O52  1  0.99691500  0.75792200  0.81805600  1
  O  O53  1  0.99967500  0.75771300  0.18022200  1
  O  O54  1  0.09663600  0.52175200  0.92703500  1
  O  O55  1  0.18170000  0.33108000  0.07905200  1
  O  O56  1  0.25165200  0.08264300  0.40852700  1
  O  O57  1  0.91735700  0.74834800  0.59147300  1
  O  O58  1  0.09960400  0.38118700  0.42308900  1
  O  O59  1  0.76575400  0.99326900  0.32190400  1
  O  O60  1  0.24207800  0.00308500  0.18194400  1
  O  O61  1  0.90486900  0.61539700  0.07287300  1
  O  O62  1  0.08790100  0.25651200  0.91404900  1
  O  O63  1  0.21027100  0.99912700  0.00053300  1
  O  O64  1  0.74348800  0.91209900  0.08595100  1
  O  O65  1  0.81098800  0.67597200  0.41682200  1
  O  O66  1  0.90122200  0.48017600  0.57458600  1
  O  O67  1  0.00673100  0.23424600  0.67809600  1
  O  O68  1  0.99786200  0.24304000  0.31715200  1
  O  O69  1  0.99387000  0.21390700  0.49704700  1
  O  O70  1  0.91754700  0.33856700  0.08494500  1
  O  O71  1  0.66892000  0.81830000  0.92094800  1
  O  O72  1  0.61881300  0.90039600  0.57691100  1
  O  O73  1  0.81295600  0.52146700  0.92500300  1
  O  O74  1  0.65998500  0.67235600  0.27000300  1
  O  O75  1  0.67183900  0.66810200  0.77287600  1
  O  O76  1  0.47824800  0.90336400  0.07296500  1
  O  O77  1  0.67365200  0.51370100  0.41716000  1
  O  O78  1  0.51067600  0.81585600  0.41932500  1
  O  O79  1  0.74663300  0.33749500  0.59207100  1
  O  O80  1  0.78975600  0.21024400  0.00000000  1
  O  O81  1  0.75518200  0.23299700  0.81696800  1
  O  O82  1  0.61870300  0.48056100  0.07430900  1
  O  O83  1  0.51256300  0.67271600  0.91785000  1
  O  O84  1  0.33292900  0.91682300  0.59274900  1
  O  O85  1  0.47855100  0.61846200  0.57426100  1
  O  O86  1  0.24228700  0.00032500  0.81977800  1
  O  O87  1  0.33441200  0.74824700  0.09181400  1
  O  O88  1  0.23968700  0.75870600  0.31939400  1
  O  O89  1  0.21049600  0.78950400  0.50000000  1
