# generated using pymatgen
data_Li(FeN)2
_symmetry_space_group_name_H-M   'P 1'
_cell_length_a   4.96166183
_cell_length_b   5.96837570
_cell_length_c   5.94878647
_cell_angle_alpha   90.00000000
_cell_angle_beta   87.29727728
_cell_angle_gamma   90.00000000
_symmetry_Int_Tables_number   1
_chemical_formula_structural   Li(FeN)2
_chemical_formula_sum   'Li4 Fe8 N8'
_cell_volume   175.96582596
_cell_formula_units_Z   4
loop_
 _symmetry_equiv_pos_site_id
 _symmetry_equiv_pos_as_xyz
  1  'x, y, z'
loop_
 _atom_site_type_symbol
 _atom_site_label
 _atom_site_symmetry_multiplicity
 _atom_site_fract_x
 _atom_site_fract_y
 _atom_site_fract_z
 _atom_site_occupancy
  Li  Li0  1  0.36824761  0.46448227  0.86120625  1
  Li  Li1  1  0.63175239  0.96448227  0.63879375  1
  Li  Li2  1  0.63175239  0.53551773  0.13879375  1
  Li  Li3  1  0.36824761  0.03551773  0.36120625  1
  Fe  Fe4  1  0.10098645  0.16305805  0.76506851  1
  Fe  Fe5  1  0.89901355  0.66305805  0.73493149  1
  Fe  Fe6  1  0.89901355  0.83694195  0.23493149  1
  Fe  Fe7  1  0.10098645  0.33694195  0.26506851  1
  Fe  Fe8  1  0.68236070  0.36703269  0.52371519  1
  Fe  Fe9  1  0.31763930  0.86703269  0.97628481  1
  Fe  Fe10  1  0.31763930  0.63296731  0.47628481  1
  Fe  Fe11  1  0.68236070  0.13296731  0.02371519  1
  N  N12  1  0.19898593  0.85390681  0.68461969  1
  N  N13  1  0.80101407  0.35390681  0.81538031  1
  N  N14  1  0.80101407  0.14609319  0.31538031  1
  N  N15  1  0.19898593  0.64609319  0.18461969  1
  N  N16  1  0.29914176  0.32089880  0.53556214  1
  N  N17  1  0.70085824  0.82089880  0.96443786  1
  N  N18  1  0.70085824  0.67910120  0.46443786  1
  N  N19  1  0.29914176  0.17910120  0.03556214  1
