# generated using pymatgen
data_Li17Cl5O6
_symmetry_space_group_name_H-M   'P 1'
_cell_length_a   3.83637348
_cell_length_b   5.57916051
_cell_length_c   16.74330063
_cell_angle_alpha   93.16286693
_cell_angle_beta   90.00000000
_cell_angle_gamma   90.00000000
_symmetry_Int_Tables_number   1
_chemical_formula_structural   Li17Cl5O6
_chemical_formula_sum   'Li17 Cl5 O6'
_cell_volume   357.82341815
_cell_formula_units_Z   1
loop_
 _symmetry_equiv_pos_site_id
 _symmetry_equiv_pos_as_xyz
  1  'x, y, z'
loop_
 _atom_site_type_symbol
 _atom_site_label
 _atom_site_symmetry_multiplicity
 _atom_site_fract_x
 _atom_site_fract_y
 _atom_site_fract_z
 _atom_site_occupancy
  Li  Li0  1  0.50000000  0.26660717  0.90981239  1
  Li  Li1  1  0.50000000  0.24052244  0.56689070  1
  Li  Li2  1  0.50000000  0.33343710  0.24068063  1
  Li  Li3  1  0.50000000  0.71719531  0.75280815  1
  Li  Li4  1  0.50000000  0.67886852  0.43535005  1
  Li  Li5  1  0.50000000  0.77144118  0.08292980  1
  Li  Li6  1  0.50000000  0.20728599  0.74162191  1
  Li  Li7  1  0.50000000  0.27343026  0.07786225  1
  Li  Li8  1  0.50000000  0.75653558  0.91641597  1
  Li  Li9  1  0.50000000  0.72950390  0.59421531  1
  Li  Li10  1  0.50000000  0.80104223  0.24932627  1
  Li  Li11  1  -0.00000000  0.99084286  0.82863406  1
  Li  Li12  1  -0.00000000  0.97360800  0.50355150  1
  Li  Li13  1  -0.00000000  0.04175625  0.15903833  1
  Li  Li14  1  -0.00000000  0.51524619  0.99650721  1
  Li  Li15  1  -0.00000000  0.46018143  0.66401969  1
  Li  Li16  1  -0.00000000  0.52627655  0.34313062  1
  Cl  Cl17  1  -0.00000000  0.49151235  0.83634356  1
  Cl  Cl18  1  -0.00000000  0.44146032  0.49333786  1
  Cl  Cl19  1  -0.00000000  0.53844175  0.16120342  1
  Cl  Cl20  1  -0.00000000  0.01440998  0.00949044  1
  Cl  Cl21  1  -0.00000000  0.96006845  0.67755384  1
  O  O22  1  0.50000000  0.99050216  0.83619082  1
  O  O23  1  0.50000000  0.93700218  0.51025951  1
  O  O24  1  0.50000000  0.04420377  0.17380040  1
  O  O25  1  0.50000000  0.51520609  0.99830807  1
  O  O26  1  0.50000000  0.46289194  0.66582713  1
  O  O27  1  0.50000000  0.57051704  0.32489212  1
