# generated using pymatgen
data_Li9Mn2Co5O16
_symmetry_space_group_name_H-M   'P 1'
_cell_length_a   5.11595800
_cell_length_b   7.72323835
_cell_length_c   7.73466347
_cell_angle_alpha   82.86493617
_cell_angle_beta   83.47508104
_cell_angle_gamma   71.54790445
_symmetry_Int_Tables_number   1
_chemical_formula_structural   Li9Mn2Co5O16
_chemical_formula_sum   'Li9 Mn2 Co5 O16'
_cell_volume   286.75526093
_cell_formula_units_Z   1
loop_
 _symmetry_equiv_pos_site_id
 _symmetry_equiv_pos_as_xyz
  1  'x, y, z'
loop_
 _atom_site_type_symbol
 _atom_site_label
 _atom_site_symmetry_multiplicity
 _atom_site_fract_x
 _atom_site_fract_y
 _atom_site_fract_z
 _atom_site_occupancy
  Li  Li0  1  0.51132500  0.80448500  0.06149200  1
  Li  Li1  1  0.50062100  0.44438200  0.18402300  1
  Li  Li2  1  0.50772900  0.67970000  0.44739500  1
  Li  Li3  1  0.49227100  0.32030000  0.55260500  1
  Li  Li4  1  0.49937900  0.55561800  0.81597700  1
  Li  Li5  1  0.48867500  0.19551500  0.93850800  1
  Li  Li6  1  0.48731200  0.06917400  0.31145000  1
  Li  Li7  1  0.51268800  0.93082600  0.68855000  1
  Li  Li8  1  0.00000000  0.50000000  0.00000000  1
  Mn  Mn9  1  0.01345200  0.86795100  0.87640600  1
  Mn  Mn10  1  0.98654800  0.13204900  0.12359400  1
  Co  Co11  1  0.99842200  0.74073600  0.24676900  1
  Co  Co12  1  0.99527000  0.37713100  0.37104200  1
  Co  Co13  1  0.00000000  0.00000000  0.50000000  1
  Co  Co14  1  0.00473000  0.62286900  0.62895800  1
  Co  Co15  1  0.00157800  0.25926400  0.75323100  1
  O  O16  1  0.22180400  0.03351200  0.91756500  1
  O  O17  1  0.23631700  0.67515800  0.02526900  1
  O  O18  1  0.20433500  0.92331500  0.28097800  1
  O  O19  1  0.23298000  0.53892700  0.40763300  1
  O  O20  1  0.24529600  0.77999900  0.67336200  1
  O  O21  1  0.23681100  0.39642000  0.77065700  1
  O  O22  1  0.21373400  0.27630400  0.16135600  1
  O  O23  1  0.21502700  0.15689600  0.52447000  1
  O  O24  1  0.76318900  0.60358000  0.22934300  1
  O  O25  1  0.75470400  0.22000100  0.32663800  1
  O  O26  1  0.76702000  0.46107300  0.59236700  1
  O  O27  1  0.79566500  0.07668500  0.71902200  1
  O  O28  1  0.76368300  0.32484200  0.97473100  1
  O  O29  1  0.77819600  0.96648800  0.08243500  1
  O  O30  1  0.78497300  0.84310400  0.47553000  1
  O  O31  1  0.78626600  0.72369600  0.83864400  1
