# generated using pymatgen
data_Li4V3Sn3(SbO8)2
_symmetry_space_group_name_H-M   'P 1'
_cell_length_a   6.25910400
_cell_length_b   10.78674820
_cell_length_c   10.26740759
_cell_angle_alpha   90.25041135
_cell_angle_beta   89.54151193
_cell_angle_gamma   90.53502849
_symmetry_Int_Tables_number   1
_chemical_formula_structural   Li4V3Sn3(SbO8)2
_chemical_formula_sum   'Li8 V6 Sn6 Sb4 O32'
_cell_volume   693.14909884
_cell_formula_units_Z   2
loop_
 _symmetry_equiv_pos_site_id
 _symmetry_equiv_pos_as_xyz
  1  'x, y, z'
loop_
 _atom_site_type_symbol
 _atom_site_label
 _atom_site_symmetry_multiplicity
 _atom_site_fract_x
 _atom_site_fract_y
 _atom_site_fract_z
 _atom_site_occupancy
  Li  Li0  1  0.50989278  0.16566433  0.89114228  1
  Li  Li1  1  0.00248891  0.66368057  0.89298532  1
  Li  Li2  1  0.98806258  0.00379443  0.99144317  1
  Li  Li3  1  0.48814064  0.50405708  0.99380877  1
  Li  Li4  1  0.99422248  0.00242101  0.49772783  1
  Li  Li5  1  0.49149429  0.50228436  0.49902075  1
  Li  Li6  1  0.49449177  0.83286998  0.39896604  1
  Li  Li7  1  0.00081854  0.33541752  0.39572187  1
  V  V8  1  0.74657595  0.08490305  0.21644938  1
  V  V9  1  0.24563180  0.58434887  0.21686278  1
  V  V10  1  0.25010071  0.41436410  0.71867149  1
  V  V11  1  0.74322718  0.91493482  0.71264210  1
  V  V12  1  0.49812050  0.66950771  0.71704631  1
  V  V13  1  0.00129190  0.16850191  0.71264615  1
  Sn  Sn14  1  0.49934094  0.33134509  0.21586923  1
  Sn  Sn15  1  0.00107747  0.83236403  0.21487206  1
  Sn  Sn16  1  0.25287975  0.08445346  0.21569711  1
  Sn  Sn17  1  0.75156227  0.58283919  0.21536716  1
  Sn  Sn18  1  0.24704741  0.91428782  0.71658520  1
  Sn  Sn19  1  0.75665323  0.41866306  0.71467438  1
  Sb  Sb20  1  0.50753080  0.16441840  0.50051270  1
  Sb  Sb21  1  0.99482315  0.66832417  0.49668304  1
  Sb  Sb22  1  0.50322995  0.83180233  0.99100919  1
  Sb  Sb23  1  0.00495296  0.33193231  0.99254682  1
  O  O24  1  0.49751119  0.34930528  0.60451208  1
  O  O25  1  0.98685679  0.84494631  0.60077572  1
  O  O26  1  0.26826276  0.24365015  0.33444456  1
  O  O27  1  0.77533617  0.74128615  0.34352437  1
  O  O28  1  0.49739105  0.16729524  0.10315248  1
  O  O29  1  0.99488187  0.66810619  0.10403186  1
  O  O30  1  0.49960077  0.49944666  0.31850708  1
  O  O31  1  1.00046107  -0.00004507  0.31748918  1
  O  O32  1  0.99798546  0.99826951  0.81329826  1
  O  O33  1  0.50291253  0.50115711  0.81562860  1
  O  O34  1  0.22976833  0.07825091  0.60381186  1
  O  O35  1  0.72240680  0.58346617  0.60123244  1
  O  O36  1  0.73213493  0.24211237  0.32523645  1
  O  O37  1  0.22881198  0.74244596  0.32636968  1
  O  O38  1  0.50381362  0.01356450  0.32760919  1
  O  O39  1  0.00079781  0.51413741  0.32505513  1
  O  O40  1  0.23038311  0.92400169  0.09521204  1
  O  O41  1  0.73008274  0.42242844  0.09503545  1
  O  O42  1  0.77526817  0.07504718  0.60981832  1
  O  O43  1  0.28612667  0.57187606  0.62269649  1
  O  O44  1  0.50588558  0.98156014  0.83016508  1
  O  O45  1  0.01475064  0.48594976  0.82955887  1
  O  O46  1  0.27548840  0.75062372  0.83067954  1
  O  O47  1  0.78275727  0.25595287  0.82831740  1
  O  O48  1  0.48707298  0.82424605  0.60846982  1
  O  O49  1  0.01302267  0.34335001  0.60809194  1
  O  O50  1  0.76856000  0.92446938  0.10657198  1
  O  O51  1  0.26963710  0.42619918  0.10635006  1
  O  O52  1  0.71395395  0.74652490  0.81911839  1
  O  O53  1  0.24129166  0.26851990  0.81902781  1
  O  O54  1  0.49694895  0.65239747  0.10816113  1
  O  O55  1  0.99647703  0.15258078  0.10477558  1
