# generated using pymatgen
data_Li2Fe3TeO8
_symmetry_space_group_name_H-M   'P 1'
_cell_length_a   6.06333119
_cell_length_b   6.13956494
_cell_length_c   10.50708889
_cell_angle_alpha   106.15201001
_cell_angle_beta   89.82988352
_cell_angle_gamma   61.09403121
_symmetry_Int_Tables_number   1
_chemical_formula_structural   Li2Fe3TeO8
_chemical_formula_sum   'Li4 Fe6 Te2 O16'
_cell_volume   324.46987280
_cell_formula_units_Z   2
loop_
 _symmetry_equiv_pos_site_id
 _symmetry_equiv_pos_as_xyz
  1  'x, y, z'
loop_
 _atom_site_type_symbol
 _atom_site_label
 _atom_site_symmetry_multiplicity
 _atom_site_fract_x
 _atom_site_fract_y
 _atom_site_fract_z
 _atom_site_occupancy
  Li  Li0  1  0.28387600  0.42214000  0.57785200  1
  Li  Li1  1  0.79073200  0.41465400  0.06523300  1
  Li  Li2  1  0.21288600  0.58209000  0.92544900  1
  Li  Li3  1  0.70969300  0.58396400  0.43381000  1
  Fe  Fe4  1  0.24763000  0.00328800  0.75014600  1
  Fe  Fe5  1  0.75248300  0.99552900  0.25012000  1
  Fe  Fe6  1  0.99949100  0.00110600  0.50282200  1
  Fe  Fe7  1  0.75254100  0.99959800  0.74859200  1
  Fe  Fe8  1  0.24942700  0.99904200  0.24974000  1
  Fe  Fe9  1  0.50158900  0.99681500  0.99479100  1
  Te  Te10  1  0.74860500  0.50050600  0.75117200  1
  Te  Te11  1  0.25319300  0.49731100  0.24773600  1
  O  O12  1  0.08475500  0.80638100  0.63764500  1
  O  O13  1  0.59479300  0.81288700  0.13731800  1
  O  O14  1  0.41191800  0.19488000  0.87025400  1
  O  O15  1  0.90746800  0.18707100  0.35540000  1
  O  O16  1  0.85870900  0.26983700  0.86313800  1
  O  O17  1  0.37088600  0.25843200  0.35803500  1
  O  O18  1  0.63068900  0.27286400  0.64218700  1
  O  O19  1  0.15136500  0.25499100  0.13329800  1
  O  O20  1  0.08208800  0.27997800  0.63956400  1
  O  O21  1  0.59385100  0.25871600  0.13555000  1
  O  O22  1  0.41535800  0.73509600  0.87105100  1
  O  O23  1  0.91096400  0.72475100  0.35432200  1
  O  O24  1  0.85135600  0.74592700  0.86940600  1
  O  O25  1  0.36424100  0.72924300  0.35613700  1
  O  O26  1  0.63628500  0.73707200  0.64181700  1
  O  O27  1  0.13312600  0.73583200  0.13741400  1
