# generated using pymatgen
data_Li3Mn3TeO8
_symmetry_space_group_name_H-M   'P 1'
_cell_length_a   6.13864151
_cell_length_b   6.26192375
_cell_length_c   8.81029538
_cell_angle_alpha   90.02388750
_cell_angle_beta   92.30426411
_cell_angle_gamma   90.08246388
_symmetry_Int_Tables_number   1
_chemical_formula_structural   Li3Mn3TeO8
_chemical_formula_sum   'Li6 Mn6 Te2 O16'
_cell_volume   338.39092484
_cell_formula_units_Z   2
loop_
 _symmetry_equiv_pos_site_id
 _symmetry_equiv_pos_as_xyz
  1  'x, y, z'
loop_
 _atom_site_type_symbol
 _atom_site_label
 _atom_site_symmetry_multiplicity
 _atom_site_fract_x
 _atom_site_fract_y
 _atom_site_fract_z
 _atom_site_occupancy
  Li  Li0  1  0.00005300  0.49717500  0.49984300  1
  Li  Li1  1  0.49994600  0.99710500  0.00059400  1
  Li  Li2  1  0.74937500  0.24841300  0.74951100  1
  Li  Li3  1  0.24923900  0.74825500  0.24953600  1
  Li  Li4  1  0.25080200  0.24816700  0.25049600  1
  Li  Li5  1  0.75087400  0.74797700  0.75049900  1
  Mn  Mn6  1  0.99999500  0.49941400  0.99990200  1
  Mn  Mn7  1  0.24955200  0.75265400  0.74733500  1
  Mn  Mn8  1  0.75047000  0.75252900  0.25275100  1
  Mn  Mn9  1  0.49995500  0.99948600  0.49993900  1
  Mn  Mn10  1  0.74968000  0.25254500  0.24736300  1
  Mn  Mn11  1  0.25042600  0.25250700  0.75279100  1
  Te  Te12  1  0.99998900  0.99882700  0.99991700  1
  Te  Te13  1  0.49994800  0.49888400  0.50005600  1
  O  O14  1  0.01077100  0.50150900  0.78144800  1
  O  O15  1  0.51083200  0.00159100  0.28154800  1
  O  O16  1  0.48907400  0.00217600  0.71832700  1
  O  O17  1  0.98914900  0.50214200  0.21827200  1
  O  O18  1  0.99655700  0.00033300  0.77886500  1
  O  O19  1  0.49662200  0.50040200  0.27880200  1
  O  O20  1  0.27434500  0.27655300  0.49582700  1
  O  O21  1  0.77427400  0.77650400  0.99585400  1
  O  O22  1  0.77522900  0.22264500  0.99464200  1
  O  O23  1  0.27509500  0.72262400  0.49460900  1
  O  O24  1  0.50336800  0.50082800  0.72113700  1
  O  O25  1  0.00343800  0.00072800  0.22117200  1
  O  O26  1  0.22534300  0.22245000  0.00540500  1
  O  O27  1  0.72524600  0.72267900  0.50541800  1
  O  O28  1  0.72519300  0.27655000  0.50409200  1
  O  O29  1  0.22515200  0.77634400  0.00404200  1
