# generated using pymatgen
data_LiGeN
_symmetry_space_group_name_H-M   'P 1'
_cell_length_a   5.53363205
_cell_length_b   4.13226254
_cell_length_c   6.92376312
_cell_angle_alpha   90.00000000
_cell_angle_beta   90.00000000
_cell_angle_gamma   90.00000000
_symmetry_Int_Tables_number   1
_chemical_formula_structural   LiGeN
_chemical_formula_sum   'Li4 Ge4 N4'
_cell_volume   158.32167846
_cell_formula_units_Z   4
loop_
 _symmetry_equiv_pos_site_id
 _symmetry_equiv_pos_as_xyz
  1  'x, y, z'
loop_
 _atom_site_type_symbol
 _atom_site_label
 _atom_site_symmetry_multiplicity
 _atom_site_fract_x
 _atom_site_fract_y
 _atom_site_fract_z
 _atom_site_occupancy
  Li  Li0  1  0.57731267  0.25000000  0.91228684  1
  Li  Li1  1  0.07731267  0.25000000  0.58771316  1
  Li  Li2  1  0.42268733  0.75000000  0.08771316  1
  Li  Li3  1  0.92268733  0.75000000  0.41228684  1
  Ge  Ge4  1  0.54246526  0.25000000  0.39213992  1
  Ge  Ge5  1  0.04246526  0.25000000  0.10786008  1
  Ge  Ge6  1  0.45753474  0.75000000  0.60786008  1
  Ge  Ge7  1  0.95753474  0.75000000  0.89213992  1
  N  N8  1  0.87690378  0.25000000  0.34471631  1
  N  N9  1  0.37690378  0.25000000  0.15528369  1
  N  N10  1  0.12309622  0.75000000  0.65528369  1
  N  N11  1  0.62309622  0.75000000  0.84471631  1
