# generated using pymatgen
data_Li3Mn4SnO8
_symmetry_space_group_name_H-M   'P 1'
_cell_length_a   6.16255438
_cell_length_b   6.18631482
_cell_length_c   10.78936836
_cell_angle_alpha   74.59615441
_cell_angle_beta   74.23108898
_cell_angle_gamma   61.30094962
_symmetry_Int_Tables_number   1
_chemical_formula_structural   Li3Mn4SnO8
_chemical_formula_sum   'Li6 Mn8 Sn2 O16'
_cell_volume   342.74300226
_cell_formula_units_Z   2
loop_
 _symmetry_equiv_pos_site_id
 _symmetry_equiv_pos_as_xyz
  1  'x, y, z'
loop_
 _atom_site_type_symbol
 _atom_site_label
 _atom_site_symmetry_multiplicity
 _atom_site_fract_x
 _atom_site_fract_y
 _atom_site_fract_z
 _atom_site_occupancy
  Li  Li0  1  0.75044000  0.74983000  0.24974000  1
  Li  Li1  1  0.24952200  0.25032800  0.74981600  1
  Li  Li2  1  0.99385600  0.48626300  0.01524300  1
  Li  Li3  1  0.50661400  0.01324800  0.48455700  1
  Li  Li4  1  0.98886200  0.49809100  0.50416700  1
  Li  Li5  1  0.51141600  0.00194300  0.99551000  1
  Mn  Mn6  1  0.00323800  0.00452100  0.00061300  1
  Mn  Mn7  1  0.49678700  0.49503100  0.49964300  1
  Mn  Mn8  1  0.74974100  0.25025300  0.25020100  1
  Mn  Mn9  1  0.25002700  0.74992900  0.75022000  1
  Mn  Mn10  1  0.25016200  0.74993200  0.25024500  1
  Mn  Mn11  1  0.74986900  0.25013700  0.75005800  1
  Mn  Mn12  1  0.74968800  0.74986600  0.74993300  1
  Mn  Mn13  1  0.24989500  0.25039200  0.25009800  1
  Sn  Sn14  1  0.99441500  0.99845300  0.50020300  1
  Sn  Sn15  1  0.50574600  0.50153800  0.99990300  1
  O  O16  1  0.87705500  0.88433400  0.37462700  1
  O  O17  1  0.41157400  0.37130100  0.86859700  1
  O  O18  1  0.08838700  0.12881700  0.63131000  1
  O  O19  1  0.62326200  0.61556800  0.12539900  1
  O  O20  1  0.86631100  0.92042200  0.86194000  1
  O  O21  1  0.37961100  0.37218200  0.36483700  1
  O  O22  1  0.12028200  0.12790800  0.13516900  1
  O  O23  1  0.63349900  0.57991900  0.63784100  1
  O  O24  1  0.62960900  0.11341100  0.61465000  1
  O  O25  1  0.14105300  0.61687700  0.11431500  1
  O  O26  1  0.11787700  0.64011000  0.61581300  1
  O  O27  1  0.61479800  0.14193400  0.11820200  1
  O  O28  1  0.88518200  0.35804500  0.38188600  1
  O  O29  1  0.38210000  0.85957700  0.88422600  1
  O  O30  1  0.35892300  0.88314600  0.38582200  1
  O  O31  1  0.87019900  0.38669700  0.88521600  1
