# generated using pymatgen
data_Li3Fe2P4HO14
_symmetry_space_group_name_H-M   'P 1'
_cell_length_a   5.20931065
_cell_length_b   8.52982391
_cell_length_c   12.92194001
_cell_angle_alpha   82.08179376
_cell_angle_beta   78.77066288
_cell_angle_gamma   88.32148931
_symmetry_Int_Tables_number   1
_chemical_formula_structural   Li3Fe2P4HO14
_chemical_formula_sum   'Li6 Fe4 P8 H2 O28'
_cell_volume   557.81625613
_cell_formula_units_Z   2
loop_
 _symmetry_equiv_pos_site_id
 _symmetry_equiv_pos_as_xyz
  1  'x, y, z'
loop_
 _atom_site_type_symbol
 _atom_site_label
 _atom_site_symmetry_multiplicity
 _atom_site_fract_x
 _atom_site_fract_y
 _atom_site_fract_z
 _atom_site_occupancy
  Li  Li0  1  0.50020400  0.99992100  0.49988500  1
  Li  Li1  1  0.00058900  0.49988900  0.49981100  1
  Li  Li2  1  0.69584600  0.44731300  0.05773600  1
  Li  Li3  1  0.19574200  0.94737900  0.05780700  1
  Li  Li4  1  0.80419900  0.05246800  0.94218500  1
  Li  Li5  1  0.30413300  0.55273800  0.94226700  1
  Fe  Fe6  1  0.37314500  0.91909800  0.76914700  1
  Fe  Fe7  1  0.62697300  0.08102200  0.23077200  1
  Fe  Fe8  1  0.87366300  0.41893500  0.76909900  1
  Fe  Fe9  1  0.12615500  0.58093000  0.23093800  1
  P  P10  1  0.43299300  0.33386700  0.63188300  1
  P  P11  1  0.93241400  0.83394800  0.63198200  1
  P  P12  1  0.06762100  0.16612500  0.36803300  1
  P  P13  1  0.56698200  0.66618200  0.36819500  1
  P  P14  1  0.34857000  0.22880100  0.85778800  1
  P  P15  1  0.84823700  0.72877300  0.85782500  1
  P  P16  1  0.15182100  0.27124000  0.14215700  1
  P  P17  1  0.65134900  0.77111600  0.14225400  1
  H  H18  1  0.75006800  0.24993600  0.49999100  1
  H  H19  1  0.24948400  0.75019300  0.50011600  1
  O  O20  1  0.16383500  0.40982200  0.63399900  1
  O  O21  1  0.66312000  0.90967000  0.63407400  1
  O  O22  1  0.33688500  0.09032000  0.36587500  1
  O  O23  1  0.83610500  0.59016000  0.36600500  1
  O  O24  1  0.18445800  0.38005000  0.86519600  1
  O  O25  1  0.68398200  0.87997300  0.86523600  1
  O  O26  1  0.31598600  0.12001900  0.13473400  1
  O  O27  1  0.81547000  0.61986600  0.13485200  1
  O  O28  1  0.20883200  0.07576200  0.91453500  1
  O  O29  1  0.70871100  0.57570900  0.91457100  1
  O  O30  1  0.29138700  0.42429000  0.08539000  1
  O  O31  1  0.79107000  0.92413900  0.08547100  1
  O  O32  1  0.39070100  0.19088500  0.73467200  1
  O  O33  1  0.89038400  0.69084900  0.73470200  1
  O  O34  1  0.10972800  0.30918200  0.26526700  1
  O  O35  1  0.60924000  0.80909300  0.26534500  1
  O  O36  1  0.51992300  0.24323100  0.53632600  1
  O  O37  1  0.01957600  0.74345500  0.53637800  1
  O  O38  1  0.98054400  0.25664700  0.46361500  1
  O  O39  1  0.48019600  0.75688900  0.46368400  1
  O  O40  1  0.87378500  0.25236400  0.12078200  1
  O  O41  1  0.37331600  0.75226100  0.12087400  1
  O  O42  1  0.62661700  0.24761400  0.87916600  1
  O  O43  1  0.12624000  0.74770200  0.87920500  1
  O  O44  1  0.64217100  0.44180500  0.65015300  1
  O  O45  1  0.14127400  0.94204700  0.65032900  1
  O  O46  1  0.85863100  0.05809600  0.34968600  1
  O  O47  1  0.35764500  0.55822300  0.35000700  1
