# generated using pymatgen
data_Li4MnCo2O7
_symmetry_space_group_name_H-M   'P 1'
_cell_length_a   5.05232400
_cell_length_b   6.55243881
_cell_length_c   7.84203521
_cell_angle_alpha   86.15930829
_cell_angle_beta   77.93300401
_cell_angle_gamma   83.39389669
_symmetry_Int_Tables_number   1
_chemical_formula_structural   Li4MnCo2O7
_chemical_formula_sum   'Li8 Mn2 Co4 O14'
_cell_volume   251.94249899
_cell_formula_units_Z   2
loop_
 _symmetry_equiv_pos_site_id
 _symmetry_equiv_pos_as_xyz
  1  'x, y, z'
loop_
 _atom_site_type_symbol
 _atom_site_label
 _atom_site_symmetry_multiplicity
 _atom_site_fract_x
 _atom_site_fract_y
 _atom_site_fract_z
 _atom_site_occupancy
  Li  Li0  1  0.71243200  0.58024300  0.07014700  1
  Li  Li1  1  0.42641900  0.14049600  0.65357500  1
  Li  Li2  1  0.15157900  0.71940900  0.20861100  1
  Li  Li3  1  0.57358100  0.85950400  0.34642500  1
  Li  Li4  1  0.28756800  0.41975700  0.92985300  1
  Li  Li5  1  0.00000000  0.00000000  0.50000000  1
  Li  Li6  1  0.84842100  0.28059100  0.79138900  1
  Li  Li7  1  0.50000000  0.00000000  0.00000000  1
  Mn  Mn8  1  0.64241400  0.71523900  0.71757500  1
  Mn  Mn9  1  0.35758600  0.28476100  0.28242500  1
  Co  Co10  1  0.06812300  0.86400700  0.86604600  1
  Co  Co11  1  0.78612000  0.42738200  0.42591200  1
  Co  Co12  1  0.21388000  0.57261800  0.57408800  1
  Co  Co13  1  0.93187700  0.13599300  0.13395400  1
  O  O14  1  0.94611300  0.58289700  0.80965500  1
  O  O15  1  0.66310800  0.16520400  0.38799900  1
  O  O16  1  0.39423200  0.71710200  0.93856900  1
  O  O17  1  0.84499200  0.86049900  0.10521600  1
  O  O18  1  0.54064600  0.44424200  0.67286200  1
  O  O19  1  0.23988900  0.02521100  0.25310500  1
  O  O20  1  0.12137900  0.30134500  0.51858000  1
  O  O21  1  0.45935400  0.55575800  0.32713800  1
  O  O22  1  0.15500800  0.13950100  0.89478400  1
  O  O23  1  0.87862100  0.69865500  0.48142000  1
  O  O24  1  0.33689200  0.83479600  0.61200100  1
  O  O25  1  0.05388700  0.41710300  0.19034500  1
  O  O26  1  0.76011100  0.97478900  0.74689500  1
  O  O27  1  0.60576800  0.28289800  0.06143100  1
