# generated using pymatgen
data_LiCrPO4
_symmetry_space_group_name_H-M   'P 1'
_cell_length_a   4.80283986
_cell_length_b   6.36322271
_cell_length_c   10.30200441
_cell_angle_alpha   89.99919798
_cell_angle_beta   89.99720157
_cell_angle_gamma   90.27864524
_symmetry_Int_Tables_number   1
_chemical_formula_structural   LiCrPO4
_chemical_formula_sum   'Li4 Cr4 P4 O16'
_cell_volume   314.84139278
_cell_formula_units_Z   4
loop_
 _symmetry_equiv_pos_site_id
 _symmetry_equiv_pos_as_xyz
  1  'x, y, z'
loop_
 _atom_site_type_symbol
 _atom_site_label
 _atom_site_symmetry_multiplicity
 _atom_site_fract_x
 _atom_site_fract_y
 _atom_site_fract_z
 _atom_site_occupancy
  Li  Li0  1  0.22359492  0.28206541  0.30822145  1
  Li  Li1  1  0.77613191  0.71795351  0.80821639  1
  Li  Li2  1  0.71206041  0.22421537  0.78209653  1
  Li  Li3  1  0.28785282  0.77553104  0.28208302  1
  Cr  Cr4  1  0.79706186  0.49236860  0.07938572  1
  Cr  Cr5  1  0.20273175  0.50741100  0.57940818  1
  Cr  Cr6  1  0.30427215  0.99555853  0.01332412  1
  Cr  Cr7  1  0.69598776  0.00432145  0.51325168  1
  P  P8  1  0.85365896  0.01717440  0.20547394  1
  P  P9  1  0.14637230  0.98285728  0.70553543  1
  P  P10  1  0.34332079  0.48191652  0.88979599  1
  P  P11  1  0.65669083  0.51799849  0.38977437  1
  O  O12  1  0.94915410  0.01952834  0.35036544  1
  O  O13  1  0.05114124  0.98141807  0.85040517  1
  O  O14  1  0.53376336  0.00579748  0.18994688  1
  O  O15  1  0.46641809  0.99397069  0.68995417  1
  O  O16  1  1.00030747  0.17328409  0.63795620  1
  O  O17  1  -0.00012050  0.82670549  0.13812173  1
  O  O18  1  0.98437188  0.22062608  0.14558444  1
  O  O19  1  0.01553357  0.77941095  0.64566663  1
  O  O20  1  0.47180996  0.27497119  0.94384303  1
  O  O21  1  0.52814497  0.72497128  0.44379109  1
  O  O22  1  0.55442222  0.50312487  0.24607193  1
  O  O23  1  0.44537805  0.49676415  0.74606246  1
  O  O24  1  0.02305952  0.49070467  0.90169234  1
  O  O25  1  0.97697406  0.50931514  0.40166684  1
  O  O26  1  0.50980023  0.33368131  0.46512099  1
  O  O27  1  0.49010530  0.66635460  0.96502382  1
