# generated using pymatgen
data_Li7Mn4CoO12
_symmetry_space_group_name_H-M   'P 1'
_cell_length_a   5.97053165
_cell_length_b   7.63273127
_cell_length_c   10.17562174
_cell_angle_alpha   76.79702460
_cell_angle_beta   75.69588096
_cell_angle_gamma   80.78109836
_symmetry_Int_Tables_number   1
_chemical_formula_structural   Li7Mn4CoO12
_chemical_formula_sum   'Li14 Mn8 Co2 O24'
_cell_volume   434.80944304
_cell_formula_units_Z   2
loop_
 _symmetry_equiv_pos_site_id
 _symmetry_equiv_pos_as_xyz
  1  'x, y, z'
loop_
 _atom_site_type_symbol
 _atom_site_label
 _atom_site_symmetry_multiplicity
 _atom_site_fract_x
 _atom_site_fract_y
 _atom_site_fract_z
 _atom_site_occupancy
  Li  Li0  1  0.16667400  0.33334300  0.00000200  1
  Li  Li1  1  0.66665300  0.33332400  0.50000200  1
  Li  Li2  1  0.80849500  0.18755200  0.25872500  1
  Li  Li3  1  0.30795800  0.18069200  0.75670200  1
  Li  Li4  1  0.02533100  0.48600600  0.24331400  1
  Li  Li5  1  0.52480900  0.47910900  0.74127400  1
  Li  Li6  1  0.51207200  0.48960000  0.25667800  1
  Li  Li7  1  0.00009000  0.49122200  0.75626000  1
  Li  Li8  1  0.33322200  0.17544400  0.24373000  1
  Li  Li9  1  0.82126300  0.17705100  0.74332300  1
  Li  Li10  1  0.16140300  0.83645700  0.25079000  1
  Li  Li11  1  0.66252300  0.83442400  0.75223700  1
  Li  Li12  1  0.67079700  0.83225000  0.24777200  1
  Li  Li13  1  0.17192800  0.83021000  0.74921200  1
  Mn  Mn14  1  0.49880500  0.00604900  0.50066200  1
  Mn  Mn15  1  0.83450700  0.66061000  0.49933900  1
  Mn  Mn16  1  0.49545300  0.00663600  0.99516900  1
  Mn  Mn17  1  0.83790100  0.66004800  0.00484000  1
  Mn  Mn18  1  0.99332400  0.00533800  0.00300600  1
  Mn  Mn19  1  0.34003400  0.66133200  0.99700800  1
  Mn  Mn20  1  0.99869600  0.00485800  0.49824200  1
  Mn  Mn21  1  0.33462300  0.66179500  0.50174700  1
  Co  Co22  1  0.66668200  0.33334400  0.99999600  1
  Co  Co23  1  0.16665600  0.33332600  0.49999600  1
  O  O24  1  0.19499000  0.06560900  0.10664300  1
  O  O25  1  0.69935200  0.06377700  0.60758400  1
  O  O26  1  0.63397600  0.60287500  0.39240900  1
  O  O27  1  0.13836700  0.60106500  0.89336100  1
  O  O28  1  0.83563700  0.43282600  0.12377100  1
  O  O29  1  0.32019300  0.42622700  0.61569600  1
  O  O30  1  0.01312200  0.24042500  0.38429700  1
  O  O31  1  0.49771900  0.23385300  0.87622900  1
  O  O32  1  0.51936300  0.75309800  0.10565800  1
  O  O33  1  0.01960400  0.75335000  0.60600400  1
  O  O34  1  0.31372300  0.91330100  0.39398800  1
  O  O35  1  0.81400200  0.91358600  0.89433800  1
  O  O36  1  0.64300400  0.09040800  0.11501500  1
  O  O37  1  0.14734000  0.09323600  0.61705800  1
  O  O38  1  0.18597700  0.57341800  0.38293400  1
  O  O39  1  0.69036200  0.57627500  0.88498700  1
  O  O40  1  0.36872600  0.42138400  0.10553400  1
  O  O41  1  0.84064600  0.42959500  0.61402900  1
  O  O42  1  0.49266800  0.23705700  0.38596900  1
  O  O43  1  0.96465000  0.24528700  0.89446100  1
  O  O44  1  0.98567500  0.75630700  0.11892100  1
  O  O45  1  0.48003700  0.75549400  0.61779000  1
  O  O46  1  0.85328200  0.91116000  0.38220500  1
  O  O47  1  0.34768300  0.91037000  0.88109300  1
