# generated using pymatgen
data_Li3Mn4O8
_symmetry_space_group_name_H-M   'P 1'
_cell_length_a   5.72149200
_cell_length_b   8.71311100
_cell_length_c   13.01368287
_cell_angle_alpha   86.95548605
_cell_angle_beta   90.00000000
_cell_angle_gamma   90.00000000
_symmetry_Int_Tables_number   1
_chemical_formula_structural   Li3Mn4O8
_chemical_formula_sum   'Li12 Mn16 O32'
_cell_volume   647.84237686
_cell_formula_units_Z   4
loop_
 _symmetry_equiv_pos_site_id
 _symmetry_equiv_pos_as_xyz
  1  'x, y, z'
loop_
 _atom_site_type_symbol
 _atom_site_label
 _atom_site_symmetry_multiplicity
 _atom_site_fract_x
 _atom_site_fract_y
 _atom_site_fract_z
 _atom_site_occupancy
  Li  Li0  1  0.25696600  0.42080600  0.95804800  1
  Li  Li1  1  0.49441400  0.46676500  0.19903200  1
  Li  Li2  1  0.01827500  0.46563000  0.20071300  1
  Li  Li3  1  0.29868400  0.95995100  0.47480400  1
  Li  Li4  1  0.75195500  0.96462400  0.71235000  1
  Li  Li5  1  0.25979400  0.99402000  0.67970300  1
  Li  Li6  1  0.75696600  0.57919400  0.04195200  1
  Li  Li7  1  0.99441400  0.53323500  0.80096800  1
  Li  Li8  1  0.51827500  0.53437000  0.79928700  1
  Li  Li9  1  0.75979400  0.00598000  0.32029700  1
  Li  Li10  1  0.25195500  0.03537600  0.28765000  1
  Li  Li11  1  0.79868400  0.04004900  0.52519600  1
  Mn  Mn12  1  0.50750300  0.20877100  0.09580000  1
  Mn  Mn13  1  0.00614600  0.20745400  0.09629700  1
  Mn  Mn14  1  0.51192600  0.33619400  0.65571300  1
  Mn  Mn15  1  0.00813100  0.33545400  0.65999600  1
  Mn  Mn16  1  0.01192600  0.66380600  0.34428700  1
  Mn  Mn17  1  0.50813100  0.66454600  0.34000400  1
  Mn  Mn18  1  0.00750300  0.79122900  0.90420000  1
  Mn  Mn19  1  0.50614600  0.79254600  0.90370300  1
  Mn  Mn20  1  0.75578700  0.71384100  0.59153000  1
  Mn  Mn21  1  0.25716400  0.71229200  0.59746800  1
  Mn  Mn22  1  0.75600900  0.83563900  0.15996200  1
  Mn  Mn23  1  0.25334800  0.82654300  0.15339700  1
  Mn  Mn24  1  0.75334800  0.17345700  0.84660300  1
  Mn  Mn25  1  0.25600900  0.16436100  0.84003800  1
  Mn  Mn26  1  0.75716400  0.28770800  0.40253200  1
  Mn  Mn27  1  0.25578700  0.28615900  0.40847000  1
  O  O28  1  0.76023400  0.93140500  0.86875700  1
  O  O29  1  0.25542700  0.94095400  0.87494000  1
  O  O30  1  0.75638300  0.71368200  0.43047800  1
  O  O31  1  0.27031800  0.72458600  0.43406700  1
  O  O32  1  0.77031800  0.27541400  0.56593300  1
  O  O33  1  0.25638300  0.28631800  0.56952200  1
  O  O34  1  0.75542700  0.05904600  0.12506000  1
  O  O35  1  0.26023400  0.06859500  0.13124300  1
  O  O36  1  0.00586200  0.42285900  0.36574000  1
  O  O37  1  0.50687200  0.43209200  0.36712400  1
  O  O38  1  0.01444900  0.22702800  0.93206600  1
  O  O39  1  0.49099100  0.22945000  0.93354800  1
  O  O40  1  0.51444900  0.77297200  0.06793400  1
  O  O41  1  0.99099100  0.77055000  0.06645200  1
  O  O42  1  0.50586200  0.57714100  0.63426000  1
  O  O43  1  0.00687200  0.56790800  0.63287600  1
  O  O44  1  0.50791000  0.87338700  0.60010100  1
  O  O45  1  0.00589900  0.87075100  0.60037800  1
  O  O46  1  0.00797400  0.87734000  0.25338300  1
  O  O47  1  0.50858000  0.86935100  0.26399500  1
  O  O48  1  0.00791000  0.12661300  0.39989900  1
  O  O49  1  0.50589900  0.12924900  0.39962200  1
  O  O50  1  0.50797400  0.12266000  0.74661700  1
  O  O51  1  0.00858000  0.13064900  0.73600500  1
  O  O52  1  0.75778600  0.36221000  0.11226400  1
  O  O53  1  0.25569300  0.36115200  0.10787600  1
  O  O54  1  0.75795600  0.38208600  0.75374500  1
  O  O55  1  0.25312400  0.37171300  0.76663500  1
  O  O56  1  0.75569300  0.63884800  0.89212400  1
  O  O57  1  0.25778600  0.63779000  0.88773600  1
  O  O58  1  0.75312400  0.62828700  0.23336500  1
  O  O59  1  0.25795600  0.61791400  0.24625500  1
