# generated using pymatgen
data_Li9Mn2Co5O16
_symmetry_space_group_name_H-M   'P 1'
_cell_length_a   6.55562794
_cell_length_b   6.55562794
_cell_length_c   10.21693991
_cell_angle_alpha   59.53349015
_cell_angle_beta   59.53349015
_cell_angle_gamma   52.68071947
_symmetry_Int_Tables_number   1
_chemical_formula_structural   Li9Mn2Co5O16
_chemical_formula_sum   'Li9 Mn2 Co5 O16'
_cell_volume   287.92883369
_cell_formula_units_Z   1
loop_
 _symmetry_equiv_pos_site_id
 _symmetry_equiv_pos_as_xyz
  1  'x, y, z'
loop_
 _atom_site_type_symbol
 _atom_site_label
 _atom_site_symmetry_multiplicity
 _atom_site_fract_x
 _atom_site_fract_y
 _atom_site_fract_z
 _atom_site_occupancy
  Li  Li0  1  0.49183300  0.99935000  0.25820100  1
  Li  Li1  1  0.00065000  0.50816700  0.74179900  1
  Li  Li2  1  0.24971400  0.24971400  0.49526600  1
  Li  Li3  1  0.75111600  0.75111600  0.99905700  1
  Li  Li4  1  0.24888400  0.24888400  0.00094300  1
  Li  Li5  1  0.75028600  0.75028600  0.50473400  1
  Li  Li6  1  0.99935000  0.49183300  0.25820100  1
  Li  Li7  1  0.50816700  0.00065000  0.74179900  1
  Li  Li8  1  0.00000000  0.00000000  0.50000000  1
  Mn  Mn9  1  0.00000000  0.00000000  0.00000000  1
  Mn  Mn10  1  0.50000000  0.50000000  0.50000000  1
  Co  Co11  1  0.75296300  0.24383000  0.25830100  1
  Co  Co12  1  0.24703700  0.75617000  0.74169900  1
  Co  Co13  1  0.75617000  0.24703700  0.74169900  1
  Co  Co14  1  0.24383000  0.75296300  0.25830100  1
  Co  Co15  1  0.50000000  0.50000000  0.00000000  1
  O  O16  1  0.64458900  0.13046400  0.99716000  1
  O  O17  1  0.15058700  0.62005000  0.49236000  1
  O  O18  1  0.38942900  0.38942900  0.24338100  1
  O  O19  1  0.88318900  0.88318900  0.75686200  1
  O  O20  1  0.38504800  0.38504800  0.73254800  1
  O  O21  1  0.88730100  0.88730100  0.23318700  1
  O  O22  1  0.13046400  0.64458900  0.99716000  1
  O  O23  1  0.62005000  0.15058700  0.49236000  1
  O  O24  1  0.37995000  0.84941300  0.50764000  1
  O  O25  1  0.86953600  0.35541100  0.00284000  1
  O  O26  1  0.11269900  0.11269900  0.76681300  1
  O  O27  1  0.61495200  0.61495200  0.26745200  1
  O  O28  1  0.11681100  0.11681100  0.24313800  1
  O  O29  1  0.61057100  0.61057100  0.75661900  1
  O  O30  1  0.84941300  0.37995000  0.50764000  1
  O  O31  1  0.35541100  0.86953600  0.00284000  1
