# generated using pymatgen
data_Li7Mn5O12
_symmetry_space_group_name_H-M   'P 1'
_cell_length_a   5.08328700
_cell_length_b   6.00609098
_cell_length_c   7.77811289
_cell_angle_alpha   103.63181670
_cell_angle_beta   96.94526509
_cell_angle_gamma   104.66782812
_symmetry_Int_Tables_number   1
_chemical_formula_structural   Li7Mn5O12
_chemical_formula_sum   'Li7 Mn5 O12'
_cell_volume   219.10255550
_cell_formula_units_Z   1
loop_
 _symmetry_equiv_pos_site_id
 _symmetry_equiv_pos_as_xyz
  1  'x, y, z'
loop_
 _atom_site_type_symbol
 _atom_site_label
 _atom_site_symmetry_multiplicity
 _atom_site_fract_x
 _atom_site_fract_y
 _atom_site_fract_z
 _atom_site_occupancy
  Li  Li0  1  0.49825100  0.08627700  0.83688300  1
  Li  Li1  1  0.51125500  0.58325400  0.84026600  1
  Li  Li2  1  0.50776400  0.25293000  0.50122900  1
  Li  Li3  1  0.49223600  0.74707000  0.49877100  1
  Li  Li4  1  0.48874500  0.41674600  0.15973400  1
  Li  Li5  1  0.50174900  0.91372300  0.16311700  1
  Li  Li6  1  0.00000000  0.50000000  0.00000000  1
  Mn  Mn7  1  0.00000000  0.00000000  0.00000000  1
  Mn  Mn8  1  0.99861400  0.16860700  0.67117000  1
  Mn  Mn9  1  0.99481000  0.65956900  0.67106900  1
  Mn  Mn10  1  0.00519000  0.34043100  0.32893100  1
  Mn  Mn11  1  0.00138600  0.83139300  0.32883000  1
  O  O12  1  0.22455100  0.79707000  0.90679100  1
  O  O13  1  0.21732100  0.25825500  0.91366700  1
  O  O14  1  0.21926700  0.95315600  0.57979300  1
  O  O15  1  0.23311600  0.46559700  0.57395500  1
  O  O16  1  0.23694800  0.13529200  0.23696300  1
  O  O17  1  0.22970600  0.62774200  0.25800500  1
  O  O18  1  0.77029400  0.37225800  0.74199500  1
  O  O19  1  0.76305200  0.86470800  0.76303700  1
  O  O20  1  0.76688400  0.53440300  0.42604500  1
  O  O21  1  0.78073300  0.04684400  0.42020700  1
  O  O22  1  0.78267900  0.74174500  0.08633300  1
  O  O23  1  0.77544900  0.20293000  0.09320900  1
