# generated using pymatgen
data_Li2MnCo3O8
_symmetry_space_group_name_H-M   'P 1'
_cell_length_a   5.74691487
_cell_length_b   5.65786219
_cell_length_c   10.27110622
_cell_angle_alpha   104.86531280
_cell_angle_beta   75.87932643
_cell_angle_gamma   118.44475097
_symmetry_Int_Tables_number   1
_chemical_formula_structural   Li2MnCo3O8
_chemical_formula_sum   'Li4 Mn2 Co6 O16'
_cell_volume   280.89345319
_cell_formula_units_Z   2
loop_
 _symmetry_equiv_pos_site_id
 _symmetry_equiv_pos_as_xyz
  1  'x, y, z'
loop_
 _atom_site_type_symbol
 _atom_site_label
 _atom_site_symmetry_multiplicity
 _atom_site_fract_x
 _atom_site_fract_y
 _atom_site_fract_z
 _atom_site_occupancy
  Li  Li0  1  0.25582400  0.75447900  0.24933100  1
  Li  Li1  1  0.74407500  0.24557300  0.75069900  1
  Li  Li2  1  0.75025200  0.24539800  0.24926400  1
  Li  Li3  1  0.24983100  0.75442200  0.75073900  1
  Mn  Mn4  1  0.99995200  0.99989500  0.99997000  1
  Mn  Mn5  1  0.50001900  0.50011000  0.49997000  1
  Co  Co6  1  0.99990800  0.99993600  0.50003200  1
  Co  Co7  1  0.50005200  0.00004900  0.99999700  1
  Co  Co8  1  0.00005400  0.50007300  0.99999300  1
  Co  Co9  1  0.50009100  0.50008900  0.00000100  1
  Co  Co10  1  0.99995400  0.49995600  0.50002500  1
  Co  Co11  1  0.49994300  0.99990000  0.50002500  1
  O  O12  1  0.64631400  0.36856400  0.09437400  1
  O  O13  1  0.12384100  0.85576200  0.59690900  1
  O  O14  1  0.87605600  0.14417300  0.40313500  1
  O  O15  1  0.35377600  0.63153900  0.90562200  1
  O  O16  1  0.34648400  0.61843300  0.39626500  1
  O  O17  1  0.85847500  0.13695900  0.89904700  1
  O  O18  1  0.14164100  0.86318300  0.10091200  1
  O  O19  1  0.65338700  0.38147600  0.60376300  1
  O  O20  1  0.86182300  0.62844200  0.39706600  1
  O  O21  1  0.35949200  0.12988600  0.89701700  1
  O  O22  1  0.39617500  0.14164000  0.39034400  1
  O  O23  1  0.89541900  0.63955100  0.89057300  1
  O  O24  1  0.10470300  0.36057900  0.10941000  1
  O  O25  1  0.60371200  0.85820200  0.60961800  1
  O  O26  1  0.64063600  0.87026300  0.10295500  1
  O  O27  1  0.13811100  0.37146700  0.60294500  1
