# generated using pymatgen
data_Li3Mn3TeO8
_symmetry_space_group_name_H-M   'P 1'
_cell_length_a   6.16043025
_cell_length_b   6.32672860
_cell_length_c   8.68432247
_cell_angle_alpha   89.94342336
_cell_angle_beta   91.99874854
_cell_angle_gamma   90.03279939
_symmetry_Int_Tables_number   1
_chemical_formula_structural   Li3Mn3TeO8
_chemical_formula_sum   'Li6 Mn6 Te2 O16'
_cell_volume   338.26853809
_cell_formula_units_Z   2
loop_
 _symmetry_equiv_pos_site_id
 _symmetry_equiv_pos_as_xyz
  1  'x, y, z'
loop_
 _atom_site_type_symbol
 _atom_site_label
 _atom_site_symmetry_multiplicity
 _atom_site_fract_x
 _atom_site_fract_y
 _atom_site_fract_z
 _atom_site_occupancy
  Li  Li0  1  0.75017000  0.25019700  0.75004100  1
  Li  Li1  1  0.24989400  0.75010000  0.25008600  1
  Li  Li2  1  0.74984400  0.75008400  0.75005300  1
  Li  Li3  1  0.24991800  0.25017800  0.25001100  1
  Li  Li4  1  0.99951000  0.50790400  0.49989400  1
  Li  Li5  1  0.50044600  0.99228200  0.00005400  1
  Mn  Mn6  1  0.25001700  0.75004100  0.74999400  1
  Mn  Mn7  1  0.75036500  0.24981200  0.25041500  1
  Mn  Mn8  1  0.24982600  0.25000400  0.74975400  1
  Mn  Mn9  1  0.75000700  0.74978900  0.24984600  1
  Mn  Mn10  1  0.00335200  0.49955900  0.99985600  1
  Mn  Mn11  1  0.49696900  0.00039600  0.50027000  1
  Te  Te12  1  0.49958000  0.49834900  0.49981900  1
  Te  Te13  1  0.00036400  0.00182200  0.00016100  1
  O  O14  1  0.53736600  0.97377200  0.25465300  1
  O  O15  1  0.03703900  0.52581500  0.75421500  1
  O  O16  1  0.46266800  0.97378200  0.74565300  1
  O  O17  1  0.96261300  0.52624700  0.24525300  1
  O  O18  1  0.77547500  0.78121200  0.00804300  1
  O  O19  1  0.27502300  0.28008000  0.49381300  1
  O  O20  1  0.27358400  0.71819000  0.50758200  1
  O  O21  1  0.77653800  0.21998600  0.99403600  1
  O  O22  1  0.48808600  0.50046700  0.27488400  1
  O  O23  1  0.98949500  0.99923300  0.77507100  1
  O  O24  1  0.22504700  0.21984600  0.00612000  1
  O  O25  1  0.72455500  0.71880800  0.49185800  1
  O  O26  1  0.72356000  0.28006300  0.50609000  1
  O  O27  1  0.22632000  0.78184000  0.99240900  1
  O  O28  1  0.51039100  0.50065900  0.72491400  1
  O  O29  1  0.01196500  0.99948000  0.22515200  1
