# generated using pymatgen
data_Li4Co3O7
_symmetry_space_group_name_H-M   'P 1'
_cell_length_a   7.84059285
_cell_length_b   7.84059285
_cell_length_c   12.63316940
_cell_angle_alpha   62.12238932
_cell_angle_beta   62.12238932
_cell_angle_gamma   21.43726981
_symmetry_Int_Tables_number   1
_chemical_formula_structural   Li4Co3O7
_chemical_formula_sum   'Li8 Co6 O14'
_cell_volume   249.64070264
_cell_formula_units_Z   2
loop_
 _symmetry_equiv_pos_site_id
 _symmetry_equiv_pos_as_xyz
  1  'x, y, z'
loop_
 _atom_site_type_symbol
 _atom_site_label
 _atom_site_symmetry_multiplicity
 _atom_site_fract_x
 _atom_site_fract_y
 _atom_site_fract_z
 _atom_site_occupancy
  Li  Li0  1  0.07076900  0.07076900  0.64563300  1
  Li  Li1  1  0.36013400  0.36013400  0.21086900  1
  Li  Li2  1  0.63986600  0.63986600  0.78913100  1
  Li  Li3  1  0.50000000  0.50000000  0.50000000  1
  Li  Li4  1  0.78687700  0.78687700  0.06767400  1
  Li  Li5  1  0.92923100  0.92923100  0.35436700  1
  Li  Li6  1  0.21312300  0.21312300  0.93232600  1
  Li  Li7  1  0.00000000  0.00000000  0.00000000  1
  Co  Co8  1  0.43040900  0.43040900  0.86523100  1
  Co  Co9  1  0.56959100  0.56959100  0.13476900  1
  Co  Co10  1  0.71430400  0.71430400  0.42749100  1
  Co  Co11  1  0.28569600  0.28569600  0.57250900  1
  Co  Co12  1  0.85423700  0.85423700  0.71897400  1
  Co  Co13  1  0.14576300  0.14576300  0.28102600  1
  O  O14  1  0.02766300  0.02766300  0.82467200  1
  O  O15  1  0.31465300  0.31465300  0.39734700  1
  O  O16  1  0.60383300  0.60383300  0.98361100  1
  O  O17  1  0.45547800  0.45547800  0.69770700  1
  O  O18  1  0.74613000  0.74613000  0.25080900  1
  O  O19  1  0.88838800  0.88838800  0.54147600  1
  O  O20  1  0.16965300  0.16965300  0.11178500  1
  O  O21  1  0.11161200  0.11161200  0.45852400  1
  O  O22  1  0.39616700  0.39616700  0.01638900  1
  O  O23  1  0.68534700  0.68534700  0.60265300  1
  O  O24  1  0.54452200  0.54452200  0.30229300  1
  O  O25  1  0.83034700  0.83034700  0.88821500  1
  O  O26  1  0.97233700  0.97233700  0.17532800  1
  O  O27  1  0.25387000  0.25387000  0.74919100  1
