# generated using pymatgen
data_Li3Mn3P8O29
_symmetry_space_group_name_H-M   'P 1'
_cell_length_a   9.78560453
_cell_length_b   9.78560453
_cell_length_c   14.11035073
_cell_angle_alpha   89.19177223
_cell_angle_beta   89.19177223
_cell_angle_gamma   59.56713442
_symmetry_Int_Tables_number   1
_chemical_formula_structural   Li3Mn3P8O29
_chemical_formula_sum   'Li6 Mn6 P16 O58'
_cell_volume   1164.86473641
_cell_formula_units_Z   2
loop_
 _symmetry_equiv_pos_site_id
 _symmetry_equiv_pos_as_xyz
  1  'x, y, z'
loop_
 _atom_site_type_symbol
 _atom_site_label
 _atom_site_symmetry_multiplicity
 _atom_site_fract_x
 _atom_site_fract_y
 _atom_site_fract_z
 _atom_site_occupancy
  Li  Li0  1  0.00000000  0.00000000  0.00000000  1
  Li  Li1  1  0.00000000  0.00000000  0.50000000  1
  Li  Li2  1  0.77002900  0.90488800  0.06512400  1
  Li  Li3  1  0.90488800  0.77002900  0.56512400  1
  Li  Li4  1  0.09511200  0.22997100  0.43487600  1
  Li  Li5  1  0.22997100  0.09511200  0.93487600  1
  Mn  Mn6  1  0.55923400  0.99709400  0.25093400  1
  Mn  Mn7  1  0.44076600  0.00290600  0.74906600  1
  Mn  Mn8  1  0.99709400  0.55923400  0.75093400  1
  Mn  Mn9  1  0.00290600  0.44076600  0.24906600  1
  Mn  Mn10  1  0.43515100  0.56484900  0.25000000  1
  Mn  Mn11  1  0.56484900  0.43515100  0.75000000  1
  P  P12  1  0.77214300  0.90655800  0.84506900  1
  P  P13  1  0.90655800  0.77214300  0.34506900  1
  P  P14  1  0.30615500  0.90717200  0.33514900  1
  P  P15  1  0.66421700  0.66550400  0.63751200  1
  P  P16  1  0.66550400  0.66421700  0.13751200  1
  P  P17  1  0.30800900  0.77750100  0.84069900  1
  P  P18  1  0.22249900  0.69199100  0.65930100  1
  P  P19  1  0.90717200  0.30615500  0.83514900  1
  P  P20  1  0.09282800  0.69384500  0.16485100  1
  P  P21  1  0.77750100  0.30800900  0.34069900  1
  P  P22  1  0.69199100  0.22249900  0.15930100  1
  P  P23  1  0.33578300  0.33449600  0.36248800  1
  P  P24  1  0.33449600  0.33578300  0.86248800  1
  P  P25  1  0.69384500  0.09282800  0.66485100  1
  P  P26  1  0.09344200  0.22785700  0.65493100  1
  P  P27  1  0.22785700  0.09344200  0.15493100  1
  O  O28  1  0.78638700  0.01332300  0.76209700  1
  O  O29  1  0.79571800  0.00015000  0.58418400  1
  O  O30  1  0.73536000  0.91807800  0.33486700  1
  O  O31  1  0.01332300  0.78638700  0.26209700  1
  O  O32  1  0.00015000  0.79571800  0.08418400  1
  O  O33  1  0.91807800  0.73536000  0.83486700  1
  O  O34  1  0.61810900  0.90245500  0.82928100  1
  O  O35  1  0.66594100  0.81982800  0.16293300  1
  O  O36  1  0.46551100  0.90573900  0.32903100  1
  O  O37  1  0.21569400  0.02570200  0.06256000  1
  O  O38  1  0.21361300  0.98667700  0.23790300  1
  O  O39  1  0.33645600  0.91996400  0.83702300  1
  O  O40  1  0.81982800  0.66594100  0.66293300  1
  O  O41  1  0.90245500  0.61810900  0.32928100  1
  O  O42  1  0.51305300  0.81141300  0.67656700  1
  O  O43  1  0.64614300  0.68084300  0.52953000  1
  O  O44  1  0.68084300  0.64614300  0.02953000  1
  O  O45  1  0.51185600  0.67748300  0.17815100  1
  O  O46  1  0.90573900  0.46551100  0.82903100  1
  O  O47  1  0.81141300  0.51305300  0.17656700  1
  O  O48  1  0.33785100  0.73607500  0.33629500  1
  O  O49  1  0.19929500  0.80070500  0.75000000  1
  O  O50  1  0.20109100  0.78948600  0.57361400  1
  O  O51  1  0.21051400  0.79890900  0.92638600  1
  O  O52  1  0.46349400  0.61813800  0.83068300  1
  O  O53  1  0.67748300  0.51185600  0.67815100  1
  O  O54  1  0.26392500  0.66214900  0.16370500  1
  O  O55  1  0.61813800  0.46349400  0.33068300  1
  O  O56  1  0.91996400  0.33645600  0.33702300  1
  O  O57  1  0.97429800  0.78430600  0.43744000  1
  O  O58  1  0.02570200  0.21569400  0.56256000  1
  O  O59  1  0.98667700  0.21361300  0.73790300  1
  O  O60  1  0.08003600  0.66354400  0.66297700  1
  O  O61  1  0.38186200  0.53650600  0.66931700  1
  O  O62  1  0.73607500  0.33785100  0.83629500  1
  O  O63  1  0.32251700  0.48814400  0.32184900  1
  O  O64  1  0.53650600  0.38186200  0.16931700  1
  O  O65  1  0.78948600  0.20109100  0.07361400  1
  O  O66  1  0.79890900  0.21051400  0.42638600  1
  O  O67  1  0.80070500  0.19929500  0.25000000  1
  O  O68  1  0.66214900  0.26392500  0.66370500  1
  O  O69  1  0.18858700  0.48694700  0.82343300  1
  O  O70  1  0.09426100  0.53448900  0.17096900  1
  O  O71  1  0.48814400  0.32251700  0.82184900  1
  O  O72  1  0.35385700  0.31915700  0.47047000  1
  O  O73  1  0.31915700  0.35385700  0.97047000  1
  O  O74  1  0.48694700  0.18858700  0.32343300  1
  O  O75  1  0.09754500  0.38189100  0.67071900  1
  O  O76  1  0.18017200  0.33405900  0.33706700  1
  O  O77  1  0.66354400  0.08003600  0.16297700  1
  O  O78  1  0.78430600  0.97429800  0.93744000  1
  O  O79  1  0.53448900  0.09426100  0.67096900  1
  O  O80  1  0.33405900  0.18017200  0.83706700  1
  O  O81  1  0.38189100  0.09754500  0.17071900  1
  O  O82  1  0.08192200  0.26464000  0.16513300  1
  O  O83  1  0.99985000  0.20428200  0.91581600  1
  O  O84  1  0.26464000  0.08192200  0.66513300  1
  O  O85  1  0.20428200  0.99985000  0.41581600  1
