# generated using pymatgen
data_BaLiCoF6
_symmetry_space_group_name_H-M   'P 1'
_cell_length_a   10.34935200
_cell_length_b   5.62837100
_cell_length_c   8.54480610
_cell_angle_alpha   88.75843035
_cell_angle_beta   90.00000000
_cell_angle_gamma   90.00000000
_symmetry_Int_Tables_number   1
_chemical_formula_structural   BaLiCoF6
_chemical_formula_sum   'Ba4 Li4 Co4 F24'
_cell_volume   497.61803734
_cell_formula_units_Z   4
loop_
 _symmetry_equiv_pos_site_id
 _symmetry_equiv_pos_as_xyz
  1  'x, y, z'
loop_
 _atom_site_type_symbol
 _atom_site_label
 _atom_site_symmetry_multiplicity
 _atom_site_fract_x
 _atom_site_fract_y
 _atom_site_fract_z
 _atom_site_occupancy
  Ba  Ba0  1  0.79913500  0.31559900  0.00330800  1
  Ba  Ba1  1  0.70086500  0.31559900  0.50330800  1
  Ba  Ba2  1  0.20086500  0.68440100  0.99669200  1
  Ba  Ba3  1  0.29913500  0.68440100  0.49669200  1
  Li  Li4  1  0.42650600  0.23252500  0.80927700  1
  Li  Li5  1  0.92650600  0.76747500  0.69072300  1
  Li  Li6  1  0.57349400  0.76747500  0.19072300  1
  Li  Li7  1  0.07349400  0.23252500  0.30927700  1
  Co  Co8  1  0.58139600  0.77709000  0.76687500  1
  Co  Co9  1  0.91860400  0.77709000  0.26687500  1
  Co  Co10  1  0.41860400  0.22291000  0.23312500  1
  Co  Co11  1  0.08139600  0.22291000  0.73312500  1
  F  F12  1  0.00469400  0.51616000  0.81755500  1
  F  F13  1  0.86968600  0.10244900  0.31742200  1
  F  F14  1  0.36968600  0.89755100  0.18257800  1
  F  F15  1  0.13031400  0.89755100  0.68257800  1
  F  F16  1  0.63031400  0.10244900  0.81742200  1
  F  F17  1  0.59858900  0.10918600  0.21554800  1
  F  F18  1  0.09858900  0.89081400  0.28445200  1
  F  F19  1  0.40141100  0.89081400  0.78445200  1
  F  F20  1  0.50469400  0.48384000  0.68244500  1
  F  F21  1  0.24494900  0.37825100  0.25236600  1
  F  F22  1  0.49530600  0.51616000  0.31755500  1
  F  F23  1  0.99530600  0.48384000  0.18244500  1
  F  F24  1  0.75505100  0.62174900  0.74763400  1
  F  F25  1  0.25505100  0.37825100  0.75236600  1
  F  F26  1  0.60212300  0.86582300  0.55612900  1
  F  F27  1  0.74494900  0.62174900  0.24763400  1
  F  F28  1  0.90880000  0.67450500  0.47432300  1
  F  F29  1  0.10212300  0.13417700  0.94387100  1
  F  F30  1  0.39787700  0.13417700  0.44387100  1
  F  F31  1  0.89787700  0.86582300  0.05612900  1
  F  F32  1  0.59120000  0.67450500  0.97432300  1
  F  F33  1  0.09120000  0.32549500  0.52567700  1
  F  F34  1  0.40880000  0.32549500  0.02567700  1
  F  F35  1  0.90141100  0.10918600  0.71554800  1
