# generated using pymatgen
data_Li4MnCo2O7
_symmetry_space_group_name_H-M   'P 1'
_cell_length_a   5.92905583
_cell_length_b   6.57350261
_cell_length_c   7.72701310
_cell_angle_alpha   115.97042195
_cell_angle_beta   111.36292941
_cell_angle_gamma   75.98136228
_symmetry_Int_Tables_number   1
_chemical_formula_structural   Li4MnCo2O7
_chemical_formula_sum   'Li8 Mn2 Co4 O14'
_cell_volume   250.91070892
_cell_formula_units_Z   2
loop_
 _symmetry_equiv_pos_site_id
 _symmetry_equiv_pos_as_xyz
  1  'x, y, z'
loop_
 _atom_site_type_symbol
 _atom_site_label
 _atom_site_symmetry_multiplicity
 _atom_site_fract_x
 _atom_site_fract_y
 _atom_site_fract_z
 _atom_site_occupancy
  Li  Li0  1  0.21533025  0.43141384  0.14140451  1
  Li  Li1  1  0.92324765  0.85090883  0.28490536  1
  Li  Li2  1  0.64401709  0.29151672  0.42478242  1
  Li  Li3  1  0.34806851  0.71206101  0.56472941  1
  Li  Li4  1  0.07088679  0.14451607  0.71226179  1
  Li  Li5  1  0.79100817  0.57031162  0.87095781  1
  Li  Li6  1  0.50117458  0.00090385  0.00118575  1
  Li  Li7  1  0.71410365  0.43279466  0.14363942  1
  Mn  Mn8  1  0.00141365  0.00418663  0.00201542  1
  Mn  Mn9  1  0.13769728  0.28563895  0.42624868  1
  Co  Co10  1  0.44224739  0.83995533  0.27885734  1
  Co  Co11  1  0.84813703  0.70619222  0.56192362  1
  Co  Co12  1  0.57486753  0.14991035  0.72184263  1
  Co  Co13  1  0.28570745  0.57105809  0.85684327  1
  O  O14  1  0.89501269  0.26034819  0.92638796  1
  O  O15  1  0.59899483  0.72604840  0.08135818  1
  O  O16  1  0.29304397  0.14441254  0.21086070  1
  O  O17  1  0.03472413  0.56214182  0.37462943  1
  O  O18  1  0.73471072  0.99500432  0.50589449  1
  O  O19  1  0.43349764  0.42369837  0.63776066  1
  O  O20  1  0.17371347  0.84565751  0.80007217  1
  O  O21  1  0.53989806  0.58634919  0.36904645  1
  O  O22  1  0.25656245  0.01383841  0.48842377  1
  O  O23  1  0.96822025  0.42084610  0.62502409  1
  O  O24  1  0.70980995  0.86835779  0.79996234  1
  O  O25  1  0.39219470  0.29837436  0.91104329  1
  O  O26  1  0.11727641  0.72207707  0.06115112  1
  O  O27  1  0.85443371  0.14147778  0.21678790  1
