# generated using pymatgen
data_Li2Cr3CuO8
_symmetry_space_group_name_H-M   'P 1'
_cell_length_a   8.38347036
_cell_length_b   8.35182892
_cell_length_c   8.35702419
_cell_angle_alpha   89.65577148
_cell_angle_beta   89.72418051
_cell_angle_gamma   89.86986233
_symmetry_Int_Tables_number   1
_chemical_formula_structural   Li2Cr3CuO8
_chemical_formula_sum   'Li8 Cr12 Cu4 O32'
_cell_volume   585.11754384
_cell_formula_units_Z   4
loop_
 _symmetry_equiv_pos_site_id
 _symmetry_equiv_pos_as_xyz
  1  'x, y, z'
loop_
 _atom_site_type_symbol
 _atom_site_label
 _atom_site_symmetry_multiplicity
 _atom_site_fract_x
 _atom_site_fract_y
 _atom_site_fract_z
 _atom_site_occupancy
  Li  Li0  1  0.00299400  0.00342300  0.00127900  1
  Li  Li1  1  0.25027900  0.24715800  0.24922800  1
  Li  Li2  1  0.24939100  0.74957200  0.74962700  1
  Li  Li3  1  0.50148000  0.00244000  0.50127700  1
  Li  Li4  1  0.50251700  0.49971000  0.99977200  1
  Li  Li5  1  0.74678200  0.24960600  0.75250800  1
  Li  Li6  1  0.74855100  0.74602000  0.25098300  1
  Li  Li7  1  0.99959400  0.50336800  0.49868700  1
  Cr  Cr8  1  0.12190900  0.12721500  0.62570000  1
  Cr  Cr9  1  0.12741800  0.37497800  0.87806800  1
  Cr  Cr10  1  0.12885500  0.62115600  0.12496700  1
  Cr  Cr11  1  0.37537600  0.37297500  0.62691600  1
  Cr  Cr12  1  0.37536800  0.62462500  0.37496900  1
  Cr  Cr13  1  0.37551300  0.87533100  0.12770400  1
  Cr  Cr14  1  0.62388000  0.37434300  0.37491800  1
  Cr  Cr15  1  0.62363300  0.12561100  0.12427200  1
  Cr  Cr16  1  0.62624400  0.87576900  0.87528800  1
  Cr  Cr17  1  0.87404400  0.12352500  0.37266400  1
  Cr  Cr18  1  0.87328900  0.87618700  0.62412500  1
  Cr  Cr19  1  0.87318900  0.62471600  0.87657300  1
  Cu  Cu20  1  0.12546100  0.87604900  0.37404800  1
  Cu  Cu21  1  0.37575600  0.12550300  0.87545200  1
  Cu  Cu22  1  0.62258700  0.62616800  0.62469300  1
  Cu  Cu23  1  0.87526400  0.37306200  0.12428300  1
  O  O24  1  0.10226700  0.11932300  0.38791900  1
  O  O25  1  0.10293100  0.88688800  0.61582700  1
  O  O26  1  0.11245100  0.60593600  0.88324600  1
  O  O27  1  0.13709500  0.14629100  0.86480100  1
  O  O28  1  0.12600100  0.38295300  0.10288100  1
  O  O29  1  0.13468500  0.36793400  0.64428000  1
  O  O30  1  0.14658000  0.63552200  0.36438900  1
  O  O31  1  0.14790300  0.85999600  0.12754900  1
  O  O32  1  0.35942900  0.14632500  0.62768600  1
  O  O33  1  0.36289600  0.37320400  0.85512200  1
  O  O34  1  0.36896100  0.63594100  0.14475100  1
  O  O35  1  0.37881400  0.60761500  0.60709600  1
  O  O36  1  0.37187800  0.86149500  0.35766300  1
  O  O37  1  0.38458700  0.38528600  0.39382200  1
  O  O38  1  0.38818300  0.10873500  0.11642100  1
  O  O39  1  0.39219700  0.87996700  0.89365700  1
  O  O40  1  0.61000700  0.38481900  0.61303700  1
  O  O41  1  0.60299000  0.61054700  0.38162300  1
  O  O42  1  0.60771800  0.88435300  0.11435400  1
  O  O43  1  0.62834400  0.35874300  0.13960200  1
  O  O44  1  0.61694300  0.10341800  0.88762800  1
  O  O45  1  0.64595000  0.13253400  0.36316300  1
  O  O46  1  0.64396300  0.87245500  0.63983600  1
  O  O47  1  0.63396500  0.64693100  0.86491600  1
  O  O48  1  0.86672600  0.35790100  0.35461200  1
  O  O49  1  0.86375700  0.14065700  0.13644900  1
  O  O50  1  0.85702500  0.86794700  0.86391900  1
  O  O51  1  0.88081700  0.89250500  0.38675400  1
  O  O52  1  0.86674800  0.64685100  0.63769900  1
  O  O53  1  0.88131200  0.10857800  0.61107800  1
  O  O54  1  0.88751500  0.38475200  0.89507900  1
  O  O55  1  0.88998700  0.60523000  0.11528200  1
