# generated using pymatgen
data_Li4Ti2Mn3Sb3O16
_symmetry_space_group_name_H-M   'P 1'
_cell_length_a   6.22252316
_cell_length_b   6.22252316
_cell_length_c   9.76739114
_cell_angle_alpha   89.00879507
_cell_angle_beta   89.00879507
_cell_angle_gamma   59.81296926
_symmetry_Int_Tables_number   1
_chemical_formula_structural   Li4Ti2Mn3Sb3O16
_chemical_formula_sum   'Li4 Ti2 Mn3 Sb3 O16'
_cell_volume   326.83922909
_cell_formula_units_Z   1
loop_
 _symmetry_equiv_pos_site_id
 _symmetry_equiv_pos_as_xyz
  1  'x, y, z'
loop_
 _atom_site_type_symbol
 _atom_site_label
 _atom_site_symmetry_multiplicity
 _atom_site_fract_x
 _atom_site_fract_y
 _atom_site_fract_z
 _atom_site_occupancy
  Li  Li0  1  0.66959100  0.66959100  0.10560900  1
  Li  Li1  1  0.98797100  0.98797100  0.01346200  1
  Li  Li2  1  0.99655900  0.99655900  0.49951200  1
  Li  Li3  1  0.32377100  0.32377100  0.60001000  1
  Ti  Ti4  1  0.67997700  0.67997700  0.49971500  1
  Ti  Ti5  1  0.35676000  0.35676000  0.02244000  1
  Mn  Mn6  1  0.82623100  0.82623100  0.78680400  1
  Mn  Mn7  1  0.17644100  0.66452600  0.28967100  1
  Mn  Mn8  1  0.66452600  0.17644100  0.28967100  1
  Sb  Sb9  1  0.33440300  0.82633900  0.78395000  1
  Sb  Sb10  1  0.82633900  0.33440300  0.78395000  1
  Sb  Sb11  1  0.17665800  0.17665800  0.28398400  1
  O  O12  1  0.34545700  0.85172900  0.40806900  1
  O  O13  1  0.51024900  0.51024900  0.66060300  1
  O  O14  1  0.65969300  0.65969300  0.89590900  1
  O  O15  1  0.99632800  0.99632800  0.68560300  1
  O  O16  1  0.01335000  0.01335000  0.19723300  1
  O  O17  1  0.85172900  0.34545700  0.40806900  1
  O  O18  1  0.51559000  0.94883100  0.65829900  1
  O  O19  1  0.94883100  0.51559000  0.65829900  1
  O  O20  1  0.15240000  0.15240000  0.89571600  1
  O  O21  1  0.82855000  0.82855000  0.41817800  1
  O  O22  1  0.04522300  0.46850700  0.14993200  1
  O  O23  1  0.46850700  0.04522300  0.14993200  1
  O  O24  1  0.32655000  0.32655000  0.39885500  1
  O  O25  1  0.16684800  0.66666300  0.90549600  1
  O  O26  1  0.48336800  0.48336800  0.13769400  1
  O  O27  1  0.66666300  0.16684800  0.90549600  1
