# generated using pymatgen
data_Li2CoP2O7
_symmetry_space_group_name_H-M   'P 1'
_cell_length_a   4.87879200
_cell_length_b   12.17467822
_cell_length_c   9.05300957
_cell_angle_alpha   97.81572566
_cell_angle_beta   89.97493432
_cell_angle_gamma   89.64242628
_symmetry_Int_Tables_number   1
_chemical_formula_structural   Li2CoP2O7
_chemical_formula_sum   'Li8 Co4 P8 O28'
_cell_volume   532.72213281
_cell_formula_units_Z   4
loop_
 _symmetry_equiv_pos_site_id
 _symmetry_equiv_pos_as_xyz
  1  'x, y, z'
loop_
 _atom_site_type_symbol
 _atom_site_label
 _atom_site_symmetry_multiplicity
 _atom_site_fract_x
 _atom_site_fract_y
 _atom_site_fract_z
 _atom_site_occupancy
  Li  Li0  1  0.72153700  0.11631000  0.64361300  1
  Li  Li1  1  0.22148800  0.11636200  0.14357600  1
  Li  Li2  1  0.24727300  0.29791300  0.84039800  1
  Li  Li3  1  0.74730700  0.29792000  0.34040400  1
  Li  Li4  1  0.78193400  0.61658300  0.13685900  1
  Li  Li5  1  0.28193500  0.61660100  0.63687300  1
  Li  Li6  1  0.25726100  0.79625200  0.34011800  1
  Li  Li7  1  0.75721100  0.79627400  0.84013100  1
  Co  Co8  1  0.25954700  0.99772200  0.75130200  1
  Co  Co9  1  0.74252500  0.49833100  0.74959100  1
  Co  Co10  1  0.75957200  0.99773300  0.25130900  1
  Co  Co11  1  0.24256900  0.49833300  0.24958400  1
  P  P12  1  0.30098300  0.87736400  0.05245100  1
  P  P13  1  0.80103900  0.87733300  0.55244800  1
  P  P14  1  0.27383500  0.64045200  0.94961700  1
  P  P15  1  0.77395400  0.64043100  0.44965100  1
  P  P16  1  0.70390400  0.37717100  0.05107800  1
  P  P17  1  0.20385400  0.37718100  0.55110500  1
  P  P18  1  0.72482800  0.13951400  0.95167900  1
  P  P19  1  0.22483400  0.13954200  0.45171700  1
  O  O20  1  0.12410600  0.76304000  0.00154800  1
  O  O21  1  0.62415800  0.76300900  0.50155000  1
  O  O22  1  0.87817600  0.26091300  0.00170500  1
  O  O23  1  0.37817600  0.26093100  0.50174800  1
  O  O24  1  0.10824800  0.10690000  0.59618400  1
  O  O25  1  0.60824100  0.10690200  0.09619300  1
  O  O26  1  0.56443700  0.40285600  0.90792400  1
  O  O27  1  0.06444800  0.40286300  0.40792500  1
  O  O28  1  0.39344500  0.60647700  0.09287400  1
  O  O29  1  0.89348800  0.60644200  0.59290600  1
  O  O30  1  0.94030300  0.90315100  0.40944200  1
  O  O31  1  0.44028000  0.90317100  0.90944100  1
  O  O32  1  0.49502400  0.65726600  0.83272200  1
  O  O33  1  0.99515600  0.65723600  0.33271500  1
  O  O34  1  0.50425300  0.85210600  0.17346800  1
  O  O35  1  0.00430700  0.85209000  0.67346600  1
  O  O36  1  0.50074900  0.15815800  0.83687900  1
  O  O37  1  0.00080700  0.15818100  0.33688200  1
  O  O38  1  0.50153200  0.35447900  0.17370500  1
  O  O39  1  0.00147100  0.35449000  0.67370800  1
  O  O40  1  0.03466800  0.57332600  0.88359800  1
  O  O41  1  0.53487200  0.57331700  0.38360100  1
  O  O42  1  0.08444500  0.96174400  0.11461100  1
  O  O43  1  0.58446900  0.96171000  0.61462600  1
  O  O44  1  0.95841300  0.06937300  0.88249600  1
  O  O45  1  0.45849200  0.06938600  0.38252500  1
  O  O46  1  0.92182700  0.46035300  0.11109200  1
  O  O47  1  0.42176900  0.46038300  0.61111800  1
