# generated using pymatgen
data_LiMg
_symmetry_space_group_name_H-M   'P 1'
_cell_length_a   3.15113528
_cell_length_b   3.15113528
_cell_length_c   14.90874400
_cell_angle_alpha   90.00000000
_cell_angle_beta   90.00000000
_cell_angle_gamma   119.99998497
_symmetry_Int_Tables_number   1
_chemical_formula_structural   LiMg
_chemical_formula_sum   'Li3 Mg3'
_cell_volume   128.20526250
_cell_formula_units_Z   3
loop_
 _symmetry_equiv_pos_site_id
 _symmetry_equiv_pos_as_xyz
  1  'x, y, z'
loop_
 _atom_site_type_symbol
 _atom_site_label
 _atom_site_symmetry_multiplicity
 _atom_site_fract_x
 _atom_site_fract_y
 _atom_site_fract_z
 _atom_site_occupancy
  Li  Li0  1  0.33333300  0.66666700  0.83249400  1
  Li  Li1  1  0.00000000  0.00000000  0.66677200  1
  Li  Li2  1  0.33333300  0.66666700  0.16729000  1
  Mg  Mg3  1  0.00000000  0.00000000  0.00010800  1
  Mg  Mg4  1  0.33333300  0.66666700  0.50186700  1
  Mg  Mg5  1  0.00000000  0.00000000  0.33146800  1
