# generated using pymatgen
data_Li4V3O8
_symmetry_space_group_name_H-M   'P 1'
_cell_length_a   5.85309697
_cell_length_b   6.15050580
_cell_length_c   8.49653177
_cell_angle_alpha   86.02683631
_cell_angle_beta   90.09287905
_cell_angle_gamma   89.92753273
_symmetry_Int_Tables_number   1
_chemical_formula_structural   Li4V3O8
_chemical_formula_sum   'Li8 V6 O16'
_cell_volume   305.13513618
_cell_formula_units_Z   2
loop_
 _symmetry_equiv_pos_site_id
 _symmetry_equiv_pos_as_xyz
  1  'x, y, z'
loop_
 _atom_site_type_symbol
 _atom_site_label
 _atom_site_symmetry_multiplicity
 _atom_site_fract_x
 _atom_site_fract_y
 _atom_site_fract_z
 _atom_site_occupancy
  Li  Li0  1  0.00718100  0.00196900  0.99917000  1
  Li  Li1  1  0.49286400  0.50350000  0.49951500  1
  Li  Li2  1  0.49621900  0.49781500  0.00017800  1
  Li  Li3  1  0.00453900  0.99860000  0.50061900  1
  Li  Li4  1  0.49329800  0.21416000  0.85669400  1
  Li  Li5  1  0.00756100  0.71581800  0.35748800  1
  Li  Li6  1  0.49409400  0.78266300  0.14292100  1
  Li  Li7  1  0.00523700  0.28218200  0.64320700  1
  V  V8  1  0.49436700  0.00141100  0.49807000  1
  V  V9  1  0.24557900  0.74617800  0.74551400  1
  V  V10  1  0.25326200  0.24792200  0.24428000  1
  V  V11  1  0.00564600  0.49950500  0.99916100  1
  V  V12  1  0.75393100  0.25288100  0.25482700  1
  V  V13  1  0.74552300  0.75172800  0.75453100  1
  O  O14  1  0.00423400  0.47167400  0.23554600  1
  O  O15  1  0.49494100  0.96990400  0.73410800  1
  O  O16  1  0.99321800  0.52686600  0.76369300  1
  O  O17  1  0.50655000  0.02814700  0.26296800  1
  O  O18  1  0.48903000  0.46216500  0.24468200  1
  O  O19  1  0.01046000  0.96132800  0.74512000  1
  O  O20  1  0.75042700  0.73281400  0.97415300  1
  O  O21  1  0.27409700  0.22011600  0.48886100  1
  O  O22  1  0.22551100  0.71839500  0.98955000  1
  O  O23  1  0.74988700  0.23353100  0.47427900  1
  O  O24  1  0.48531400  0.53696700  0.75701800  1
  O  O25  1  0.01510900  0.03828800  0.25674900  1
  O  O26  1  0.23914800  0.26924000  0.01375100  1
  O  O27  1  0.73578300  0.78145900  0.52396300  1
  O  O28  1  0.76515500  0.28076200  0.02418100  1
  O  O29  1  0.26183600  0.77201300  0.51520000  1
