# generated using pymatgen
data_Li9Mn2Co5O16
_symmetry_space_group_name_H-M   'P 1'
_cell_length_a   5.19267754
_cell_length_b   10.23960545
_cell_length_c   5.92136877
_cell_angle_alpha   103.84531162
_cell_angle_beta   70.43868964
_cell_angle_gamma   84.40940025
_symmetry_Int_Tables_number   1
_chemical_formula_structural   Li9Mn2Co5O16
_chemical_formula_sum   'Li9 Mn2 Co5 O16'
_cell_volume   282.57784237
_cell_formula_units_Z   1
loop_
 _symmetry_equiv_pos_site_id
 _symmetry_equiv_pos_as_xyz
  1  'x, y, z'
loop_
 _atom_site_type_symbol
 _atom_site_label
 _atom_site_symmetry_multiplicity
 _atom_site_fract_x
 _atom_site_fract_y
 _atom_site_fract_z
 _atom_site_occupancy
  Li  Li0  1  0.50220396  0.12485171  0.93500870  1
  Li  Li1  1  0.49779604  0.37514829  0.31499130  1
  Li  Li2  1  0.50385564  0.63176779  0.69674594  1
  Li  Li3  1  0.50599977  0.86731480  0.05616309  1
  Li  Li4  1  0.49984956  0.12480808  0.44271666  1
  Li  Li5  1  0.50015044  0.37519192  0.80728334  1
  Li  Li6  1  0.49400023  0.63268520  0.19383691  1
  Li  Li7  1  0.49614436  0.86823221  0.55325406  1
  Li  Li8  1  0.00000000  0.75000000  0.62500000  1
  Mn  Mn9  1  0.99738103  0.99726424  0.99335065  1
  Mn  Mn10  1  0.00261897  0.50273576  0.25664935  1
  Co  Co11  1  0.99734981  0.24982038  0.37340777  1
  Co  Co12  1  0.99943616  0.50303187  0.75163084  1
  Co  Co13  1  0.00000000  0.75000000  0.12500000  1
  Co  Co14  1  0.00056384  0.99696813  0.49836916  1
  Co  Co15  1  0.00265019  0.25017962  0.87659223  1
  O  O16  1  0.23449871  0.06898788  0.73967465  1
  O  O17  1  0.23044356  0.31704876  0.11429231  1
  O  O18  1  0.21529749  0.55238354  0.46108223  1
  O  O19  1  0.23108267  0.81954529  0.86729618  1
  O  O20  1  0.20687513  0.06448152  0.21896258  1
  O  O21  1  0.22385794  0.31745151  0.61618480  1
  O  O22  1  0.23501524  0.56766531  0.99394948  1
  O  O23  1  0.22713335  0.82623972  0.35459711  1
  O  O24  1  0.76955644  0.18295124  0.13570769  1
  O  O25  1  0.76550129  0.43101212  0.51032535  1
  O  O26  1  0.77286665  0.67376028  0.89540289  1
  O  O27  1  0.76498476  0.93233469  0.25605052  1
  O  O28  1  0.77614206  0.18254849  0.63381520  1
  O  O29  1  0.79312487  0.43551848  0.03103742  1
  O  O30  1  0.76891733  0.68045471  0.38270382  1
  O  O31  1  0.78470251  0.94761646  0.78891777  1
