# generated using pymatgen
data_Li9V6(P8O29)2
_symmetry_space_group_name_H-M   'P 1'
_cell_length_a   9.77057400
_cell_length_b   9.80395975
_cell_length_c   14.10987800
_cell_angle_alpha   90.00275433
_cell_angle_beta   90.15058258
_cell_angle_gamma   119.86764804
_symmetry_Int_Tables_number   1
_chemical_formula_structural   Li9V6(P8O29)2
_chemical_formula_sum   'Li9 V6 P16 O58'
_cell_volume   1172.06343396
_cell_formula_units_Z   1
loop_
 _symmetry_equiv_pos_site_id
 _symmetry_equiv_pos_as_xyz
  1  'x, y, z'
loop_
 _atom_site_type_symbol
 _atom_site_label
 _atom_site_symmetry_multiplicity
 _atom_site_fract_x
 _atom_site_fract_y
 _atom_site_fract_z
 _atom_site_occupancy
  Li  Li0  1  0.31997800  0.23160000  0.05994300  1
  Li  Li1  1  0.31887400  0.09008500  0.56319500  1
  Li  Li2  1  0.76643900  0.66800800  0.56292500  1
  Li  Li3  1  0.66361300  0.33220600  0.88300300  1
  Li  Li4  1  0.91029700  0.67548200  0.05815800  1
  Li  Li5  1  0.76605300  0.08747600  0.05705100  1
  Li  Li6  1  0.90910600  0.23393300  0.56325100  1
  Li  Li7  1  0.68941500  0.91367400  0.44299300  1
  Li  Li8  1  0.00750800  0.00109400  0.98367000  1
  V  V9  1  0.99951900  0.56453700  0.25013900  1
  V  V10  1  0.00850800  0.43565100  0.75161400  1
  V  V11  1  0.42706800  0.99640500  0.75073900  1
  V  V12  1  0.56561700  0.00235000  0.24701000  1
  V  V13  1  0.43410500  0.43466500  0.24969000  1
  V  V14  1  0.56667200  0.56949300  0.75046500  1
  P  P15  1  0.31495300  0.22596800  0.84521700  1
  P  P16  1  0.31984500  0.08889100  0.34249300  1
  P  P17  1  0.76998000  0.68082200  0.34223300  1
  P  P18  1  0.66845100  0.33585700  0.12507900  1
  P  P19  1  0.66903500  0.33333400  0.62799900  1
  P  P20  1  0.91131300  0.68470500  0.84359400  1
  P  P21  1  0.08235000  0.77080200  0.65987800  1
  P  P22  1  0.77757600  0.09218900  0.84255900  1
  P  P23  1  0.22029500  0.91383300  0.16067600  1
  P  P24  1  0.91243100  0.23145200  0.34524600  1
  P  P25  1  0.08353600  0.30803200  0.16161200  1
  P  P26  1  0.33515600  0.66702100  0.36709100  1
  P  P27  1  0.33507200  0.67056100  0.87166500  1
  P  P28  1  0.22922500  0.31257500  0.66130000  1
  P  P29  1  0.68262600  0.91406300  0.66026000  1
  P  P30  1  0.69089000  0.77498100  0.15942800  1
  O  O31  1  0.22926100  0.22125800  0.57792800  1
  O  O32  1  0.34399300  0.25702800  0.32601200  1
  O  O33  1  0.20181500  0.00411200  0.08112500  1
  O  O34  1  0.34017200  0.08272100  0.83266900  1
  O  O35  1  0.47887700  0.37445000  0.83364900  1
  O  O36  1  0.51392000  0.32897300  0.16396200  1
  O  O37  1  0.61876600  0.51994100  0.32056200  1
  O  O38  1  0.79249000  0.78403400  0.07855700  1
  O  O39  1  0.74077300  0.65541800  0.83303300  1
  O  O40  1  0.51583300  0.18621900  0.66664200  1
  O  O41  1  0.48127700  0.09954600  0.31848000  1
  O  O42  1  0.67235700  0.48625300  0.66562100  1
  O  O43  1  0.67174300  0.34429600  0.01845400  1
  O  O44  1  0.68011900  0.33244100  0.52219700  1
  O  O45  1  0.81456900  0.48960200  0.16667500  1
  O  O46  1  0.62716800  0.10540500  0.83340100  1
  O  O47  1  0.67741200  0.19019400  0.16099400  1
  O  O48  1  0.91386000  0.65711800  0.33312800  1
  O  O49  1  0.00705900  0.79503900  0.75673500  1
  O  O50  1  0.98674700  0.76210300  0.57607800  1
  O  O51  1  0.98415600  0.76807300  0.93460900  1
  O  O52  1  0.89985200  0.52109700  0.83097500  1
  O  O53  1  0.81767800  0.33187300  0.67437000  1
  O  O54  1  0.07864700  0.74074900  0.16244600  1
  O  O55  1  0.89952600  0.38050700  0.31872300  1
  O  O56  1  0.74786200  0.08205900  0.33671000  1
  O  O57  1  0.19948500  0.98573500  0.26018000  1
  O  O58  1  0.25804200  0.02041800  0.43633300  1
  O  O59  1  0.76062800  0.00362900  0.57113700  1
  O  O60  1  0.25074500  0.91528200  0.65889300  1
  O  O61  1  0.08960900  0.61810700  0.67874400  1
  O  O62  1  0.92211200  0.26114500  0.83292100  1
  O  O63  1  0.18415900  0.66030800  0.31959700  1
  O  O64  1  0.08214100  0.46533100  0.17163700  1
  O  O65  1  0.99111000  0.20556000  0.08080300  1
  O  O66  1  0.98983000  0.24755600  0.43805100  1
  O  O67  1  0.01504200  0.21680200  0.26070700  1
  O  O68  1  0.08368000  0.33894000  0.66122800  1
  O  O69  1  0.32514800  0.81036700  0.82770900  1
  O  O70  1  0.37616300  0.91317800  0.16806500  1
  O  O71  1  0.18340800  0.51910500  0.82276700  1
  O  O72  1  0.31925100  0.65520800  0.97614200  1
  O  O73  1  0.32816000  0.65579600  0.47158900  1
  O  O74  1  0.33906600  0.52130800  0.31872300  1
  O  O75  1  0.52369400  0.90573200  0.67874800  1
  O  O76  1  0.48523900  0.81635300  0.32961500  1
  O  O77  1  0.25728100  0.34232300  0.15993900  1
  O  O78  1  0.20347200  0.21528800  0.75870600  1
  O  O79  1  0.22877900  0.21151000  0.93576200  1
  O  O80  1  0.38150500  0.47199500  0.67688200  1
  O  O81  1  0.47923600  0.66933700  0.82728200  1
  O  O82  1  0.53436900  0.61741600  0.17130100  1
  O  O83  1  0.65799900  0.91457900  0.16006100  1
  O  O84  1  0.79309500  0.01704700  0.93142800  1
  O  O85  1  0.79213500  0.00062900  0.75137100  1
  O  O86  1  0.66493200  0.74853100  0.65921700  1
  O  O87  1  0.75553400  0.74952000  0.43370400  1
  O  O88  1  0.78661400  0.79786700  0.25816400  1
