# generated using pymatgen
data_Li2V3SbO8
_symmetry_space_group_name_H-M   'P 1'
_cell_length_a   6.04909753
_cell_length_b   6.16029134
_cell_length_c   8.62450111
_cell_angle_alpha   88.60789413
_cell_angle_beta   89.99534133
_cell_angle_gamma   90.01329733
_symmetry_Int_Tables_number   1
_chemical_formula_structural   Li2V3SbO8
_chemical_formula_sum   'Li4 V6 Sb2 O16'
_cell_volume   321.29029333
_cell_formula_units_Z   2
loop_
 _symmetry_equiv_pos_site_id
 _symmetry_equiv_pos_as_xyz
  1  'x, y, z'
loop_
 _atom_site_type_symbol
 _atom_site_label
 _atom_site_symmetry_multiplicity
 _atom_site_fract_x
 _atom_site_fract_y
 _atom_site_fract_z
 _atom_site_occupancy
  Li  Li0  1  0.99927500  0.26169500  0.13080900  1
  Li  Li1  1  0.50083700  0.76162200  0.63109600  1
  Li  Li2  1  0.99921700  0.73831600  0.86920300  1
  Li  Li3  1  0.50083100  0.23835000  0.36889500  1
  V  V4  1  0.50194400  0.00005400  0.99994800  1
  V  V5  1  0.74945000  0.24981400  0.74965800  1
  V  V6  1  0.74947900  0.75007800  0.25030100  1
  V  V7  1  0.99916900  0.49997700  0.50001300  1
  V  V8  1  0.25049500  0.74909000  0.25010800  1
  V  V9  1  0.25047200  0.25093400  0.75000200  1
  Sb  Sb10  1  0.99683900  0.00007200  0.50000300  1
  Sb  Sb11  1  0.50355500  0.50008200  0.00003000  1
  O  O12  1  0.00028100  0.53347800  0.26624100  1
  O  O13  1  0.49833400  0.03189000  0.76611000  1
  O  O14  1  0.00029000  0.46647600  0.73373400  1
  O  O15  1  0.49854500  0.96801100  0.23379600  1
  O  O16  1  0.22650100  0.75783300  0.48833500  1
  O  O17  1  0.72574900  0.25477400  0.99347700  1
  O  O18  1  0.77453900  0.75529000  0.49431300  1
  O  O19  1  0.27342400  0.25862300  0.98803200  1
  O  O20  1  0.99374800  0.98253400  0.26543800  1
  O  O21  1  0.50649000  0.48323700  0.76536100  1
  O  O22  1  0.99354000  0.01747700  0.73455600  1
  O  O23  1  0.50619100  0.51670700  0.23465900  1
  O  O24  1  0.22637600  0.24238200  0.51167500  1
  O  O25  1  0.72612400  0.74487400  0.00667800  1
  O  O26  1  0.77447900  0.24446100  0.50569000  1
  O  O27  1  0.27382600  0.74186900  0.01184100  1
