# generated using pymatgen
data_Li9Mn2Co5O16
_symmetry_space_group_name_H-M   'P 1'
_cell_length_a   5.90966240
_cell_length_b   5.90966240
_cell_length_c   10.11996569
_cell_angle_alpha   73.79223609
_cell_angle_beta   73.79223609
_cell_angle_gamma   59.87301612
_symmetry_Int_Tables_number   1
_chemical_formula_structural   Li9Mn2Co5O16
_chemical_formula_sum   'Li9 Mn2 Co5 O16'
_cell_volume   289.39667887
_cell_formula_units_Z   1
loop_
 _symmetry_equiv_pos_site_id
 _symmetry_equiv_pos_as_xyz
  1  'x, y, z'
loop_
 _atom_site_type_symbol
 _atom_site_label
 _atom_site_symmetry_multiplicity
 _atom_site_fract_x
 _atom_site_fract_y
 _atom_site_fract_z
 _atom_site_occupancy
  Li  Li0  1  0.49459800  0.99724100  0.75570100  1
  Li  Li1  1  0.75857400  0.74455000  0.99812100  1
  Li  Li2  1  0.00275900  0.50540200  0.24429900  1
  Li  Li3  1  0.99779800  0.49837500  0.75269400  1
  Li  Li4  1  0.25545000  0.24142600  0.00187900  1
  Li  Li5  1  0.50162500  0.00220200  0.24730600  1
  Li  Li6  1  0.75436800  0.74699500  0.49927900  1
  Li  Li7  1  0.25300500  0.24563200  0.50072100  1
  Li  Li8  1  0.24870300  0.75129700  0.00000000  1
  Mn  Mn9  1  0.00143600  0.99852900  0.75279900  1
  Mn  Mn10  1  0.00147100  0.99856400  0.24720100  1
  Co  Co11  1  0.49364300  0.50349300  0.24163500  1
  Co  Co12  1  0.74636500  0.25363500  0.50000000  1
  Co  Co13  1  0.49650700  0.50635700  0.75836500  1
  Co  Co14  1  0.75498000  0.24502000  0.00000000  1
  Co  Co15  1  0.24974900  0.75025100  0.50000000  1
  O  O16  1  0.88240900  0.89181000  0.62687200  1
  O  O17  1  0.12475300  0.64515400  0.86314400  1
  O  O18  1  0.39275800  0.37915300  0.12939500  1
  O  O19  1  0.38071600  0.39809000  0.61978100  1
  O  O20  1  0.65142200  0.11841600  0.86714700  1
  O  O21  1  0.87328900  0.90396100  0.12826500  1
  O  O22  1  0.12379100  0.64839700  0.36765200  1
  O  O23  1  0.65783100  0.12413500  0.37024500  1
  O  O24  1  0.09603900  0.12671100  0.87173500  1
  O  O25  1  0.35484600  0.87524700  0.13685600  1
  O  O26  1  0.60191000  0.61928400  0.38021900  1
  O  O27  1  0.62084700  0.60724200  0.87060500  1
  O  O28  1  0.88158400  0.34857800  0.13285300  1
  O  O29  1  0.10819000  0.11759100  0.37312800  1
  O  O30  1  0.35160300  0.87620900  0.63234800  1
  O  O31  1  0.87586500  0.34216900  0.62975500  1
