# generated using pymatgen
data_Li9Mn2Co5O16
_symmetry_space_group_name_H-M   'P 1'
_cell_length_a   5.13220600
_cell_length_b   5.85622611
_cell_length_c   9.70311066
_cell_angle_alpha   89.62561719
_cell_angle_beta   79.66701154
_cell_angle_gamma   89.79328874
_symmetry_Int_Tables_number   1
_chemical_formula_structural   Li9Mn2Co5O16
_chemical_formula_sum   'Li9 Mn2 Co5 O16'
_cell_volume   286.89378432
_cell_formula_units_Z   1
loop_
 _symmetry_equiv_pos_site_id
 _symmetry_equiv_pos_as_xyz
  1  'x, y, z'
loop_
 _atom_site_type_symbol
 _atom_site_label
 _atom_site_symmetry_multiplicity
 _atom_site_fract_x
 _atom_site_fract_y
 _atom_site_fract_z
 _atom_site_occupancy
  Li  Li0  1  0.50023700  0.25052400  0.00351000  1
  Li  Li1  1  0.25026100  0.49054800  0.25067300  1
  Li  Li2  1  0.50236700  0.75323100  0.00224700  1
  Li  Li3  1  0.24844900  0.00757000  0.24964800  1
  Li  Li4  1  0.75233600  0.00066300  0.74933700  1
  Li  Li5  1  0.74762800  0.49970600  0.75161300  1
  Li  Li6  1  0.99802700  0.74945000  0.49887100  1
  Li  Li7  1  0.99942600  0.24681400  0.49563600  1
  Li  Li8  1  0.74940800  0.24730700  0.24937100  1
  Mn  Mn9  1  0.00151300  0.00471000  0.00382700  1
  Mn  Mn10  1  0.49586600  0.99816200  0.49578500  1
  Co  Co11  1  0.51474200  0.49371400  0.48883300  1
  Co  Co12  1  0.25080500  0.74652000  0.75088300  1
  Co  Co13  1  0.99257200  0.49934100  0.00988000  1
  Co  Co14  1  0.74951400  0.75340100  0.24988500  1
  Co  Co15  1  0.24960000  0.25347800  0.74845500  1
  O  O16  1  0.34754800  0.01086400  0.87344100  1
  O  O17  1  0.12318900  0.24003200  0.11474000  1
  O  O18  1  0.35633200  0.50360200  0.87406200  1
  O  O19  1  0.12383300  0.76586200  0.11565400  1
  O  O20  1  0.59860000  0.75815200  0.62194300  1
  O  O21  1  0.61240800  0.23416300  0.61494900  1
  O  O22  1  0.84940800  0.51234800  0.37590500  1
  O  O23  1  0.83516300  0.98306600  0.37684600  1
  O  O24  1  0.65491000  0.52000800  0.12639700  1
  O  O25  1  0.37558100  0.75827200  0.38448700  1
  O  O26  1  0.66330500  0.98983200  0.12100500  1
  O  O27  1  0.37649000  0.23695600  0.38538400  1
  O  O28  1  0.88674800  0.24266600  0.88486600  1
  O  O29  1  0.90076300  0.76404700  0.87805400  1
  O  O30  1  0.15146000  0.99596900  0.62256600  1
  O  O31  1  0.14151000  0.48902500  0.63124800  1
