# generated using pymatgen
data_Li3WN2
_symmetry_space_group_name_H-M   'P 1'
_cell_length_a   8.51214515
_cell_length_b   9.82897831
_cell_length_c   9.82897831
_cell_angle_alpha   90.00000169
_cell_angle_beta   125.26439086
_cell_angle_gamma   54.73560914
_symmetry_Int_Tables_number   1
_chemical_formula_structural   Li3WN2
_chemical_formula_sum   'Li24 W8 N16'
_cell_volume   474.78297187
_cell_formula_units_Z   8
loop_
 _symmetry_equiv_pos_site_id
 _symmetry_equiv_pos_as_xyz
  1  'x, y, z'
loop_
 _atom_site_type_symbol
 _atom_site_label
 _atom_site_symmetry_multiplicity
 _atom_site_fract_x
 _atom_site_fract_y
 _atom_site_fract_z
 _atom_site_occupancy
  Li  Li0  1  0.21611981  0.05212360  0.99319291  1
  Li  Li1  1  0.78388019  0.76824341  0.50680709  1
  Li  Li2  1  0.78388019  0.44787640  0.77707310  1
  Li  Li3  1  0.21611981  0.73175659  0.72292690  1
  Li  Li4  1  0.22973399  0.77707310  0.27505050  1
  Li  Li5  1  0.77026601  0.72292690  0.04531650  1
  Li  Li6  1  0.22973399  0.99319291  0.45468350  1
  Li  Li7  1  0.77026601  0.50680709  0.22494950  1
  Li  Li8  1  0.67963300  0.04531650  0.73175659  1
  Li  Li9  1  0.67963300  0.27505050  0.44787640  1
  Li  Li10  1  0.32036700  0.22494950  0.76824341  1
  Li  Li11  1  0.32036700  0.45468350  0.05212360  1
  Li  Li12  1  0.78388019  0.94787640  0.00680709  1
  Li  Li13  1  0.21611981  0.23175659  0.49319291  1
  Li  Li14  1  0.21611981  0.55212360  0.22292690  1
  Li  Li15  1  0.78388019  0.26824341  0.27707310  1
  Li  Li16  1  0.77026601  0.22292690  0.72494950  1
  Li  Li17  1  0.22973399  0.27707310  0.95468350  1
  Li  Li18  1  0.77026601  0.00680709  0.54531650  1
  Li  Li19  1  0.22973399  0.49319291  0.77505050  1
  Li  Li20  1  0.32036700  0.95468350  0.26824341  1
  Li  Li21  1  0.32036700  0.72494950  0.55212360  1
  Li  Li22  1  0.67963300  0.77505050  0.23175659  1
  Li  Li23  1  0.67963300  0.54531650  0.94787640  1
  W  W24  1  0.23128499  -0.00000000  0.73128499  1
  W  W25  1  0.76871501  0.73128499  0.76871501  1
  W  W26  1  0.76871501  0.50000000  0.50000000  1
  W  W27  1  0.23128499  0.76871501  0.00000000  1
  W  W28  1  0.76871501  0.00000000  0.26871501  1
  W  W29  1  0.23128499  0.26871501  0.23128499  1
  W  W30  1  0.23128499  0.50000000  0.50000000  1
  W  W31  1  0.76871501  0.23128499  0.00000000  1
  N  N32  1  0.00000000  -0.00000000  0.50000000  1
  N  N33  1  0.00000000  0.50000000  0.00000000  1
  N  N34  1  0.00000000  0.50000000  0.50000000  1
  N  N35  1  0.00000000  -0.00000000  0.00000000  1
  N  N36  1  0.50000000  0.97869894  0.75000000  1
  N  N37  1  0.50000000  0.52130106  0.25000000  1
  N  N38  1  1.00000000  0.25000000  0.72869894  1
  N  N39  1  0.00000000  0.75000000  0.77130106  1
  N  N40  1  0.54260212  0.72869894  0.52130106  1
  N  N41  1  0.45739788  0.77130106  0.97869894  1
  N  N42  1  0.50000000  0.02130106  0.25000000  1
  N  N43  1  0.50000000  0.47869894  0.75000000  1
  N  N44  1  0.00000000  0.75000000  0.27130106  1
  N  N45  1  1.00000000  0.25000000  0.22869894  1
  N  N46  1  0.45739788  0.27130106  0.47869894  1
  N  N47  1  0.54260212  0.22869894  0.02130106  1
