# generated using pymatgen
data_LiOsN2
_symmetry_space_group_name_H-M   'P 1'
_cell_length_a   5.64480450
_cell_length_b   11.48421530
_cell_length_c   14.31290910
_cell_angle_alpha   90.00000000
_cell_angle_beta   90.00000000
_cell_angle_gamma   90.00000000
_symmetry_Int_Tables_number   1
_chemical_formula_structural   LiOsN2
_chemical_formula_sum   'Li16 Os16 N32'
_cell_volume   927.85079518
_cell_formula_units_Z   16
loop_
 _symmetry_equiv_pos_site_id
 _symmetry_equiv_pos_as_xyz
  1  'x, y, z'
loop_
 _atom_site_type_symbol
 _atom_site_label
 _atom_site_symmetry_multiplicity
 _atom_site_fract_x
 _atom_site_fract_y
 _atom_site_fract_z
 _atom_site_occupancy
  Li  Li0  1  0.59701103  0.03136013  0.19277697  1
  Li  Li1  1  0.09701103  0.46863987  0.80722303  1
  Li  Li2  1  0.40298897  0.53136013  0.30722303  1
  Li  Li3  1  0.90298897  0.96863987  0.69277697  1
  Li  Li4  1  0.40298897  0.96863987  0.80722303  1
  Li  Li5  1  0.90298897  0.53136013  0.19277697  1
  Li  Li6  1  0.59701103  0.46863987  0.69277697  1
  Li  Li7  1  0.09701103  0.03136013  0.30722303  1
  Li  Li8  1  0.91826085  0.33946282  0.02163764  1
  Li  Li9  1  0.41826085  0.16053718  0.97836236  1
  Li  Li10  1  0.08173915  0.83946282  0.47836236  1
  Li  Li11  1  0.58173915  0.66053718  0.52163764  1
  Li  Li12  1  0.08173915  0.66053718  0.97836236  1
  Li  Li13  1  0.58173915  0.83946282  0.02163764  1
  Li  Li14  1  0.91826085  0.16053718  0.52163764  1
  Li  Li15  1  0.41826085  0.33946282  0.47836236  1
  Os  Os16  1  0.61606451  0.94573196  0.43355241  1
  Os  Os17  1  0.11606451  0.55426804  0.56644759  1
  Os  Os18  1  0.38393549  0.44573196  0.06644759  1
  Os  Os19  1  0.88393549  0.05426804  0.93355241  1
  Os  Os20  1  0.38393549  0.05426804  0.56644759  1
  Os  Os21  1  0.88393549  0.44573196  0.43355241  1
  Os  Os22  1  0.61606451  0.55426804  0.93355241  1
  Os  Os23  1  0.11606451  0.94573196  0.06644759  1
  Os  Os24  1  0.79282445  0.28533934  0.31323979  1
  Os  Os25  1  0.29282445  0.21466066  0.68676021  1
  Os  Os26  1  0.20717555  0.78533934  0.18676021  1
  Os  Os27  1  0.70717555  0.71466066  0.81323979  1
  Os  Os28  1  0.20717555  0.71466066  0.68676021  1
  Os  Os29  1  0.70717555  0.78533934  0.31323979  1
  Os  Os30  1  0.79282445  0.21466066  0.81323979  1
  Os  Os31  1  0.29282445  0.28533934  0.18676021  1
  N  N32  1  0.75028999  0.45588858  0.30875177  1
  N  N33  1  0.25028999  0.04411142  0.69124823  1
  N  N34  1  0.24971001  0.95588858  0.19124823  1
  N  N35  1  0.74971001  0.54411142  0.80875177  1
  N  N36  1  0.24971001  0.54411142  0.69124823  1
  N  N37  1  0.74971001  0.95588858  0.30875177  1
  N  N38  1  0.75028999  0.04411142  0.80875177  1
  N  N39  1  0.25028999  0.45588858  0.19124823  1
  N  N40  1  0.77864603  0.28707904  0.44970162  1
  N  N41  1  0.27864603  0.21292096  0.55029838  1
  N  N42  1  0.22135397  0.78707904  0.05029838  1
  N  N43  1  0.72135397  0.71292096  0.94970162  1
  N  N44  1  0.22135397  0.71292096  0.55029838  1
  N  N45  1  0.72135397  0.78707904  0.44970162  1
  N  N46  1  0.77864603  0.21292096  0.94970162  1
  N  N47  1  0.27864603  0.28707904  0.05029838  1
  N  N48  1  0.70741778  0.48156686  0.05613822  1
  N  N49  1  0.20741778  0.01843314  0.94386178  1
  N  N50  1  0.29258222  0.98156686  0.44386178  1
  N  N51  1  0.79258222  0.51843314  0.55613822  1
  N  N52  1  0.29258222  0.51843314  0.94386178  1
  N  N53  1  0.79258222  0.98156686  0.05613822  1
  N  N54  1  0.70741778  0.01843314  0.55613822  1
  N  N55  1  0.20741778  0.48156686  0.44386178  1
  N  N56  1  0.55490111  0.21879402  0.23264375  1
  N  N57  1  0.05490111  0.28120598  0.76735625  1
  N  N58  1  0.44509889  0.71879402  0.26735625  1
  N  N59  1  0.94509889  0.78120598  0.73264375  1
  N  N60  1  0.44509889  0.78120598  0.76735625  1
  N  N61  1  0.94509889  0.71879402  0.23264375  1
  N  N62  1  0.55490111  0.28120598  0.73264375  1
  N  N63  1  0.05490111  0.21879402  0.26735625  1
