# generated using pymatgen
data_Li2Ti3O7
_symmetry_space_group_name_H-M   'P 1'
_cell_length_a   3.75975700
_cell_length_b   7.64884700
_cell_length_c   9.42030730
_cell_angle_alpha   82.67632218
_cell_angle_beta   90.00000000
_cell_angle_gamma   90.00000000
_symmetry_Int_Tables_number   1
_chemical_formula_structural   Li2Ti3O7
_chemical_formula_sum   'Li4 Ti6 O14'
_cell_volume   268.69726673
_cell_formula_units_Z   2
loop_
 _symmetry_equiv_pos_site_id
 _symmetry_equiv_pos_as_xyz
  1  'x, y, z'
loop_
 _atom_site_type_symbol
 _atom_site_label
 _atom_site_symmetry_multiplicity
 _atom_site_fract_x
 _atom_site_fract_y
 _atom_site_fract_z
 _atom_site_occupancy
  Li  Li0  1  0.25000000  0.40122600  0.82742700  1
  Li  Li1  1  0.75000000  0.59877400  0.17257300  1
  Li  Li2  1  0.25000000  0.57385400  0.40399800  1
  Li  Li3  1  0.75000000  0.42614600  0.59600200  1
  Ti  Ti4  1  0.25000000  0.83623900  0.96844500  1
  Ti  Ti5  1  0.75000000  0.16376100  0.03155500  1
  Ti  Ti6  1  0.25000000  0.73622600  0.65863400  1
  Ti  Ti7  1  0.75000000  0.26377400  0.34136600  1
  Ti  Ti8  1  0.25000000  0.94856100  0.27921000  1
  Ti  Ti9  1  0.75000000  0.05143900  0.72079000  1
  O  O10  1  0.25000000  0.74461000  0.16485600  1
  O  O11  1  0.75000000  0.25539000  0.83514400  1
  O  O12  1  0.25000000  0.82276100  0.44983000  1
  O  O13  1  0.75000000  0.17723900  0.55017000  1
  O  O14  1  0.25000000  0.51221000  0.62434000  1
  O  O15  1  0.75000000  0.48779000  0.37566000  1
  O  O16  1  0.25000000  0.64812500  0.87274000  1
  O  O17  1  0.75000000  0.35187500  0.12726000  1
  O  O18  1  0.25000000  0.99151300  0.75637900  1
  O  O19  1  0.75000000  0.00848700  0.24362100  1
  O  O20  1  0.25000000  0.19594400  0.33541600  1
  O  O21  1  0.75000000  0.80405600  0.66458400  1
  O  O22  1  0.25000000  0.09498000  0.04785500  1
  O  O23  1  0.75000000  0.90502000  0.95214500  1
