# generated using pymatgen
data_Li2VOF4
_symmetry_space_group_name_H-M   'P 1'
_cell_length_a   3.70099193
_cell_length_b   11.52468270
_cell_length_c   9.99363121
_cell_angle_alpha   64.28790689
_cell_angle_beta   90.14719367
_cell_angle_gamma   99.10361112
_symmetry_Int_Tables_number   1
_chemical_formula_structural   Li2VOF4
_chemical_formula_sum   'Li8 V4 O4 F16'
_cell_volume   378.16547134
_cell_formula_units_Z   4
loop_
 _symmetry_equiv_pos_site_id
 _symmetry_equiv_pos_as_xyz
  1  'x, y, z'
loop_
 _atom_site_type_symbol
 _atom_site_label
 _atom_site_symmetry_multiplicity
 _atom_site_fract_x
 _atom_site_fract_y
 _atom_site_fract_z
 _atom_site_occupancy
  Li  Li0  1  0.96225900  0.92134200  0.90393400  1
  Li  Li1  1  0.45866400  0.92126600  0.40385900  1
  Li  Li2  1  0.20461800  0.42151500  0.92467600  1
  Li  Li3  1  0.70486600  0.42130900  0.42472400  1
  Li  Li4  1  0.61624300  0.24841600  0.19283000  1
  Li  Li5  1  0.12580700  0.24847900  0.69296400  1
  Li  Li6  1  0.37096900  0.74865400  0.80847500  1
  Li  Li7  1  0.87747500  0.74833700  0.30866100  1
  V  V8  1  0.31927400  0.55904100  0.58209500  1
  V  V9  1  0.57181200  0.05916500  0.60880400  1
  V  V10  1  0.81767400  0.55893000  0.08202300  1
  V  V11  1  0.98556800  0.05902200  0.10902100  1
  O  O12  1  0.28135500  0.56768000  0.05714200  1
  O  O13  1  0.78334800  0.56784800  0.55717900  1
  O  O14  1  0.53042400  0.06783200  0.12504100  1
  O  O15  1  0.03553100  0.06802800  0.62500900  1
  F  F16  1  0.55408900  0.12393200  0.39877500  1
  F  F17  1  0.06638300  0.12366600  0.89897700  1
  F  F18  1  0.30023700  0.62374300  0.72734200  1
  F  F19  1  0.79890500  0.62365500  0.22732400  1
  F  F20  1  0.69351800  0.39075400  0.25057600  1
  F  F21  1  0.19526900  0.39084900  0.75063600  1
  F  F22  1  0.44781200  0.89098600  0.60843500  1
  F  F23  1  0.94784200  0.89082400  0.10872000  1
  F  F24  1  0.47430700  0.95170300  0.82912400  1
  F  F25  1  0.97669600  0.95165500  0.32935600  1
  F  F26  1  0.71832900  0.45156900  0.96911700  1
  F  F27  1  0.21934800  0.45167100  0.46917000  1
  F  F28  1  0.86340200  0.73696500  0.90387900  1
  F  F29  1  0.36603400  0.73702800  0.40389100  1
  F  F30  1  0.11544800  0.23699000  0.10912200  1
  F  F31  1  0.61648600  0.23714200  0.60912500  1
