# generated using pymatgen
data_Li2TiCrO4
_symmetry_space_group_name_H-M   'P 1'
_cell_length_a   4.16330166
_cell_length_b   7.86894037
_cell_length_c   9.57936403
_cell_angle_alpha   81.39209843
_cell_angle_beta   89.99976362
_cell_angle_gamma   74.65812495
_symmetry_Int_Tables_number   1
_chemical_formula_structural   Li2TiCrO4
_chemical_formula_sum   'Li8 Ti4 Cr4 O16'
_cell_volume   298.97673293
_cell_formula_units_Z   4
loop_
 _symmetry_equiv_pos_site_id
 _symmetry_equiv_pos_as_xyz
  1  'x, y, z'
loop_
 _atom_site_type_symbol
 _atom_site_label
 _atom_site_symmetry_multiplicity
 _atom_site_fract_x
 _atom_site_fract_y
 _atom_site_fract_z
 _atom_site_occupancy
  Li  Li0  1  0.43830000  0.12342200  0.18590300  1
  Li  Li1  1  0.68814100  0.62375700  0.43578400  1
  Li  Li2  1  0.93797700  0.12406000  0.68516000  1
  Li  Li3  1  0.18721900  0.62561100  0.93834400  1
  Li  Li4  1  0.62593800  0.74811600  0.12634100  1
  Li  Li5  1  0.87593000  0.24805600  0.37478800  1
  Li  Li6  1  0.12398200  0.75200100  0.62581600  1
  Li  Li7  1  0.37337600  0.25314800  0.87538300  1
  Ti  Ti8  1  0.06261500  0.87486400  0.31107300  1
  Ti  Ti9  1  0.31205100  0.37589100  0.56360100  1
  Ti  Ti10  1  0.56191100  0.87623500  0.81369400  1
  Ti  Ti11  1  0.81312600  0.37376900  0.06210100  1
  Cr  Cr12  1  0.50031800  0.99933500  0.49963200  1
  Cr  Cr13  1  0.74756000  0.50477200  0.74914600  1
  Cr  Cr14  1  0.00043400  0.99908900  0.99781800  1
  Cr  Cr15  1  0.25188500  0.49625000  0.25283200  1
  O  O16  1  0.00612300  0.98773100  0.48399300  1
  O  O17  1  0.25422900  0.49152500  0.73306000  1
  O  O18  1  0.50536100  0.98927000  0.98183600  1
  O  O19  1  0.75606500  0.48792700  0.23540600  1
  O  O20  1  0.12545500  0.74906300  0.14850700  1
  O  O21  1  0.37089300  0.25821000  0.39288600  1
  O  O22  1  0.61898100  0.76194900  0.64000100  1
  O  O23  1  0.86193600  0.27612400  0.88751500  1
  O  O24  1  0.80968500  0.38061700  0.57092300  1
  O  O25  1  0.06001600  0.87994300  0.81846000  1
  O  O26  1  0.31012000  0.37976400  0.07131700  1
  O  O27  1  0.55992800  0.88013500  0.31969600  1
  O  O28  1  0.68839400  0.62329500  0.92887600  1
  O  O29  1  0.94023000  0.11959900  0.18080600  1
  O  O30  1  0.19149400  0.61707800  0.43038000  1
  O  O31  1  0.44032700  0.11939100  0.67892200  1
