# generated using pymatgen
data_Li4MnCo2O7
_symmetry_space_group_name_H-M   'P 1'
_cell_length_a   2.97005000
_cell_length_b   6.47149483
_cell_length_c   13.60472853
_cell_angle_alpha   83.97619837
_cell_angle_beta   86.99168136
_cell_angle_gamma   76.81672731
_symmetry_Int_Tables_number   1
_chemical_formula_structural   Li4MnCo2O7
_chemical_formula_sum   'Li8 Mn2 Co4 O14'
_cell_volume   253.08455238
_cell_formula_units_Z   2
loop_
 _symmetry_equiv_pos_site_id
 _symmetry_equiv_pos_as_xyz
  1  'x, y, z'
loop_
 _atom_site_type_symbol
 _atom_site_label
 _atom_site_symmetry_multiplicity
 _atom_site_fract_x
 _atom_site_fract_y
 _atom_site_fract_z
 _atom_site_occupancy
  Li  Li0  1  0.15194400  0.93124200  0.78460600  1
  Li  Li1  1  0.99438700  0.50291700  0.50081700  1
  Li  Li2  1  0.84829400  0.07727100  0.21643500  1
  Li  Li3  1  0.55995400  0.22280100  0.64282800  1
  Li  Li4  1  0.42946500  0.77892600  0.35735100  1
  Li  Li5  1  0.29896900  0.35607300  0.06476800  1
  Li  Li6  1  0.72268900  0.62760000  0.92686900  1
  Li  Li7  1  0.40638400  0.29395700  0.86245100  1
  Mn  Mn8  1  0.99817000  0.01255800  0.99614000  1
  Mn  Mn9  1  0.70661900  0.14113900  0.42808600  1
  Co  Co10  1  0.85562200  0.56218000  0.72099800  1
  Co  Co11  1  0.59120600  0.70908400  0.14103000  1
  Co  Co12  1  0.27926800  0.85310500  0.57385400  1
  Co  Co13  1  0.15272300  0.42629100  0.28434100  1
  O  O14  1  0.54403700  0.96777300  0.90700400  1
  O  O15  1  0.45003200  0.55322900  0.61066400  1
  O  O16  1  0.30483800  0.12007700  0.32176000  1
  O  O17  1  0.98830400  0.28436300  0.74339600  1
  O  O18  1  0.83250700  0.83398500  0.46742700  1
  O  O19  1  0.75066100  0.39906500  0.18614300  1
  O  O20  1  0.15354500  0.69298500  0.04213900  1
  O  O21  1  0.73101900  0.86846200  0.67840800  1
  O  O22  1  0.53944600  0.45087300  0.38906200  1
  O  O23  1  0.46634600  0.02764200  0.09411800  1
  O  O24  1  0.10726000  0.16150700  0.53576400  1
  O  O25  1  0.01414300  0.73466900  0.24319400  1
  O  O26  1  0.86097700  0.30187700  0.96761200  1
  O  O27  1  0.26118900  0.60835000  0.81273400  1
