# generated using pymatgen
data_Li3V5(PO4)6
_symmetry_space_group_name_H-M   'P 1'
_cell_length_a   15.85182623
_cell_length_b   15.85182623
_cell_length_c   10.87414160
_cell_angle_alpha   89.71686065
_cell_angle_beta   89.71686065
_cell_angle_gamma   156.49408311
_symmetry_Int_Tables_number   1
_chemical_formula_structural   Li3V5(PO4)6
_chemical_formula_sum   'Li6 V10 P12 O48'
_cell_volume   1089.50332058
_cell_formula_units_Z   2
loop_
 _symmetry_equiv_pos_site_id
 _symmetry_equiv_pos_as_xyz
  1  'x, y, z'
loop_
 _atom_site_type_symbol
 _atom_site_label
 _atom_site_symmetry_multiplicity
 _atom_site_fract_x
 _atom_site_fract_y
 _atom_site_fract_z
 _atom_site_occupancy
  Li  Li0  1  0.80192400  0.54161200  0.42500300  1
  Li  Li1  1  0.97072400  0.02927600  0.25000000  1
  Li  Li2  1  0.45838800  0.19807600  0.07499700  1
  Li  Li3  1  0.54161200  0.80192400  0.92500300  1
  Li  Li4  1  0.02927600  0.97072400  0.75000000  1
  Li  Li5  1  0.19807600  0.45838800  0.57499700  1
  V  V6  1  0.79446100  0.69362600  0.07630700  1
  V  V7  1  0.00000000  0.50000000  0.00000000  1
  V  V8  1  0.80761200  0.19238800  0.75000000  1
  V  V9  1  0.81204900  0.18795100  0.25000000  1
  V  V10  1  0.69362600  0.79446100  0.57630700  1
  V  V11  1  0.50000000  0.00000000  0.50000000  1
  V  V12  1  0.30637400  0.20553900  0.42369300  1
  V  V13  1  0.18795100  0.81204900  0.75000000  1
  V  V14  1  0.19238800  0.80761200  0.25000000  1
  V  V15  1  0.20553900  0.30637400  0.92369300  1
  P  P16  1  0.79487700  0.73570700  0.37443600  1
  P  P17  1  0.99126000  0.28717100  0.99755400  1
  P  P18  1  0.71877500  0.28122500  0.75000000  1
  P  P19  1  0.71942100  0.28057900  0.25000000  1
  P  P20  1  0.71282900  0.00874000  0.50244600  1
  P  P21  1  0.73570700  0.79487700  0.87443600  1
  P  P22  1  0.26429300  0.20512300  0.12556400  1
  P  P23  1  0.28717100  0.99126000  0.49755400  1
  P  P24  1  0.28057900  0.71942100  0.75000000  1
  P  P25  1  0.28122500  0.71877500  0.25000000  1
  P  P26  1  0.00874000  0.71282900  0.00244600  1
  P  P27  1  0.20512300  0.26429300  0.62556400  1
  O  O28  1  0.99791300  0.88285600  0.42260000  1
  O  O29  1  0.80310200  0.76276800  0.23276000  1
  O  O30  1  0.79479300  0.76016500  0.92513100  1
  O  O31  1  0.81985000  0.59949900  0.03509700  1
  O  O32  1  0.90478500  0.52976200  0.99958700  1
  O  O33  1  0.88375800  0.50051000  0.72258000  1
  O  O34  1  0.87414600  0.49456000  0.27499300  1
  O  O35  1  0.62004700  0.51152800  0.40682500  1
  O  O36  1  0.78875000  0.28333000  0.85725000  1
  O  O37  1  0.78955300  0.28338400  0.14204800  1
  O  O38  1  0.88646200  0.16837700  0.12212600  1
  O  O39  1  0.82226700  0.12646700  0.89539900  1
  O  O40  1  0.87353300  0.17773300  0.60460100  1
  O  O41  1  0.83162300  0.11353800  0.37787400  1
  O  O42  1  0.71667000  0.21125000  0.64275000  1
  O  O43  1  0.71661600  0.21044700  0.35795200  1
  O  O44  1  0.48847200  0.37995300  0.09317500  1
  O  O45  1  0.88285600  0.99791300  0.92260000  1
  O  O46  1  0.49949000  0.11624200  0.77742000  1
  O  O47  1  0.50544000  0.12585400  0.22500700  1
  O  O48  1  0.47023800  0.09521500  0.50041300  1
  O  O49  1  0.76276800  0.80310200  0.73276000  1
  O  O50  1  0.40050100  0.18015000  0.46490300  1
  O  O51  1  0.76016500  0.79479300  0.42513100  1
  O  O52  1  0.23983500  0.20520700  0.57486900  1
  O  O53  1  0.59949900  0.81985000  0.53509700  1
  O  O54  1  0.23723200  0.19689800  0.26724000  1
  O  O55  1  0.52976200  0.90478500  0.49958700  1
  O  O56  1  0.49456000  0.87414600  0.77499300  1
  O  O57  1  0.50051000  0.88375800  0.22258000  1
  O  O58  1  0.11714400  0.00208700  0.07740000  1
  O  O59  1  0.51152800  0.62004700  0.90682500  1
  O  O60  1  0.28338400  0.78955300  0.64204800  1
  O  O61  1  0.28333000  0.78875000  0.35725000  1
  O  O62  1  0.16837700  0.88646200  0.62212600  1
  O  O63  1  0.12646700  0.82226700  0.39539900  1
  O  O64  1  0.17773300  0.87353300  0.10460100  1
  O  O65  1  0.11353800  0.83162300  0.87787400  1
  O  O66  1  0.21044700  0.71661600  0.85795200  1
  O  O67  1  0.21125000  0.71667000  0.14275000  1
  O  O68  1  0.37995300  0.48847200  0.59317500  1
  O  O69  1  0.12585400  0.50544000  0.72500700  1
  O  O70  1  0.11624200  0.49949000  0.27742000  1
  O  O71  1  0.09521500  0.47023800  0.00041300  1
  O  O72  1  0.18015000  0.40050100  0.96490300  1
  O  O73  1  0.20520700  0.23983500  0.07486900  1
  O  O74  1  0.19689800  0.23723200  0.76724000  1
  O  O75  1  0.00208700  0.11714400  0.57740000  1
