# generated using pymatgen
data_LiMg2
_symmetry_space_group_name_H-M   'P 1'
_cell_length_a   5.91768776
_cell_length_b   5.91768776
_cell_length_c   7.43610214
_cell_angle_alpha   75.56927825
_cell_angle_beta   75.56927825
_cell_angle_gamma   31.31323551
_symmetry_Int_Tables_number   1
_chemical_formula_structural   LiMg2
_chemical_formula_sum   'Li2 Mg4'
_cell_volume   130.72557079
_cell_formula_units_Z   2
loop_
 _symmetry_equiv_pos_site_id
 _symmetry_equiv_pos_as_xyz
  1  'x, y, z'
loop_
 _atom_site_type_symbol
 _atom_site_label
 _atom_site_symmetry_multiplicity
 _atom_site_fract_x
 _atom_site_fract_y
 _atom_site_fract_z
 _atom_site_occupancy
  Li  Li0  1  0.61111600  0.61111600  0.27749100  1
  Li  Li1  1  0.94466000  0.94466000  0.61095200  1
  Mg  Mg2  1  0.00005200  0.00005200  0.00127300  1
  Mg  Mg3  1  0.33303100  0.33303100  0.33514100  1
  Mg  Mg4  1  0.66610900  0.66610900  0.66512300  1
  Mg  Mg5  1  0.27836500  0.27836500  0.94335300  1
