# generated using pymatgen
data_Li3Ti2(PO4)3
_symmetry_space_group_name_H-M   'P 1'
_cell_length_a   8.83079200
_cell_length_b   8.79929600
_cell_length_c   15.03786580
_cell_angle_alpha   54.49565734
_cell_angle_beta   90.00000000
_cell_angle_gamma   90.00000000
_symmetry_Int_Tables_number   1
_chemical_formula_structural   Li3Ti2(PO4)3
_chemical_formula_sum   'Li12 Ti8 P12 O48'
_cell_volume   951.25365694
_cell_formula_units_Z   4
loop_
 _symmetry_equiv_pos_site_id
 _symmetry_equiv_pos_as_xyz
  1  'x, y, z'
loop_
 _atom_site_type_symbol
 _atom_site_label
 _atom_site_symmetry_multiplicity
 _atom_site_fract_x
 _atom_site_fract_y
 _atom_site_fract_z
 _atom_site_occupancy
  Li  Li0  1  0.93480100  0.34986500  0.70748300  1
  Li  Li1  1  0.22502900  0.03213900  0.17904800  1
  Li  Li2  1  0.27008800  0.38375000  0.82029600  1
  Li  Li3  1  0.77008800  0.61625000  0.67970400  1
  Li  Li4  1  0.72502900  0.96786100  0.32095200  1
  Li  Li5  1  0.43480100  0.65013500  0.79251700  1
  Li  Li6  1  0.56519900  0.34986500  0.20748300  1
  Li  Li7  1  0.27497100  0.03213900  0.67904800  1
  Li  Li8  1  0.22991200  0.38375000  0.32029600  1
  Li  Li9  1  0.72991200  0.61625000  0.17970400  1
  Li  Li10  1  0.77497100  0.96786100  0.82095200  1
  Li  Li11  1  0.06519900  0.65013500  0.29251700  1
  Ti  Ti12  1  0.45925600  0.63284800  0.60791900  1
  Ti  Ti13  1  0.95925600  0.36715200  0.89208100  1
  Ti  Ti14  1  0.54110200  0.13467600  0.11078100  1
  Ti  Ti15  1  0.04110200  0.86532400  0.38921900  1
  Ti  Ti16  1  0.95889800  0.13467600  0.61078100  1
  Ti  Ti17  1  0.45889800  0.86532400  0.88921900  1
  Ti  Ti18  1  0.04074400  0.63284800  0.10791900  1
  Ti  Ti19  1  0.54074400  0.36715200  0.39208100  1
  P  P20  1  0.75500800  0.54393800  0.50032200  1
  P  P21  1  0.60874700  0.25566300  0.85051900  1
  P  P22  1  0.89513500  0.95791500  0.14822900  1
  P  P23  1  0.39513500  0.04208500  0.35177100  1
  P  P24  1  0.10874700  0.74433700  0.64948100  1
  P  P25  1  0.25500800  0.45606200  0.99967800  1
  P  P26  1  0.74499200  0.54393800  0.00032200  1
  P  P27  1  0.89125300  0.25566300  0.35051900  1
  P  P28  1  0.60486500  0.95791500  0.64822900  1
  P  P29  1  0.10486500  0.04208500  0.85177100  1
  P  P30  1  0.39125300  0.74433700  0.14948100  1
  P  P31  1  0.24499200  0.45606200  0.49967800  1
  O  O32  1  0.12890700  0.61546300  0.42938800  1
  O  O33  1  0.33500900  0.48232300  0.57683300  1
  O  O34  1  0.10764100  0.21980200  0.85065600  1
  O  O35  1  0.40714300  0.89863400  0.16806800  1
  O  O36  1  0.65672300  0.54975600  0.58407200  1
  O  O37  1  0.58455400  0.17700400  0.97107100  1
  O  O38  1  0.77249600  0.33910500  0.81307000  1
  O  O39  1  0.02021400  0.91592300  0.23401300  1
  O  O40  1  0.83501700  0.73773500  0.42925800  1
  O  O41  1  0.73968000  0.98547600  0.18399500  1
  O  O42  1  0.94382500  0.13138300  0.03654800  1
  O  O43  1  0.48904800  0.41576200  0.78236600  1
  O  O44  1  0.98904800  0.58423800  0.71763400  1
  O  O45  1  0.44382500  0.86861700  0.46345200  1
  O  O46  1  0.23968000  0.01452400  0.31600500  1
  O  O47  1  0.33501700  0.26226500  0.07074200  1
  O  O48  1  0.52021400  0.08407700  0.26598700  1
  O  O49  1  0.27249600  0.66089500  0.68693000  1
  O  O50  1  0.08455400  0.82299600  0.52892900  1
  O  O51  1  0.15672300  0.45024400  0.91592800  1
  O  O52  1  0.60764100  0.78019800  0.64934400  1
  O  O53  1  0.90714300  0.10136600  0.33193200  1
  O  O54  1  0.83500900  0.51767700  0.92316700  1
  O  O55  1  0.62890700  0.38453700  0.07061200  1
  O  O56  1  0.37109300  0.61546300  0.92938800  1
  O  O57  1  0.16499100  0.48232300  0.07683300  1
  O  O58  1  0.09285700  0.89863400  0.66806800  1
  O  O59  1  0.39235900  0.21980200  0.35065600  1
  O  O60  1  0.84327700  0.54975600  0.08407200  1
  O  O61  1  0.91544600  0.17700400  0.47107100  1
  O  O62  1  0.72750400  0.33910500  0.31307000  1
  O  O63  1  0.47978600  0.91592300  0.73401300  1
  O  O64  1  0.66498300  0.73773500  0.92925800  1
  O  O65  1  0.76032000  0.98547600  0.68399500  1
  O  O66  1  0.55617500  0.13138300  0.53654800  1
  O  O67  1  0.01095200  0.41576200  0.28236600  1
  O  O68  1  0.51095200  0.58423800  0.21763400  1
  O  O69  1  0.05617500  0.86861700  0.96345200  1
  O  O70  1  0.26032000  0.01452400  0.81600500  1
  O  O71  1  0.16498300  0.26226500  0.57074200  1
  O  O72  1  0.97978600  0.08407700  0.76598700  1
  O  O73  1  0.22750400  0.66089500  0.18693000  1
  O  O74  1  0.41544600  0.82299600  0.02892900  1
  O  O75  1  0.34327700  0.45024400  0.41592800  1
  O  O76  1  0.59285700  0.10136600  0.83193200  1
  O  O77  1  0.89235900  0.78019800  0.14934400  1
  O  O78  1  0.66499100  0.51767700  0.42316700  1
  O  O79  1  0.87109300  0.38453700  0.57061200  1
