# generated using pymatgen
data_Li4V3O8
_symmetry_space_group_name_H-M   'P 1'
_cell_length_a   5.85297192
_cell_length_b   10.13174842
_cell_length_c   6.15846663
_cell_angle_alpha   106.05778630
_cell_angle_beta   61.52390210
_cell_angle_gamma   90.11146602
_symmetry_Int_Tables_number   1
_chemical_formula_structural   Li4V3O8
_chemical_formula_sum   'Li8 V6 O16'
_cell_volume   304.82190259
_cell_formula_units_Z   2
loop_
 _symmetry_equiv_pos_site_id
 _symmetry_equiv_pos_as_xyz
  1  'x, y, z'
loop_
 _atom_site_type_symbol
 _atom_site_label
 _atom_site_symmetry_multiplicity
 _atom_site_fract_x
 _atom_site_fract_y
 _atom_site_fract_z
 _atom_site_occupancy
  Li  Li0  1  0.49577700  0.49818300  0.99763000  1
  Li  Li1  1  0.00607000  0.99811200  0.99820500  1
  Li  Li2  1  0.25457100  0.25115900  0.50140300  1
  Li  Li3  1  0.74478600  0.75122600  0.50145000  1
  Li  Li4  1  0.46906200  0.17993500  0.07462700  1
  Li  Li5  1  0.95808600  0.68065900  0.07420800  1
  Li  Li6  1  0.52867100  0.82109600  0.92778100  1
  Li  Li7  1  0.04155200  0.32143200  0.92878000  1
  V  V8  1  0.49123000  0.49935900  0.50777900  1
  V  V9  1  0.74499400  0.24810800  0.50027600  1
  V  V10  1  0.49913200  0.99849100  0.50807800  1
  V  V11  1  0.00694900  0.00080800  0.49375300  1
  V  V12  1  0.25637400  0.74905300  0.49960900  1
  V  V13  1  0.99807400  0.50127400  0.49416900  1
  O  O14  1  0.13799700  0.61848400  0.70910800  1
  O  O15  1  0.65204900  0.11772600  0.70941800  1
  O  O16  1  0.84688500  0.38195900  0.29571600  1
  O  O17  1  0.35852600  0.88202400  0.29280900  1
  O  O18  1  0.88849200  0.37197000  0.69532100  1
  O  O19  1  0.38032600  0.87179300  0.71609100  1
  O  O20  1  0.63187200  0.61010700  0.70504300  1
  O  O21  1  0.16264100  0.10969800  0.70580600  1
  O  O22  1  0.40541900  0.37164900  0.71275400  1
  O  O23  1  0.91688300  0.87208500  0.69496800  1
  O  O24  1  0.10344200  0.62089700  0.29309400  1
  O  O25  1  0.62991200  0.13413500  0.29099900  1
  O  O26  1  0.36342500  0.39159700  0.29334900  1
  O  O27  1  0.84283300  0.89128300  0.29369300  1
  O  O28  1  0.57972900  0.63496400  0.29052600  1
  O  O29  1  0.10424000  0.12073500  0.29355800  1
