# generated using pymatgen
data_Li7Mn4(P2O7)4
_symmetry_space_group_name_H-M   'P 1'
_cell_length_a   9.92426800
_cell_length_b   9.93867400
_cell_length_c   11.37005637
_cell_angle_alpha   77.04286566
_cell_angle_beta   90.00000000
_cell_angle_gamma   90.00000000
_symmetry_Int_Tables_number   1
_chemical_formula_structural   Li7Mn4(P2O7)4
_chemical_formula_sum   'Li14 Mn8 P16 O56'
_cell_volume   1092.91997753
_cell_formula_units_Z   2
loop_
 _symmetry_equiv_pos_site_id
 _symmetry_equiv_pos_as_xyz
  1  'x, y, z'
loop_
 _atom_site_type_symbol
 _atom_site_label
 _atom_site_symmetry_multiplicity
 _atom_site_fract_x
 _atom_site_fract_y
 _atom_site_fract_z
 _atom_site_occupancy
  Li  Li0  1  0.97126700  0.11173600  0.55266500  1
  Li  Li1  1  0.67359800  0.16987300  0.45530600  1
  Li  Li2  1  0.35509900  0.08697800  0.97264200  1
  Li  Li3  1  0.66069200  0.15076500  0.95795900  1
  Li  Li4  1  0.86214700  0.41367500  0.02849300  1
  Li  Li5  1  0.17260900  0.33078600  0.54501200  1
  Li  Li6  1  0.47136400  0.38882000  0.44691500  1
  Li  Li7  1  0.02873300  0.61173600  0.55266500  1
  Li  Li8  1  0.32640200  0.66987300  0.45530600  1
  Li  Li9  1  0.64490100  0.58697800  0.97264200  1
  Li  Li10  1  0.33930800  0.65076500  0.95795900  1
  Li  Li11  1  0.13785300  0.91367500  0.02849300  1
  Li  Li12  1  0.82739100  0.83078600  0.54501200  1
  Li  Li13  1  0.52863600  0.88882000  0.44691500  1
  Mn  Mn14  1  0.16820600  0.20728700  0.31734800  1
  Mn  Mn15  1  0.46266700  0.25837600  0.17506500  1
  Mn  Mn16  1  0.96741700  0.24066500  0.82882700  1
  Mn  Mn17  1  0.67221100  0.29718200  0.67559400  1
  Mn  Mn18  1  0.83179400  0.70728700  0.31734800  1
  Mn  Mn19  1  0.53733300  0.75837600  0.17506500  1
  Mn  Mn20  1  0.03258300  0.74066500  0.82882700  1
  Mn  Mn21  1  0.32778900  0.79718200  0.67559400  1
  P  P22  1  0.70180300  0.02579200  0.24111900  1
  P  P23  1  0.95648700  0.11828300  0.10989500  1
  P  P24  1  0.18254200  0.05836700  0.75565400  1
  P  P25  1  0.39996400  0.12314400  0.57254300  1
  P  P26  1  0.89933400  0.37841700  0.42652300  1
  P  P27  1  0.68284300  0.44101100  0.24365800  1
  P  P28  1  0.29819700  0.52579200  0.24111900  1
  P  P29  1  0.45651400  0.38082400  0.89200300  1
  P  P30  1  0.04351300  0.61828300  0.10989500  1
  P  P31  1  0.20227000  0.47416900  0.75939100  1
  P  P32  1  0.81745800  0.55836700  0.75565400  1
  P  P33  1  0.60003600  0.62314400  0.57254300  1
  P  P34  1  0.10066600  0.87841700  0.42652300  1
  P  P35  1  0.31715700  0.94101100  0.24365800  1
  P  P36  1  0.54348600  0.88082400  0.89200300  1
  P  P37  1  0.79773000  0.97416900  0.75939100  1
  O  O38  1  0.66408800  0.02589300  0.37074500  1
  O  O39  1  0.09089100  0.02557400  0.44531400  1
  O  O40  1  0.33839000  0.08503700  0.26962600  1
  O  O41  1  0.60924100  0.11460500  0.14500900  1
  O  O42  1  0.84868100  0.09199800  0.22333100  1
  O  O43  1  0.07565600  0.18030300  0.16178800  1
  O  O44  1  0.88382700  0.22262300  0.00440400  1
  O  O45  1  0.52533300  0.01888500  0.92397300  1
  O  O46  1  0.32989600  0.11254500  0.70344100  1
  O  O47  1  0.18576200  0.06322200  0.88744400  1
  O  O48  1  0.78671100  0.12143000  0.78695000  1
  O  O49  1  0.53916700  0.18771400  0.58111200  1
  O  O50  1  0.07774600  0.16426600  0.68710800  1
  O  O51  1  0.31359400  0.22478300  0.48114300  1
  O  O52  1  0.81375700  0.27665000  0.51842100  1
  O  O53  1  0.57848700  0.33506900  0.31223000  1
  O  O54  1  0.03936600  0.31393100  0.41953900  1
  O  O55  1  0.29337400  0.37552900  0.22039900  1
  O  O56  1  0.83001600  0.38627800  0.29624900  1
  O  O57  1  0.68652000  0.43641100  0.11178700  1
  O  O58  1  0.02149800  0.48356200  0.07569200  1
  O  O59  1  0.39609600  0.27231900  0.99838300  1
  O  O60  1  0.58129400  0.31986700  0.84295200  1
  O  O61  1  0.35007600  0.40386300  0.77949500  1
  O  O62  1  0.83882300  0.41357700  0.72930000  1
  O  O63  1  0.10521700  0.38766100  0.84851700  1
  O  O64  1  0.33591200  0.52589300  0.37074500  1
  O  O65  1  0.59173800  0.47649600  0.55266200  1
  O  O66  1  0.90910900  0.52557400  0.44531400  1
  O  O67  1  0.17129100  0.48017500  0.62683400  1
  O  O68  1  0.39075900  0.61460500  0.14500900  1
  O  O69  1  0.66161000  0.58503700  0.26962600  1
  O  O70  1  0.15131900  0.59199800  0.22333100  1
  O  O71  1  0.92434400  0.68030300  0.16178800  1
  O  O72  1  0.11617300  0.72262300  0.00440400  1
  O  O73  1  0.47466700  0.51888500  0.92397300  1
  O  O74  1  0.81423800  0.56322200  0.88744400  1
  O  O75  1  0.67010400  0.61254500  0.70344100  1
  O  O76  1  0.21328900  0.62143000  0.78695000  1
  O  O77  1  0.46083300  0.68771400  0.58111200  1
  O  O78  1  0.92225400  0.66426600  0.68710800  1
  O  O79  1  0.68640600  0.72478300  0.48114300  1
  O  O80  1  0.18624300  0.77665000  0.51842100  1
  O  O81  1  0.42151300  0.83506900  0.31223000  1
  O  O82  1  0.96063400  0.81393100  0.41953900  1
  O  O83  1  0.70662600  0.87552900  0.22039900  1
  O  O84  1  0.31348000  0.93641100  0.11178700  1
  O  O85  1  0.16998400  0.88627800  0.29624900  1
  O  O86  1  0.97850200  0.98356200  0.07569200  1
  O  O87  1  0.60390400  0.77231900  0.99838300  1
  O  O88  1  0.41870600  0.81986700  0.84295200  1
  O  O89  1  0.64992400  0.90386300  0.77949500  1
  O  O90  1  0.89478300  0.88766100  0.84851700  1
  O  O91  1  0.16117700  0.91357700  0.72930000  1
  O  O92  1  0.40826200  0.97649600  0.55266200  1
  O  O93  1  0.82870900  0.98017500  0.62683400  1
