# generated using pymatgen
data_Li14Ce5Si11N19O7F2
_symmetry_space_group_name_H-M   'P 1'
_cell_length_a   7.69520290
_cell_length_b   10.09608373
_cell_length_c   17.24850853
_cell_angle_alpha   90.00000000
_cell_angle_beta   90.00000000
_cell_angle_gamma   90.00000000
_symmetry_Int_Tables_number   1
_chemical_formula_structural   Li14Ce5Si11N19O7F2
_chemical_formula_sum   'Li28 Ce10 Si22 N38 O14 F4'
_cell_volume   1340.06099635
_cell_formula_units_Z   2
loop_
 _symmetry_equiv_pos_site_id
 _symmetry_equiv_pos_as_xyz
  1  'x, y, z'
loop_
 _atom_site_type_symbol
 _atom_site_label
 _atom_site_symmetry_multiplicity
 _atom_site_fract_x
 _atom_site_fract_y
 _atom_site_fract_z
 _atom_site_occupancy
  Li  Li0  1  0.75000000  0.75575381  0.06579070  1
  Li  Li1  1  0.75000000  0.75095763  0.43592963  1
  Li  Li2  1  0.25000000  0.24904237  0.93592963  1
  Li  Li3  1  0.25000000  0.24424619  0.56579070  1
  Li  Li4  1  0.75000000  0.45670187  0.01248983  1
  Li  Li5  1  0.75000000  0.45511067  0.48761487  1
  Li  Li6  1  0.25000000  0.54488933  0.98761487  1
  Li  Li7  1  0.25000000  0.54329813  0.51248983  1
  Li  Li8  1  0.75000000  0.52807169  0.85189633  1
  Li  Li9  1  0.75000000  0.52763556  0.64798404  1
  Li  Li10  1  0.25000000  0.47236444  0.14798404  1
  Li  Li11  1  0.25000000  0.47192831  0.35189633  1
  Li  Li12  1  0.41169951  0.01055817  0.82709085  1
  Li  Li13  1  0.40318206  0.01322441  0.67141942  1
  Li  Li14  1  0.08830049  0.01055817  0.82709085  1
  Li  Li15  1  0.09681794  0.01322441  0.67141942  1
  Li  Li16  1  0.59681794  0.98677559  0.17141942  1
  Li  Li17  1  0.58830049  0.98944183  0.32709085  1
  Li  Li18  1  0.90318206  0.98677559  0.17141942  1
  Li  Li19  1  0.91169951  0.98944183  0.32709085  1
  Li  Li20  1  0.49784688  0.37655657  0.88450472  1
  Li  Li21  1  0.49691650  0.37605229  0.61515345  1
  Li  Li22  1  0.00215312  0.37655657  0.88450472  1
  Li  Li23  1  0.00308350  0.37605229  0.61515345  1
  Li  Li24  1  0.50308350  0.62394771  0.11515345  1
  Li  Li25  1  0.50215312  0.62344343  0.38450472  1
  Li  Li26  1  0.99691650  0.62394771  0.11515345  1
  Li  Li27  1  0.99784688  0.62344343  0.38450472  1
  Ce  Ce28  1  0.48888742  0.27201183  0.24995781  1
  Ce  Ce29  1  0.01111258  0.27201183  0.24995781  1
  Ce  Ce30  1  0.51111258  0.72798817  0.74995781  1
  Ce  Ce31  1  0.98888742  0.72798817  0.74995781  1
  Ce  Ce32  1  0.25000000  0.81539864  0.24997831  1
  Ce  Ce33  1  0.75000000  0.18460136  0.74997831  1
  Ce  Ce34  1  0.51126448  0.99782716  0.00430757  1
  Ce  Ce35  1  0.48873552  0.00217284  0.50430757  1
  Ce  Ce36  1  0.98873552  0.99782716  0.00430757  1
  Ce  Ce37  1  0.01126448  0.00217284  0.50430757  1
  Si  Si38  1  0.45490739  0.30290677  0.06425573  1
  Si  Si39  1  0.45491848  0.30291331  0.43576140  1
  Si  Si40  1  0.04509261  0.30290677  0.06425573  1
  Si  Si41  1  0.04508152  0.30291331  0.43576140  1
  Si  Si42  1  0.54508152  0.69708669  0.93576140  1
  Si  Si43  1  0.54509261  0.69709323  0.56425573  1
  Si  Si44  1  0.95491848  0.69708669  0.93576140  1
  Si  Si45  1  0.95490739  0.69709323  0.56425573  1
  Si  Si46  1  0.25000000  0.08144500  0.14853945  1
  Si  Si47  1  0.25000000  0.08166884  0.35163896  1
  Si  Si48  1  0.75000000  0.91833116  0.85163896  1
  Si  Si49  1  0.75000000  0.91855500  0.64853945  1
  Si  Si50  1  0.25000000  0.77113101  0.06685604  1
  Si  Si51  1  0.25000000  0.77131070  0.43308479  1
  Si  Si52  1  0.75000000  0.22868930  0.93308479  1
  Si  Si53  1  0.75000000  0.22886899  0.56685604  1
  Si  Si54  1  0.75000000  0.47844446  0.15788903  1
  Si  Si55  1  0.75000000  0.47842244  0.34206428  1
  Si  Si56  1  0.25000000  0.52157756  0.84206428  1
  Si  Si57  1  0.25000000  0.52155554  0.65788903  1
  Si  Si58  1  0.75000000  0.74092291  0.25017342  1
  Si  Si59  1  0.25000000  0.25907709  0.75017342  1
  N  N60  1  0.56045813  0.42401509  0.11782430  1
  N  N61  1  0.56014279  0.42367353  0.38174268  1
  N  N62  1  0.93954187  0.42401509  0.11782430  1
  N  N63  1  0.93985721  0.42367353  0.38174268  1
  N  N64  1  0.43985721  0.57632647  0.88174268  1
  N  N65  1  0.43954187  0.57598491  0.61782430  1
  N  N66  1  0.06014279  0.57632647  0.88174268  1
  N  N67  1  0.06045813  0.57598491  0.61782430  1
  N  N68  1  0.55626108  0.25467189  0.97908184  1
  N  N69  1  0.55761631  0.25634495  0.52070630  1
  N  N70  1  0.94373892  0.25467189  0.97908184  1
  N  N71  1  0.94238369  0.25634495  0.52070630  1
  N  N72  1  0.44238369  0.74365505  0.02070630  1
  N  N73  1  0.44373892  0.74532811  0.47908184  1
  N  N74  1  0.05761631  0.74365505  0.02070630  1
  N  N75  1  0.05626108  0.74532811  0.47908184  1
  N  N76  1  0.75000000  0.64736691  0.16618046  1
  N  N77  1  0.75000000  0.64750969  0.33436838  1
  N  N78  1  0.25000000  0.35249031  0.83436838  1
  N  N79  1  0.25000000  0.35263309  0.66618046  1
  N  N80  1  0.55744935  0.84329754  0.87837728  1
  N  N81  1  0.55811708  0.84223884  0.62240472  1
  N  N82  1  0.94255065  0.84329754  0.87837728  1
  N  N83  1  0.94188292  0.84223884  0.62240472  1
  N  N84  1  0.44188292  0.15776116  0.12240472  1
  N  N85  1  0.44255065  0.15670246  0.37837728  1
  N  N86  1  0.05811708  0.15776116  0.12240472  1
  N  N87  1  0.05744935  0.15670246  0.37837728  1
  N  N88  1  0.75000000  0.93451598  0.75010118  1
  N  N89  1  0.25000000  0.06548402  0.25010118  1
  N  N90  1  0.25000000  0.36162458  0.04111071  1
  N  N91  1  0.25000000  0.36168078  0.45853311  1
  N  N92  1  0.75000000  0.63831922  0.95853311  1
  N  N93  1  0.75000000  0.63837542  0.54111071  1
  N  N94  1  0.25000000  0.92782782  0.10522737  1
  N  N95  1  0.25000000  0.92766181  0.39444103  1
  N  N96  1  0.75000000  0.07233819  0.89444103  1
  N  N97  1  0.75000000  0.07217218  0.60522737  1
  O  O98  1  0.25000000  0.58983078  0.74993076  1
  O  O99  1  0.75000000  0.41016922  0.24993076  1
  O  O100  1  0.75000000  0.33491885  0.85661893  1
  O  O101  1  0.75000000  0.33450314  0.64362975  1
  O  O102  1  0.25000000  0.66549686  0.14362975  1
  O  O103  1  0.25000000  0.66508115  0.35661893  1
  O  O104  1  0.57355994  0.84292306  0.25048900  1
  O  O105  1  0.92644006  0.84292306  0.25048900  1
  O  O106  1  0.42644006  0.15707694  0.75048900  1
  O  O107  1  0.07355994  0.15707694  0.75048900  1
  O  O108  1  0.75000000  0.95161935  0.07860834  1
  O  O109  1  0.25000000  0.04838065  0.57860834  1
  O  O110  1  0.75000000  0.60974737  0.74990570  1
  O  O111  1  0.25000000  0.39025263  0.24990570  1
  F  F112  1  0.75000000  0.94660316  0.41224743  1
  F  F113  1  0.25000000  0.05339684  0.91224743  1
  F  F114  1  0.75000000  0.09304353  0.25101302  1
  F  F115  1  0.25000000  0.90695647  0.75101302  1
