# generated using pymatgen
data_Li9Mn2Co5O16
_symmetry_space_group_name_H-M   'P 1'
_cell_length_a   10.63901727
_cell_length_b   10.63901727
_cell_length_c   10.27674159
_cell_angle_alpha   67.07260188
_cell_angle_beta   67.07260188
_cell_angle_gamma   15.61795638
_symmetry_Int_Tables_number   1
_chemical_formula_structural   Li9Mn2Co5O16
_chemical_formula_sum   'Li9 Mn2 Co5 O16'
_cell_volume   287.93588650
_cell_formula_units_Z   1
loop_
 _symmetry_equiv_pos_site_id
 _symmetry_equiv_pos_as_xyz
  1  'x, y, z'
loop_
 _atom_site_type_symbol
 _atom_site_label
 _atom_site_symmetry_multiplicity
 _atom_site_fract_x
 _atom_site_fract_y
 _atom_site_fract_z
 _atom_site_occupancy
  Li  Li0  1  0.61984700  0.61984700  0.81722200  1
  Li  Li1  1  0.88588500  0.88588500  0.42356700  1
  Li  Li2  1  0.11794900  0.11794900  0.08720300  1
  Li  Li3  1  0.12058900  0.12058900  0.56037100  1
  Li  Li4  1  0.37936900  0.37936900  0.18196700  1
  Li  Li5  1  0.62173700  0.62173700  0.31273400  1
  Li  Li6  1  0.87548500  0.87548500  0.93753200  1
  Li  Li7  1  0.38173100  0.38173100  0.68030600  1
  Li  Li8  1  0.49831800  0.49831800  0.25080300  1
  Mn  Mn9  1  0.99836100  0.99836100  0.00978400  1
  Mn  Mn10  1  0.25051300  0.25051300  0.62435700  1
  Co  Co11  1  0.74966900  0.74966900  0.87732500  1
  Co  Co12  1  0.00460900  0.00460900  0.47751500  1
  Co  Co13  1  0.24905000  0.24905000  0.12600900  1
  Co  Co14  1  0.49911300  0.49911300  0.74564700  1
  Co  Co15  1  0.75076300  0.75076300  0.37249300  1
  O  O16  1  0.55625500  0.55625500  0.02735600  1
  O  O17  1  0.80654000  0.80654000  0.64649200  1
  O  O18  1  0.06135600  0.06135600  0.29334100  1
  O  O19  1  0.05542300  0.05542300  0.79305300  1
  O  O20  1  0.30207300  0.30207300  0.41863100  1
  O  O21  1  0.55738900  0.55738900  0.53906200  1
  O  O22  1  0.80774100  0.80774100  0.15221300  1
  O  O23  1  0.30443400  0.30443400  0.90668200  1
  O  O24  1  0.69307700  0.69307700  0.60410100  1
  O  O25  1  0.94130600  0.94130600  0.19971500  1
  O  O26  1  0.19894700  0.19894700  0.83036400  1
  O  O27  1  0.19547300  0.19547300  0.34413800  1
  O  O28  1  0.44540300  0.44540300  0.96861500  1
  O  O29  1  0.69061700  0.69061700  0.09469500  1
  O  O30  1  0.93954400  0.93954400  0.72416200  1
  O  O31  1  0.44143300  0.44143300  0.47254700  1
