# generated using pymatgen
data_Li4CO4
_symmetry_space_group_name_H-M   'P 1'
_cell_length_a   4.72378362
_cell_length_b   4.72378362
_cell_length_c   4.60488316
_cell_angle_alpha   72.53052472
_cell_angle_beta   72.53052472
_cell_angle_gamma   72.66749411
_symmetry_Int_Tables_number   1
_chemical_formula_structural   Li4CO4
_chemical_formula_sum   'Li4 C1 O4'
_cell_volume   91.02309142
_cell_formula_units_Z   1
loop_
 _symmetry_equiv_pos_site_id
 _symmetry_equiv_pos_as_xyz
  1  'x, y, z'
loop_
 _atom_site_type_symbol
 _atom_site_label
 _atom_site_symmetry_multiplicity
 _atom_site_fract_x
 _atom_site_fract_y
 _atom_site_fract_z
 _atom_site_occupancy
  Li  Li0  1  0.64777800  0.64777800  0.53016300  1
  Li  Li1  1  0.13692700  0.65057700  0.05597800  1
  Li  Li2  1  0.65057700  0.13692700  0.05597800  1
  Li  Li3  1  0.24141600  0.24141600  0.70609100  1
  C  C4  1  0.04132800  0.04132800  0.43850500  1
  O  O5  1  0.22512000  0.22512000  0.18769900  1
  O  O6  1  0.81919100  0.23252300  0.62663100  1
  O  O7  1  0.23252300  0.81919100  0.62663100  1
  O  O8  1  0.90266900  0.90266900  0.31411400  1
