# generated using pymatgen
data_Li2Ni3SnO8
_symmetry_space_group_name_H-M   'P 1'
_cell_length_a   5.88171684
_cell_length_b   5.88156916
_cell_length_c   10.42029499
_cell_angle_alpha   105.54492215
_cell_angle_beta   90.39259218
_cell_angle_gamma   120.86125849
_symmetry_Int_Tables_number   1
_chemical_formula_structural   Li2Ni3SnO8
_chemical_formula_sum   'Li4 Ni6 Sn2 O16'
_cell_volume   293.54402958
_cell_formula_units_Z   2
loop_
 _symmetry_equiv_pos_site_id
 _symmetry_equiv_pos_as_xyz
  1  'x, y, z'
loop_
 _atom_site_type_symbol
 _atom_site_label
 _atom_site_symmetry_multiplicity
 _atom_site_fract_x
 _atom_site_fract_y
 _atom_site_fract_z
 _atom_site_occupancy
  Li  Li0  1  0.05559000  0.10874000  0.17959400  1
  Li  Li1  1  0.57080100  0.12397800  0.67965000  1
  Li  Li2  1  0.42939200  0.87610200  0.32035600  1
  Li  Li3  1  0.94422000  0.89120200  0.82038300  1
  Ni  Ni4  1  0.49984000  0.50005600  0.99997700  1
  Ni  Ni5  1  0.00022200  0.00016300  0.50001500  1
  Ni  Ni6  1  0.49961100  0.00001000  0.00005900  1
  Ni  Ni7  1  0.50033500  0.49999100  0.50006500  1
  Ni  Ni8  1  0.99988800  0.49972400  0.99990500  1
  Ni  Ni9  1  0.00002600  0.50004500  0.50000800  1
  Sn  Sn10  1  0.25901200  0.50911100  0.74996300  1
  Sn  Sn11  1  0.74107300  0.49104200  0.24999800  1
  O  O12  1  0.14744000  0.24916900  0.39640300  1
  O  O13  1  0.64711200  0.24908500  0.89634400  1
  O  O14  1  0.35247700  0.75069600  0.10364200  1
  O  O15  1  0.85301600  0.75093200  0.60368800  1
  O  O16  1  0.36518600  0.71136500  0.60153200  1
  O  O17  1  0.84771000  0.70543100  0.10942100  1
  O  O18  1  0.38661900  0.28301000  0.61913300  1
  O  O19  1  0.83573400  0.23225100  0.11908000  1
  O  O20  1  0.90402200  0.26183600  0.60953900  1
  O  O21  1  0.39011500  0.23672200  0.10158700  1
  O  O22  1  0.60960400  0.76345600  0.89846600  1
  O  O23  1  0.09617100  0.73829500  0.39043500  1
  O  O24  1  0.16384500  0.76754500  0.88088300  1
  O  O25  1  0.61359600  0.71695000  0.38098800  1
  O  O26  1  0.15205900  0.29440000  0.89040000  1
  O  O27  1  0.63528200  0.28869200  0.39849000  1
