# generated using pymatgen
data_Li6MnV3(PO4)6
_symmetry_space_group_name_H-M   'P 1'
_cell_length_a   9.82867603
_cell_length_b   9.82867603
_cell_length_c   9.89209308
_cell_angle_alpha   86.78463185
_cell_angle_beta   86.78463185
_cell_angle_gamma   84.84673058
_symmetry_Int_Tables_number   1
_chemical_formula_structural   Li6MnV3(PO4)6
_chemical_formula_sum   'Li12 Mn2 V6 P12 O48'
_cell_volume   948.99064718
_cell_formula_units_Z   2
loop_
 _symmetry_equiv_pos_site_id
 _symmetry_equiv_pos_as_xyz
  1  'x, y, z'
loop_
 _atom_site_type_symbol
 _atom_site_label
 _atom_site_symmetry_multiplicity
 _atom_site_fract_x
 _atom_site_fract_y
 _atom_site_fract_z
 _atom_site_occupancy
  Li  Li0  1  0.98798100  0.51066000  0.23989500  1
  Li  Li1  1  0.02331100  0.24944100  0.38473200  1
  Li  Li2  1  0.78610300  0.56645100  0.46220000  1
  Li  Li3  1  0.76973200  0.73572600  0.17704200  1
  Li  Li4  1  0.75055900  0.97668900  0.61526800  1
  Li  Li5  1  0.63016000  0.74865900  0.81324300  1
  Li  Li6  1  0.48934000  0.01201900  0.76010500  1
  Li  Li7  1  0.43354900  0.21389700  0.53780000  1
  Li  Li8  1  0.29734400  0.92468700  0.98286500  1
  Li  Li9  1  0.26427400  0.23026800  0.82295800  1
  Li  Li10  1  0.25134100  0.36984000  0.18675700  1
  Li  Li11  1  0.07531300  0.70265600  0.01713500  1
  Mn  Mn12  1  0.24951400  0.97672200  0.27856300  1
  Mn  Mn13  1  0.02327800  0.75048600  0.72143700  1
  V  V14  1  0.96999300  0.24987200  0.78273500  1
  V  V15  1  0.74751400  0.25248600  0.00000000  1
  V  V16  1  0.75012800  0.03000700  0.21726500  1
  V  V17  1  0.53475800  0.46524200  0.00000000  1
  V  V18  1  0.46647800  0.53352200  0.50000000  1
  V  V19  1  0.25359000  0.74641000  0.50000000  1
  P  P20  1  0.94749500  0.81750500  0.40194700  1
  P  P21  1  0.82756900  0.94784900  0.90782100  1
  P  P22  1  0.83982200  0.55159200  0.92944500  1
  P  P23  1  0.68021700  0.34293800  0.30290800  1
  P  P24  1  0.65706200  0.31978300  0.69709200  1
  P  P25  1  0.55696100  0.83632600  0.43027000  1
  P  P26  1  0.44840800  0.16017800  0.07055500  1
  P  P27  1  0.35282900  0.68405500  0.80480100  1
  P  P28  1  0.31594500  0.64717100  0.19519900  1
  P  P29  1  0.16367400  0.44303900  0.56973000  1
  P  P30  1  0.18249500  0.05250500  0.59805300  1
  P  P31  1  0.05215100  0.17243100  0.09217900  1
  O  O32  1  0.97024800  0.87640400  0.88213200  1
  O  O33  1  0.90441300  0.82486900  0.55332100  1
  O  O34  1  0.88635400  0.61196400  0.79240500  1
  O  O35  1  0.89680100  0.95430400  0.32763700  1
  O  O36  1  0.89813200  0.69286900  0.33702900  1
  O  O37  1  0.87147200  0.39001700  0.92731400  1
  O  O38  1  0.90334900  0.60162900  0.05420700  1
  O  O39  1  0.89032200  0.16709700  0.12093200  1
  O  O40  1  0.83290300  0.10967800  0.87906800  1
  O  O41  1  0.81402300  0.31331100  0.67094600  1
  O  O42  1  0.78436700  0.91134100  0.05967400  1
  O  O43  1  0.80575100  0.40653700  0.34604400  1
  O  O44  1  0.71935800  0.91159400  0.81268900  1
  O  O45  1  0.67915800  0.58800300  0.94406600  1
  O  O46  1  0.68668900  0.18597700  0.32905400  1
  O  O47  1  0.66898800  0.37901800  0.14119100  1
  O  O48  1  0.62655600  0.88051100  0.29307300  1
  O  O49  1  0.59406900  0.90896400  0.55234200  1
  O  O50  1  0.62098200  0.33101200  0.85880900  1
  O  O51  1  0.59910300  0.45723700  0.63225500  1
  O  O52  1  0.59411400  0.67599000  0.44744200  1
  O  O53  1  0.59346300  0.19424900  0.65395600  1
  O  O54  1  0.60998300  0.12852800  0.07268600  1
  O  O55  1  0.54276300  0.40089700  0.36774500  1
  O  O56  1  0.42874400  0.80587100  0.84027000  1
  O  O57  1  0.45486600  0.58078600  0.13675400  1
  O  O58  1  0.41921400  0.54513400  0.86324600  1
  O  O59  1  0.39476100  0.86379900  0.42109300  1
  O  O60  1  0.37601000  0.67030700  0.64276900  1
  O  O61  1  0.39837100  0.09665100  0.94579300  1
  O  O62  1  0.41199700  0.32084200  0.05593400  1
  O  O63  1  0.38803600  0.11364600  0.20759500  1
  O  O64  1  0.32969300  0.62399000  0.35723100  1
  O  O65  1  0.30130700  0.79879900  0.15162400  1
  O  O66  1  0.32401000  0.40588600  0.55255800  1
  O  O67  1  0.30713100  0.10186800  0.66297100  1
  O  O68  1  0.20120100  0.69869300  0.84837600  1
  O  O69  1  0.18712500  0.88985500  0.61969200  1
  O  O70  1  0.19412900  0.57125600  0.15973000  1
  O  O71  1  0.17513100  0.09558700  0.44667900  1
  O  O72  1  0.13620100  0.60523900  0.57890700  1
  O  O73  1  0.11014500  0.81287500  0.38030800  1
  O  O74  1  0.11948900  0.37344400  0.70692700  1
  O  O75  1  0.08865900  0.21563300  0.94032600  1
  O  O76  1  0.09103600  0.40593100  0.44765800  1
  O  O77  1  0.12359600  0.02975200  0.11786800  1
  O  O78  1  0.08840600  0.28064200  0.18731100  1
  O  O79  1  0.04569600  0.10319900  0.67236300  1
