# generated using pymatgen
data_Li5V3P8O29
_symmetry_space_group_name_H-M   'P 1'
_cell_length_a   9.81713800
_cell_length_b   9.84196976
_cell_length_c   14.02431439
_cell_angle_alpha   89.71706761
_cell_angle_beta   89.78336387
_cell_angle_gamma   60.20210447
_symmetry_Int_Tables_number   1
_chemical_formula_structural   Li5V3P8O29
_chemical_formula_sum   'Li10 V6 P16 O58'
_cell_volume   1175.85629879
_cell_formula_units_Z   2
loop_
 _symmetry_equiv_pos_site_id
 _symmetry_equiv_pos_as_xyz
  1  'x, y, z'
loop_
 _atom_site_type_symbol
 _atom_site_label
 _atom_site_symmetry_multiplicity
 _atom_site_fract_x
 _atom_site_fract_y
 _atom_site_fract_z
 _atom_site_occupancy
  Li  Li0  1  0.22198200  0.08627200  0.93876200  1
  Li  Li1  1  0.09781800  0.22633000  0.44268900  1
  Li  Li2  1  0.67833400  0.09404900  0.44085800  1
  Li  Li3  1  0.33632200  0.33324600  0.11435400  1
  Li  Li4  1  0.69244400  0.22478800  0.94018500  1
  Li  Li5  1  0.08858800  0.68440500  0.94011800  1
  Li  Li6  1  0.77671800  0.31813100  0.55931600  1
  Li  Li7  1  0.23148300  0.68155600  0.43895800  1
  Li  Li8  1  0.90880900  0.77480100  0.56118300  1
  Li  Li9  1  0.77149800  0.90658200  0.06017300  1
  V  V10  1  0.56454500  0.43731800  0.75051300  1
  V  V11  1  0.43405200  0.56916200  0.24633600  1
  V  V12  1  0.99498400  0.43137200  0.24628200  1
  V  V13  1  0.99853800  0.56631800  0.75069400  1
  V  V14  1  0.42963000  0.99877900  0.74810400  1
  V  V15  1  0.56579000  0.00092300  0.25448800  1
  P  P16  1  0.23121800  0.08984900  0.15662200  1
  P  P17  1  0.08765700  0.23292700  0.65914400  1
  P  P18  1  0.67873400  0.09059000  0.65918800  1
  P  P19  1  0.33253200  0.33358000  0.87259800  1
  P  P20  1  0.33082200  0.33679600  0.37196500  1
  P  P21  1  0.67914700  0.22960200  0.15798900  1
  P  P22  1  0.76643500  0.31973700  0.34043200  1
  P  P23  1  0.08909400  0.68077100  0.15796600  1
  P  P24  1  0.91223100  0.31714300  0.84151700  1
  P  P25  1  0.23110700  0.68215700  0.65608100  1
  P  P26  1  0.31478900  0.76940200  0.84054000  1
  P  P27  1  0.66667600  0.66679800  0.62868500  1
  P  P28  1  0.66705100  0.66994200  0.12683000  1
  P  P29  1  0.31274800  0.91542200  0.34097600  1
  P  P30  1  0.91428200  0.76525800  0.34157400  1
  P  P31  1  0.76556800  0.91367300  0.84116000  1
  O  O32  1  0.23042800  0.01081300  0.42530900  1
  O  O33  1  0.25284900  0.08736000  0.66685700  1
  O  O34  1  0.00287500  0.22773100  0.92582400  1
  O  O35  1  0.08290300  0.25779400  0.16862700  1
  O  O36  1  0.37375700  0.11432900  0.17487500  1
  O  O37  1  0.32996500  0.18526700  0.83644600  1
  O  O38  1  0.51965000  0.10311400  0.67564100  1
  O  O39  1  0.75472100  0.00127100  0.93105400  1
  O  O40  1  0.66295300  0.07917100  0.16409100  1
  O  O41  1  0.18264900  0.33381400  0.32916900  1
  O  O42  1  0.09976100  0.38124500  0.67797200  1
  O  O43  1  0.48615400  0.18769500  0.33470500  1
  O  O44  1  0.33900300  0.33556000  0.97994300  1
  O  O45  1  0.32704400  0.33771600  0.47814200  1
  O  O46  1  0.48603300  0.33169900  0.83122800  1
  O  O47  1  0.10462600  0.51527800  0.17473400  1
  O  O48  1  0.18658400  0.48602100  0.83480600  1
  O  O49  1  0.66311600  0.25627300  0.66129700  1
  O  O50  1  0.78731900  0.21154200  0.24911900  1
  O  O51  1  0.76317300  0.23779300  0.43042800  1
  O  O52  1  0.75257600  0.23722000  0.06743000  1
  O  O53  1  0.51222100  0.37236600  0.17517200  1
  O  O54  1  0.33001400  0.48690200  0.32974900  1
  O  O55  1  0.74284200  0.33840600  0.83810400  1
  O  O56  1  0.38217800  0.52167000  0.67972400  1
  O  O57  1  0.08377600  0.66283900  0.66158400  1
  O  O58  1  0.99025000  0.21489200  0.74540900  1
  O  O59  1  0.00348700  0.24325600  0.56801500  1
  O  O60  1  0.00339100  0.75186100  0.43105100  1
  O  O61  1  0.91650900  0.33694500  0.33812200  1
  O  O62  1  0.61867700  0.47792800  0.32603300  1
  O  O63  1  0.25366200  0.65826900  0.15854800  1
  O  O64  1  0.66995500  0.51131100  0.67185600  1
  O  O65  1  0.47746700  0.61786100  0.82111200  1
  O  O66  1  0.23518600  0.75260300  0.92567500  1
  O  O67  1  0.24515900  0.74783200  0.56398500  1
  O  O68  1  0.21340600  0.79251000  0.74473300  1
  O  O69  1  0.33565400  0.74940900  0.34017600  1
  O  O70  1  0.81793700  0.52122300  0.17488800  1
  O  O71  1  0.90097400  0.47720800  0.82565100  1
  O  O72  1  0.52375900  0.66171600  0.17207100  1
  O  O73  1  0.67737200  0.65892500  0.02172000  1
  O  O74  1  0.67559100  0.65280600  0.52292700  1
  O  O75  1  0.52007100  0.80743300  0.67253200  1
  O  O76  1  0.90621900  0.61568600  0.32090000  1
  O  O77  1  0.81584700  0.66993100  0.66841400  1
  O  O78  1  0.33713700  0.91346900  0.84152000  1
  O  O79  1  0.21432100  0.99446900  0.24414500  1
  O  O80  1  0.23374700  0.01557600  0.06522500  1
  O  O81  1  0.47432500  0.90800600  0.32202200  1
  O  O82  1  0.66917800  0.81664400  0.16617300  1
  O  O83  1  0.61544000  0.90580000  0.82243000  1
  O  O84  1  0.91313500  0.74848100  0.84060700  1
  O  O85  1  0.99521700  0.75579900  0.06975200  1
  O  O86  1  0.00043100  0.78779700  0.24964200  1
  O  O87  1  0.74973200  0.91342300  0.34264500  1
  O  O88  1  0.76132800  0.00411600  0.56981000  1
  O  O89  1  0.78946600  0.00185500  0.75037600  1
