# generated using pymatgen
data_LiLa4CoO8
_symmetry_space_group_name_H-M   'P 1'
_cell_length_a   7.01819783
_cell_length_b   7.55081391
_cell_length_c   7.55074600
_cell_angle_alpha   90.09104252
_cell_angle_beta   105.56439407
_cell_angle_gamma   105.56259221
_symmetry_Int_Tables_number   1
_chemical_formula_structural   LiLa4CoO8
_chemical_formula_sum   'Li2 La8 Co2 O16'
_cell_volume   370.16337547
_cell_formula_units_Z   2
loop_
 _symmetry_equiv_pos_site_id
 _symmetry_equiv_pos_as_xyz
  1  'x, y, z'
loop_
 _atom_site_type_symbol
 _atom_site_label
 _atom_site_symmetry_multiplicity
 _atom_site_fract_x
 _atom_site_fract_y
 _atom_site_fract_z
 _atom_site_occupancy
  Li  Li0  1  0.00000100  0.75000000  0.75000000  1
  Li  Li1  1  0.00000100  0.24999900  0.25000000  1
  La  La2  1  0.72502500  0.43103100  0.93104300  1
  La  La3  1  0.72500400  0.93102600  0.43103800  1
  La  La4  1  0.27499600  0.56897400  0.06896400  1
  La  La5  1  0.27497400  0.06896900  0.56895700  1
  La  La6  1  0.27630100  0.56916100  0.56912300  1
  La  La7  1  0.27629900  0.06916200  0.06912000  1
  La  La8  1  0.72370200  0.43084000  0.43088000  1
  La  La9  1  0.72369700  0.93084000  0.93087800  1
  Co  Co10  1  0.00000000  0.75000000  0.25000000  1
  Co  Co11  1  0.00000000  0.25000000  0.75000000  1
  O  O12  1  0.36287800  0.84070900  0.84071800  1
  O  O13  1  0.36287700  0.34071000  0.34071700  1
  O  O14  1  0.63712300  0.15929000  0.15927900  1
  O  O15  1  0.63712300  0.65929100  0.65927900  1
  O  O16  1  0.64091800  0.66031700  0.16030700  1
  O  O17  1  0.64091600  0.16032100  0.66031000  1
  O  O18  1  0.35908300  0.33967800  0.83969100  1
  O  O19  1  0.35908200  0.83968100  0.33969300  1
  O  O20  1  0.99993800  0.49491100  0.75069500  1
  O  O21  1  0.99993500  0.99490900  0.25069300  1
  O  O22  1  0.00004900  0.74921500  0.00509100  1
  O  O23  1  0.00004700  0.24921400  0.50509000  1
  O  O24  1  0.00006500  0.50509100  0.24930800  1
  O  O25  1  0.00006200  0.00508900  0.74930700  1
  O  O26  1  0.99995400  0.25078600  0.99491100  1
  O  O27  1  0.99995100  0.75078500  0.49491000  1
