# generated using pymatgen
data_Li4MnCo2O7
_symmetry_space_group_name_H-M   'P 1'
_cell_length_a   9.84129973
_cell_length_b   9.84129973
_cell_length_c   9.75257818
_cell_angle_alpha   66.48069473
_cell_angle_beta   66.48069473
_cell_angle_gamma   16.87107333
_symmetry_Int_Tables_number   1
_chemical_formula_structural   Li4MnCo2O7
_chemical_formula_sum   'Li8 Mn2 Co4 O14'
_cell_volume   250.82914848
_cell_formula_units_Z   2
loop_
 _symmetry_equiv_pos_site_id
 _symmetry_equiv_pos_as_xyz
  1  'x, y, z'
loop_
 _atom_site_type_symbol
 _atom_site_label
 _atom_site_symmetry_multiplicity
 _atom_site_fract_x
 _atom_site_fract_y
 _atom_site_fract_z
 _atom_site_occupancy
  Li  Li0  1  0.35107200  0.35107200  0.06761800  1
  Li  Li1  1  0.07598600  0.07598600  0.21745800  1
  Li  Li2  1  0.78322000  0.78322000  0.35966200  1
  Li  Li3  1  0.49294700  0.49294700  0.51926400  1
  Li  Li4  1  0.22454900  0.22454900  0.63619400  1
  Li  Li5  1  0.92386900  0.92386900  0.77877900  1
  Li  Li6  1  0.65071700  0.65071700  0.92175200  1
  Li  Li7  1  0.85433900  0.85433900  0.57622800  1
  Mn  Mn8  1  0.00073200  0.00073200  0.00368600  1
  Mn  Mn9  1  0.42448400  0.42448400  0.29730700  1
  Co  Co10  1  0.71713100  0.71713100  0.13595600  1
  Co  Co11  1  0.14233500  0.14233500  0.42710900  1
  Co  Co12  1  0.57113700  0.57113700  0.71022300  1
  Co  Co13  1  0.29445000  0.29445000  0.83570500  1
  O  O14  1  0.46743900  0.46743900  0.91359900  1
  O  O15  1  0.18182300  0.18182300  0.04274900  1
  O  O16  1  0.90293000  0.90293000  0.18016200  1
  O  O17  1  0.61191300  0.61191300  0.32968400  1
  O  O18  1  0.33064300  0.33064300  0.44223200  1
  O  O19  1  0.03585000  0.03585000  0.61259700  1
  O  O20  1  0.75096300  0.75096300  0.75457900  1
  O  O21  1  0.24799600  0.24799600  0.23966800  1
  O  O22  1  0.96041000  0.96041000  0.37832800  1
  O  O23  1  0.67265700  0.67265700  0.52714700  1
  O  O24  1  0.38844700  0.38844700  0.68822500  1
  O  O25  1  0.09541000  0.09541000  0.83568900  1
  O  O26  1  0.81802300  0.81802300  0.96203900  1
  O  O27  1  0.52852800  0.52852800  0.10636100  1
