# generated using pymatgen
data_Li5V3P8O29
_symmetry_space_group_name_H-M   'P 1'
_cell_length_a   9.73021750
_cell_length_b   9.73021750
_cell_length_c   14.14069196
_cell_angle_alpha   88.54992787
_cell_angle_beta   88.54992787
_cell_angle_gamma   60.59721041
_symmetry_Int_Tables_number   1
_chemical_formula_structural   Li5V3P8O29
_chemical_formula_sum   'Li10 V6 P16 O58'
_cell_volume   1165.84812290
_cell_formula_units_Z   2
loop_
 _symmetry_equiv_pos_site_id
 _symmetry_equiv_pos_as_xyz
  1  'x, y, z'
loop_
 _atom_site_type_symbol
 _atom_site_label
 _atom_site_symmetry_multiplicity
 _atom_site_fract_x
 _atom_site_fract_y
 _atom_site_fract_z
 _atom_site_occupancy
  Li  Li0  1  0.90521200  0.32789100  0.43378400  1
  Li  Li1  1  0.75962200  0.33585000  0.94014300  1
  Li  Li2  1  0.32789100  0.90521200  0.93378400  1
  Li  Li3  1  0.67552600  0.23275500  0.56165200  1
  Li  Li4  1  0.33585000  0.75962200  0.44014300  1
  Li  Li5  1  0.65303400  0.10732300  0.06136200  1
  Li  Li6  1  0.23275500  0.67552600  0.06165200  1
  Li  Li7  1  0.10732300  0.65303400  0.56136200  1
  Li  Li8  1  0.98721600  0.99496100  0.99500100  1
  Li  Li9  1  0.99496100  0.98721600  0.49500100  1
  V  V10  1  0.56632500  0.43220000  0.74759700  1
  V  V11  1  0.43220000  0.56632500  0.24759700  1
  V  V12  1  0.56522300  0.99559100  0.25515900  1
  V  V13  1  0.43916700  0.00287800  0.74567100  1
  V  V14  1  0.99559100  0.56522300  0.75515900  1
  V  V15  1  0.00287800  0.43916700  0.24567100  1
  P  P16  1  0.91665500  0.78814300  0.16460300  1
  P  P17  1  0.78814300  0.91665500  0.66460300  1
  P  P18  1  0.91606300  0.31430700  0.64981100  1
  P  P19  1  0.66175000  0.66419000  0.86867100  1
  P  P20  1  0.66419000  0.66175000  0.36867100  1
  P  P21  1  0.77331300  0.31714400  0.16007300  1
  P  P22  1  0.68255600  0.22264200  0.34195600  1
  P  P23  1  0.31430700  0.91606300  0.14981100  1
  P  P24  1  0.68921800  0.08221700  0.84866700  1
  P  P25  1  0.31714400  0.77331300  0.66007300  1
  P  P26  1  0.22264200  0.68255600  0.84195600  1
  P  P27  1  0.33019600  0.33966200  0.63309200  1
  P  P28  1  0.33966200  0.33019600  0.13309200  1
  P  P29  1  0.08221700  0.68921800  0.34866700  1
  P  P30  1  0.21441400  0.07774800  0.33434500  1
  P  P31  1  0.07774800  0.21441400  0.83434500  1
  O  O32  1  0.01872100  0.76281100  0.44131900  1
  O  O33  1  0.92836700  0.74067300  0.66488500  1
  O  O34  1  0.76281100  0.01872100  0.94131900  1
  O  O35  1  0.74067300  0.92836700  0.16488500  1
  O  O36  1  0.92457500  0.62730300  0.16839300  1
  O  O37  1  0.80902300  0.66963100  0.81939200  1
  O  O38  1  0.91897900  0.46929400  0.67053200  1
  O  O39  1  0.98164100  0.19637200  0.91376900  1
  O  O40  1  0.91312400  0.34838900  0.16425200  1
  O  O41  1  0.66963100  0.80902300  0.31939200  1
  O  O42  1  0.62730300  0.92457500  0.66839300  1
  O  O43  1  0.80937200  0.50946100  0.33123700  1
  O  O44  1  0.66867200  0.66079400  0.97367600  1
  O  O45  1  0.66079400  0.66867200  0.47367600  1
  O  O46  1  0.67437600  0.50935700  0.83008700  1
  O  O47  1  0.46929400  0.91897900  0.17053200  1
  O  O48  1  0.50946100  0.80937200  0.83123700  1
  O  O49  1  0.74568600  0.34077500  0.65846800  1
  O  O50  1  0.79353800  0.20340700  0.25016800  1
  O  O51  1  0.77450800  0.21388700  0.42896000  1
  O  O52  1  0.77285400  0.23402000  0.07168100  1
  O  O53  1  0.61817500  0.47352700  0.17426000  1
  O  O54  1  0.50935700  0.67437600  0.33008700  1
  O  O55  1  0.65874700  0.25516300  0.83420100  1
  O  O56  1  0.47352700  0.61817500  0.67426000  1
  O  O57  1  0.34838900  0.91312400  0.66425200  1
  O  O58  1  0.81110600  0.98231500  0.76531000  1
  O  O59  1  0.81143400  0.00813000  0.58659200  1
  O  O60  1  0.19637200  0.98164100  0.41376900  1
  O  O61  1  0.65615600  0.07782700  0.33892100  1
  O  O62  1  0.52809000  0.37664400  0.33058000  1
  O  O63  1  0.34077500  0.74568600  0.15846800  1
  O  O64  1  0.49046500  0.32399300  0.66558700  1
  O  O65  1  0.37664400  0.52809000  0.83058000  1
  O  O66  1  0.21388700  0.77450800  0.92896000  1
  O  O67  1  0.23402000  0.77285400  0.57168100  1
  O  O68  1  0.20340700  0.79353800  0.75016800  1
  O  O69  1  0.25516300  0.65874700  0.33420100  1
  O  O70  1  0.48964400  0.18804600  0.18391700  1
  O  O71  1  0.53542100  0.07878200  0.83458100  1
  O  O72  1  0.32399300  0.49046500  0.16558700  1
  O  O73  1  0.36944800  0.30884700  0.02895300  1
  O  O74  1  0.30884700  0.36944800  0.52895300  1
  O  O75  1  0.18804600  0.48964400  0.68391700  1
  O  O76  1  0.37823200  0.07023000  0.32872300  1
  O  O77  1  0.32875100  0.18994900  0.67730900  1
  O  O78  1  0.07782700  0.65615600  0.83892100  1
  O  O79  1  0.98231500  0.81110600  0.26531000  1
  O  O80  1  0.00813000  0.81143400  0.08659200  1
  O  O81  1  0.07878200  0.53542100  0.33458100  1
  O  O82  1  0.18994900  0.32875100  0.17730900  1
  O  O83  1  0.07023000  0.37823200  0.82872300  1
  O  O84  1  0.25097400  0.07870100  0.83729300  1
  O  O85  1  0.24081100  0.98678800  0.05683200  1
  O  O86  1  0.19519700  0.01206700  0.23458500  1
  O  O87  1  0.07870100  0.25097400  0.33729300  1
  O  O88  1  0.98678800  0.24081100  0.55683200  1
  O  O89  1  0.01206700  0.19519700  0.73458500  1
