# generated using pymatgen
data_Li7V3P8O29
_symmetry_space_group_name_H-M   'P 1'
_cell_length_a   9.82141600
_cell_length_b   9.85726218
_cell_length_c   13.93051829
_cell_angle_alpha   89.19917512
_cell_angle_beta   89.17183323
_cell_angle_gamma   60.26087987
_symmetry_Int_Tables_number   1
_chemical_formula_structural   Li7V3P8O29
_chemical_formula_sum   'Li14 V6 P16 O58'
_cell_volume   1170.86085031
_cell_formula_units_Z   2
loop_
 _symmetry_equiv_pos_site_id
 _symmetry_equiv_pos_as_xyz
  1  'x, y, z'
loop_
 _atom_site_type_symbol
 _atom_site_label
 _atom_site_symmetry_multiplicity
 _atom_site_fract_x
 _atom_site_fract_y
 _atom_site_fract_z
 _atom_site_occupancy
  Li  Li0  1  0.23040300  0.09007700  0.56181800  1
  Li  Li1  1  0.09319700  0.66614200  0.56629200  1
  Li  Li2  1  0.33518400  0.32824100  0.38555500  1
  Li  Li3  1  0.32215400  0.32986000  0.88648900  1
  Li  Li4  1  0.23946300  0.67033000  0.05962700  1
  Li  Li5  1  0.67693000  0.09530400  0.06697800  1
  Li  Li6  1  0.32815400  0.76481500  0.43984400  1
  Li  Li7  1  0.67349500  0.23493800  0.56414300  1
  Li  Li8  1  0.32456300  0.90739000  0.93532700  1
  Li  Li9  1  0.76336200  0.33364400  0.93857600  1
  Li  Li10  1  0.67328400  0.67775000  0.11277200  1
  Li  Li11  1  0.89736700  0.33483100  0.43775300  1
  Li  Li12  1  0.99878200  0.00177100  0.99865200  1
  Li  Li13  1  0.94990700  0.98265100  0.48603500  1
  V  V14  1  0.43692000  0.56477000  0.25047100  1
  V  V15  1  0.56720800  0.43413000  0.74575200  1
  V  V16  1  0.43843500  0.00048200  0.74784000  1
  V  V17  1  0.56630600  0.99731600  0.25045800  1
  V  V18  1  0.00304300  0.43572800  0.24670200  1
  V  V19  1  0.99418700  0.56643400  0.75523000  1
  P  P20  1  0.08438400  0.21895800  0.83989300  1
  P  P21  1  0.22417600  0.08938000  0.34010000  1
  P  P22  1  0.08756800  0.68466500  0.34853500  1
  P  P23  1  0.33609700  0.33714700  0.12651100  1
  P  P24  1  0.32849700  0.33873600  0.62694500  1
  P  P25  1  0.22601000  0.67930700  0.84239100  1
  P  P26  1  0.31447400  0.77121200  0.65722000  1
  P  P27  1  0.68304200  0.09405500  0.84812700  1
  P  P28  1  0.31585000  0.90876200  0.15296000  1
  P  P29  1  0.68241500  0.22513000  0.34266400  1
  P  P30  1  0.77582900  0.32124900  0.15805600  1
  P  P31  1  0.66946500  0.65978300  0.37090300  1
  P  P32  1  0.66498100  0.66213100  0.87325300  1
  P  P33  1  0.91647400  0.31719700  0.65321600  1
  P  P34  1  0.78154700  0.91729200  0.66321300  1
  P  P35  1  0.91824500  0.77860000  0.16039100  1
  O  O36  1  0.99909100  0.23397000  0.56176100  1
  O  O37  1  0.07473000  0.25164800  0.33991300  1
  O  O38  1  0.22732500  0.98724300  0.06318900  1
  O  O39  1  0.25214200  0.07982200  0.84123100  1
  O  O40  1  0.09759200  0.37021200  0.83263200  1
  O  O41  1  0.18886500  0.34101400  0.17595700  1
  O  O42  1  0.10029200  0.52260200  0.33576900  1
  O  O43  1  0.01973600  0.78224600  0.08025500  1
  O  O44  1  0.08436900  0.65522500  0.84339100  1
  O  O45  1  0.32192100  0.19153100  0.66115400  1
  O  O46  1  0.36754800  0.11301300  0.33105400  1
  O  O47  1  0.18591700  0.48722000  0.67303100  1
  O  O48  1  0.32151000  0.35835200  0.01971700  1
  O  O49  1  0.32089900  0.35535600  0.51886600  1
  O  O50  1  0.33901800  0.48337900  0.16982300  1
  O  O51  1  0.51962800  0.11149000  0.83770400  1
  O  O52  1  0.48484500  0.18688300  0.15822100  1
  O  O53  1  0.25451200  0.66369100  0.34167200  1
  O  O54  1  0.20821300  0.78820100  0.74997200  1
  O  O55  1  0.23402700  0.75963800  0.56852300  1
  O  O56  1  0.23144200  0.76697100  0.92952500  1
  O  O57  1  0.37515700  0.51796400  0.82848000  1
  O  O58  1  0.48586000  0.32813300  0.66248600  1
  O  O59  1  0.33354300  0.74357400  0.16048100  1
  O  O60  1  0.51844900  0.37410100  0.33173000  1
  O  O61  1  0.66544200  0.08121900  0.33996000  1
  O  O62  1  0.21317000  0.00173400  0.24628300  1
  O  O63  1  0.22748000  0.99515400  0.42803300  1
  O  O64  1  0.79913500  0.01269700  0.58348700  1
  O  O65  1  0.33680700  0.91329100  0.65460700  1
  O  O66  1  0.47288900  0.61835600  0.67462200  1
  O  O67  1  0.66238300  0.26188700  0.83346400  1
  O  O68  1  0.51846600  0.65919500  0.32679300  1
  O  O69  1  0.62561400  0.48376500  0.16861500  1
  O  O70  1  0.77074100  0.23435100  0.07081500  1
  O  O71  1  0.76879000  0.22875000  0.43169300  1
  O  O72  1  0.78877500  0.21811900  0.25156000  1
  O  O73  1  0.74881800  0.33844200  0.65656400  1
  O  O74  1  0.51773900  0.81229100  0.83943200  1
  O  O75  1  0.47966600  0.89225300  0.16292800  1
  O  O76  1  0.66932900  0.51317400  0.83275300  1
  O  O77  1  0.67785400  0.64794300  0.98071000  1
  O  O78  1  0.66329300  0.63977300  0.47674900  1
  O  O79  1  0.81892100  0.51175600  0.32654400  1
  O  O80  1  0.62462000  0.92073600  0.66569300  1
  O  O81  1  0.66784200  0.80445400  0.32942700  1
  O  O82  1  0.91873900  0.34340100  0.15827300  1
  O  O83  1  0.00937800  0.20237100  0.74082900  1
  O  O84  1  0.98565400  0.21179300  0.92084700  1
  O  O85  1  0.91310600  0.47219600  0.66777000  1
  O  O86  1  0.81319700  0.66218300  0.82618700  1
  O  O87  1  0.90411200  0.62762800  0.16826900  1
  O  O88  1  0.75192000  0.91878100  0.15645700  1
  O  O89  1  0.76708600  0.02838400  0.94099500  1
  O  O90  1  0.79702300  0.99124800  0.76347200  1
  O  O91  1  0.92167400  0.74930100  0.66363000  1
  O  O92  1  0.01055300  0.76771800  0.44025600  1
  O  O93  1  0.99010500  0.79441300  0.26079100  1
