# generated using pymatgen
data_Li7Mn4CoO12
_symmetry_space_group_name_H-M   'P 1'
_cell_length_a   2.88836245
_cell_length_b   29.13213100
_cell_length_c   5.17755568
_cell_angle_alpha   88.22162627
_cell_angle_beta   90.01516205
_cell_angle_gamma   90.01786019
_symmetry_Int_Tables_number   1
_chemical_formula_structural   Li7Mn4CoO12
_chemical_formula_sum   'Li14 Mn8 Co2 O24'
_cell_volume   435.45116419
_cell_formula_units_Z   2
loop_
 _symmetry_equiv_pos_site_id
 _symmetry_equiv_pos_as_xyz
  1  'x, y, z'
loop_
 _atom_site_type_symbol
 _atom_site_label
 _atom_site_symmetry_multiplicity
 _atom_site_fract_x
 _atom_site_fract_y
 _atom_site_fract_z
 _atom_site_occupancy
  Li  Li0  1  0.00049321  0.08222972  0.66218379  1
  Li  Li1  1  0.99975626  0.58716402  0.68077487  1
  Li  Li2  1  0.49448126  0.32839145  0.14981851  1
  Li  Li3  1  0.50011958  0.83369881  0.16697789  1
  Li  Li4  1  0.50117690  0.08374475  0.16893652  1
  Li  Li5  1  0.50016730  0.58323386  0.16544013  1
  Li  Li6  1  0.50085315  0.00417192  0.50691393  1
  Li  Li7  1  0.50011248  0.50508135  0.49391448  1
  Li  Li8  1  0.50042997  0.16214338  0.83689439  1
  Li  Li9  1  0.49942939  0.66301764  0.82638915  1
  Li  Li10  1  0.00010278  0.24972395  0.98284599  1
  Li  Li11  1  0.99957783  0.75072423  0.98697695  1
  Li  Li12  1  0.99646476  0.41605904  0.35243274  1
  Li  Li13  1  0.00055992  0.91723356  0.34844144  1
  Mn  Mn14  1  0.00216377  0.50320981  0.01172329  1
  Mn  Mn15  1  0.00346220  0.16338022  0.31310409  1
  Mn  Mn16  1  0.50004548  0.25032461  0.49104266  1
  Mn  Mn17  1  0.49690127  0.41724019  0.84632935  1
  Mn  Mn18  1  0.00063778  0.00402424  0.03432284  1
  Mn  Mn19  1  0.99962531  0.66240987  0.29897767  1
  Mn  Mn20  1  0.49964960  0.74913732  0.48232679  1
  Mn  Mn21  1  0.50051052  0.91727088  0.85176727  1
  Co  Co22  1  0.00007624  0.83318581  0.66718832  1
  Co  Co23  1  0.99866234  0.33345406  0.66976576  1
  O  O24  1  0.50106761  0.46164183  0.14319153  1
  O  O25  1  0.50065052  0.96457395  0.17725629  1
  O  O26  1  0.50328671  0.20353873  0.17542040  1
  O  O27  1  0.49959334  0.70134984  0.15575104  1
  O  O28  1  0.00088453  0.03921399  0.31808130  1
  O  O29  1  1.00040027  0.53616652  0.30072648  1
  O  O30  1  0.00127256  0.12904389  0.02699604  1
  O  O31  1  0.99961811  0.62678918  0.01441434  1
  O  O32  1  0.50332874  0.12991908  0.48412462  1
  O  O33  1  0.49966035  0.62865612  0.47259164  1
  O  O34  1  0.50062011  0.03730926  0.86087738  1
  O  O35  1  0.50229338  0.53673654  0.84535100  1
  O  O36  1  0.00836757  0.21010130  0.62130654  1
  O  O37  1  0.99964807  0.70831125  0.61047242  1
  O  O38  1  0.00440096  0.45682717  0.70771045  1
  O  O39  1  0.00051553  0.95735370  0.72017532  1
  O  O40  1  0.98986025  0.38130666  0.00790090  1
  O  O41  1  0.00052435  0.87885061  0.99771299  1
  O  O42  1  0.99274188  0.28845672  0.33484102  1
  O  O43  1  0.99961823  0.78695534  0.33434543  1
  O  O44  1  0.49892341  0.29111722  0.81342419  1
  O  O45  1  0.49958705  0.79518166  0.81641024  1
  O  O46  1  0.49710115  0.37978181  0.54926167  1
  O  O47  1  0.50057601  0.87056192  0.51616797  1
