# generated using pymatgen
data_Li4NbV3Cr2(PO4)6
_symmetry_space_group_name_H-M   'P 1'
_cell_length_a   8.61075200
_cell_length_b   8.66178548
_cell_length_c   8.89211735
_cell_angle_alpha   62.08704582
_cell_angle_beta   62.30655694
_cell_angle_gamma   62.75417876
_symmetry_Int_Tables_number   1
_chemical_formula_structural   Li4NbV3Cr2(PO4)6
_chemical_formula_sum   'Li4 Nb1 V3 Cr2 P6 O24'
_cell_volume   493.85288221
_cell_formula_units_Z   1
loop_
 _symmetry_equiv_pos_site_id
 _symmetry_equiv_pos_as_xyz
  1  'x, y, z'
loop_
 _atom_site_type_symbol
 _atom_site_label
 _atom_site_symmetry_multiplicity
 _atom_site_fract_x
 _atom_site_fract_y
 _atom_site_fract_z
 _atom_site_occupancy
  Li  Li0  1  0.74673200  0.14751800  0.35112100  1
  Li  Li1  1  0.29545000  0.84920000  0.65278200  1
  Li  Li2  1  0.64440700  0.29451800  0.84519400  1
  Li  Li3  1  0.85688800  0.64663100  0.30045300  1
  Nb  Nb4  1  0.84941500  0.84510700  0.85041900  1
  V  V5  1  0.35497600  0.35339200  0.35285200  1
  V  V6  1  0.14382400  0.14983400  0.14623800  1
  V  V7  1  0.64908600  0.64942200  0.65056800  1
  Cr  Cr8  1  0.01448600  0.99939800  0.99567600  1
  Cr  Cr9  1  0.49147600  0.50406100  0.50095600  1
  P  P10  1  0.05948100  0.74311900  0.44669100  1
  P  P11  1  0.44123100  0.05640700  0.74802500  1
  P  P12  1  0.75101600  0.43238300  0.04679100  1
  P  P13  1  0.24667300  0.55555400  0.95694400  1
  P  P14  1  0.55759300  0.95070300  0.25176700  1
  P  P15  1  0.93266900  0.24708400  0.54035200  1
  O  O16  1  0.46982600  0.90602500  0.68461500  1
  O  O17  1  0.68740500  0.46240100  0.89846000  1
  O  O18  1  0.91035500  0.67160500  0.47678000  1
  O  O19  1  0.06568000  0.90570100  0.27087200  1
  O  O20  1  0.00583400  0.80543000  0.61060200  1
  O  O21  1  0.24994000  0.59267600  0.44091100  1
  O  O22  1  0.25361400  0.08171400  0.89745000  1
  O  O23  1  0.45975100  0.23704700  0.58730700  1
  O  O24  1  0.17070500  0.41267000  0.99073900  1
  O  O25  1  0.60617900  0.42181800  0.23522500  1
  O  O26  1  0.09892100  0.76268500  0.91291200  1
  O  O27  1  0.40209900  0.00938200  0.18452900  1
  O  O28  1  0.60176700  0.99753000  0.82175500  1
  O  O29  1  0.90191300  0.23959100  0.07227100  1
  O  O30  1  0.40443000  0.57367100  0.77008700  1
  O  O31  1  0.81950100  0.59480900  0.99614700  1
  O  O32  1  0.56144800  0.75953600  0.41093100  1
  O  O33  1  0.75718900  0.90307900  0.10301100  1
  O  O34  1  0.74421800  0.41145800  0.56608500  1
  O  O35  1  0.93993900  0.18479700  0.40217800  1
  O  O36  1  0.90013700  0.10093800  0.73880900  1
  O  O37  1  0.10167900  0.29182100  0.49693200  1
  O  O38  1  0.29500100  0.53217700  0.11097500  1
  O  O39  1  0.55706500  0.09410400  0.30658800  1
