# generated using pymatgen
data_Li4FeC6ClO21
_symmetry_space_group_name_H-M   'P 1'
_cell_length_a   9.39426290
_cell_length_b   9.39426290
_cell_length_c   25.62449200
_cell_angle_alpha   90.00000000
_cell_angle_beta   90.00000000
_cell_angle_gamma   119.99999223
_symmetry_Int_Tables_number   1
_chemical_formula_structural   Li4FeC6ClO21
_chemical_formula_sum   'Li16 Fe4 C24 Cl4 O84'
_cell_volume   1958.44486405
_cell_formula_units_Z   4
loop_
 _symmetry_equiv_pos_site_id
 _symmetry_equiv_pos_as_xyz
  1  'x, y, z'
loop_
 _atom_site_type_symbol
 _atom_site_label
 _atom_site_symmetry_multiplicity
 _atom_site_fract_x
 _atom_site_fract_y
 _atom_site_fract_z
 _atom_site_occupancy
  Li  Li0  1  0.00000000  0.00000000  0.89035900  1
  Li  Li1  1  0.00000000  0.00000000  0.60964100  1
  Li  Li2  1  0.00000000  0.00000000  0.39035900  1
  Li  Li3  1  0.00000000  0.00000000  0.10964100  1
  Li  Li4  1  0.87068000  0.74135900  0.00000000  1
  Li  Li5  1  0.25864100  0.12932000  0.00000000  1
  Li  Li6  1  0.87068000  0.12932000  0.00000000  1
  Li  Li7  1  0.87068000  0.74135900  0.50000000  1
  Li  Li8  1  0.25864100  0.12932000  0.50000000  1
  Li  Li9  1  0.87068000  0.12932000  0.50000000  1
  Li  Li10  1  0.94958600  0.61849600  0.75000000  1
  Li  Li11  1  0.38150400  0.33108900  0.75000000  1
  Li  Li12  1  0.66891100  0.05041400  0.75000000  1
  Li  Li13  1  0.38150400  0.05041400  0.25000000  1
  Li  Li14  1  0.66891100  0.61849600  0.25000000  1
  Li  Li15  1  0.94958600  0.33108900  0.25000000  1
  Fe  Fe16  1  0.33333300  0.66666700  0.89712500  1
  Fe  Fe17  1  0.33333300  0.66666700  0.60287500  1
  Fe  Fe18  1  0.33333300  0.66666700  0.39712500  1
  Fe  Fe19  1  0.33333300  0.66666700  0.10287500  1
  C  C20  1  0.12221400  0.78969400  0.92268100  1
  C  C21  1  0.21030600  0.33252000  0.92268100  1
  C  C22  1  0.66748000  0.87778600  0.92268100  1
  C  C23  1  0.12221400  0.78969400  0.57731900  1
  C  C24  1  0.21030600  0.33252000  0.57731900  1
  C  C25  1  0.66748000  0.87778600  0.57731900  1
  C  C26  1  0.21030600  0.87778600  0.42268100  1
  C  C27  1  0.66748000  0.78969400  0.42268100  1
  C  C28  1  0.12221400  0.33252000  0.42268100  1
  C  C29  1  0.21030600  0.87778600  0.07731900  1
  C  C30  1  0.66748000  0.78969400  0.07731900  1
  C  C31  1  0.12221400  0.33252000  0.07731900  1
  C  C32  1  0.21612000  0.88434900  0.87243700  1
  C  C33  1  0.11565100  0.33177100  0.87243700  1
  C  C34  1  0.66822900  0.78388000  0.87243700  1
  C  C35  1  0.21612000  0.88434900  0.62756300  1
  C  C36  1  0.11565100  0.33177100  0.62756300  1
  C  C37  1  0.66822900  0.78388000  0.62756300  1
  C  C38  1  0.11565100  0.78388000  0.37243700  1
  C  C39  1  0.66822900  0.88434900  0.37243700  1
  C  C40  1  0.21612000  0.33177100  0.37243700  1
  C  C41  1  0.11565100  0.78388000  0.12756300  1
  C  C42  1  0.66822900  0.88434900  0.12756300  1
  C  C43  1  0.21612000  0.33177100  0.12756300  1
  Cl  Cl44  1  0.66666700  0.33333300  0.85546000  1
  Cl  Cl45  1  0.66666700  0.33333300  0.64454000  1
  Cl  Cl46  1  0.66666700  0.33333300  0.35546000  1
  Cl  Cl47  1  0.66666700  0.33333300  0.14454000  1
  O  O48  1  0.16148700  0.68749700  0.94045500  1
  O  O49  1  0.31250300  0.47399000  0.94045500  1
  O  O50  1  0.52601000  0.83851300  0.94045500  1
  O  O51  1  0.16148700  0.68749700  0.55954500  1
  O  O52  1  0.31250300  0.47399000  0.55954500  1
  O  O53  1  0.52601000  0.83851300  0.55954500  1
  O  O54  1  0.31250300  0.83851300  0.44045500  1
  O  O55  1  0.52601000  0.68749700  0.44045500  1
  O  O56  1  0.16148700  0.47399000  0.44045500  1
  O  O57  1  0.31250300  0.83851300  0.05954500  1
  O  O58  1  0.52601000  0.68749700  0.05954500  1
  O  O59  1  0.16148700  0.47399000  0.05954500  1
  O  O60  1  0.02021400  0.82307800  0.94312800  1
  O  O61  1  0.17692200  0.19713500  0.94312800  1
  O  O62  1  0.80286500  0.97978600  0.94312800  1
  O  O63  1  0.02021400  0.82307800  0.55687200  1
  O  O64  1  0.17692200  0.19713500  0.55687200  1
  O  O65  1  0.80286500  0.97978600  0.55687200  1
  O  O66  1  0.17692200  0.97978600  0.44312800  1
  O  O67  1  0.80286500  0.82307800  0.44312800  1
  O  O68  1  0.02021400  0.19713500  0.44312800  1
  O  O69  1  0.17692200  0.97978600  0.05687200  1
  O  O70  1  0.80286500  0.82307800  0.05687200  1
  O  O71  1  0.02021400  0.19713500  0.05687200  1
  O  O72  1  0.18706400  0.98890100  0.85349800  1
  O  O73  1  0.01109900  0.19816400  0.85349800  1
  O  O74  1  0.80183600  0.81293600  0.85349800  1
  O  O75  1  0.18706400  0.98890100  0.64650200  1
  O  O76  1  0.01109900  0.19816400  0.64650200  1
  O  O77  1  0.80183600  0.81293600  0.64650200  1
  O  O78  1  0.01109900  0.81293600  0.35349800  1
  O  O79  1  0.80183600  0.98890100  0.35349800  1
  O  O80  1  0.18706400  0.19816400  0.35349800  1
  O  O81  1  0.01109900  0.81293600  0.14650200  1
  O  O82  1  0.80183600  0.98890100  0.14650200  1
  O  O83  1  0.18706400  0.19816400  0.14650200  1
  O  O84  1  0.32026400  0.84343700  0.85582700  1
  O  O85  1  0.15656300  0.47682700  0.85582700  1
  O  O86  1  0.52317300  0.67973600  0.85582700  1
  O  O87  1  0.32026400  0.84343700  0.64417300  1
  O  O88  1  0.15656300  0.47682700  0.64417300  1
  O  O89  1  0.52317300  0.67973600  0.64417300  1
  O  O90  1  0.15656300  0.67973600  0.35582700  1
  O  O91  1  0.52317300  0.84343700  0.35582700  1
  O  O92  1  0.32026400  0.47682700  0.35582700  1
  O  O93  1  0.15656300  0.67973600  0.14417300  1
  O  O94  1  0.52317300  0.84343700  0.14417300  1
  O  O95  1  0.32026400  0.47682700  0.14417300  1
  O  O96  1  0.60203300  0.48439800  0.98208000  1
  O  O97  1  0.51560200  0.11763400  0.98208000  1
  O  O98  1  0.88236600  0.39796700  0.98208000  1
  O  O99  1  0.60203300  0.48439800  0.51792000  1
  O  O100  1  0.51560200  0.11763400  0.51792000  1
  O  O101  1  0.88236600  0.39796700  0.51792000  1
  O  O102  1  0.51560200  0.39796700  0.48208000  1
  O  O103  1  0.88236600  0.48439800  0.48208000  1
  O  O104  1  0.60203300  0.11763400  0.48208000  1
  O  O105  1  0.51560200  0.39796700  0.01792000  1
  O  O106  1  0.88236600  0.48439800  0.01792000  1
  O  O107  1  0.60203300  0.11763400  0.01792000  1
  O  O108  1  0.90064000  0.58197100  0.82565200  1
  O  O109  1  0.41802900  0.31866800  0.82565200  1
  O  O110  1  0.68133200  0.09936000  0.82565200  1
  O  O111  1  0.90064000  0.58197100  0.67434800  1
  O  O112  1  0.41802900  0.31866800  0.67434800  1
  O  O113  1  0.68133200  0.09936000  0.67434800  1
  O  O114  1  0.41802900  0.09936000  0.32565200  1
  O  O115  1  0.68133200  0.58197100  0.32565200  1
  O  O116  1  0.90064000  0.31866800  0.32565200  1
  O  O117  1  0.41802900  0.09936000  0.17434800  1
  O  O118  1  0.68133200  0.58197100  0.17434800  1
  O  O119  1  0.90064000  0.31866800  0.17434800  1
  O  O120  1  0.19146300  0.86971200  0.75000000  1
  O  O121  1  0.13028800  0.32175200  0.75000000  1
  O  O122  1  0.67824800  0.80853700  0.75000000  1
  O  O123  1  0.13028800  0.80853700  0.25000000  1
  O  O124  1  0.67824800  0.86971200  0.25000000  1
  O  O125  1  0.19146300  0.32175200  0.25000000  1
  O  O126  1  0.12128000  0.45126500  0.75000000  1
  O  O127  1  0.54873500  0.67001500  0.75000000  1
  O  O128  1  0.32998500  0.87872000  0.75000000  1
  O  O129  1  0.54873500  0.87872000  0.25000000  1
  O  O130  1  0.32998500  0.45126500  0.25000000  1
  O  O131  1  0.12128000  0.67001500  0.25000000  1
