# generated using pymatgen
data_Li4Mn3V3(CuO8)2
_symmetry_space_group_name_H-M   'P 1'
_cell_length_a   5.87385671
_cell_length_b   5.87385671
_cell_length_c   9.71209082
_cell_angle_alpha   86.49003870
_cell_angle_beta   86.49003870
_cell_angle_gamma   59.28346570
_symmetry_Int_Tables_number   1
_chemical_formula_structural   Li4Mn3V3(CuO8)2
_chemical_formula_sum   'Li4 Mn3 V3 Cu2 O16'
_cell_volume   287.36158171
_cell_formula_units_Z   1
loop_
 _symmetry_equiv_pos_site_id
 _symmetry_equiv_pos_as_xyz
  1  'x, y, z'
loop_
 _atom_site_type_symbol
 _atom_site_label
 _atom_site_symmetry_multiplicity
 _atom_site_fract_x
 _atom_site_fract_y
 _atom_site_fract_z
 _atom_site_occupancy
  Li  Li0  1  0.67518700  0.67518700  0.10889500  1
  Li  Li1  1  0.97871900  0.97871900  0.00445900  1
  Li  Li2  1  0.98556400  0.98556400  0.50293500  1
  Li  Li3  1  0.34201500  0.34201500  0.60674300  1
  Mn  Mn4  1  0.82936500  0.82936500  0.78477100  1
  Mn  Mn5  1  0.17225900  0.65989000  0.28510600  1
  Mn  Mn6  1  0.65989000  0.17225900  0.28510600  1
  V  V7  1  0.33531300  0.83424300  0.78572300  1
  V  V8  1  0.83424300  0.33531300  0.78572300  1
  V  V9  1  0.16547800  0.16547800  0.28781800  1
  Cu  Cu10  1  0.66714700  0.66714700  0.50708700  1
  Cu  Cu11  1  0.33573700  0.33573700  0.01115300  1
  O  O12  1  0.31279100  0.83518800  0.39110600  1
  O  O13  1  0.52735000  0.52735000  0.66584800  1
  O  O14  1  0.66414700  0.66414700  0.89353200  1
  O  O15  1  0.00004300  0.00004300  0.68533100  1
  O  O16  1  0.00229600  0.00229600  0.18608400  1
  O  O17  1  0.83518800  0.31279100  0.39110600  1
  O  O18  1  0.52175600  0.97429500  0.67385300  1
  O  O19  1  0.97429500  0.52175600  0.67385300  1
  O  O20  1  0.14291600  0.14291600  0.89185300  1
  O  O21  1  0.83535000  0.83535000  0.39419300  1
  O  O22  1  0.04620300  0.49026000  0.16693300  1
  O  O23  1  0.49026000  0.04620300  0.16693300  1
  O  O24  1  0.32932200  0.32932200  0.39281500  1
  O  O25  1  0.15786900  0.66840400  0.89310300  1
  O  O26  1  0.49334300  0.49334300  0.17864100  1
  O  O27  1  0.66840400  0.15786900  0.89310300  1
