# generated using pymatgen
data_LiB5O13
_symmetry_space_group_name_H-M   'P 1'
_cell_length_a   9.09289678
_cell_length_b   9.09289678
_cell_length_c   13.28322429
_cell_angle_alpha   81.29176687
_cell_angle_beta   81.29176687
_cell_angle_gamma   115.10728274
_symmetry_Int_Tables_number   1
_chemical_formula_structural   LiB5O13
_chemical_formula_sum   'Li4 B20 O52'
_cell_volume   954.07667494
_cell_formula_units_Z   4
loop_
 _symmetry_equiv_pos_site_id
 _symmetry_equiv_pos_as_xyz
  1  'x, y, z'
loop_
 _atom_site_type_symbol
 _atom_site_label
 _atom_site_symmetry_multiplicity
 _atom_site_fract_x
 _atom_site_fract_y
 _atom_site_fract_z
 _atom_site_occupancy
  Li  Li0  1  0.14871400  0.85128600  0.25000000  1
  Li  Li1  1  0.85128600  0.14871400  0.75000000  1
  Li  Li2  1  0.60302800  0.39697200  0.25000000  1
  Li  Li3  1  0.39697200  0.60302800  0.75000000  1
  B  B4  1  0.16578900  0.35121200  0.16816400  1
  B  B5  1  0.64878800  0.83421100  0.33183600  1
  B  B6  1  0.83421100  0.64878800  0.83183600  1
  B  B7  1  0.35121200  0.16578900  0.66816400  1
  B  B8  1  0.97784800  0.31471300  0.04618900  1
  B  B9  1  0.68528700  0.02215200  0.45381100  1
  B  B10  1  0.02215200  0.68528700  0.95381100  1
  B  B11  1  0.31471300  0.97784800  0.54618900  1
  B  B12  1  0.27466700  0.43294300  0.97459000  1
  B  B13  1  0.56705700  0.72533300  0.52541000  1
  B  B14  1  0.72533300  0.56705700  0.02541000  1
  B  B15  1  0.43294300  0.27466700  0.47459000  1
  B  B16  1  0.15981300  0.38701600  0.34589600  1
  B  B17  1  0.61298400  0.84018700  0.15410400  1
  B  B18  1  0.84018700  0.61298400  0.65410400  1
  B  B19  1  0.38701600  0.15981300  0.84589600  1
  B  B20  1  0.12750700  0.12681500  0.32266200  1
  B  B21  1  0.87318500  0.87249300  0.17733800  1
  B  B22  1  0.87249300  0.87318500  0.67733800  1
  B  B23  1  0.12681500  0.12750700  0.82266200  1
  O  O24  1  0.82001800  0.27434500  0.03291300  1
  O  O25  1  0.72565500  0.17998200  0.46708700  1
  O  O26  1  0.17998200  0.72565500  0.96708700  1
  O  O27  1  0.27434500  0.82001800  0.53291300  1
  O  O28  1  0.11076700  0.36284300  0.95906100  1
  O  O29  1  0.63715700  0.88923300  0.54093900  1
  O  O30  1  0.88923300  0.63715700  0.04093900  1
  O  O31  1  0.36284300  0.11076700  0.45906100  1
  O  O32  1  0.39543200  0.49606000  0.88376000  1
  O  O33  1  0.50394000  0.60456800  0.61624000  1
  O  O34  1  0.60456800  0.50394000  0.11624000  1
  O  O35  1  0.49606000  0.39543200  0.38376000  1
  O  O36  1  0.00187300  0.31107900  0.14535700  1
  O  O37  1  0.68892100  0.99812700  0.35464300  1
  O  O38  1  0.99812700  0.68892100  0.85464300  1
  O  O39  1  0.31107900  0.00187300  0.64535700  1
  O  O40  1  0.30146100  0.43704400  0.07321000  1
  O  O41  1  0.56295600  0.69853900  0.42679000  1
  O  O42  1  0.69853900  0.56295600  0.92679000  1
  O  O43  1  0.43704400  0.30146100  0.57321000  1
  O  O44  1  0.19087300  0.45773900  0.24484800  1
  O  O45  1  0.54226100  0.80912700  0.25515200  1
  O  O46  1  0.80912700  0.54226100  0.75515200  1
  O  O47  1  0.45773900  0.19087300  0.74484800  1
  O  O48  1  0.16916800  0.19446600  0.21643500  1
  O  O49  1  0.80553400  0.83083200  0.28356500  1
  O  O50  1  0.83083200  0.80553400  0.78356500  1
  O  O51  1  0.19446600  0.16916800  0.71643500  1
  O  O52  1  0.16936300  0.49277500  0.42302300  1
  O  O53  1  0.50722500  0.83063700  0.07697700  1
  O  O54  1  0.83063700  0.50722500  0.57697700  1
  O  O55  1  0.49277500  0.16936300  0.92302300  1
  O  O56  1  0.11744900  0.22622400  0.39292800  1
  O  O57  1  0.77377600  0.88255100  0.10707200  1
  O  O58  1  0.88255100  0.77377600  0.60707200  1
  O  O59  1  0.22622400  0.11744900  0.89292800  1
  O  O60  1  0.09763200  0.96523300  0.35378100  1
  O  O61  1  0.03476700  0.90236800  0.14621900  1
  O  O62  1  0.90236800  0.03476700  0.64621900  1
  O  O63  1  0.96523300  0.09763200  0.85378100  1
  O  O64  1  0.35380400  0.80095100  0.11617900  1
  O  O65  1  0.19904900  0.64619600  0.38382100  1
  O  O66  1  0.64619600  0.19904900  0.88382100  1
  O  O67  1  0.80095100  0.35380400  0.61617900  1
  O  O68  1  0.90728300  0.58215600  0.34363800  1
  O  O69  1  0.41784400  0.09271700  0.15636200  1
  O  O70  1  0.09271700  0.41784400  0.65636200  1
  O  O71  1  0.58215600  0.90728300  0.84363800  1
  O  O72  1  0.84878800  0.45470000  0.31089400  1
  O  O73  1  0.54530000  0.15121200  0.18910600  1
  O  O74  1  0.15121200  0.54530000  0.68910600  1
  O  O75  1  0.45470000  0.84878800  0.81089400  1
