# generated using pymatgen
data_Li2TiVO4
_symmetry_space_group_name_H-M   'P 1'
_cell_length_a   5.20756248
_cell_length_b   11.71115100
_cell_length_c   5.20480634
_cell_angle_alpha   90.00022613
_cell_angle_beta   68.38477689
_cell_angle_gamma   89.99966141
_symmetry_Int_Tables_number   1
_chemical_formula_structural   Li2TiVO4
_chemical_formula_sum   'Li8 Ti4 V4 O16'
_cell_volume   295.10155636
_cell_formula_units_Z   4
loop_
 _symmetry_equiv_pos_site_id
 _symmetry_equiv_pos_as_xyz
  1  'x, y, z'
loop_
 _atom_site_type_symbol
 _atom_site_label
 _atom_site_symmetry_multiplicity
 _atom_site_fract_x
 _atom_site_fract_y
 _atom_site_fract_z
 _atom_site_occupancy
  Li  Li0  1  0.49999900  0.12499900  0.99999900  1
  Li  Li1  1  0.99999900  0.37485400  0.50000300  1
  Li  Li2  1  0.50000100  0.62633100  0.99999900  1
  Li  Li3  1  0.99999900  0.87335600  0.50000200  1
  Li  Li4  1  0.49999700  0.00260100  0.50000100  1
  Li  Li5  1  0.00000100  0.24981800  0.99999700  1
  Li  Li6  1  0.50000200  0.49807700  0.50000100  1
  Li  Li7  1  0.99999700  0.74985000  0.00000200  1
  Ti  Ti8  1  0.00000300  0.12704100  0.50000500  1
  Ti  Ti9  1  0.50000500  0.37239700  0.99999800  1
  Ti  Ti10  1  0.99998300  0.62030100  0.49998800  1
  Ti  Ti11  1  0.50001900  0.87855700  0.00000400  1
  V  V12  1  0.99998800  0.50221200  0.00000200  1
  V  V13  1  0.50001400  0.75060700  0.49999100  1
  V  V14  1  0.99999500  0.99611400  0.00000300  1
  V  V15  1  0.49999600  0.25186100  0.49999800  1
  O  O16  1  0.77216000  0.12337200  0.27124100  1
  O  O17  1  0.26783300  0.37729700  0.76992400  1
  O  O18  1  0.76298600  0.62986600  0.27539200  1
  O  O19  1  0.27386800  0.87039300  0.76081600  1
  O  O20  1  0.22784200  0.12337300  0.72875400  1
  O  O21  1  0.73216900  0.37730000  0.23006700  1
  O  O22  1  0.23702400  0.62986800  0.72461900  1
  O  O23  1  0.72612400  0.87039500  0.23918400  1
  O  O24  1  0.24989700  0.99913700  0.24487800  1
  O  O25  1  0.74775600  0.24989200  0.74820500  1
  O  O26  1  0.24503800  0.50109500  0.25050600  1
  O  O27  1  0.74453700  0.74945800  0.74497200  1
  O  O28  1  0.25224300  0.24989200  0.25179400  1
  O  O29  1  0.75496300  0.50109500  0.74949700  1
  O  O30  1  0.25546500  0.74945700  0.25503200  1
  O  O31  1  0.75009800  0.99913600  0.75512600  1
