# generated using pymatgen
data_Li9Mn2Co5O16
_symmetry_space_group_name_H-M   'P 1'
_cell_length_a   5.11632300
_cell_length_b   7.64613856
_cell_length_c   7.82169062
_cell_angle_alpha   97.97207279
_cell_angle_beta   101.73332476
_cell_angle_gamma   103.21506005
_symmetry_Int_Tables_number   1
_chemical_formula_structural   Li9Mn2Co5O16
_chemical_formula_sum   'Li9 Mn2 Co5 O16'
_cell_volume   286.10126319
_cell_formula_units_Z   1
loop_
 _symmetry_equiv_pos_site_id
 _symmetry_equiv_pos_as_xyz
  1  'x, y, z'
loop_
 _atom_site_type_symbol
 _atom_site_label
 _atom_site_symmetry_multiplicity
 _atom_site_fract_x
 _atom_site_fract_y
 _atom_site_fract_z
 _atom_site_occupancy
  Li  Li0  1  0.49576400  0.12109200  0.86828900  1
  Li  Li1  1  0.49692800  0.99322200  0.50765800  1
  Li  Li2  1  0.50040700  0.37708800  0.62687100  1
  Li  Li3  1  0.50215200  0.25405000  0.25011600  1
  Li  Li4  1  0.50814700  0.62763300  0.38178100  1
  Li  Li5  1  0.50239600  0.50538100  0.00246000  1
  Li  Li6  1  0.49791500  0.87329300  0.12450900  1
  Li  Li7  1  0.49761700  0.74848300  0.74101500  1
  Li  Li8  1  0.00301900  0.87196700  0.62327300  1
  Mn  Mn9  1  0.99658500  0.99749000  0.99550200  1
  Mn  Mn10  1  0.00887700  0.24899100  0.74930600  1
  Co  Co11  1  0.99777700  0.74923100  0.25726600  1
  Co  Co12  1  0.99850100  0.62764700  0.86734400  1
  Co  Co13  1  0.00137200  0.50364100  0.50369900  1
  Co  Co14  1  0.99547400  0.38091000  0.12661400  1
  Co  Co15  1  0.00227800  0.12089200  0.38142900  1
  O  O16  1  0.77974900  0.13000400  0.11961000  1
  O  O17  1  0.77734800  0.01251700  0.76496300  1
  O  O18  1  0.78289900  0.37739200  0.87261100  1
  O  O19  1  0.78124500  0.25626600  0.52123700  1
  O  O20  1  0.77761300  0.61300000  0.62240400  1
  O  O21  1  0.75203400  0.50083000  0.24462600  1
  O  O22  1  0.76798200  0.88531100  0.36683100  1
  O  O23  1  0.76446200  0.76337100  0.99739400  1
  O  O24  1  0.23155400  0.13418700  0.62662300  1
  O  O25  1  0.22538900  0.00216600  0.23343200  1
  O  O26  1  0.21117100  0.37255100  0.37660600  1
  O  O27  1  0.22480000  0.23740300  0.98504400  1
  O  O28  1  0.22312600  0.61715500  0.12620800  1
  O  O29  1  0.24226100  0.48921900  0.75839700  1
  O  O30  1  0.22337600  0.87071600  0.88649700  1
  O  O31  1  0.22978300  0.73690000  0.49038300  1
