# generated using pymatgen
data_Li3Ti3VO8
_symmetry_space_group_name_H-M   'P 1'
_cell_length_a   5.91505115
_cell_length_b   8.44166285
_cell_length_c   6.03160257
_cell_angle_alpha   88.36570080
_cell_angle_beta   89.98958349
_cell_angle_gamma   89.99939958
_symmetry_Int_Tables_number   1
_chemical_formula_structural   Li3Ti3VO8
_chemical_formula_sum   'Li6 Ti6 V2 O16'
_cell_volume   301.05269563
_cell_formula_units_Z   2
loop_
 _symmetry_equiv_pos_site_id
 _symmetry_equiv_pos_as_xyz
  1  'x, y, z'
loop_
 _atom_site_type_symbol
 _atom_site_label
 _atom_site_symmetry_multiplicity
 _atom_site_fract_x
 _atom_site_fract_y
 _atom_site_fract_z
 _atom_site_occupancy
  Li  Li0  1  0.24956700  0.75295700  0.74820300  1
  Li  Li1  1  0.75064200  0.24722700  0.25237800  1
  Li  Li2  1  0.24933700  0.24742100  0.25235400  1
  Li  Li3  1  0.75037900  0.75266400  0.74808500  1
  Li  Li4  1  0.49997900  0.50036100  0.99957100  1
  Li  Li5  1  0.99991400  0.99979900  0.49824500  1
  Ti  Ti6  1  0.75147700  0.75317300  0.24672900  1
  Ti  Ti7  1  0.24835400  0.24536200  0.75337100  1
  Ti  Ti8  1  0.24754100  0.75222200  0.24711200  1
  Ti  Ti9  1  0.75254800  0.24615200  0.75312200  1
  Ti  Ti10  1  0.50019500  0.99554900  0.00895600  1
  Ti  Ti11  1  0.00019400  0.50482300  0.49347400  1
  V  V12  1  0.99999100  0.00078100  0.00066100  1
  V  V13  1  0.50000200  0.49895100  0.49903600  1
  O  O14  1  0.49970700  0.75482800  0.00628500  1
  O  O15  1  0.00017800  0.25561500  0.51508500  1
  O  O16  1  0.50014800  0.24388600  0.98787800  1
  O  O17  1  0.99965800  0.74631900  0.49115200  1
  O  O18  1  0.24944700  0.50845200  0.26999200  1
  O  O19  1  0.74314000  0.01351100  0.76636900  1
  O  O20  1  0.75129900  0.50857500  0.27071200  1
  O  O21  1  0.25628300  0.01323300  0.76567300  1
  O  O22  1  0.50020600  0.25980500  0.52419700  1
  O  O23  1  0.99973800  0.75456000  0.02002600  1
  O  O24  1  0.75155700  0.48730900  0.72650000  1
  O  O25  1  0.25629900  0.99180000  0.23609800  1
  O  O26  1  0.24787300  0.48727900  0.72583600  1
  O  O27  1  0.74433900  0.99206500  0.23686400  1
  O  O28  1  0.49976300  0.73863300  0.47593400  1
  O  O29  1  0.00024400  0.24668900  0.98010500  1
