# generated using pymatgen
data_Li4VFe3(PO4)4
_symmetry_space_group_name_H-M   'P 1'
_cell_length_a   6.11067100
_cell_length_b   4.75208000
_cell_length_c   10.46342151
_cell_angle_alpha   89.92693616
_cell_angle_beta   90.00000000
_cell_angle_gamma   90.00000000
_symmetry_Int_Tables_number   1
_chemical_formula_structural   Li4VFe3(PO4)4
_chemical_formula_sum   'Li4 V1 Fe3 P4 O16'
_cell_volume   303.84074533
_cell_formula_units_Z   1
loop_
 _symmetry_equiv_pos_site_id
 _symmetry_equiv_pos_as_xyz
  1  'x, y, z'
loop_
 _atom_site_type_symbol
 _atom_site_label
 _atom_site_symmetry_multiplicity
 _atom_site_fract_x
 _atom_site_fract_y
 _atom_site_fract_z
 _atom_site_occupancy
  Li  Li0  1  0.25071100  0.50015700  0.49960700  1
  Li  Li1  1  0.74987800  0.99950000  0.99979700  1
  Li  Li2  1  0.74928900  0.50015700  0.49960700  1
  Li  Li3  1  0.25012200  0.99950000  0.99979700  1
  V  V4  1  0.00000000  0.51722400  0.77768500  1
  Fe  Fe5  1  0.00000000  0.97480500  0.28098300  1
  Fe  Fe6  1  0.50000000  0.47505200  0.21789400  1
  Fe  Fe7  1  0.50000000  0.02347100  0.71954200  1
  P  P8  1  0.00000000  0.08144400  0.59419600  1
  P  P9  1  0.00000000  0.41806100  0.09473200  1
  P  P10  1  0.50000000  0.91814300  0.40537000  1
  P  P11  1  0.50000000  0.58388800  0.90591400  1
  O  O12  1  0.20273800  0.21475200  0.66525600  1
  O  O13  1  0.79757800  0.28451900  0.16549900  1
  O  O14  1  0.70266200  0.78481000  0.33504700  1
  O  O15  1  0.29865000  0.72027400  0.83586700  1
  O  O16  1  0.29733800  0.78481000  0.33504700  1
  O  O17  1  0.70135000  0.72027400  0.83586700  1
  O  O18  1  0.79726200  0.21475200  0.66525600  1
  O  O19  1  0.20242200  0.28451900  0.16549900  1
  O  O20  1  0.00000000  0.75848900  0.59640500  1
  O  O21  1  0.00000000  0.74133400  0.09709400  1
  O  O22  1  0.50000000  0.24163300  0.40327300  1
  O  O23  1  0.50000000  0.26011400  0.90306600  1
  O  O24  1  0.00000000  0.29274400  0.95748900  1
  O  O25  1  0.00000000  0.20639500  0.45717600  1
  O  O26  1  0.50000000  0.70550700  0.04395200  1
  O  O27  1  0.50000000  0.79366800  0.54308300  1
