# generated using pymatgen
data_Li2VOF4
_symmetry_space_group_name_H-M   'P 1'
_cell_length_a   5.10673600
_cell_length_b   10.34076467
_cell_length_c   7.49225359
_cell_angle_alpha   79.63297419
_cell_angle_beta   70.07510551
_cell_angle_gamma   104.29146857
_symmetry_Int_Tables_number   1
_chemical_formula_structural   Li2VOF4
_chemical_formula_sum   'Li8 V4 O4 F16'
_cell_volume   344.97792849
_cell_formula_units_Z   4
loop_
 _symmetry_equiv_pos_site_id
 _symmetry_equiv_pos_as_xyz
  1  'x, y, z'
loop_
 _atom_site_type_symbol
 _atom_site_label
 _atom_site_symmetry_multiplicity
 _atom_site_fract_x
 _atom_site_fract_y
 _atom_site_fract_z
 _atom_site_occupancy
  Li  Li0  1  0.35745100  0.72842300  0.01675600  1
  Li  Li1  1  0.35733100  0.22846300  0.51689100  1
  Li  Li2  1  0.35419800  0.47854100  0.76669100  1
  Li  Li3  1  0.35416700  0.97843200  0.26694200  1
  Li  Li4  1  0.64579900  0.52156300  0.23323300  1
  Li  Li5  1  0.64578900  0.02150500  0.73309700  1
  Li  Li6  1  0.64270900  0.27158400  0.98308800  1
  Li  Li7  1  0.64238900  0.77148200  0.48331300  1
  V  V8  1  0.00010900  0.75004500  0.74995400  1
  V  V9  1  0.00001300  0.49995300  0.50002100  1
  V  V10  1  0.99993500  0.24992600  0.25004200  1
  V  V11  1  0.00004900  0.00006000  0.99995900  1
  O  O12  1  0.86509900  0.87497300  0.87514700  1
  O  O13  1  0.86527500  0.37502300  0.37484800  1
  O  O14  1  0.13521400  0.12500300  0.12500100  1
  O  O15  1  0.13455400  0.62499700  0.62501700  1
  F  F16  1  0.23823500  0.89400000  0.06728600  1
  F  F17  1  0.23826100  0.39399700  0.56707600  1
  F  F18  1  0.58846600  0.64397000  0.81727200  1
  F  F19  1  0.58877900  0.14407900  0.31700200  1
  F  F20  1  0.41150500  0.35599900  0.18272800  1
  F  F21  1  0.41130700  0.85597500  0.68295000  1
  F  F22  1  0.76174900  0.10594600  0.93295800  1
  F  F23  1  0.76178100  0.60605300  0.43271200  1
  F  F24  1  0.98220800  0.64251500  0.99786600  1
  F  F25  1  0.98233000  0.14275000  0.49745400  1
  F  F26  1  0.33747300  0.60748700  0.25213200  1
  F  F27  1  0.33700500  0.10724000  0.75252100  1
  F  F28  1  0.66275900  0.39265100  0.74761300  1
  F  F29  1  0.66259600  0.89260400  0.24789000  1
  F  F30  1  0.01782300  0.35740200  0.00211300  1
  F  F31  1  0.01764300  0.85735900  0.50242600  1
