# generated using pymatgen
data_LiAlSiH2O5
_symmetry_space_group_name_H-M   'P 1'
_cell_length_a   5.07051800
_cell_length_b   8.18256100
_cell_length_c   10.11310600
_cell_angle_alpha   90.00000000
_cell_angle_beta   90.00000000
_cell_angle_gamma   90.00000000
_symmetry_Int_Tables_number   1
_chemical_formula_structural   LiAlSiH2O5
_chemical_formula_sum   'Li4 Al4 Si4 H8 O20'
_cell_volume   419.59097627
_cell_formula_units_Z   4
loop_
 _symmetry_equiv_pos_site_id
 _symmetry_equiv_pos_as_xyz
  1  'x, y, z'
loop_
 _atom_site_type_symbol
 _atom_site_label
 _atom_site_symmetry_multiplicity
 _atom_site_fract_x
 _atom_site_fract_y
 _atom_site_fract_z
 _atom_site_occupancy
  Li  Li0  1  0.75391200  0.13353000  0.65021800  1
  Li  Li1  1  0.25391200  0.86647000  0.34978200  1
  Li  Li2  1  0.25391200  0.63353000  0.84978200  1
  Li  Li3  1  0.75391200  0.36647000  0.15021800  1
  Al  Al4  1  0.75094200  0.54890900  0.67448800  1
  Al  Al5  1  0.25094200  0.45109100  0.32551200  1
  Al  Al6  1  0.25094200  0.04890900  0.82551200  1
  Al  Al7  1  0.75094200  0.95109100  0.17448800  1
  Si  Si8  1  0.75220000  0.84680400  0.86671300  1
  Si  Si9  1  0.25220000  0.15319600  0.13328700  1
  Si  Si10  1  0.25220000  0.34680400  0.63328700  1
  Si  Si11  1  0.75220000  0.65319600  0.36671300  1
  H  H12  1  0.05483600  0.69744100  0.05526000  1
  H  H13  1  0.55483600  0.30255900  0.94474000  1
  H  H14  1  0.55483600  0.19744100  0.44474000  1
  H  H15  1  0.05483600  0.80255900  0.55526000  1
  H  H16  1  0.34497000  0.66618300  0.10221100  1
  H  H17  1  0.84497000  0.33381700  0.89778900  1
  H  H18  1  0.84497000  0.16618300  0.39778900  1
  H  H19  1  0.34497000  0.83381700  0.60221100  1
  O  O20  1  0.79726200  0.66033100  0.52687200  1
  O  O21  1  0.29726200  0.33966900  0.47312800  1
  O  O22  1  0.29726200  0.16033100  0.97312800  1
  O  O23  1  0.79726200  0.83966900  0.02687200  1
  O  O24  1  0.86910500  0.67795800  0.80153500  1
  O  O25  1  0.36910500  0.32204200  0.19846500  1
  O  O26  1  0.36910500  0.17795800  0.69846500  1
  O  O27  1  0.86910500  0.82204200  0.30153500  1
  O  O28  1  0.41133800  0.50474700  0.69587000  1
  O  O29  1  0.91133800  0.49525300  0.30413000  1
  O  O30  1  0.91133800  0.00474700  0.80413000  1
  O  O31  1  0.41133800  0.99525300  0.19587000  1
  O  O32  1  0.93769200  0.36390200  0.67271700  1
  O  O33  1  0.43769200  0.63609800  0.32728300  1
  O  O34  1  0.43769200  0.86390200  0.82728300  1
  O  O35  1  0.93769200  0.13609800  0.17271700  1
  O  O36  1  0.20864400  0.62257100  0.04376100  1
  O  O37  1  0.70864400  0.37742900  0.95623900  1
  O  O38  1  0.70864400  0.12257100  0.45623900  1
  O  O39  1  0.20864400  0.87742900  0.54376100  1
