# generated using pymatgen
data_Li7Mn4CoO12
_symmetry_space_group_name_H-M   'P 1'
_cell_length_a   5.73605907
_cell_length_b   5.81805061
_cell_length_c   13.54314744
_cell_angle_alpha   77.79949082
_cell_angle_beta   77.77608417
_cell_angle_gamma   90.01880841
_symmetry_Int_Tables_number   1
_chemical_formula_structural   Li7Mn4CoO12
_chemical_formula_sum   'Li14 Mn8 Co2 O24'
_cell_volume   431.26620189
_cell_formula_units_Z   2
loop_
 _symmetry_equiv_pos_site_id
 _symmetry_equiv_pos_as_xyz
  1  'x, y, z'
loop_
 _atom_site_type_symbol
 _atom_site_label
 _atom_site_symmetry_multiplicity
 _atom_site_fract_x
 _atom_site_fract_y
 _atom_site_fract_z
 _atom_site_occupancy
  Li  Li0  1  0.16666500  0.16666700  0.16666700  1
  Li  Li1  1  0.66667300  0.16666900  0.16666900  1
  Li  Li2  1  0.16667100  0.16666200  0.66666100  1
  Li  Li3  1  0.66667100  0.16666200  0.66666500  1
  Li  Li4  1  0.16666900  0.66666500  0.16666400  1
  Li  Li5  1  0.66667300  0.66666100  0.16666600  1
  Li  Li6  1  0.00025600  0.50274200  0.49752500  1
  Li  Li7  1  0.50246100  0.50309000  0.49717700  1
  Li  Li8  1  0.83086700  0.83024200  0.83615000  1
  Li  Li9  1  0.33309800  0.83058500  0.83580500  1
  Li  Li10  1  0.34752500  0.84113900  0.30511100  1
  Li  Li11  1  0.84364800  0.83803500  0.31267000  1
  Li  Li12  1  0.48969100  0.49531100  0.02065400  1
  Li  Li13  1  0.98582200  0.49219900  0.02822100  1
  Mn  Mn14  1  0.00086600  0.99826200  0.49705000  1
  Mn  Mn15  1  0.50167200  0.99819900  0.49728000  1
  Mn  Mn16  1  0.83162500  0.33508900  0.83608200  1
  Mn  Mn17  1  0.33238000  0.33511900  0.83632400  1
  Mn  Mn18  1  0.49389900  0.99149700  0.01222300  1
  Mn  Mn19  1  0.99335000  0.99141500  0.01347600  1
  Mn  Mn20  1  0.33991900  0.34190300  0.31983700  1
  Mn  Mn21  1  0.83945700  0.34179400  0.32109100  1
  Co  Co22  1  0.16667400  0.66666000  0.66666000  1
  Co  Co23  1  0.66666900  0.66665300  0.66666600  1
  O  O24  1  0.24520100  0.22524000  0.00645200  1
  O  O25  1  0.74874700  0.22517400  0.00646500  1
  O  O26  1  0.08814000  0.10811000  0.32688200  1
  O  O27  1  0.58459500  0.10817900  0.32687200  1
  O  O28  1  0.08490100  0.55859000  0.33260100  1
  O  O29  1  0.58272900  0.55859400  0.33258400  1
  O  O30  1  0.24845200  0.77477400  0.00073500  1
  O  O31  1  0.75060400  0.77476100  0.00075300  1
  O  O32  1  0.91096500  0.89113000  0.66988500  1
  O  O33  1  0.41830700  0.89263400  0.66995200  1
  O  O34  1  0.91503700  0.44069200  0.66337500  1
  O  O35  1  0.42237400  0.44219500  0.66344200  1
  O  O36  1  0.42398400  0.92143300  0.15198400  1
  O  O37  1  0.92345600  0.92050300  0.15315100  1
  O  O38  1  0.40988600  0.41284400  0.18017100  1
  O  O39  1  0.90935700  0.41190400  0.18136300  1
  O  O40  1  0.25539000  0.23169800  0.48901300  1
  O  O41  1  0.75707200  0.23875100  0.48571000  1
  O  O42  1  0.07795100  0.10162400  0.84432300  1
  O  O43  1  0.57627200  0.09459200  0.84762900  1
  O  O44  1  0.09068100  0.57460900  0.81879500  1
  O  O45  1  0.58175300  0.55969100  0.83675300  1
  O  O46  1  0.24265900  0.75872300  0.51453800  1
  O  O47  1  0.75158800  0.77363700  0.49657700  1
