# generated using pymatgen
data_Li3V(H4O3)4
_symmetry_space_group_name_H-M   'P 1'
_cell_length_a   5.98252300
_cell_length_b   6.51657138
_cell_length_c   7.33772324
_cell_angle_alpha   89.51496693
_cell_angle_beta   89.35583358
_cell_angle_gamma   89.21450471
_symmetry_Int_Tables_number   1
_chemical_formula_structural   Li3V(H4O3)4
_chemical_formula_sum   'Li3 V1 H16 O12'
_cell_volume   286.01024772
_cell_formula_units_Z   1
loop_
 _symmetry_equiv_pos_site_id
 _symmetry_equiv_pos_as_xyz
  1  'x, y, z'
loop_
 _atom_site_type_symbol
 _atom_site_label
 _atom_site_symmetry_multiplicity
 _atom_site_fract_x
 _atom_site_fract_y
 _atom_site_fract_z
 _atom_site_occupancy
  Li  Li0  1  0.60026300  0.73315800  0.06402900  1
  Li  Li1  1  0.00376600  0.23308000  0.35645400  1
  Li  Li2  1  0.50249300  0.12013600  0.58520000  1
  V  V3  1  0.08641100  0.61537200  0.85189200  1
  H  H4  1  0.35382300  0.58255000  0.31245100  1
  H  H5  1  0.54508300  0.69853900  0.41694100  1
  H  H6  1  0.55026900  0.11872300  0.98063300  1
  H  H7  1  0.35220400  0.04740600  0.10940400  1
  H  H8  1  0.04307500  0.61199400  0.45496100  1
  H  H9  1  0.00700800  0.60537900  0.23519600  1
  H  H10  1  0.05064500  0.19548600  0.01773800  1
  H  H11  1  0.01285300  0.96151300  0.09010100  1
  H  H12  1  0.11440800  0.97864900  0.60107900  1
  H  H13  1  0.11150600  0.21044700  0.67361000  1
  H  H14  1  0.61721300  0.15050200  0.26568700  1
  H  H15  1  0.61972400  0.37412000  0.35211600  1
  H  H16  1  0.49784900  0.40670500  0.83222500  1
  H  H17  1  0.74731300  0.31433400  0.80805800  1
  H  H18  1  0.49979500  0.75845100  0.71136100  1
  H  H19  1  0.74985300  0.80076200  0.63488900  1
  O  O20  1  0.01438800  0.74579200  0.65105900  1
  O  O21  1  0.01514000  0.35634300  0.83561600  1
  O  O22  1  0.37485600  0.63271500  0.88230500  1
  O  O23  1  0.93327000  0.71901000  0.03420700  1
  O  O24  1  0.51795100  0.61215200  0.30650500  1
  O  O25  1  0.51818800  0.03031400  0.09084800  1
  O  O26  1  0.07727200  0.53112600  0.34096700  1
  O  O27  1  0.07657900  0.09819600  0.12339300  1
  O  O28  1  0.16788900  0.12108600  0.57006100  1
  O  O29  1  0.67072900  0.22871800  0.37496600  1
  O  O30  1  0.58441200  0.27687200  0.80246300  1
  O  O31  1  0.58608100  0.83041800  0.61120300  1
