# generated using pymatgen
data_NaLiMg30O31
_symmetry_space_group_name_H-M   'P 1'
_cell_length_a   8.55543900
_cell_length_b   8.55543900
_cell_length_c   8.52506900
_cell_angle_alpha   90.00000000
_cell_angle_beta   90.00000000
_cell_angle_gamma   90.00000000
_symmetry_Int_Tables_number   1
_chemical_formula_structural   NaLiMg30O31
_chemical_formula_sum   'Na1 Li1 Mg30 O31'
_cell_volume   623.99699901
_cell_formula_units_Z   1
loop_
 _symmetry_equiv_pos_site_id
 _symmetry_equiv_pos_as_xyz
  1  'x, y, z'
loop_
 _atom_site_type_symbol
 _atom_site_label
 _atom_site_symmetry_multiplicity
 _atom_site_fract_x
 _atom_site_fract_y
 _atom_site_fract_z
 _atom_site_occupancy
  Na  Na0  1  0.50000000  0.50000000  0.99890900  1
  Li  Li1  1  0.00000000  0.00000000  0.97732700  1
  Mg  Mg2  1  0.50000000  0.00000000  0.99640500  1
  Mg  Mg3  1  0.00000000  0.50000000  0.99640500  1
  Mg  Mg4  1  0.00000000  0.00000000  0.52084800  1
  Mg  Mg5  1  0.50000000  0.00000000  0.50278100  1
  Mg  Mg6  1  0.00000000  0.50000000  0.50278100  1
  Mg  Mg7  1  0.50000000  0.50000000  0.50078000  1
  Mg  Mg8  1  0.24816100  0.24816100  0.00030200  1
  Mg  Mg9  1  0.75183900  0.24816100  0.00030200  1
  Mg  Mg10  1  0.24816100  0.75183900  0.00030200  1
  Mg  Mg11  1  0.75183900  0.75183900  0.00030200  1
  Mg  Mg12  1  0.24976800  0.24976800  0.49998700  1
  Mg  Mg13  1  0.75023200  0.24976800  0.49998700  1
  Mg  Mg14  1  0.24976800  0.75023200  0.49998700  1
  Mg  Mg15  1  0.75023200  0.75023200  0.49998700  1
  Mg  Mg16  1  0.27034200  0.00000000  0.24583200  1
  Mg  Mg17  1  0.72965800  0.00000000  0.24583200  1
  Mg  Mg18  1  0.25379600  0.50000000  0.24734300  1
  Mg  Mg19  1  0.74620400  0.50000000  0.24734300  1
  Mg  Mg20  1  0.24859900  0.00000000  0.75693800  1
  Mg  Mg21  1  0.75140100  0.00000000  0.75693800  1
  Mg  Mg22  1  0.25218200  0.50000000  0.75263600  1
  Mg  Mg23  1  0.74781800  0.50000000  0.75263600  1
  Mg  Mg24  1  0.00000000  0.27034200  0.24583200  1
  Mg  Mg25  1  0.50000000  0.25379600  0.24734300  1
  Mg  Mg26  1  0.00000000  0.72965800  0.24583200  1
  Mg  Mg27  1  0.50000000  0.74620400  0.24734300  1
  Mg  Mg28  1  0.00000000  0.24859900  0.75693800  1
  Mg  Mg29  1  0.50000000  0.25218200  0.75263600  1
  Mg  Mg30  1  0.00000000  0.75140100  0.75693800  1
  Mg  Mg31  1  0.50000000  0.74781800  0.75263600  1
  O  O32  1  0.50000000  0.00000000  0.25475600  1
  O  O33  1  0.00000000  0.50000000  0.25475600  1
  O  O34  1  0.50000000  0.50000000  0.26303300  1
  O  O35  1  0.00000000  0.00000000  0.74994100  1
  O  O36  1  0.50000000  0.00000000  0.74622900  1
  O  O37  1  0.00000000  0.50000000  0.74622900  1
  O  O38  1  0.50000000  0.50000000  0.73647300  1
  O  O39  1  0.24454400  0.24454400  0.25050500  1
  O  O40  1  0.75545600  0.24454400  0.25050500  1
  O  O41  1  0.24454400  0.75545600  0.25050500  1
  O  O42  1  0.75545600  0.75545600  0.25050500  1
  O  O43  1  0.24847100  0.24847100  0.74929500  1
  O  O44  1  0.75152900  0.24847100  0.74929500  1
  O  O45  1  0.24847100  0.75152900  0.74929500  1
  O  O46  1  0.75152900  0.75152900  0.74929500  1
  O  O47  1  0.24968300  0.00000000  0.00539100  1
  O  O48  1  0.75031700  0.00000000  0.00539100  1
  O  O49  1  0.23673900  0.50000000  0.00166100  1
  O  O50  1  0.76326100  0.50000000  0.00166100  1
  O  O51  1  0.24271000  0.00000000  0.49240600  1
  O  O52  1  0.75729000  0.00000000  0.49240600  1
  O  O53  1  0.24643200  0.50000000  0.49829100  1
  O  O54  1  0.75356800  0.50000000  0.49829100  1
  O  O55  1  0.00000000  0.24968300  0.00539100  1
  O  O56  1  0.50000000  0.23673900  0.00166100  1
  O  O57  1  0.00000000  0.75031700  0.00539100  1
  O  O58  1  0.50000000  0.76326100  0.00166100  1
  O  O59  1  0.00000000  0.24271000  0.49240600  1
  O  O60  1  0.50000000  0.24643200  0.49829100  1
  O  O61  1  0.00000000  0.75729000  0.49240600  1
  O  O62  1  0.50000000  0.75356800  0.49829100  1
