# generated using pymatgen
data_LiAlC16Cl12(OF6)4
_symmetry_space_group_name_H-M   'P 1'
_cell_length_a   13.83283800
_cell_length_b   10.88957800
_cell_length_c   11.99191524
_cell_angle_alpha   87.34750829
_cell_angle_beta   90.00000000
_cell_angle_gamma   90.00000000
_symmetry_Int_Tables_number   1
_chemical_formula_structural   LiAlC16Cl12(OF6)4
_chemical_formula_sum   'Li2 Al2 C32 Cl24 O8 F48'
_cell_volume   1804.45200368
_cell_formula_units_Z   2
loop_
 _symmetry_equiv_pos_site_id
 _symmetry_equiv_pos_as_xyz
  1  'x, y, z'
loop_
 _atom_site_type_symbol
 _atom_site_label
 _atom_site_symmetry_multiplicity
 _atom_site_fract_x
 _atom_site_fract_y
 _atom_site_fract_z
 _atom_site_occupancy
  Li  Li0  1  0.63373300  0.45497600  0.66054400  1
  Li  Li1  1  0.13373300  0.54502400  0.33945600  1
  Al  Al2  1  0.46300200  0.32213000  0.67956200  1
  Al  Al3  1  0.96300200  0.67787000  0.32043800  1
  C  C4  1  0.46728900  0.60721500  0.67741000  1
  C  C5  1  0.96728900  0.39278500  0.32259000  1
  C  C6  1  0.49634200  0.64185700  0.80231900  1
  C  C7  1  0.99634200  0.35814300  0.19768100  1
  C  C8  1  0.52876600  0.68710200  0.58666500  1
  C  C9  1  0.02876600  0.31289800  0.41333500  1
  C  C10  1  0.35699200  0.63906100  0.65341200  1
  C  C11  1  0.85699200  0.36093900  0.34658800  1
  C  C12  1  0.28182000  0.22105800  0.78686100  1
  C  C13  1  0.78182000  0.77894200  0.21313900  1
  C  C14  1  0.23313700  0.26610400  0.90085200  1
  C  C15  1  0.73313700  0.73389600  0.09914800  1
  C  C16  1  0.21174600  0.24966600  0.68305100  1
  C  C17  1  0.71174600  0.75033400  0.31694900  1
  C  C18  1  0.29739400  0.07544300  0.79565700  1
  C  C19  1  0.79739400  0.92455700  0.20434300  1
  C  C20  1  0.64056900  0.20917400  0.79806000  1
  C  C21  1  0.14056900  0.79082600  0.20194000  1
  C  C22  1  0.74965500  0.26212500  0.81021700  1
  C  C23  1  0.24965500  0.73787500  0.18978300  1
  C  C24  1  0.59503300  0.18343300  0.91897100  1
  C  C25  1  0.09503300  0.81656700  0.08102900  1
  C  C26  1  0.64344800  0.08076700  0.73901900  1
  C  C27  1  0.14344800  0.91923300  0.26098100  1
  C  C28  1  0.46231100  0.26599800  0.43416100  1
  C  C29  1  0.96231100  0.73400200  0.56583900  1
  C  C30  1  0.49542300  0.13236400  0.39354100  1
  C  C31  1  0.99542300  0.86763600  0.60645900  1
  C  C32  1  0.54028600  0.36839600  0.39884000  1
  C  C33  1  0.04028600  0.63160400  0.60116000  1
  C  C34  1  0.36311700  0.30548500  0.37327600  1
  C  C35  1  0.86311700  0.69451500  0.62672400  1
  Cl  Cl36  1  0.62639700  0.63633800  0.81274900  1
  Cl  Cl37  1  0.12639700  0.36366200  0.18725100  1
  Cl  Cl38  1  0.45547700  0.78797700  0.83864300  1
  Cl  Cl39  1  0.95547700  0.21202300  0.16135700  1
  Cl  Cl40  1  0.45031500  0.52919400  0.89901400  1
  Cl  Cl41  1  0.95031500  0.47080600  0.10098600  1
  Cl  Cl42  1  0.78595100  0.33020500  0.67628900  1
  Cl  Cl43  1  0.28595100  0.66979500  0.32371100  1
  Cl  Cl44  1  0.75441000  0.38062400  0.90681600  1
  Cl  Cl45  1  0.25441000  0.61937600  0.09318400  1
  Cl  Cl46  1  0.83621500  0.14928300  0.84946100  1
  Cl  Cl47  1  0.33621500  0.85071700  0.15053900  1
  Cl  Cl48  1  0.42428700  0.01628300  0.46134900  1
  Cl  Cl49  1  0.92428700  0.98371700  0.53865100  1
  Cl  Cl50  1  0.48464200  0.11972000  0.24569300  1
  Cl  Cl51  1  0.98464200  0.88028000  0.75430700  1
  Cl  Cl52  1  0.61764300  0.10545900  0.43084100  1
  Cl  Cl53  1  0.11764300  0.89454100  0.56915900  1
  Cl  Cl54  1  0.32233000  0.26876000  0.00820100  1
  Cl  Cl55  1  0.82233000  0.73124000  0.99179900  1
  Cl  Cl56  1  0.18723100  0.41825400  0.88069400  1
  Cl  Cl57  1  0.68723100  0.58174600  0.11930600  1
  Cl  Cl58  1  0.13657900  0.16962900  0.94771700  1
  Cl  Cl59  1  0.63657900  0.83037100  0.05228300  1
  O  O60  1  0.58425800  0.29335800  0.73727500  1
  O  O61  1  0.08425800  0.70664200  0.26272500  1
  O  O62  1  0.48779200  0.48572600  0.66141600  1
  O  O63  1  0.98779200  0.51427400  0.33858400  1
  O  O64  1  0.36816000  0.27912400  0.76905000  1
  O  O65  1  0.86816000  0.72087600  0.23095000  1
  O  O66  1  0.44978700  0.26322800  0.54643500  1
  O  O67  1  0.94978700  0.73677200  0.45356500  1
  F  F68  1  0.61496000  0.62700900  0.56778400  1
  F  F69  1  0.11496000  0.37299100  0.43221600  1
  F  F70  1  0.55098500  0.80103800  0.61659800  1
  F  F71  1  0.05098500  0.19896200  0.38340200  1
  F  F72  1  0.48333700  0.69706200  0.48717200  1
  F  F73  1  0.98333700  0.30293800  0.51282800  1
  F  F74  1  0.34349400  0.76040600  0.62578100  1
  F  F75  1  0.84349400  0.23959400  0.37421900  1
  F  F76  1  0.32605900  0.57421700  0.56651500  1
  F  F77  1  0.82605900  0.42578300  0.43348500  1
  F  F78  1  0.29927100  0.60986800  0.74125300  1
  F  F79  1  0.79927100  0.39013200  0.25874700  1
  F  F80  1  0.61178600  0.37213900  0.47894700  1
  F  F81  1  0.11178600  0.62786100  0.52105300  1
  F  F82  1  0.49884900  0.48119200  0.39473600  1
  F  F83  1  0.99884900  0.51880800  0.60526400  1
  F  F84  1  0.58473600  0.35366900  0.30045500  1
  F  F85  1  0.08473600  0.64633100  0.69954500  1
  F  F86  1  0.37636700  0.35466100  0.26758300  1
  F  F87  1  0.87636700  0.64533900  0.73241700  1
  F  F88  1  0.31864800  0.39316000  0.43170000  1
  F  F89  1  0.81864800  0.60684000  0.56830000  1
  F  F90  1  0.30026400  0.21116100  0.36680600  1
  F  F91  1  0.80026400  0.78883900  0.63319400  1
  F  F92  1  0.23574100  0.17815900  0.59719900  1
  F  F93  1  0.73574100  0.82184100  0.40280100  1
  F  F94  1  0.22260300  0.36801800  0.64482500  1
  F  F95  1  0.72260300  0.63198200  0.35517500  1
  F  F96  1  0.11673400  0.23092800  0.70502700  1
  F  F97  1  0.61673400  0.76907200  0.29497300  1
  F  F98  1  0.21575900  0.01136200  0.77524300  1
  F  F99  1  0.71575900  0.98863800  0.22475700  1
  F  F100  1  0.36426100  0.04404600  0.71954900  1
  F  F101  1  0.86426100  0.95595400  0.28045100  1
  F  F102  1  0.33067500  0.03488000  0.89740500  1
  F  F103  1  0.83067500  0.96512000  0.10259500  1
  F  F104  1  0.65925100  0.13513700  0.99403200  1
  F  F105  1  0.15925100  0.86486300  0.00596800  1
  F  F106  1  0.52013500  0.10275500  0.91374800  1
  F  F107  1  0.02013500  0.89724500  0.08625200  1
  F  F108  1  0.55888800  0.28758600  0.95967200  1
  F  F109  1  0.05888800  0.71241400  0.04032800  1
  F  F110  1  0.55531800  0.05943900  0.69468800  1
  F  F111  1  0.05531800  0.94056100  0.30531200  1
  F  F112  1  0.70887300  0.07991100  0.65511100  1
  F  F113  1  0.20887300  0.92008900  0.34488900  1
  F  F114  1  0.66467200  0.98473500  0.81090600  1
  F  F115  1  0.16467200  0.01526500  0.18909400  1
