# generated using pymatgen
data_Li9Mn2Co5O16
_symmetry_space_group_name_H-M   'P 1'
_cell_length_a   5.91273000
_cell_length_b   6.50027393
_cell_length_c   7.74876962
_cell_angle_alpha   87.06988001
_cell_angle_beta   81.49905107
_cell_angle_gamma   76.55376479
_symmetry_Int_Tables_number   1
_chemical_formula_structural   Li9Mn2Co5O16
_chemical_formula_sum   'Li9 Mn2 Co5 O16'
_cell_volume   286.42965934
_cell_formula_units_Z   1
loop_
 _symmetry_equiv_pos_site_id
 _symmetry_equiv_pos_as_xyz
  1  'x, y, z'
loop_
 _atom_site_type_symbol
 _atom_site_label
 _atom_site_symmetry_multiplicity
 _atom_site_fract_x
 _atom_site_fract_y
 _atom_site_fract_z
 _atom_site_occupancy
  Li  Li0  1  0.93860300  0.86292500  0.38910900  1
  Li  Li1  1  0.69264000  0.38130600  0.86247000  1
  Li  Li2  1  0.57884500  0.11422500  0.62616000  1
  Li  Li3  1  0.31012900  0.63445700  0.12265900  1
  Li  Li4  1  0.17945500  0.39025000  0.86713400  1
  Li  Li5  1  0.81673100  0.62849900  0.11663400  1
  Li  Li6  1  0.42857900  0.86758700  0.38607000  1
  Li  Li7  1  0.04357700  0.11914200  0.63456500  1
  Li  Li8  1  0.87279100  0.75017100  0.74832300  1
  Mn  Mn9  1  0.99702400  0.99817300  0.99543800  1
  Mn  Mn10  1  0.63011500  0.24932100  0.24892500  1
  Co  Co11  1  0.75203100  0.50201500  0.50310900  1
  Co  Co12  1  0.50352200  0.00191600  0.99310100  1
  Co  Co13  1  0.24850000  0.49570000  0.50925100  1
  Co  Co14  1  0.36692600  0.75359900  0.74644700  1
  Co  Co15  1  0.13053600  0.25020400  0.25357700  1
  O  O16  1  0.20072300  0.95981300  0.18215900  1
  O  O17  1  0.96295600  0.43915100  0.66688700  1
  O  O18  1  0.84076600  0.20513400  0.42439100  1
  O  O19  1  0.56945900  0.71833200  0.93393600  1
  O  O20  1  0.44959900  0.43880800  0.68443300  1
  O  O21  1  0.09137500  0.70959700  0.94016800  1
  O  O22  1  0.73087200  0.95531000  0.17031200  1
  O  O23  1  0.37693500  0.18775200  0.41718000  1
  O  O24  1  0.65355000  0.78742200  0.56306300  1
  O  O25  1  0.41951300  0.29008100  0.07358000  1
  O  O26  1  0.25955400  0.06109300  0.83692300  1
  O  O27  1  0.05974700  0.54217200  0.31284800  1
  O  O28  1  0.89209500  0.29913500  0.07455100  1
  O  O29  1  0.54544100  0.53960300  0.32041200  1
  O  O30  1  0.16907100  0.80656300  0.56969500  1
  O  O31  1  0.78833700  0.06054400  0.82649000  1
