# generated using pymatgen
data_Li3V3P8O29
_symmetry_space_group_name_H-M   'P 1'
_cell_length_a   9.75121100
_cell_length_b   9.75210531
_cell_length_c   14.51363319
_cell_angle_alpha   89.74752840
_cell_angle_beta   90.51054187
_cell_angle_gamma   119.88513894
_symmetry_Int_Tables_number   1
_chemical_formula_structural   Li3V3P8O29
_chemical_formula_sum   'Li6 V6 P16 O58'
_cell_volume   1196.59715442
_cell_formula_units_Z   2
loop_
 _symmetry_equiv_pos_site_id
 _symmetry_equiv_pos_as_xyz
  1  'x, y, z'
loop_
 _atom_site_type_symbol
 _atom_site_label
 _atom_site_symmetry_multiplicity
 _atom_site_fract_x
 _atom_site_fract_y
 _atom_site_fract_z
 _atom_site_occupancy
  Li  Li0  1  0.08361500  0.31124600  0.44832500  1
  Li  Li1  1  0.69111300  0.92061600  0.93220800  1
  Li  Li2  1  0.68004500  0.76742200  0.45065600  1
  Li  Li3  1  0.28944900  0.07862500  0.05395000  1
  Li  Li4  1  0.78193400  0.70280800  0.04380200  1
  Li  Li5  1  0.01933300  0.96079600  0.51436300  1
  V  V6  1  0.43226400  0.43059400  0.74784100  1
  V  V7  1  0.56130400  0.56319000  0.25257500  1
  V  V8  1  0.43204100  0.99510500  0.25558700  1
  V  V9  1  0.56654400  0.00694300  0.74340300  1
  V  V10  1  0.00078300  0.56383800  0.75248200  1
  V  V11  1  0.99913700  0.43792900  0.25011300  1
  P  P12  1  0.08223200  0.77575700  0.16380700  1
  P  P13  1  0.21651200  0.91376800  0.66580600  1
  P  P14  1  0.08408900  0.31042100  0.65829700  1
  P  P15  1  0.34110200  0.67097800  0.86513300  1
  P  P16  1  0.33481000  0.66536900  0.36762100  1
  P  P17  1  0.22408900  0.31452800  0.16013200  1
  P  P18  1  0.30450600  0.22202500  0.33979100  1
  P  P19  1  0.67513500  0.90744500  0.15407200  1
  P  P20  1  0.31981200  0.09068800  0.84199500  1
  P  P21  1  0.68897200  0.77583500  0.65847000  1
  P  P22  1  0.77480800  0.68415700  0.83516600  1
  P  P23  1  0.66893300  0.33921800  0.63365500  1
  P  P24  1  0.66237200  0.33184400  0.13761600  1
  P  P25  1  0.91562100  0.69376500  0.34450800  1
  P  P26  1  0.77970900  0.08223200  0.33152500  1
  P  P27  1  0.91671900  0.22179700  0.83786000  1
  O  O28  1  0.99217400  0.78715300  0.42806600  1
  O  O29  1  0.08455800  0.73846800  0.67164900  1
  O  O30  1  0.25643600  0.01774800  0.93260500  1
  O  O31  1  0.25324600  0.91909400  0.16583400  1
  O  O32  1  0.09171500  0.62159500  0.18166000  1
  O  O33  1  0.18688900  0.66024500  0.82259300  1
  O  O34  1  0.08344900  0.46746500  0.67326200  1
  O  O35  1  0.99946300  0.21526500  0.92151100  1
  O  O36  1  0.08492200  0.34789200  0.17083600  1
  O  O37  1  0.32752600  0.81181800  0.32446000  1
  O  O38  1  0.37985500  0.92011700  0.67351300  1
  O  O39  1  0.18620300  0.51303800  0.32956400  1
  O  O40  1  0.34786800  0.66869200  0.96718000  1
  O  O41  1  0.35054600  0.66958700  0.46936800  1
  O  O42  1  0.34905400  0.52919200  0.81758500  1
  O  O43  1  0.51664700  0.89902000  0.18114600  1
  O  O44  1  0.48540300  0.82431400  0.82443800  1
  O  O45  1  0.25740600  0.34457500  0.66927900  1
  O  O46  1  0.20331700  0.20286800  0.24768900  1
  O  O47  1  0.20862300  0.20922400  0.42139100  1
  O  O48  1  0.23000800  0.23563300  0.07526200  1
  O  O49  1  0.37984700  0.47468500  0.18039000  1
  O  O50  1  0.48759000  0.67497200  0.32284800  1
  O  O51  1  0.34391600  0.25986200  0.83013500  1
  O  O52  1  0.53633800  0.61547700  0.66834100  1
  O  O53  1  0.65083300  0.91194000  0.66883400  1
  O  O54  1  0.19903800  0.98965800  0.76075500  1
  O  O55  1  0.19932800  0.99731000  0.58510200  1
  O  O56  1  0.78428900  0.98382500  0.40834600  1
  O  O57  1  0.34645500  0.08806800  0.33132600  1
  O  O58  1  0.46146100  0.38324900  0.32874700  1
  O  O59  1  0.66018000  0.74102400  0.16716000  1
  O  O60  1  0.51772100  0.33144900  0.67657400  1
  O  O61  1  0.62220200  0.52518100  0.81901100  1
  O  O62  1  0.76561800  0.76537200  0.92080900  1
  O  O63  1  0.77830700  0.79602700  0.57128800  1
  O  O64  1  0.79897300  0.79588700  0.74712900  1
  O  O65  1  0.73910900  0.65504200  0.33669400  1
  O  O66  1  0.51618700  0.17923600  0.17557100  1
  O  O67  1  0.47925400  0.09906500  0.81861100  1
  O  O68  1  0.66049100  0.47830400  0.18369300  1
  O  O69  1  0.66969900  0.34633700  0.03613100  1
  O  O70  1  0.67216100  0.34149900  0.53177600  1
  O  O71  1  0.81402100  0.48340600  0.68120600  1
  O  O72  1  0.61935900  0.08353000  0.32347300  1
  O  O73  1  0.67052500  0.18777600  0.67492200  1
  O  O74  1  0.91859200  0.65855300  0.83481700  1
  O  O75  1  0.99900100  0.79743100  0.25341700  1
  O  O76  1  0.99197000  0.76773600  0.07968200  1
  O  O77  1  0.92116900  0.53787200  0.32921800  1
  O  O78  1  0.81352100  0.33779200  0.18422600  1
  O  O79  1  0.91377200  0.37925900  0.82203500  1
  O  O80  1  0.74146700  0.08230500  0.83209300  1
  O  O81  1  0.73318200  0.97197200  0.06137200  1
  O  O82  1  0.79937700  0.01794800  0.23278600  1
  O  O83  1  0.91799300  0.25592200  0.33624600  1
  O  O84  1  0.01459000  0.23092500  0.56864300  1
  O  O85  1  0.99104600  0.19749700  0.74303700  1
