# generated using pymatgen
data_Ba2LiCd
_symmetry_space_group_name_H-M   'P 1'
_cell_length_a   13.96318035
_cell_length_b   13.96318035
_cell_length_c   13.96318035
_cell_angle_alpha   121.08105520
_cell_angle_beta   117.54058757
_cell_angle_gamma   91.22467476
_symmetry_Int_Tables_number   1
_chemical_formula_structural   Ba2LiCd
_chemical_formula_sum   'Ba2 Li1 Cd1'
_cell_volume   1942.34348803
_cell_formula_units_Z   1
loop_
 _symmetry_equiv_pos_site_id
 _symmetry_equiv_pos_as_xyz
  1  'x, y, z'
loop_
 _atom_site_type_symbol
 _atom_site_label
 _atom_site_symmetry_multiplicity
 _atom_site_fract_x
 _atom_site_fract_y
 _atom_site_fract_z
 _atom_site_occupancy
  Ba  Ba0  1  0.74267800  0.00000000  0.74267800  1
  Ba  Ba1  1  0.25732200  0.00000000  0.25732200  1
  Li  Li2  1  0.00000000  0.00000000  0.00000000  1
  Cd  Cd3  1  0.50000000  0.00000000  0.50000000  1
