# generated using pymatgen
data_Li7Mn5O12
_symmetry_space_group_name_H-M   'P 1'
_cell_length_a   6.46047320
_cell_length_b   9.30408087
_cell_length_c   7.79117140
_cell_angle_alpha   71.89936081
_cell_angle_beta   89.76486088
_cell_angle_gamma   82.70632593
_symmetry_Int_Tables_number   1
_chemical_formula_structural   Li7Mn5O12
_chemical_formula_sum   'Li14 Mn10 O24'
_cell_volume   441.22955248
_cell_formula_units_Z   2
loop_
 _symmetry_equiv_pos_site_id
 _symmetry_equiv_pos_as_xyz
  1  'x, y, z'
loop_
 _atom_site_type_symbol
 _atom_site_label
 _atom_site_symmetry_multiplicity
 _atom_site_fract_x
 _atom_site_fract_y
 _atom_site_fract_z
 _atom_site_occupancy
  Li  Li0  1  0.08381700  0.08339600  0.33373900  1
  Li  Li1  1  0.58288500  0.58316000  0.33290300  1
  Li  Li2  1  0.08324300  0.58313400  0.83377500  1
  Li  Li3  1  0.58346400  0.08359200  0.83293700  1
  Li  Li4  1  0.83333900  0.33328700  0.83333400  1
  Li  Li5  1  0.33335100  0.83330600  0.83329800  1
  Li  Li6  1  0.23939900  0.25249100  0.99364200  1
  Li  Li7  1  0.73909100  0.75226400  0.99336400  1
  Li  Li8  1  0.92763700  0.91447700  0.67324900  1
  Li  Li9  1  0.42729100  0.41421700  0.67291900  1
  Li  Li10  1  0.91081200  0.42909700  0.16455000  1
  Li  Li11  1  0.41009300  0.92875500  0.16402100  1
  Li  Li12  1  0.25655200  0.73791300  0.50263300  1
  Li  Li13  1  0.75585700  0.23758300  0.50214100  1
  Mn  Mn14  1  0.83324000  0.83330100  0.33340300  1
  Mn  Mn15  1  0.33329900  0.33328800  0.33324300  1
  Mn  Mn16  1  0.99915000  0.00001500  0.99905000  1
  Mn  Mn17  1  0.49952000  0.50055100  0.99808700  1
  Mn  Mn18  1  0.66754800  0.66664000  0.66755900  1
  Mn  Mn19  1  0.16710200  0.16612100  0.66863600  1
  Mn  Mn20  1  0.16742800  0.66922100  0.16316700  1
  Mn  Mn21  1  0.66847000  0.16841800  0.16331400  1
  Mn  Mn22  1  0.99822900  0.49822900  0.50338600  1
  Mn  Mn23  1  0.49928900  0.99742600  0.50352600  1
  O  O24  1  0.77049300  0.55234500  0.91064700  1
  O  O25  1  0.27032500  0.05219300  0.91118000  1
  O  O26  1  0.89627200  0.11435500  0.75607300  1
  O  O27  1  0.39638500  0.61450800  0.75555600  1
  O  O28  1  0.10811000  0.88319500  0.24403500  1
  O  O29  1  0.60730000  0.38332800  0.24359100  1
  O  O30  1  0.05927700  0.28334100  0.42305500  1
  O  O31  1  0.55840700  0.78346100  0.42269600  1
  O  O32  1  0.12236100  0.35770800  0.72927000  1
  O  O33  1  0.62330500  0.85743000  0.72940500  1
  O  O34  1  0.04343600  0.80923200  0.93726400  1
  O  O35  1  0.54434200  0.30896800  0.93744400  1
  O  O36  1  0.94898100  0.18267100  0.07605900  1
  O  O37  1  0.44805600  0.68314500  0.07544500  1
  O  O38  1  0.71769800  0.48399900  0.59064100  1
  O  O39  1  0.21866600  0.98355300  0.59122900  1
  O  O40  1  0.94353900  0.71565600  0.58242800  1
  O  O41  1  0.44325500  0.21525500  0.58255700  1
  O  O42  1  0.22337100  0.45144300  0.08396300  1
  O  O43  1  0.72309000  0.95099500  0.08429300  1
  O  O44  1  0.27279400  0.54745800  0.40912700  1
  O  O45  1  0.77366100  0.04762900  0.40971300  1
  O  O46  1  0.89295400  0.61904900  0.25696200  1
  O  O47  1  0.39380800  0.11919800  0.25749200  1
