# generated using pymatgen
data_Li7Mn5O12
_symmetry_space_group_name_H-M   'P 1'
_cell_length_a   6.04444468
_cell_length_b   10.06735444
_cell_length_c   8.15761089
_cell_angle_alpha   66.58070328
_cell_angle_beta   89.51052969
_cell_angle_gamma   102.85690200
_symmetry_Int_Tables_number   1
_chemical_formula_structural   Li7Mn5O12
_chemical_formula_sum   'Li14 Mn10 O24'
_cell_volume   441.47267399
_cell_formula_units_Z   2
loop_
 _symmetry_equiv_pos_site_id
 _symmetry_equiv_pos_as_xyz
  1  'x, y, z'
loop_
 _atom_site_type_symbol
 _atom_site_label
 _atom_site_symmetry_multiplicity
 _atom_site_fract_x
 _atom_site_fract_y
 _atom_site_fract_z
 _atom_site_occupancy
  Li  Li0  1  0.50036300  0.50019500  0.99999400  1
  Li  Li1  1  0.99998200  0.99999200  0.50003500  1
  Li  Li2  1  0.00000000  0.49999800  0.00003400  1
  Li  Li3  1  0.50009500  0.00003500  0.50001500  1
  Li  Li4  1  0.50005000  0.00004800  0.99996300  1
  Li  Li5  1  0.00001600  0.49999300  0.49999600  1
  Li  Li6  1  0.15458300  0.33345900  0.82287700  1
  Li  Li7  1  0.66057100  0.83028000  0.32710200  1
  Li  Li8  1  0.84540700  0.66656200  0.17718800  1
  Li  Li9  1  0.33957300  0.16974100  0.67299900  1
  Li  Li10  1  0.69877000  0.34551000  0.82177200  1
  Li  Li11  1  0.18783200  0.83461300  0.32775300  1
  Li  Li12  1  0.30116700  0.65444900  0.17826600  1
  Li  Li13  1  0.81256800  0.16556200  0.67215200  1
  Mn  Mn14  1  0.49991500  0.49998200  0.50011800  1
  Mn  Mn15  1  0.00003100  0.00001900  0.99992500  1
  Mn  Mn16  1  0.16504000  0.33555800  0.33651800  1
  Mn  Mn17  1  0.67170100  0.83647600  0.83416400  1
  Mn  Mn18  1  0.83497900  0.66443700  0.66347600  1
  Mn  Mn19  1  0.32828800  0.16362000  0.16580900  1
  Mn  Mn20  1  0.67689900  0.33938900  0.33356900  1
  Mn  Mn21  1  0.17913800  0.83797700  0.83199400  1
  Mn  Mn22  1  0.32313200  0.66057300  0.66651700  1
  Mn  Mn23  1  0.82077000  0.16201700  0.16792200  1
  O  O24  1  0.83995200  0.15966800  0.93171100  1
  O  O25  1  0.34502300  0.66281800  0.42727500  1
  O  O26  1  0.15996100  0.84037500  0.06816100  1
  O  O27  1  0.65491700  0.33711600  0.57275900  1
  O  O28  1  0.13150700  0.30705000  0.10546400  1
  O  O29  1  0.67831100  0.82726700  0.60026100  1
  O  O30  1  0.86828400  0.69288900  0.89452000  1
  O  O31  1  0.32161300  0.17273900  0.39966800  1
  O  O32  1  0.51806900  0.50087600  0.25949400  1
  O  O33  1  0.02248800  0.00026200  0.76238600  1
  O  O34  1  0.48190700  0.49902400  0.74066400  1
  O  O35  1  0.97742100  0.99973400  0.23755200  1
  O  O36  1  0.29213200  0.14683500  0.94035300  1
  O  O37  1  0.79216100  0.64785900  0.43582800  1
  O  O38  1  0.70790200  0.85324200  0.05959800  1
  O  O39  1  0.20774200  0.35207900  0.56428800  1
  O  O40  1  0.67398500  0.32694300  0.09450100  1
  O  O41  1  0.18063700  0.83112600  0.59452900  1
  O  O42  1  0.32600300  0.67294800  0.90543800  1
  O  O43  1  0.81935100  0.16875700  0.40534800  1
  O  O44  1  0.01177200  0.49195700  0.25320800  1
  O  O45  1  0.47503500  0.97690400  0.76183200  1
  O  O46  1  0.98817000  0.50800100  0.74684600  1
  O  O47  1  0.52478800  0.02304700  0.23815700  1
