# generated using pymatgen
data_Li6V3P8O29
_symmetry_space_group_name_H-M   'P 1'
_cell_length_a   9.77641527
_cell_length_b   9.77641527
_cell_length_c   13.95949271
_cell_angle_alpha   89.93852662
_cell_angle_beta   89.93852662
_cell_angle_gamma   59.98490098
_symmetry_Int_Tables_number   1
_chemical_formula_structural   Li6V3P8O29
_chemical_formula_sum   'Li12 V6 P16 O58'
_cell_volume   1155.29560030
_cell_formula_units_Z   2
loop_
 _symmetry_equiv_pos_site_id
 _symmetry_equiv_pos_as_xyz
  1  'x, y, z'
loop_
 _atom_site_type_symbol
 _atom_site_label
 _atom_site_symmetry_multiplicity
 _atom_site_fract_x
 _atom_site_fract_y
 _atom_site_fract_z
 _atom_site_occupancy
  Li  Li0  1  0.76294200  0.33594000  0.30755700  1
  Li  Li1  1  0.89858700  0.76215300  0.30818600  1
  Li  Li2  1  0.76321400  0.90309200  0.81603200  1
  Li  Li3  1  0.33557600  0.76389900  0.81247500  1
  Li  Li4  1  0.32948800  0.90199900  0.30786400  1
  Li  Li5  1  0.66406000  0.23705800  0.69244300  1
  Li  Li6  1  0.23784700  0.10141300  0.69181400  1
  Li  Li7  1  0.09690800  0.23678600  0.18396800  1
  Li  Li8  1  0.23610100  0.66442400  0.18752500  1
  Li  Li9  1  0.09800100  0.67051200  0.69213600  1
  Li  Li10  1  0.99235300  0.05954600  0.76718300  1
  Li  Li11  1  0.94045400  0.00764700  0.23281700  1
  V  V12  1  0.56119800  0.00269200  0.00569000  1
  V  V13  1  0.43412700  0.00023700  0.49863900  1
  V  V14  1  0.56869800  0.43130200  0.50000000  1
  V  V15  1  0.44043800  0.55956200  0.00000000  1
  V  V16  1  0.99730800  0.43880200  0.99431000  1
  V  V17  1  0.99976300  0.56587300  0.50136100  1
  P  P18  1  0.91767300  0.30473300  0.59099300  1
  P  P19  1  0.77928600  0.30842600  0.09245600  1
  P  P20  1  0.91221500  0.77607600  0.09211800  1
  P  P21  1  0.66371000  0.67210400  0.88289500  1
  P  P22  1  0.66672800  0.66555800  0.38074500  1
  P  P23  1  0.76925100  0.91335700  0.59601200  1
  P  P24  1  0.69526700  0.08232700  0.40900700  1
  P  P25  1  0.31601600  0.77194000  0.59198200  1
  P  P26  1  0.69157400  0.22071400  0.90754400  1
  P  P27  1  0.31099700  0.91112200  0.09294100  1
  P  P28  1  0.22392400  0.08778500  0.90788200  1
  P  P29  1  0.32789600  0.33629000  0.11710500  1
  P  P30  1  0.33444200  0.33327200  0.61925500  1
  P  P31  1  0.08664300  0.23074900  0.40398800  1
  P  P32  1  0.22806000  0.68398400  0.40801800  1
  P  P33  1  0.08887800  0.68900300  0.90705900  1
  O  O34  1  0.00194500  0.23409400  0.31344800  1
  O  O35  1  0.92120000  0.33510600  0.08909000  1
  O  O36  1  0.78057400  0.21179500  0.81707600  1
  O  O37  1  0.74615700  0.33429000  0.59240700  1
  O  O38  1  0.92042300  0.46043300  0.58305300  1
  O  O39  1  0.80946700  0.51966000  0.92596000  1
  O  O40  1  0.92128000  0.61532500  0.08342300  1
  O  O41  1  0.99883400  0.77765100  0.81868200  1
  O  O42  1  0.91694700  0.74518200  0.59299400  1
  O  O43  1  0.68132100  0.50845300  0.42159400  1
  O  O44  1  0.62244100  0.46645100  0.08055600  1
  O  O45  1  0.80963300  0.67924100  0.42301600  1
  O  O46  1  0.65728600  0.68004700  0.77638200  1
  O  O47  1  0.66970100  0.66450700  0.27384700  1
  O  O48  1  0.67529800  0.81441200  0.92593600  1
  O  O49  1  0.47498100  0.61877800  0.57696900  1
  O  O50  1  0.51220800  0.67584500  0.92563800  1
  O  O51  1  0.74429600  0.91486400  0.09204100  1
  O  O52  1  0.79098700  0.00753800  0.50853600  1
  O  O53  1  0.80189700  0.98956600  0.32891500  1
  O  O54  1  0.76590600  0.99805500  0.68655200  1
  O  O55  1  0.61754400  0.90624000  0.57798400  1
  O  O56  1  0.50935900  0.80841400  0.42106000  1
  O  O57  1  0.66489400  0.07880000  0.91091000  1
  O  O58  1  0.47037100  0.90468600  0.08168600  1
  O  O59  1  0.33395600  0.74306100  0.09481700  1
  O  O60  1  0.79959700  0.20040300  0.00000000  1
  O  O61  1  0.78820500  0.21942600  0.18292400  1
  O  O62  1  0.22682400  0.77121200  0.31847000  1
  O  O63  1  0.66571000  0.25384300  0.40759300  1
  O  O64  1  0.53956700  0.07957700  0.41694700  1
  O  O65  1  0.33619800  0.91952700  0.59092700  1
  O  O66  1  0.48034000  0.19053300  0.07404000  1
  O  O67  1  0.38467500  0.07872000  0.91657700  1
  O  O68  1  0.21605300  0.00002700  0.81909400  1
  O  O69  1  0.22234900  0.00116600  0.18131800  1
  O  O70  1  0.20315700  0.99707900  0.00024600  1
  O  O71  1  0.25481800  0.08305300  0.40700600  1
  O  O72  1  0.49154700  0.31867900  0.57840600  1
  O  O73  1  0.53354900  0.37755900  0.91944400  1
  O  O74  1  0.32075900  0.19036700  0.57698400  1
  O  O75  1  0.33549300  0.33029900  0.72615300  1
  O  O76  1  0.31995300  0.34271400  0.22361800  1
  O  O77  1  0.18558800  0.32470200  0.07406400  1
  O  O78  1  0.38122200  0.52501900  0.42303100  1
  O  O79  1  0.32415500  0.48779200  0.07436200  1
  O  O80  1  0.08513600  0.25570400  0.90795900  1
  O  O81  1  0.99246200  0.20901300  0.49146400  1
  O  O82  1  0.01043400  0.19810300  0.67108500  1
  O  O83  1  0.09376000  0.38245600  0.42201600  1
  O  O84  1  0.19158600  0.49064100  0.57894000  1
  O  O85  1  0.09531400  0.52962900  0.91831400  1
  O  O86  1  0.25693900  0.66604400  0.90518300  1
  O  O87  1  0.22878800  0.77317600  0.68153000  1
  O  O88  1  0.20636700  0.79363300  0.50000000  1
  O  O89  1  0.08047300  0.66380200  0.40907300  1
  O  O90  1  0.99997300  0.78394700  0.18090600  1
  O  O91  1  0.00292100  0.79684300  0.99975400  1
