# generated using pymatgen
data_Li2Ni3SbO8
_symmetry_space_group_name_H-M   'P 1'
_cell_length_a   5.87234843
_cell_length_b   10.47115715
_cell_length_c   5.86117634
_cell_angle_alpha   106.13447994
_cell_angle_beta   120.08479583
_cell_angle_gamma   90.01885417
_symmetry_Int_Tables_number   1
_chemical_formula_structural   Li2Ni3SbO8
_chemical_formula_sum   'Li4 Ni6 Sb2 O16'
_cell_volume   295.31280765
_cell_formula_units_Z   2
loop_
 _symmetry_equiv_pos_site_id
 _symmetry_equiv_pos_as_xyz
  1  'x, y, z'
loop_
 _atom_site_type_symbol
 _atom_site_label
 _atom_site_symmetry_multiplicity
 _atom_site_fract_x
 _atom_site_fract_y
 _atom_site_fract_z
 _atom_site_occupancy
  Li  Li0  1  0.06377700  0.19179300  0.12862800  1
  Li  Li1  1  0.56345000  0.69039700  0.12695500  1
  Li  Li2  1  0.43654000  0.30954900  0.87309200  1
  Li  Li3  1  0.93628900  0.80819000  0.87148900  1
  Ni  Ni4  1  0.49998100  0.99999100  0.49997200  1
  Ni  Ni5  1  0.00005700  0.00002900  0.49999400  1
  Ni  Ni6  1  0.99976800  0.49999100  0.99996000  1
  Ni  Ni7  1  0.00007100  0.50007000  0.50015000  1
  Ni  Ni8  1  0.49999200  0.49996500  0.49982300  1
  Ni  Ni9  1  0.50001300  0.99992500  0.99994200  1
  Sb  Sb10  1  0.24993900  0.75019700  0.49962500  1
  Sb  Sb11  1  0.75011100  0.24980500  0.50034600  1
  O  O12  1  0.13532300  0.40681100  0.27120100  1
  O  O13  1  0.63578900  0.90652400  0.27084700  1
  O  O14  1  0.36428900  0.09338500  0.72916000  1
  O  O15  1  0.86457700  0.59324200  0.72885400  1
  O  O16  1  0.34053400  0.62157100  0.72125000  1
  O  O17  1  0.87994300  0.12146000  0.72214000  1
  O  O18  1  0.90034100  0.62196000  0.23976500  1
  O  O19  1  0.40015600  0.12172800  0.28065300  1
  O  O20  1  0.38154600  0.62176300  0.28180100  1
  O  O21  1  0.84048300  0.12189200  0.24132100  1
  O  O22  1  0.15950700  0.87804600  0.75865200  1
  O  O23  1  0.61823700  0.37824800  0.71796400  1
  O  O24  1  0.59996100  0.87826700  0.71929600  1
  O  O25  1  0.09960800  0.37815300  0.76053800  1
  O  O26  1  0.12003500  0.87856900  0.27784200  1
  O  O27  1  0.65968500  0.37847900  0.27873900  1
