# generated using pymatgen
data_Li3Mn4O8
_symmetry_space_group_name_H-M   'P 1'
_cell_length_a   5.83091928
_cell_length_b   5.93289269
_cell_length_c   10.94984478
_cell_angle_alpha   74.21516150
_cell_angle_beta   89.91985616
_cell_angle_gamma   120.61607118
_symmetry_Int_Tables_number   1
_chemical_formula_structural   Li3Mn4O8
_chemical_formula_sum   'Li6 Mn8 O16'
_cell_volume   309.19181661
_cell_formula_units_Z   2
loop_
 _symmetry_equiv_pos_site_id
 _symmetry_equiv_pos_as_xyz
  1  'x, y, z'
loop_
 _atom_site_type_symbol
 _atom_site_label
 _atom_site_symmetry_multiplicity
 _atom_site_fract_x
 _atom_site_fract_y
 _atom_site_fract_z
 _atom_site_occupancy
  Li  Li0  1  0.24999900  0.00000800  0.24999200  1
  Li  Li1  1  0.75000300  0.99999900  0.75000000  1
  Li  Li2  1  0.33260700  0.14440000  0.03779200  1
  Li  Li3  1  0.83046000  0.14800300  0.53752900  1
  Li  Li4  1  0.16735300  0.85559900  0.46221400  1
  Li  Li5  1  0.66949100  0.85194400  0.96246200  1
  Mn  Mn6  1  0.25005700  0.00016100  0.75000800  1
  Mn  Mn7  1  0.24997500  0.49999600  0.74996600  1
  Mn  Mn8  1  0.25000800  0.49994100  0.25005300  1
  Mn  Mn9  1  0.00464800  0.50324500  0.99945500  1
  Mn  Mn10  1  0.49537100  0.49670100  0.50054400  1
  Mn  Mn11  1  0.74992500  0.99992700  0.25000600  1
  Mn  Mn12  1  0.75007100  0.50004600  0.24999400  1
  Mn  Mn13  1  0.75000900  0.50005900  0.74997300  1
  O  O14  1  0.89615500  0.24496100  0.35382100  1
  O  O15  1  0.39491800  0.29573600  0.85350800  1
  O  O16  1  0.60379200  0.75494800  0.14619800  1
  O  O17  1  0.10512600  0.70433900  0.64649000  1
  O  O18  1  0.11422500  0.24802600  0.14583400  1
  O  O19  1  0.61280800  0.25019300  0.64600400  1
  O  O20  1  0.63680300  0.23942300  0.14741300  1
  O  O21  1  0.13324500  0.24956600  0.64792300  1
  O  O22  1  0.11418400  0.71844000  0.14634600  1
  O  O23  1  0.61413900  0.71993600  0.64584300  1
  O  O24  1  0.38587000  0.28152400  0.35368600  1
  O  O25  1  0.88587700  0.28009800  0.85411700  1
  O  O26  1  0.86317600  0.76054300  0.35260300  1
  O  O27  1  0.36674300  0.75046700  0.85202900  1
  O  O28  1  0.38569300  0.75187000  0.35422500  1
  O  O29  1  0.88726800  0.74989800  0.85397300  1
