# generated using pymatgen
data_LiFe(SiO3)2
_symmetry_space_group_name_H-M   'P 1'
_cell_length_a   18.78816290
_cell_length_b   10.43083981
_cell_length_c   5.34275718
_cell_angle_alpha   89.99826490
_cell_angle_beta   90.00001398
_cell_angle_gamma   90.00005150
_symmetry_Int_Tables_number   1
_chemical_formula_structural   LiFe(SiO3)2
_chemical_formula_sum   'Li8 Fe8 Si16 O48'
_cell_volume   1047.05387737
_cell_formula_units_Z   8
loop_
 _symmetry_equiv_pos_site_id
 _symmetry_equiv_pos_as_xyz
  1  'x, y, z'
loop_
 _atom_site_type_symbol
 _atom_site_label
 _atom_site_symmetry_multiplicity
 _atom_site_fract_x
 _atom_site_fract_y
 _atom_site_fract_z
 _atom_site_occupancy
  Li  Li0  1  0.12436736  0.44631092  0.47540067  1
  Li  Li1  1  0.12436842  0.05367822  0.97536781  1
  Li  Li2  1  0.37563019  0.55367822  0.97537322  1
  Li  Li3  1  0.37563243  0.94631205  0.47539650  1
  Li  Li4  1  0.62436757  0.05368795  0.52460350  1
  Li  Li5  1  0.62436981  0.44632178  0.02462678  1
  Li  Li6  1  0.87563264  0.55368908  0.52459933  1
  Li  Li7  1  0.87563158  0.94632178  0.02463219  1
  Fe  Fe8  1  0.12507902  0.03861129  0.47558267  1
  Fe  Fe9  1  0.12506756  0.46136267  0.97562286  1
  Fe  Fe10  1  0.37492873  0.96136182  0.97562525  1
  Fe  Fe11  1  0.37492117  0.53861801  0.47558891  1
  Fe  Fe12  1  0.62507883  0.46138199  0.52441109  1
  Fe  Fe13  1  0.62507127  0.03863818  0.02437475  1
  Fe  Fe14  1  0.87492098  0.96138871  0.52441733  1
  Fe  Fe15  1  0.87493244  0.53863733  0.02437714  1
  Si  Si16  1  0.01812377  0.66740094  0.25364409  1
  Si  Si17  1  0.01811889  0.83260801  0.75363915  1
  Si  Si18  1  0.23174241  0.66689676  0.69652208  1
  Si  Si19  1  0.23175008  0.83308509  0.19651811  1
  Si  Si20  1  0.26825760  0.16689684  0.69652283  1
  Si  Si21  1  0.26825045  0.33308513  0.19651841  1
  Si  Si22  1  0.48187593  0.16740056  0.25364318  1
  Si  Si23  1  0.48188081  0.33260862  0.75363803  1
  Si  Si24  1  0.51811919  0.66739138  0.24636197  1
  Si  Si25  1  0.51812407  0.83259944  0.74635682  1
  Si  Si26  1  0.73174955  0.66691487  0.80348159  1
  Si  Si27  1  0.73174240  0.83310316  0.30347717  1
  Si  Si28  1  0.76824992  0.16691491  0.80348189  1
  Si  Si29  1  0.76825759  0.33310324  0.30347792  1
  Si  Si30  1  0.98188111  0.16739199  0.24636085  1
  Si  Si31  1  0.98187623  0.33259906  0.74635591  1
  O  O32  1  0.03614977  0.73311011  0.52458221  1
  O  O33  1  0.03615581  0.76689904  0.02457472  1
  O  O34  1  0.06636252  0.12928980  0.24819517  1
  O  O35  1  0.06635804  0.37068782  0.74821014  1
  O  O36  1  0.06929596  0.54153104  0.22348802  1
  O  O37  1  0.06929483  0.95846739  0.72346673  1
  O  O38  1  0.18416283  0.12625656  0.70694304  1
  O  O39  1  0.18415343  0.37371078  0.20696834  1
  O  O40  1  0.17946216  0.95749609  0.22527948  1
  O  O41  1  0.17944858  0.54249310  0.72531951  1
  O  O42  1  0.21449179  0.76680507  0.92521223  1
  O  O43  1  0.21448103  0.73318422  0.42521281  1
  O  O44  1  0.28550863  0.26680621  0.92521019  1
  O  O45  1  0.28551848  0.23318292  0.42521347  1
  O  O46  1  0.32053793  0.45749755  0.22528179  1
  O  O47  1  0.32055181  0.04249312  0.72531554  1
  O  O48  1  0.31583755  0.62625725  0.70693973  1
  O  O49  1  0.31584665  0.87371177  0.20697021  1
  O  O50  1  0.43070429  0.04152920  0.22348714  1
  O  O51  1  0.43070557  0.45846880  0.72346728  1
  O  O52  1  0.43363803  0.62929151  0.24819800  1
  O  O53  1  0.43364174  0.87068884  0.74820637  1
  O  O54  1  0.46385037  0.23311062  0.52458142  1
  O  O55  1  0.46384433  0.26690006  0.02457420  1
  O  O56  1  0.53615567  0.73309994  0.97542580  1
  O  O57  1  0.53614963  0.76688938  0.47541858  1
  O  O58  1  0.56635826  0.12931116  0.25179363  1
  O  O59  1  0.56636197  0.37070849  0.75180200  1
  O  O60  1  0.56929443  0.54153120  0.27653272  1
  O  O61  1  0.56929571  0.95847080  0.77651286  1
  O  O62  1  0.68415335  0.12628823  0.79302979  1
  O  O63  1  0.68416245  0.37374275  0.29306027  1
  O  O64  1  0.67944819  0.95750688  0.27468446  1
  O  O65  1  0.67946207  0.54250245  0.77471821  1
  O  O66  1  0.71448152  0.76681708  0.57478653  1
  O  O67  1  0.71449137  0.73319379  0.07478981  1
  O  O68  1  0.78551897  0.26681578  0.57478719  1
  O  O69  1  0.78550821  0.23319493  0.07478777  1
  O  O70  1  0.82055142  0.45750690  0.27468049  1
  O  O71  1  0.82053784  0.04250391  0.77472052  1
  O  O72  1  0.81584657  0.62628922  0.79303166  1
  O  O73  1  0.81583717  0.87374344  0.29305696  1
  O  O74  1  0.93070517  0.04153261  0.27653327  1
  O  O75  1  0.93070404  0.45846896  0.77651198  1
  O  O76  1  0.93364196  0.62931218  0.25178986  1
  O  O77  1  0.93363748  0.87071020  0.75180483  1
  O  O78  1  0.96384419  0.23310096  0.97542528  1
  O  O79  1  0.96385023  0.26688989  0.47541779  1
