# generated using pymatgen
data_Li2MnPCO7
_symmetry_space_group_name_H-M   'P 1'
_cell_length_a   6.47671300
_cell_length_b   9.56070800
_cell_length_c   10.03378855
_cell_angle_alpha   62.49590522
_cell_angle_beta   90.00000000
_cell_angle_gamma   90.00000000
_symmetry_Int_Tables_number   1
_chemical_formula_structural   Li2MnPCO7
_chemical_formula_sum   'Li8 Mn4 P4 C4 O28'
_cell_volume   551.08985562
_cell_formula_units_Z   4
loop_
 _symmetry_equiv_pos_site_id
 _symmetry_equiv_pos_as_xyz
  1  'x, y, z'
loop_
 _atom_site_type_symbol
 _atom_site_label
 _atom_site_symmetry_multiplicity
 _atom_site_fract_x
 _atom_site_fract_y
 _atom_site_fract_z
 _atom_site_occupancy
  Li  Li0  1  0.28952000  0.26393900  0.73443400  1
  Li  Li1  1  0.71623100  0.26348400  0.73327700  1
  Li  Li2  1  0.71048000  0.26393900  0.23443400  1
  Li  Li3  1  0.28376900  0.26348400  0.23327700  1
  Li  Li4  1  0.78229800  0.73341500  0.76538300  1
  Li  Li5  1  0.21770200  0.73341500  0.26538300  1
  Li  Li6  1  0.99242500  0.88959000  0.94855000  1
  Li  Li7  1  0.00757500  0.88959000  0.44855000  1
  Mn  Mn8  1  0.00087300  0.33770900  0.92460600  1
  Mn  Mn9  1  0.99912700  0.33770900  0.42460600  1
  Mn  Mn10  1  0.49980300  0.67407900  0.56869900  1
  Mn  Mn11  1  0.50019700  0.67407900  0.06869900  1
  P  P12  1  0.50709300  0.41548800  0.92217300  1
  P  P13  1  0.49290700  0.41548800  0.42217300  1
  P  P14  1  0.00464100  0.58338000  0.56774900  1
  P  P15  1  0.99535900  0.58338000  0.06774900  1
  C  C16  1  0.97912400  0.04929300  0.62339100  1
  C  C17  1  0.02087600  0.04929300  0.12339100  1
  C  C18  1  0.49720000  0.95630700  0.88664900  1
  C  C19  1  0.50280000  0.95630700  0.38664900  1
  O  O20  1  0.01020700  0.07089800  0.98700900  1
  O  O21  1  0.98979300  0.07089800  0.48700900  1
  O  O22  1  0.50150800  0.09696200  0.78190000  1
  O  O23  1  0.98747400  0.18241800  0.63852800  1
  O  O24  1  0.49849200  0.09696200  0.28190000  1
  O  O25  1  0.01252600  0.18241800  0.13852800  1
  O  O26  1  0.31078800  0.33233400  0.90435100  1
  O  O27  1  0.69241100  0.31142500  0.92163600  1
  O  O28  1  0.30758900  0.31142500  0.42163600  1
  O  O29  1  0.68921200  0.33233400  0.40435100  1
  O  O30  1  0.99428000  0.41669500  0.70796300  1
  O  O31  1  0.49932100  0.43109400  0.57005000  1
  O  O32  1  0.00572000  0.41669500  0.20796300  1
  O  O33  1  0.50067900  0.43109400  0.07005000  1
  O  O34  1  0.98285100  0.55394000  0.92946200  1
  O  O35  1  0.53038600  0.58334000  0.78820800  1
  O  O36  1  0.01714900  0.55394000  0.42946200  1
  O  O37  1  0.46961400  0.58334000  0.28820800  1
  O  O38  1  0.18987100  0.68292700  0.57037900  1
  O  O39  1  0.81943300  0.68724500  0.56460600  1
  O  O40  1  0.81012900  0.68292700  0.07037900  1
  O  O41  1  0.18056700  0.68724500  0.06460600  1
  O  O42  1  0.52106000  0.83440000  0.85726400  1
  O  O43  1  0.96120700  0.91833500  0.73968400  1
  O  O44  1  0.47894000  0.83440000  0.35726400  1
  O  O45  1  0.03879300  0.91833500  0.23968400  1
  O  O46  1  0.52957900  0.91508000  0.52699300  1
  O  O47  1  0.47042100  0.91508000  0.02699300  1
