# generated using pymatgen
data_Li5Fe3(SbO5)2
_symmetry_space_group_name_H-M   'P 1'
_cell_length_a   5.41061002
_cell_length_b   8.28363166
_cell_length_c   10.59662383
_cell_angle_alpha   101.23324862
_cell_angle_beta   80.80695588
_cell_angle_gamma   70.08122872
_symmetry_Int_Tables_number   1
_chemical_formula_structural   Li5Fe3(SbO5)2
_chemical_formula_sum   'Li10 Fe6 Sb4 O20'
_cell_volume   424.59702688
_cell_formula_units_Z   2
loop_
 _symmetry_equiv_pos_site_id
 _symmetry_equiv_pos_as_xyz
  1  'x, y, z'
loop_
 _atom_site_type_symbol
 _atom_site_label
 _atom_site_symmetry_multiplicity
 _atom_site_fract_x
 _atom_site_fract_y
 _atom_site_fract_z
 _atom_site_occupancy
  Li  Li0  1  0.00098225  0.49718229  0.49647763  1
  Li  Li1  1  0.00268354  0.49804851  0.99933168  1
  Li  Li2  1  0.80694499  0.42006579  0.26196108  1
  Li  Li3  1  0.82238379  0.40658181  0.74586013  1
  Li  Li4  1  0.18853809  0.59277971  0.73565026  1
  Li  Li5  1  0.16534416  0.59294450  0.25076886  1
  Li  Li6  1  0.61531521  0.78701798  0.74124603  1
  Li  Li7  1  0.59708054  0.83098183  0.26383054  1
  Li  Li8  1  0.37637217  0.21894935  0.26231096  1
  Li  Li9  1  0.41842946  0.17759291  0.73495800  1
  Fe  Fe10  1  0.99988346  0.00494049  0.24975909  1
  Fe  Fe11  1  0.80760915  0.88656348  0.99437937  1
  Fe  Fe12  1  0.19358249  0.11402043  0.50250117  1
  Fe  Fe13  1  0.99710742  0.99627111  0.74895227  1
  Fe  Fe14  1  0.81138976  0.89108269  0.49935857  1
  Fe  Fe15  1  0.20199137  0.10133383  0.99921087  1
  Sb  Sb16  1  0.39978310  0.71235180  0.49456432  1
  Sb  Sb17  1  0.40612023  0.69667701  0.00025155  1
  Sb  Sb18  1  0.59565324  0.30089712  0.49963081  1
  Sb  Sb19  1  0.59579625  0.29676690  0.00342943  1
  O  O20  1  0.21614014  0.84138006  0.88659517  1
  O  O21  1  0.20171539  0.88045399  0.37391321  1
  O  O22  1  0.80210099  0.14051444  0.10931015  1
  O  O23  1  0.78863282  0.14866328  0.61176805  1
  O  O24  1  0.39480803  0.94719794  0.62789461  1
  O  O25  1  0.41257446  0.91957367  0.11545468  1
  O  O26  1  0.60329420  0.07011404  0.38035740  1
  O  O27  1  0.58268390  0.08009271  0.88581831  1
  O  O28  1  0.61092741  0.51722158  0.61857441  1
  O  O29  1  0.59927851  0.52935873  0.11075604  1
  O  O30  1  0.40900819  0.42542324  0.37665497  1
  O  O31  1  0.40360701  0.46182295  0.89555069  1
  O  O32  1  0.96075523  0.25619154  0.37953162  1
  O  O33  1  0.95779642  0.24205471  0.88077663  1
  O  O34  1  0.97526147  0.77165302  0.64763066  1
  O  O35  1  0.04165661  0.74910549  0.11718466  1
  O  O36  1  0.79954208  0.66845968  0.37667844  1
  O  O37  1  0.76912266  0.65552806  0.88993370  1
  O  O38  1  0.23364555  0.33721474  0.61644016  1
  O  O39  1  0.23445827  0.33492659  0.11474379  1
