# generated using pymatgen
data_Li6Mn(FeO3)2
_symmetry_space_group_name_H-M   'P 1'
_cell_length_a   3.22447477
_cell_length_b   8.36736427
_cell_length_c   11.04129476
_cell_angle_alpha   106.03715593
_cell_angle_beta   82.77531152
_cell_angle_gamma   99.91318935
_symmetry_Int_Tables_number   1
_chemical_formula_structural   Li6Mn(FeO3)2
_chemical_formula_sum   'Li12 Mn2 Fe4 O12'
_cell_volume   281.06629527
_cell_formula_units_Z   2
loop_
 _symmetry_equiv_pos_site_id
 _symmetry_equiv_pos_as_xyz
  1  'x, y, z'
loop_
 _atom_site_type_symbol
 _atom_site_label
 _atom_site_symmetry_multiplicity
 _atom_site_fract_x
 _atom_site_fract_y
 _atom_site_fract_z
 _atom_site_occupancy
  Li  Li0  1  0.79163600  0.79317900  0.19216800  1
  Li  Li1  1  0.29321500  0.29393100  0.69186000  1
  Li  Li2  1  0.80536000  0.44691500  0.82455300  1
  Li  Li3  1  0.30603200  0.94772100  0.32408900  1
  Li  Li4  1  0.65357700  0.61587500  0.32570200  1
  Li  Li5  1  0.15579400  0.11651900  0.82559900  1
  Li  Li6  1  0.97072800  0.62955400  0.69082000  1
  Li  Li7  1  0.47377400  0.13033000  0.19115300  1
  Li  Li8  1  0.13995900  0.45925100  0.19194400  1
  Li  Li9  1  0.64065000  0.95872600  0.69251500  1
  Li  Li10  1  0.47372500  0.78391100  0.82613200  1
  Li  Li11  1  0.97607100  0.28451700  0.32677700  1
  Mn  Mn12  1  0.80723700  0.11907700  0.50612000  1
  Mn  Mn13  1  0.30553000  0.62082300  0.00569300  1
  Fe  Fe14  1  0.97369500  0.95691800  0.01091900  1
  Fe  Fe15  1  0.47131500  0.45740800  0.51087900  1
  Fe  Fe16  1  0.64232200  0.28748100  0.00952600  1
  Fe  Fe17  1  0.14226000  0.78890700  0.50920200  1
  O  O18  1  0.85575300  0.38379000  0.62857400  1
  O  O19  1  0.35459200  0.88428000  0.12893300  1
  O  O20  1  0.23949200  0.35772100  0.88337400  1
  O  O21  1  0.73974700  0.85780700  0.38288300  1
  O  O22  1  0.70508400  0.54500900  0.13044100  1
  O  O23  1  0.20591100  0.04504000  0.63099800  1
  O  O24  1  0.90266500  0.69284100  0.88539300  1
  O  O25  1  0.40473800  0.19327900  0.38627100  1
  O  O26  1  0.04192500  0.21883000  0.13279900  1
  O  O27  1  0.53968900  0.71870200  0.63207100  1
  O  O28  1  0.08976600  0.53183400  0.39179900  1
  O  O29  1  0.59323300  0.03147100  0.89149900  1
