# generated using pymatgen
data_Li4MnCo2O7
_symmetry_space_group_name_H-M   'P 1'
_cell_length_a   5.89666000
_cell_length_b   6.51843629
_cell_length_c   7.68062414
_cell_angle_alpha   65.31350713
_cell_angle_beta   68.20040785
_cell_angle_gamma   75.94560817
_symmetry_Int_Tables_number   1
_chemical_formula_structural   Li4MnCo2O7
_chemical_formula_sum   'Li8 Mn2 Co4 O14'
_cell_volume   247.70610878
_cell_formula_units_Z   2
loop_
 _symmetry_equiv_pos_site_id
 _symmetry_equiv_pos_as_xyz
  1  'x, y, z'
loop_
 _atom_site_type_symbol
 _atom_site_label
 _atom_site_symmetry_multiplicity
 _atom_site_fract_x
 _atom_site_fract_y
 _atom_site_fract_z
 _atom_site_occupancy
  Li  Li0  1  0.64198900  0.28571000  0.07383600  1
  Li  Li1  1  0.92836300  0.86050400  0.21834500  1
  Li  Li2  1  0.20663000  0.41558000  0.36858300  1
  Li  Li3  1  0.50000000  0.00000000  0.50000000  1
  Li  Li4  1  0.79337000  0.58442000  0.63141700  1
  Li  Li5  1  0.07163700  0.13949600  0.78165500  1
  Li  Li6  1  0.35801100  0.71429000  0.92616400  1
  Li  Li7  1  0.00000000  0.00000000  0.50000000  1
  Mn  Mn8  1  0.85979600  0.71512500  0.92496800  1
  Mn  Mn9  1  0.14020400  0.28487500  0.07503200  1
  Co  Co10  1  0.41559900  0.85726400  0.22662600  1
  Co  Co11  1  0.71389300  0.43002300  0.35866000  1
  Co  Co12  1  0.28610700  0.56997700  0.64134000  1
  Co  Co13  1  0.58440100  0.14273600  0.77337400  1
  O  O14  1  0.96143500  0.43396400  0.87289300  1
  O  O15  1  0.25191800  0.01852400  0.00345700  1
  O  O16  1  0.57087500  0.58193500  0.13983800  1
  O  O17  1  0.84024600  0.16908600  0.27720200  1
  O  O18  1  0.14030100  0.71007300  0.42490700  1
  O  O19  1  0.38649300  0.29670900  0.57723200  1
  O  O20  1  0.67881000  0.84682000  0.73445000  1
  O  O21  1  0.32119000  0.15318000  0.26555000  1
  O  O22  1  0.61350700  0.70329100  0.42276800  1
  O  O23  1  0.85969900  0.28992700  0.57509300  1
  O  O24  1  0.15975400  0.83091400  0.72279800  1
  O  O25  1  0.42912500  0.41806500  0.86016200  1
  O  O26  1  0.74808200  0.98147600  0.99654300  1
  O  O27  1  0.03856500  0.56603600  0.12710700  1
