# generated using pymatgen
data_LiZnBO3
_symmetry_space_group_name_H-M   'P 1'
_cell_length_a   5.15353417
_cell_length_b   5.15353417
_cell_length_c   6.18122239
_cell_angle_alpha   65.30523061
_cell_angle_beta   65.30523061
_cell_angle_gamma   59.56007449
_symmetry_Int_Tables_number   1
_chemical_formula_structural   LiZnBO3
_chemical_formula_sum   'Li2 Zn2 B2 O6'
_cell_volume   124.06189640
_cell_formula_units_Z   2
loop_
 _symmetry_equiv_pos_site_id
 _symmetry_equiv_pos_as_xyz
  1  'x, y, z'
loop_
 _atom_site_type_symbol
 _atom_site_label
 _atom_site_symmetry_multiplicity
 _atom_site_fract_x
 _atom_site_fract_y
 _atom_site_fract_z
 _atom_site_occupancy
  Li  Li0  1  0.93455900  0.77088800  0.68874200  1
  Li  Li1  1  0.77088800  0.93455900  0.18874200  1
  Zn  Zn2  1  0.27703700  0.10965000  0.67032300  1
  Zn  Zn3  1  0.10965000  0.27703700  0.17032300  1
  B  B4  1  0.41410400  0.59126800  0.25130700  1
  B  B5  1  0.59126800  0.41410400  0.75130700  1
  O  O6  1  0.13620400  0.85315700  0.26911600  1
  O  O7  1  0.85315700  0.13620400  0.76911600  1
  O  O8  1  0.69072600  0.59841100  0.21431600  1
  O  O9  1  0.40034200  0.30485400  0.29119700  1
  O  O10  1  0.30485400  0.40034200  0.79119700  1
  O  O11  1  0.59841100  0.69072600  0.71431600  1
