# generated using pymatgen
data_Li9Mn2Co5O16
_symmetry_space_group_name_H-M   'P 1'
_cell_length_a   6.56838600
_cell_length_b   6.65212283
_cell_length_c   7.73194861
_cell_angle_alpha   74.94713201
_cell_angle_beta   65.45957603
_cell_angle_gamma   71.61321744
_symmetry_Int_Tables_number   1
_chemical_formula_structural   Li9Mn2Co5O16
_chemical_formula_sum   'Li9 Mn2 Co5 O16'
_cell_volume   288.37159139
_cell_formula_units_Z   1
loop_
 _symmetry_equiv_pos_site_id
 _symmetry_equiv_pos_as_xyz
  1  'x, y, z'
loop_
 _atom_site_type_symbol
 _atom_site_label
 _atom_site_symmetry_multiplicity
 _atom_site_fract_x
 _atom_site_fract_y
 _atom_site_fract_z
 _atom_site_occupancy
  Li  Li0  1  0.06733000  0.43884900  0.80901500  1
  Li  Li1  1  0.68725100  0.80793900  0.93559800  1
  Li  Li2  1  0.31385500  0.18957200  0.06123500  1
  Li  Li3  1  0.94642400  0.56137600  0.18005200  1
  Li  Li4  1  0.19153200  0.31130300  0.43748500  1
  Li  Li5  1  0.80241600  0.68848600  0.57461200  1
  Li  Li6  1  0.43887600  0.05743600  0.68710700  1
  Li  Li7  1  0.55565800  0.93980700  0.31437800  1
  Li  Li8  1  0.37628200  0.62718300  0.87343800  1
  Mn  Mn9  1  0.99794400  0.99778600  0.00096800  1
  Mn  Mn10  1  0.87650400  0.12429400  0.37422700  1
  Co  Co11  1  0.74115800  0.26397700  0.75152000  1
  Co  Co12  1  0.13447500  0.86913800  0.63018900  1
  Co  Co13  1  0.49963500  0.50049100  0.50134300  1
  Co  Co14  1  0.25631100  0.74730000  0.24680000  1
  Co  Co15  1  0.60855500  0.38437700  0.12081200  1
  O  O16  1  0.07835400  0.14435200  0.73926000  1
  O  O17  1  0.72532100  0.51601800  0.84656700  1
  O  O18  1  0.31552600  0.90535700  0.98920300  1
  O  O19  1  0.95430500  0.25955000  0.10574200  1
  O  O20  1  0.19634900  0.02925500  0.34980000  1
  O  O21  1  0.84270400  0.38548600  0.46425900  1
  O  O22  1  0.45236900  0.77993700  0.58950900  1
  O  O23  1  0.58732200  0.64472200  0.22695300  1
  O  O24  1  0.02580100  0.74652500  0.91132700  1
  O  O25  1  0.67450600  0.10023800  0.02467700  1
  O  O26  1  0.29411800  0.46579200  0.15969600  1
  O  O27  1  0.91147400  0.86714700  0.27269200  1
  O  O28  1  0.16451200  0.60454600  0.51906300  1
  O  O29  1  0.80210700  0.97880600  0.63683700  1
  O  O30  1  0.42632600  0.34357400  0.76362200  1
  O  O31  1  0.55470100  0.21938000  0.40201100  1
