# generated using pymatgen
data_Li9Mn2Co5O16
_symmetry_space_group_name_H-M   'P 1'
_cell_length_a   3.02523300
_cell_length_b   9.91016951
_cell_length_c   10.21325548
_cell_angle_alpha   73.44969125
_cell_angle_beta   82.54637535
_cell_angle_gamma   87.11476521
_symmetry_Int_Tables_number   1
_chemical_formula_structural   Li9Mn2Co5O16
_chemical_formula_sum   'Li9 Mn2 Co5 O16'
_cell_volume   291.00441594
_cell_formula_units_Z   1
loop_
 _symmetry_equiv_pos_site_id
 _symmetry_equiv_pos_as_xyz
  1  'x, y, z'
loop_
 _atom_site_type_symbol
 _atom_site_label
 _atom_site_symmetry_multiplicity
 _atom_site_fract_x
 _atom_site_fract_y
 _atom_site_fract_z
 _atom_site_occupancy
  Li  Li0  1  0.94036800  0.68461400  0.12263300  1
  Li  Li1  1  0.44083900  0.18940900  0.12599000  1
  Li  Li2  1  0.30758900  0.56246900  0.37762000  1
  Li  Li3  1  0.81017300  0.06295100  0.37626500  1
  Li  Li4  1  0.68525300  0.44286800  0.62633600  1
  Li  Li5  1  0.18343900  0.93645400  0.62335600  1
  Li  Li6  1  0.06743700  0.31431400  0.87590700  1
  Li  Li7  1  0.56487900  0.80563800  0.87266500  1
  Li  Li8  1  0.12455300  0.62383400  0.75092700  1
  Mn  Mn9  1  0.00411800  0.00051900  0.99692300  1
  Mn  Mn10  1  0.36984500  0.87378100  0.25356500  1
  Co  Co11  1  0.50522600  0.50622700  0.99069700  1
  Co  Co12  1  0.87447500  0.37558600  0.24826700  1
  Co  Co13  1  0.73539800  0.74251400  0.51250700  1
  Co  Co14  1  0.24584300  0.25089200  0.50039900  1
  Co  Co15  1  0.63420900  0.12568400  0.74709800  1
  O  O16  1  0.43301100  0.84876400  0.06867400  1
  O  O17  1  0.93497900  0.35271200  0.06795300  1
  O  O18  1  0.80838100  0.72533900  0.32626800  1
  O  O19  1  0.34831200  0.22542000  0.31844000  1
  O  O20  1  0.19048500  0.60538300  0.55943600  1
  O  O21  1  0.73460800  0.10496900  0.56775600  1
  O  O22  1  0.58220500  0.46838400  0.83299800  1
  O  O23  1  0.05573800  0.97689700  0.81296500  1
  O  O24  1  0.40108900  0.52267500  0.17553400  1
  O  O25  1  0.94071800  0.02620800  0.18213800  1
  O  O26  1  0.77691000  0.40128600  0.42905600  1
  O  O27  1  0.30763300  0.89632100  0.43609000  1
  O  O28  1  0.20802000  0.27505400  0.68191400  1
  O  O29  1  0.66810300  0.78041100  0.66965200  1
  O  O30  1  0.56525700  0.14916100  0.92799100  1
  O  O31  1  0.05090600  0.64326400  0.94197800  1
