# generated using pymatgen
data_Li2MnV(PO4)3
_symmetry_space_group_name_H-M   'P 1'
_cell_length_a   8.95368994
_cell_length_b   8.58326878
_cell_length_c   8.31086252
_cell_angle_alpha   60.36597216
_cell_angle_beta   63.64554357
_cell_angle_gamma   93.71794614
_symmetry_Int_Tables_number   1
_chemical_formula_structural   Li2MnV(PO4)3
_chemical_formula_sum   'Li4 Mn2 V2 P6 O24'
_cell_volume   463.12623639
_cell_formula_units_Z   2
loop_
 _symmetry_equiv_pos_site_id
 _symmetry_equiv_pos_as_xyz
  1  'x, y, z'
loop_
 _atom_site_type_symbol
 _atom_site_label
 _atom_site_symmetry_multiplicity
 _atom_site_fract_x
 _atom_site_fract_y
 _atom_site_fract_z
 _atom_site_occupancy
  Li  Li0  1  0.14949200  0.07836400  0.58477000  1
  Li  Li1  1  0.57868600  0.69237400  0.72441600  1
  Li  Li2  1  0.91592800  0.97201200  0.29720100  1
  Li  Li3  1  0.85089100  0.25794600  0.82472100  1
  Mn  Mn4  1  0.05585700  0.36573800  0.29183000  1
  Mn  Mn5  1  0.94863600  0.64619400  0.70202500  1
  V  V6  1  0.55972200  0.85053900  0.29440000  1
  V  V7  1  0.43023400  0.15162200  0.71254900  1
  P  P8  1  0.25144600  0.03050300  0.21919400  1
  P  P9  1  0.24378700  0.45267600  0.50603000  1
  P  P10  1  0.25130100  0.75845100  0.78264400  1
  P  P11  1  0.74927200  0.25288300  0.21871600  1
  P  P12  1  0.75331100  0.54384800  0.49330600  1
  P  P13  1  0.74288500  0.97082400  0.78541600  1
  O  O14  1  0.07773200  0.84159800  0.38495800  1
  O  O15  1  0.26916000  0.11189500  0.99622700  1
  O  O16  1  0.22048000  0.16835100  0.28508200  1
  O  O17  1  0.22822100  0.49308800  0.31287800  1
  O  O18  1  0.08260200  0.45014400  0.68363500  1
  O  O19  1  0.11245300  0.79299400  0.71802900  1
  O  O20  1  0.41778700  0.98288300  0.20779800  1
  O  O21  1  0.26926800  0.25828100  0.61299100  1
  O  O22  1  0.41798700  0.61551700  0.40309100  1
  O  O23  1  0.20549300  0.55356700  0.97051100  1
  O  O24  1  0.27484400  0.90744000  0.83115000  1
  O  O25  1  0.43688400  0.80546000  0.58700300  1
  O  O26  1  0.57172400  0.20248600  0.41814200  1
  O  O27  1  0.73038700  0.10513600  0.16140300  1
  O  O28  1  0.80285100  0.45627300  0.02061500  1
  O  O29  1  0.56888100  0.38830700  0.61098800  1
  O  O30  1  0.72443000  0.74090900  0.40689200  1
  O  O31  1  0.58180100  0.02542200  0.79321600  1
  O  O32  1  0.89792200  0.21967800  0.26888400  1
  O  O33  1  0.90165600  0.54014700  0.31634600  1
  O  O34  1  0.77384200  0.49828600  0.68865900  1
  O  O35  1  0.76530200  0.82872700  0.72357000  1
  O  O36  1  0.72229000  0.89355100  0.01041200  1
  O  O37  1  0.91877900  0.15850000  0.62235900  1
