# generated using pymatgen
data_Li4MnCo2O7
_symmetry_space_group_name_H-M   'P 1'
_cell_length_a   6.52683021
_cell_length_b   6.52683021
_cell_length_c   14.39111269
_cell_angle_alpha   70.12456421
_cell_angle_beta   70.12456421
_cell_angle_gamma   25.77504372
_symmetry_Int_Tables_number   1
_chemical_formula_structural   Li4MnCo2O7
_chemical_formula_sum   'Li8 Mn2 Co4 O14'
_cell_volume   249.84172318
_cell_formula_units_Z   2
loop_
 _symmetry_equiv_pos_site_id
 _symmetry_equiv_pos_as_xyz
  1  'x, y, z'
loop_
 _atom_site_type_symbol
 _atom_site_label
 _atom_site_symmetry_multiplicity
 _atom_site_fract_x
 _atom_site_fract_y
 _atom_site_fract_z
 _atom_site_occupancy
  Li  Li0  1  0.27617100  0.27617100  0.07677700  1
  Li  Li1  1  0.85990500  0.85990500  0.21694800  1
  Li  Li2  1  0.43497700  0.43497700  0.34623100  1
  Li  Li3  1  0.71523500  0.71523500  0.93691900  1
  Li  Li4  1  0.14005600  0.14005600  0.79161000  1
  Li  Li5  1  0.00181000  0.00181000  0.49658400  1
  Li  Li6  1  0.56996200  0.56996200  0.64224100  1
  Li  Li7  1  0.57362600  0.57362600  0.13984600  1
  Mn  Mn8  1  0.00318400  0.00318400  0.00099400  1
  Mn  Mn9  1  0.28308600  0.28308600  0.57299400  1
  Co  Co10  1  0.13785200  0.13785200  0.27400000  1
  Co  Co11  1  0.70898500  0.70898500  0.42097200  1
  Co  Co12  1  0.85959900  0.85959900  0.71874400  1
  Co  Co13  1  0.42935000  0.42935000  0.85754600  1
  O  O14  1  0.43674800  0.43674800  0.08964000  1
  O  O15  1  0.00618300  0.00618300  0.25367600  1
  O  O16  1  0.57701300  0.57701300  0.39486300  1
  O  O17  1  0.87251200  0.87251200  0.95131700  1
  O  O18  1  0.29689600  0.29689600  0.81801500  1
  O  O19  1  0.15352600  0.15352600  0.53572400  1
  O  O20  1  0.72217800  0.72217800  0.66898300  1
  O  O21  1  0.13302600  0.13302600  0.02931700  1
  O  O22  1  0.71407400  0.71407400  0.18431900  1
  O  O23  1  0.28203300  0.28203300  0.32799000  1
  O  O24  1  0.55854000  0.55854000  0.89948900  1
  O  O25  1  0.99290500  0.99290500  0.76199900  1
  O  O26  1  0.84362500  0.84362500  0.48025200  1
  O  O27  1  0.41694200  0.41694200  0.61201100  1
