# generated using pymatgen
data_Rb2LiFe(MoO4)3
_symmetry_space_group_name_H-M   'P 1'
_cell_length_a   5.95089400
_cell_length_b   8.68238200
_cell_length_c   25.01620000
_cell_angle_alpha   90.00000000
_cell_angle_beta   90.00000000
_cell_angle_gamma   90.00000000
_symmetry_Int_Tables_number   1
_chemical_formula_structural   Rb2LiFe(MoO4)3
_chemical_formula_sum   'Rb8 Li4 Fe4 Mo12 O48'
_cell_volume   1292.53539428
_cell_formula_units_Z   4
loop_
 _symmetry_equiv_pos_site_id
 _symmetry_equiv_pos_as_xyz
  1  'x, y, z'
loop_
 _atom_site_type_symbol
 _atom_site_label
 _atom_site_symmetry_multiplicity
 _atom_site_fract_x
 _atom_site_fract_y
 _atom_site_fract_z
 _atom_site_occupancy
  Rb  Rb0  1  0.75000000  0.87605800  0.21044800  1
  Rb  Rb1  1  0.75000000  0.62394200  0.71044800  1
  Rb  Rb2  1  0.25000000  0.12394200  0.78955200  1
  Rb  Rb3  1  0.25000000  0.37605800  0.28955200  1
  Rb  Rb4  1  0.75000000  0.45137400  0.91884900  1
  Rb  Rb5  1  0.75000000  0.04862600  0.41884900  1
  Rb  Rb6  1  0.25000000  0.54862600  0.08115100  1
  Rb  Rb7  1  0.25000000  0.95137400  0.58115100  1
  Li  Li8  1  0.25000000  0.68600900  0.20775800  1
  Li  Li9  1  0.25000000  0.81399100  0.70775800  1
  Li  Li10  1  0.75000000  0.31399100  0.79224200  1
  Li  Li11  1  0.75000000  0.18600900  0.29224200  1
  Fe  Fe12  1  0.75000000  0.19852400  0.05882500  1
  Fe  Fe13  1  0.75000000  0.30147600  0.55882500  1
  Fe  Fe14  1  0.25000000  0.80147600  0.94117500  1
  Fe  Fe15  1  0.25000000  0.69852400  0.44117500  1
  Mo  Mo16  1  0.25000000  0.20132500  0.97992900  1
  Mo  Mo17  1  0.25000000  0.29867500  0.47992900  1
  Mo  Mo18  1  0.75000000  0.79867500  0.02007100  1
  Mo  Mo19  1  0.75000000  0.70132500  0.52007100  1
  Mo  Mo20  1  0.75000000  0.43865400  0.17776300  1
  Mo  Mo21  1  0.75000000  0.06134600  0.67776300  1
  Mo  Mo22  1  0.25000000  0.56134600  0.82223700  1
  Mo  Mo23  1  0.25000000  0.93865400  0.32223700  1
  Mo  Mo24  1  0.25000000  0.06191700  0.13911200  1
  Mo  Mo25  1  0.25000000  0.43808300  0.63911200  1
  Mo  Mo26  1  0.75000000  0.93808300  0.86088800  1
  Mo  Mo27  1  0.75000000  0.56191700  0.36088800  1
  O  O28  1  0.25000000  0.24809600  0.91190500  1
  O  O29  1  0.25000000  0.25190400  0.41190500  1
  O  O30  1  0.75000000  0.75190400  0.08809500  1
  O  O31  1  0.75000000  0.74809600  0.58809500  1
  O  O32  1  0.25000000  0.99627200  0.98784000  1
  O  O33  1  0.25000000  0.50372800  0.48784000  1
  O  O34  1  0.75000000  0.00372800  0.01216000  1
  O  O35  1  0.75000000  0.49627200  0.51216000  1
  O  O36  1  0.99750600  0.28772100  0.00970600  1
  O  O37  1  0.50249400  0.21227900  0.50970600  1
  O  O38  1  0.49750600  0.71227900  0.99029400  1
  O  O39  1  0.00249400  0.78772100  0.49029400  1
  O  O40  1  0.00249400  0.71227900  0.99029400  1
  O  O41  1  0.49750600  0.78772100  0.49029400  1
  O  O42  1  0.50249400  0.28772100  0.00970600  1
  O  O43  1  0.99750600  0.21227900  0.50970600  1
  O  O44  1  0.75000000  0.27596200  0.22082900  1
  O  O45  1  0.75000000  0.22403800  0.72082900  1
  O  O46  1  0.25000000  0.72403800  0.77917100  1
  O  O47  1  0.25000000  0.77596200  0.27917100  1
  O  O48  1  0.50650700  0.55318500  0.19135500  1
  O  O49  1  0.99349300  0.94681500  0.69135500  1
  O  O50  1  0.00650700  0.44681500  0.80864500  1
  O  O51  1  0.49349300  0.05318500  0.30864500  1
  O  O52  1  0.49349300  0.44681500  0.80864500  1
  O  O53  1  0.00650700  0.05318500  0.30864500  1
  O  O54  1  0.99349300  0.55318500  0.19135500  1
  O  O55  1  0.50650700  0.94681500  0.69135500  1
  O  O56  1  0.75000000  0.38224900  0.10670800  1
  O  O57  1  0.75000000  0.11775100  0.60670800  1
  O  O58  1  0.25000000  0.61775100  0.89329200  1
  O  O59  1  0.25000000  0.88224900  0.39329200  1
  O  O60  1  0.25000000  0.18008800  0.19577300  1
  O  O61  1  0.25000000  0.31991200  0.69577300  1
  O  O62  1  0.75000000  0.81991200  0.80422700  1
  O  O63  1  0.75000000  0.68008800  0.30422700  1
  O  O64  1  0.25000000  0.86532600  0.16111300  1
  O  O65  1  0.25000000  0.63467400  0.66111300  1
  O  O66  1  0.75000000  0.13467400  0.83888700  1
  O  O67  1  0.75000000  0.36532600  0.33888700  1
  O  O68  1  0.50463800  0.10199800  0.10164800  1
  O  O69  1  0.99536200  0.39800200  0.60164800  1
  O  O70  1  0.00463800  0.89800200  0.89835200  1
  O  O71  1  0.49536200  0.60199800  0.39835200  1
  O  O72  1  0.49536200  0.89800200  0.89835200  1
  O  O73  1  0.00463800  0.60199800  0.39835200  1
  O  O74  1  0.99536200  0.10199800  0.10164800  1
  O  O75  1  0.50463800  0.39800200  0.60164800  1
