# generated using pymatgen
data_Li9Mn2Co5O16
_symmetry_space_group_name_H-M   'P 1'
_cell_length_a   9.81055661
_cell_length_b   9.81055661
_cell_length_c   10.34134944
_cell_angle_alpha   83.14880003
_cell_angle_beta   83.14880003
_cell_angle_gamma   16.91166988
_symmetry_Int_Tables_number   1
_chemical_formula_structural   Li9Mn2Co5O16
_chemical_formula_sum   'Li9 Mn2 Co5 O16'
_cell_volume   287.42350116
_cell_formula_units_Z   1
loop_
 _symmetry_equiv_pos_site_id
 _symmetry_equiv_pos_as_xyz
  1  'x, y, z'
loop_
 _atom_site_type_symbol
 _atom_site_label
 _atom_site_symmetry_multiplicity
 _atom_site_fract_x
 _atom_site_fract_y
 _atom_site_fract_z
 _atom_site_occupancy
  Li  Li0  1  0.37060400  0.37060400  0.93639700  1
  Li  Li1  1  0.12899300  0.12899300  0.80250100  1
  Li  Li2  1  0.86745100  0.86745100  0.66773900  1
  Li  Li3  1  0.63326800  0.63326800  0.56365500  1
  Li  Li4  1  0.37402800  0.37402800  0.44215900  1
  Li  Li5  1  0.13118900  0.13118900  0.32490400  1
  Li  Li6  1  0.87021900  0.87021900  0.19488100  1
  Li  Li7  1  0.62737200  0.62737200  0.06317700  1
  Li  Li8  1  0.24829600  0.24829600  0.62507500  1
  Mn  Mn9  1  0.99768900  0.99768900  0.00000600  1
  Mn  Mn10  1  0.74678300  0.74678300  0.86673200  1
  Co  Co11  1  0.49955900  0.49955900  0.74796800  1
  Co  Co12  1  0.00262300  0.00262300  0.50196100  1
  Co  Co13  1  0.75728300  0.75728300  0.39370500  1
  Co  Co14  1  0.50073900  0.50073900  0.25154400  1
  Co  Co15  1  0.24826600  0.24826600  0.12801300  1
  O  O16  1  0.44074600  0.44074600  0.08074800  1
  O  O17  1  0.19245200  0.19245200  0.95811700  1
  O  O18  1  0.94665200  0.94665200  0.85134000  1
  O  O19  1  0.69254200  0.69254200  0.73244200  1
  O  O20  1  0.44200700  0.44200700  0.58832800  1
  O  O21  1  0.19395300  0.19395300  0.46153900  1
  O  O22  1  0.94633900  0.94633900  0.33529000  1
  O  O23  1  0.69189500  0.69189500  0.20659600  1
  O  O24  1  0.30629500  0.30629500  0.79295800  1
  O  O25  1  0.05738000  0.05738000  0.66062500  1
  O  O26  1  0.81211300  0.81211300  0.52163700  1
  O  O27  1  0.55902200  0.55902200  0.40941500  1
  O  O28  1  0.30716200  0.30716200  0.28174900  1
  O  O29  1  0.05073300  0.05073300  0.15293200  1
  O  O30  1  0.80056800  0.80056800  0.03261500  1
  O  O31  1  0.55577900  0.55577900  0.92325400  1
