# generated using pymatgen
data_Li2FeSiO5
_symmetry_space_group_name_H-M   'P 1'
_cell_length_a   4.51040003
_cell_length_b   6.36383100
_cell_length_c   13.03491008
_cell_angle_alpha   90.00165906
_cell_angle_beta   90.01256874
_cell_angle_gamma   90.00018787
_symmetry_Int_Tables_number   1
_chemical_formula_structural   Li2FeSiO5
_chemical_formula_sum   'Li8 Fe4 Si4 O20'
_cell_volume   374.14653538
_cell_formula_units_Z   4
loop_
 _symmetry_equiv_pos_site_id
 _symmetry_equiv_pos_as_xyz
  1  'x, y, z'
loop_
 _atom_site_type_symbol
 _atom_site_label
 _atom_site_symmetry_multiplicity
 _atom_site_fract_x
 _atom_site_fract_y
 _atom_site_fract_z
 _atom_site_occupancy
  Li  Li0  1  0.99998100  0.00022300  0.00003600  1
  Li  Li1  1  0.00007300  0.99983700  0.49997000  1
  Li  Li2  1  0.00008900  0.00003800  0.24998500  1
  Li  Li3  1  0.00000000  0.99995500  0.74998500  1
  Li  Li4  1  0.00009400  0.49995300  0.24998600  1
  Li  Li5  1  0.00000800  0.50003900  0.74998600  1
  Li  Li6  1  0.99999600  0.49977100  0.00003600  1
  Li  Li7  1  0.00007100  0.50015600  0.49996700  1
  Fe  Fe8  1  0.60139700  0.25000200  0.62503000  1
  Fe  Fe9  1  0.39860700  0.75000500  0.87498600  1
  Fe  Fe10  1  0.60109600  0.25001400  0.12501900  1
  Fe  Fe11  1  0.39864500  0.74998800  0.37495500  1
  Si  Si12  1  0.52482100  0.24999900  0.37502200  1
  Si  Si13  1  0.52474000  0.25000500  0.87498100  1
  Si  Si14  1  0.47521300  0.75000500  0.12497600  1
  Si  Si15  1  0.47521600  0.75000000  0.62502900  1
  O  O16  1  0.21380500  0.24996900  0.12475700  1
  O  O17  1  0.21427200  0.24996100  0.62486000  1
  O  O18  1  0.78612600  0.75002800  0.37523800  1
  O  O19  1  0.78577000  0.75004500  0.87513200  1
  O  O20  1  0.29845000  0.04546100  0.37497200  1
  O  O21  1  0.29821900  0.04557400  0.87489800  1
  O  O22  1  0.73607100  0.24998000  0.27322900  1
  O  O23  1  0.73592100  0.24998800  0.77310200  1
  O  O24  1  0.73569200  0.25002700  0.47698800  1
  O  O25  1  0.73574900  0.25003400  0.97684300  1
  O  O26  1  0.29840700  0.45451900  0.37495200  1
  O  O27  1  0.29816900  0.45440700  0.87486900  1
  O  O28  1  0.70162700  0.54548500  0.12503600  1
  O  O29  1  0.70180300  0.54559700  0.62514000  1
  O  O30  1  0.26433800  0.74996900  0.02301100  1
  O  O31  1  0.26414200  0.74996300  0.52317700  1
  O  O32  1  0.26392200  0.75001200  0.22678000  1
  O  O33  1  0.26415500  0.75001300  0.72693800  1
  O  O34  1  0.70157700  0.95454500  0.12501700  1
  O  O35  1  0.70174200  0.95443700  0.62511000  1
