# generated using pymatgen
data_Li4Co3O7
_symmetry_space_group_name_H-M   'P 1'
_cell_length_a   2.87252300
_cell_length_b   8.32099466
_cell_length_c   10.54087984
_cell_angle_alpha   101.80666449
_cell_angle_beta   95.82937670
_cell_angle_gamma   89.02584845
_symmetry_Int_Tables_number   1
_chemical_formula_structural   Li4Co3O7
_chemical_formula_sum   'Li8 Co6 O14'
_cell_volume   245.34317772
_cell_formula_units_Z   2
loop_
 _symmetry_equiv_pos_site_id
 _symmetry_equiv_pos_as_xyz
  1  'x, y, z'
loop_
 _atom_site_type_symbol
 _atom_site_label
 _atom_site_symmetry_multiplicity
 _atom_site_fract_x
 _atom_site_fract_y
 _atom_site_fract_z
 _atom_site_occupancy
  Li  Li0  1  0.28400400  0.14411200  0.56969600  1
  Li  Li1  1  0.56819100  0.30042700  0.13774400  1
  Li  Li2  1  0.86965700  0.42578400  0.72023100  1
  Li  Li3  1  0.71599600  0.85588800  0.43030400  1
  Li  Li4  1  0.00000000  0.00000000  0.00000000  1
  Li  Li5  1  0.13034300  0.57421600  0.27976900  1
  Li  Li6  1  0.43180900  0.69957300  0.86225600  1
  Li  Li7  1  0.00000000  0.50000000  0.00000000  1
  Co  Co8  1  0.42557500  0.22548200  0.86068200  1
  Co  Co9  1  0.57442500  0.77451800  0.13931800  1
  Co  Co10  1  0.71245000  0.35726700  0.42531400  1
  Co  Co11  1  0.28755000  0.64273300  0.57468600  1
  Co  Co12  1  0.86101300  0.93248500  0.71754600  1
  Co  Co13  1  0.13898700  0.06751500  0.28245400  1
  O  O14  1  0.87599600  0.18084700  0.73175700  1
  O  O15  1  0.12281700  0.31746400  0.28831700  1
  O  O16  1  0.42957100  0.43963300  0.85609200  1
  O  O17  1  0.27559000  0.89528600  0.58212600  1
  O  O18  1  0.55755800  0.01895000  0.14889000  1
  O  O19  1  0.70273400  0.60880300  0.44005200  1
  O  O20  1  0.01555900  0.75493100  0.01688700  1
  O  O21  1  0.72441000  0.10471400  0.41787400  1
  O  O22  1  0.98444100  0.24506900  0.98311300  1
  O  O23  1  0.29726600  0.39119700  0.55994800  1
  O  O24  1  0.12400400  0.81915300  0.26824300  1
  O  O25  1  0.44244200  0.98105000  0.85111000  1
  O  O26  1  0.57042900  0.56036700  0.14390800  1
  O  O27  1  0.87718300  0.68253600  0.71168300  1
