# generated using pymatgen
data_Li7Mn2(CoO4)3
_symmetry_space_group_name_H-M   'P 1'
_cell_length_a   7.76888430
_cell_length_b   7.76888430
_cell_length_c   9.90811884
_cell_angle_alpha   80.07107167
_cell_angle_beta   80.07107167
_cell_angle_gamma   21.52272110
_symmetry_Int_Tables_number   1
_chemical_formula_structural   Li7Mn2(CoO4)3
_chemical_formula_sum   'Li7 Mn2 Co3 O12'
_cell_volume   215.98645701
_cell_formula_units_Z   1
loop_
 _symmetry_equiv_pos_site_id
 _symmetry_equiv_pos_as_xyz
  1  'x, y, z'
loop_
 _atom_site_type_symbol
 _atom_site_label
 _atom_site_symmetry_multiplicity
 _atom_site_fract_x
 _atom_site_fract_y
 _atom_site_fract_z
 _atom_site_occupancy
  Li  Li0  1  0.07761100  0.07761100  0.26973100  1
  Li  Li1  1  0.25314500  0.25314500  0.74390900  1
  Li  Li2  1  0.41471000  0.41471000  0.25823200  1
  Li  Li3  1  0.58377300  0.58377300  0.74061800  1
  Li  Li4  1  0.74744500  0.74744500  0.25684100  1
  Li  Li5  1  0.92133200  0.92133200  0.72865800  1
  Li  Li6  1  0.50011500  0.50011500  0.50242600  1
  Mn  Mn7  1  0.00016300  0.00016300  0.99810300  1
  Mn  Mn8  1  0.16303100  0.16303100  0.50411100  1
  Co  Co9  1  0.33093600  0.33093600  0.99672800  1
  Co  Co10  1  0.67005700  0.67005700  0.00602500  1
  Co  Co11  1  0.84592700  0.84592700  0.49194900  1
  O  O12  1  0.12095000  0.12095000  0.89412500  1
  O  O13  1  0.28693300  0.28693300  0.39113200  1
  O  O14  1  0.46690800  0.46690800  0.88541400  1
  O  O15  1  0.63014700  0.63014700  0.39053000  1
  O  O16  1  0.78916100  0.78916100  0.88471300  1
  O  O17  1  0.95099900  0.95099900  0.37540600  1
  O  O18  1  0.05161600  0.05161600  0.61658500  1
  O  O19  1  0.20359600  0.20359600  0.12474300  1
  O  O20  1  0.36999700  0.36999700  0.61650200  1
  O  O21  1  0.53564200  0.53564200  0.10972000  1
  O  O22  1  0.70564400  0.70564400  0.61080000  1
  O  O23  1  0.88016200  0.88016200  0.10300000  1
