# generated using pymatgen
data_Li4MnCo2O7
_symmetry_space_group_name_H-M   'P 1'
_cell_length_a   5.10200700
_cell_length_b   7.67094017
_cell_length_c   7.70552852
_cell_angle_alpha   61.16730005
_cell_angle_beta   72.08649069
_cell_angle_gamma   77.86997323
_symmetry_Int_Tables_number   1
_chemical_formula_structural   Li4MnCo2O7
_chemical_formula_sum   'Li8 Mn2 Co4 O14'
_cell_volume   250.68814767
_cell_formula_units_Z   2
loop_
 _symmetry_equiv_pos_site_id
 _symmetry_equiv_pos_as_xyz
  1  'x, y, z'
loop_
 _atom_site_type_symbol
 _atom_site_label
 _atom_site_symmetry_multiplicity
 _atom_site_fract_x
 _atom_site_fract_y
 _atom_site_fract_z
 _atom_site_occupancy
  Li  Li0  1  0.49644500  0.78379300  0.14866000  1
  Li  Li1  1  0.49816500  0.65090300  0.56295400  1
  Li  Li2  1  0.50394700  0.36120500  0.42312400  1
  Li  Li3  1  0.49771400  0.21461300  0.85601500  1
  Li  Li4  1  0.50456400  0.92550400  0.71257800  1
  Li  Li5  1  0.50027000  0.50066500  0.00208900  1
  Li  Li6  1  0.50241000  0.06221700  0.29524300  1
  Li  Li7  1  0.00348100  0.85686300  0.42680200  1
  Mn  Mn8  1  0.99338300  0.99941300  0.00508900  1
  Mn  Mn9  1  0.99774800  0.28168500  0.14745600  1
  Co  Co10  1  0.99538800  0.71676800  0.84755400  1
  Co  Co11  1  0.00832300  0.57751800  0.29440600  1
  Co  Co12  1  0.99919700  0.43172900  0.71280400  1
  Co  Co13  1  0.00532300  0.13398500  0.56703100  1
  O  O14  1  0.76921100  0.96737300  0.85625300  1
  O  O15  1  0.76932800  0.82827700  0.26232700  1
  O  O16  1  0.78238800  0.52451900  0.14240100  1
  O  O17  1  0.77909800  0.39002900  0.57521400  1
  O  O18  1  0.76968100  0.12584300  0.41104600  1
  O  O19  1  0.77040300  0.66255000  0.72483400  1
  O  O20  1  0.77013300  0.23450000  0.01358400  1
  O  O21  1  0.24420400  0.59972800  0.42227600  1
  O  O22  1  0.21733400  0.45506400  0.86877100  1
  O  O23  1  0.20999300  0.18156900  0.73242100  1
  O  O24  1  0.21997200  0.04907800  0.13286000  1
  O  O25  1  0.22343000  0.76493600  0.99698100  1
  O  O26  1  0.23087900  0.31850200  0.27820300  1
  O  O27  1  0.23758800  0.90117100  0.58102700  1
