# generated using pymatgen
data_Li4FeTe(WO6)2
_symmetry_space_group_name_H-M   'P 1'
_cell_length_a   5.18868709
_cell_length_b   15.21156484
_cell_length_c   5.50572922
_cell_angle_alpha   85.42135617
_cell_angle_beta   90.06171478
_cell_angle_gamma   89.86125385
_symmetry_Int_Tables_number   1
_chemical_formula_structural   Li4FeTe(WO6)2
_chemical_formula_sum   'Li8 Fe2 Te2 W4 O24'
_cell_volume   433.16805125
_cell_formula_units_Z   2
loop_
 _symmetry_equiv_pos_site_id
 _symmetry_equiv_pos_as_xyz
  1  'x, y, z'
loop_
 _atom_site_type_symbol
 _atom_site_label
 _atom_site_symmetry_multiplicity
 _atom_site_fract_x
 _atom_site_fract_y
 _atom_site_fract_z
 _atom_site_occupancy
  Li  Li0  1  0.00380900  0.63408000  0.58566600  1
  Li  Li1  1  0.01013000  0.13541600  0.59893300  1
  Li  Li2  1  0.49564500  0.90451200  0.06792300  1
  Li  Li3  1  0.49504700  0.39975300  0.03996500  1
  Li  Li4  1  0.99272500  0.40277200  0.60105500  1
  Li  Li5  1  0.99768500  0.90360100  0.59196300  1
  Li  Li6  1  0.50040400  0.11251600  0.98143700  1
  Li  Li7  1  0.50702100  0.60069300  0.93262300  1
  Fe  Fe8  1  0.00560200  0.49854200  0.01645800  1
  Fe  Fe9  1  0.99723500  0.00427300  0.01342500  1
  Te  Te10  1  0.49510400  0.75167900  0.50280400  1
  Te  Te11  1  0.50335600  0.25451400  0.51771500  1
  W  W12  1  0.99110400  0.25142000  0.01490200  1
  W  W13  1  0.99331300  0.74980600  0.00949700  1
  W  W14  1  0.51283200  0.00255500  0.50126800  1
  W  W15  1  0.49760200  0.50112000  0.49778100  1
  O  O16  1  0.29642300  0.71219800  0.79556000  1
  O  O17  1  0.30908500  0.21248400  0.81603900  1
  O  O18  1  0.12156700  0.86421700  0.98315600  1
  O  O19  1  0.12777700  0.37061500  0.98763900  1
  O  O20  1  0.32262800  0.02018200  0.19172300  1
  O  O21  1  0.32798500  0.52967200  0.19255500  1
  O  O22  1  0.18956300  0.71493800  0.30858000  1
  O  O23  1  0.13632400  0.20981500  0.30611900  1
  O  O24  1  0.79632300  0.96246400  0.30665200  1
  O  O25  1  0.80348700  0.47302200  0.32113500  1
  O  O26  1  0.36564400  0.86884600  0.48470900  1
  O  O27  1  0.36349800  0.38429900  0.50762000  1
  O  O28  1  0.63890500  0.11709100  0.49748900  1
  O  O29  1  0.62689300  0.63224100  0.50734500  1
  O  O30  1  0.20472800  0.02100900  0.68235400  1
  O  O31  1  0.20939200  0.53251100  0.69317100  1
  O  O32  1  0.83262100  0.28308700  0.66840200  1
  O  O33  1  0.80330100  0.78172800  0.68983600  1
  O  O34  1  0.69660400  0.96405300  0.79365600  1
  O  O35  1  0.69764000  0.47786900  0.79782600  1
  O  O36  1  0.87671000  0.12899400  0.96274600  1
  O  O37  1  0.88695300  0.63087800  0.99097200  1
  O  O38  1  0.68182600  0.29023000  0.13438800  1
  O  O39  1  0.68551300  0.78150700  0.19171200  1
