# generated using pymatgen
data_Li7Mn4CoO12
_symmetry_space_group_name_H-M   'P 1'
_cell_length_a   5.16166017
_cell_length_b   9.74860441
_cell_length_c   8.65231689
_cell_angle_alpha   90.00508141
_cell_angle_beta   89.99876790
_cell_angle_gamma   98.14345347
_symmetry_Int_Tables_number   1
_chemical_formula_structural   Li7Mn4CoO12
_chemical_formula_sum   'Li14 Mn8 Co2 O24'
_cell_volume   430.98567958
_cell_formula_units_Z   2
loop_
 _symmetry_equiv_pos_site_id
 _symmetry_equiv_pos_as_xyz
  1  'x, y, z'
loop_
 _atom_site_type_symbol
 _atom_site_label
 _atom_site_symmetry_multiplicity
 _atom_site_fract_x
 _atom_site_fract_y
 _atom_site_fract_z
 _atom_site_occupancy
  Li  Li0  1  0.49999700  0.50000500  0.33361400  1
  Li  Li1  1  0.49998700  0.99999800  0.83049600  1
  Li  Li2  1  0.24424600  0.24102200  0.83050800  1
  Li  Li3  1  0.26081500  0.74068900  0.33559400  1
  Li  Li4  1  0.75575800  0.75895200  0.83052200  1
  Li  Li5  1  0.73921400  0.25932100  0.33546900  1
  Li  Li6  1  0.75942300  0.25427900  0.99613100  1
  Li  Li7  1  0.76455600  0.75385100  0.50032000  1
  Li  Li8  1  0.75076600  0.74848000  0.17101100  1
  Li  Li9  1  0.75959800  0.25253000  0.66702000  1
  Li  Li10  1  0.24913700  0.25151000  0.17110400  1
  Li  Li11  1  0.24035600  0.74751400  0.66708900  1
  Li  Li12  1  0.24074900  0.74566600  0.99620600  1
  Li  Li13  1  0.23533100  0.24611600  0.50036000  1
  Mn  Mn14  1  0.99993400  0.50003000  0.50053800  1
  Mn  Mn15  1  0.00005000  0.00003000  0.99691800  1
  Mn  Mn16  1  0.00007000  0.50001700  0.16640300  1
  Mn  Mn17  1  0.99990400  0.99995000  0.66640000  1
  Mn  Mn18  1  0.49980000  0.50003200  0.66344200  1
  Mn  Mn19  1  0.50003800  0.00005600  0.16188600  1
  Mn  Mn20  1  0.50021400  0.49987800  0.00279100  1
  Mn  Mn21  1  0.49993600  0.00002900  0.50261600  1
  Co  Co22  1  0.99999200  0.99999500  0.33618200  1
  Co  Co23  1  0.00003800  0.49999600  0.83377400  1
  O  O24  1  0.89777900  0.61562700  0.33290900  1
  O  O25  1  0.89299500  0.11332100  0.83556900  1
  O  O26  1  0.10221800  0.38440600  0.33293800  1
  O  O27  1  0.10697900  0.88666100  0.83559300  1
  O  O28  1  0.35670000  0.60626900  0.83341000  1
  O  O29  1  0.38783500  0.11426900  0.32841100  1
  O  O30  1  0.64337800  0.39367800  0.83328300  1
  O  O31  1  0.61212600  0.88582600  0.32840600  1
  O  O32  1  0.89325000  0.61614200  0.00110300  1
  O  O33  1  0.88599800  0.11977300  0.51242000  1
  O  O34  1  0.89337900  0.61479100  0.66726600  1
  O  O35  1  0.84951600  0.10964400  0.15506200  1
  O  O36  1  0.10685300  0.38384800  0.00107800  1
  O  O37  1  0.11387400  0.88015400  0.51238800  1
  O  O38  1  0.10656700  0.38521800  0.66721000  1
  O  O39  1  0.15059900  0.89043900  0.15503400  1
  O  O40  1  0.34848400  0.11128400  0.01057000  1
  O  O41  1  0.34893500  0.60798700  0.50768200  1
  O  O42  1  0.34982600  0.60830000  0.15873100  1
  O  O43  1  0.34934200  0.11061800  0.65878200  1
  O  O44  1  0.65040400  0.39158300  0.15874800  1
  O  O45  1  0.65051100  0.88931300  0.65878100  1
  O  O46  1  0.65160100  0.88880300  0.01058100  1
  O  O47  1  0.65094100  0.39209900  0.50765400  1
