# generated using pymatgen
data_Li4MnCo2O7
_symmetry_space_group_name_H-M   'P 1'
_cell_length_a   17.03308597
_cell_length_b   17.03308597
_cell_length_c   5.16299655
_cell_angle_alpha   86.01132673
_cell_angle_beta   86.01132673
_cell_angle_gamma   9.79039295
_symmetry_Int_Tables_number   1
_chemical_formula_structural   Li4MnCo2O7
_chemical_formula_sum   'Li8 Mn2 Co4 O14'
_cell_volume   254.09115696
_cell_formula_units_Z   2
loop_
 _symmetry_equiv_pos_site_id
 _symmetry_equiv_pos_as_xyz
  1  'x, y, z'
loop_
 _atom_site_type_symbol
 _atom_site_label
 _atom_site_symmetry_multiplicity
 _atom_site_fract_x
 _atom_site_fract_y
 _atom_site_fract_z
 _atom_site_occupancy
  Li  Li0  1  0.50024400  0.50024400  0.50355800  1
  Li  Li1  1  0.92731600  0.92731600  0.35964100  1
  Li  Li2  1  0.35586900  0.35586900  0.21584000  1
  Li  Li3  1  0.78511700  0.78511700  0.06943900  1
  Li  Li4  1  0.21377400  0.21377400  0.92810800  1
  Li  Li5  1  0.07480400  0.07480400  0.63662400  1
  Li  Li6  1  0.64321900  0.64321900  0.77456900  1
  Li  Li7  1  0.14335400  0.14335400  0.29524500  1
  Mn  Mn8  1  0.00003700  0.00003700  0.00724400  1
  Mn  Mn9  1  0.57500400  0.57500400  0.16115000  1
  Co  Co10  1  0.42761500  0.42761500  0.84901200  1
  Co  Co11  1  0.85578500  0.85578500  0.70771300  1
  Co  Co12  1  0.28443200  0.28443200  0.56230800  1
  Co  Co13  1  0.71128900  0.71128900  0.41716200  1
  O  O14  1  0.53432000  0.53432000  0.86000600  1
  O  O15  1  0.96000100  0.96000100  0.69456400  1
  O  O16  1  0.38945500  0.38945500  0.54421500  1
  O  O17  1  0.81963300  0.81963300  0.40642000  1
  O  O18  1  0.24898100  0.24898100  0.26454000  1
  O  O19  1  0.10356600  0.10356600  0.98145600  1
  O  O20  1  0.68372300  0.68372300  0.14365800  1
  O  O21  1  0.46743500  0.46743500  0.17062400  1
  O  O22  1  0.89562200  0.89562200  0.00711700  1
  O  O23  1  0.32201700  0.32201700  0.87281200  1
  O  O24  1  0.74968400  0.74968400  0.70931100  1
  O  O25  1  0.18183300  0.18183300  0.60330800  1
  O  O26  1  0.04073900  0.04073900  0.31580400  1
  O  O27  1  0.60513300  0.60513300  0.43855100  1
