# generated using pymatgen
data_Li9Co7O16
_symmetry_space_group_name_H-M   'P 1'
_cell_length_a   6.40684000
_cell_length_b   6.41974469
_cell_length_c   7.51873205
_cell_angle_alpha   75.41938623
_cell_angle_beta   65.21036531
_cell_angle_gamma   71.62524544
_symmetry_Int_Tables_number   1
_chemical_formula_structural   Li9Co7O16
_chemical_formula_sum   'Li9 Co7 O16'
_cell_volume   263.85899206
_cell_formula_units_Z   1
loop_
 _symmetry_equiv_pos_site_id
 _symmetry_equiv_pos_as_xyz
  1  'x, y, z'
loop_
 _atom_site_type_symbol
 _atom_site_label
 _atom_site_symmetry_multiplicity
 _atom_site_fract_x
 _atom_site_fract_y
 _atom_site_fract_z
 _atom_site_occupancy
  Li  Li0  1  0.31173900  0.68684600  0.56481500  1
  Li  Li1  1  0.80297500  0.18673800  0.06177600  1
  Li  Li2  1  0.44153800  0.56594900  0.17865400  1
  Li  Li3  1  0.93282500  0.06052400  0.69085000  1
  Li  Li4  1  0.55846200  0.43405100  0.82134600  1
  Li  Li5  1  0.06717500  0.93947600  0.30915000  1
  Li  Li6  1  0.68826100  0.31315400  0.43518500  1
  Li  Li7  1  0.19702500  0.81326200  0.93822400  1
  Li  Li8  1  0.50000000  0.00000000  0.00000000  1
  Co  Co9  1  0.87366400  0.62605100  0.87553500  1
  Co  Co10  1  0.12633600  0.37394900  0.12446500  1
  Co  Co11  1  0.37537300  0.12429700  0.37411500  1
  Co  Co12  1  0.00000000  0.50000000  0.50000000  1
  Co  Co13  1  0.62462700  0.87570300  0.62588500  1
  Co  Co14  1  0.25298800  0.24596700  0.75386200  1
  Co  Co15  1  0.74701200  0.75403300  0.24613800  1
  O  O16  1  0.20490600  0.51375900  0.85162800  1
  O  O17  1  0.70337800  0.01734400  0.34941200  1
  O  O18  1  0.32377000  0.38916300  0.48282600  1
  O  O19  1  0.84418400  0.87876300  0.98343100  1
  O  O20  1  0.44683800  0.27947100  0.11071600  1
  O  O21  1  0.95251000  0.76757600  0.60217400  1
  O  O22  1  0.57237200  0.15168500  0.71205200  1
  O  O23  1  0.07239000  0.64334100  0.22967500  1
  O  O24  1  0.42762800  0.84831500  0.28794800  1
  O  O25  1  0.92761000  0.35665900  0.77032500  1
  O  O26  1  0.55316200  0.72052900  0.88928400  1
  O  O27  1  0.04749000  0.23242400  0.39782600  1
  O  O28  1  0.67623000  0.61083700  0.51717400  1
  O  O29  1  0.15581600  0.12123700  0.01656900  1
  O  O30  1  0.79509400  0.48624100  0.14837200  1
  O  O31  1  0.29662200  0.98265600  0.65058800  1
