# generated using pymatgen
data_LiCo2N3
_symmetry_space_group_name_H-M   'P 1'
_cell_length_a   5.42191721
_cell_length_b   5.38583352
_cell_length_c   4.93624492
_cell_angle_alpha   90.00000000
_cell_angle_beta   90.00000000
_cell_angle_gamma   119.78008900
_symmetry_Int_Tables_number   1
_chemical_formula_structural   LiCo2N3
_chemical_formula_sum   'Li2 Co4 N6'
_cell_volume   125.10978071
_cell_formula_units_Z   2
loop_
 _symmetry_equiv_pos_site_id
 _symmetry_equiv_pos_as_xyz
  1  'x, y, z'
loop_
 _atom_site_type_symbol
 _atom_site_label
 _atom_site_symmetry_multiplicity
 _atom_site_fract_x
 _atom_site_fract_y
 _atom_site_fract_z
 _atom_site_occupancy
  Li  Li0  1  0.00000000  0.67272989  0.47957307  1
  Li  Li1  1  -0.00000000  0.32727011  0.97957307  1
  Co  Co2  1  0.33143716  0.32905006  0.49093105  1
  Co  Co3  1  0.66856284  0.99761289  0.49093105  1
  Co  Co4  1  0.66856284  0.67094994  0.99093105  1
  Co  Co5  1  0.33143716  0.00238711  0.99093105  1
  N  N6  1  0.38481927  0.33862588  0.85539849  1
  N  N7  1  0.61518073  0.95380661  0.85539849  1
  N  N8  1  0.61518073  0.66137412  0.35539849  1
  N  N9  1  0.38481927  0.04619339  0.35539849  1
  N  N10  1  1.00000000  0.71256417  0.91576683  1
  N  N11  1  0.00000000  0.28743583  0.41576683  1
