# generated using pymatgen
data_Li9Mn2Co5O16
_symmetry_space_group_name_H-M   'P 1'
_cell_length_a   5.93884698
_cell_length_b   5.93884698
_cell_length_c   10.28860152
_cell_angle_alpha   72.23495870
_cell_angle_beta   72.23495870
_cell_angle_gamma   58.63019306
_symmetry_Int_Tables_number   1
_chemical_formula_structural   Li9Mn2Co5O16
_chemical_formula_sum   'Li9 Mn2 Co5 O16'
_cell_volume   290.24586153
_cell_formula_units_Z   1
loop_
 _symmetry_equiv_pos_site_id
 _symmetry_equiv_pos_as_xyz
  1  'x, y, z'
loop_
 _atom_site_type_symbol
 _atom_site_label
 _atom_site_symmetry_multiplicity
 _atom_site_fract_x
 _atom_site_fract_y
 _atom_site_fract_z
 _atom_site_occupancy
  Li  Li0  1  0.50000000  0.00000000  0.00000000  1
  Li  Li1  1  0.00000000  0.50000000  0.00000000  1
  Li  Li2  1  0.74014600  0.74014600  0.27256200  1
  Li  Li3  1  0.24481400  0.24481400  0.26101700  1
  Li  Li4  1  0.00000000  0.50000000  0.50000000  1
  Li  Li5  1  0.50000000  0.00000000  0.50000000  1
  Li  Li6  1  0.25985400  0.25985400  0.72743800  1
  Li  Li7  1  0.75518600  0.75518600  0.73898300  1
  Li  Li8  1  0.50000000  0.50000000  0.50000000  1
  Mn  Mn9  1  0.00000000  0.00000000  0.00000000  1
  Mn  Mn10  1  0.50000000  0.50000000  0.00000000  1
  Co  Co11  1  0.25257500  0.74367800  0.25954900  1
  Co  Co12  1  0.74367800  0.25257500  0.25954900  1
  Co  Co13  1  0.00000000  0.00000000  0.50000000  1
  Co  Co14  1  0.74742500  0.25632200  0.74045100  1
  Co  Co15  1  0.25632200  0.74742500  0.74045100  1
  O  O16  1  0.36069500  0.86230900  0.89021400  1
  O  O17  1  0.86230900  0.36069500  0.89021400  1
  O  O18  1  0.61082300  0.61082300  0.11788400  1
  O  O19  1  0.10181900  0.10181900  0.12570900  1
  O  O20  1  0.87102000  0.35626700  0.37149500  1
  O  O21  1  0.35626700  0.87102000  0.37149500  1
  O  O22  1  0.12119100  0.12119100  0.62460100  1
  O  O23  1  0.61763800  0.61763800  0.64141200  1
  O  O24  1  0.63930500  0.13769100  0.10978600  1
  O  O25  1  0.13769100  0.63930500  0.10978600  1
  O  O26  1  0.87880900  0.87880900  0.37539900  1
  O  O27  1  0.38236200  0.38236200  0.35858800  1
  O  O28  1  0.12898000  0.64373300  0.62850500  1
  O  O29  1  0.64373300  0.12898000  0.62850500  1
  O  O30  1  0.38917700  0.38917700  0.88211600  1
  O  O31  1  0.89818100  0.89818100  0.87429100  1
