# generated using pymatgen
data_Li9Mn7O16
_symmetry_space_group_name_H-M   'P 1'
_cell_length_a   9.91677414
_cell_length_b   9.91677414
_cell_length_c   10.70772970
_cell_angle_alpha   81.30079408
_cell_angle_beta   81.30079408
_cell_angle_gamma   16.64841885
_symmetry_Int_Tables_number   1
_chemical_formula_structural   Li9Mn7O16
_chemical_formula_sum   'Li9 Mn7 O16'
_cell_volume   298.14398930
_cell_formula_units_Z   1
loop_
 _symmetry_equiv_pos_site_id
 _symmetry_equiv_pos_as_xyz
  1  'x, y, z'
loop_
 _atom_site_type_symbol
 _atom_site_label
 _atom_site_symmetry_multiplicity
 _atom_site_fract_x
 _atom_site_fract_y
 _atom_site_fract_z
 _atom_site_occupancy
  Li  Li0  1  0.37814100  0.37814100  0.68349100  1
  Li  Li1  1  0.12269600  0.12269600  0.56010200  1
  Li  Li2  1  0.87730400  0.87730400  0.43989800  1
  Li  Li3  1  0.62185900  0.62185900  0.31650900  1
  Li  Li4  1  0.37611200  0.37611200  0.18922600  1
  Li  Li5  1  0.12616700  0.12616700  0.06451300  1
  Li  Li6  1  0.87383300  0.87383300  0.93548700  1
  Li  Li7  1  0.62388800  0.62388800  0.81077400  1
  Li  Li8  1  0.50000000  0.50000000  0.50000000  1
  Mn  Mn9  1  0.99658700  0.99658700  0.73784900  1
  Mn  Mn10  1  0.00341300  0.00341300  0.26215100  1
  Mn  Mn11  1  0.75043100  0.75043100  0.62501700  1
  Mn  Mn12  1  0.24956900  0.24956900  0.37498300  1
  Mn  Mn13  1  0.75063800  0.75063800  0.12485900  1
  Mn  Mn14  1  0.50000000  0.50000000  0.00000000  1
  Mn  Mn15  1  0.24936200  0.24936200  0.87514100  1
  O  O16  1  0.44347600  0.44347600  0.83212600  1
  O  O17  1  0.19169400  0.19169400  0.70717800  1
  O  O18  1  0.94421300  0.94421300  0.61249300  1
  O  O19  1  0.69100500  0.69100500  0.45841700  1
  O  O20  1  0.44378800  0.44378800  0.33378500  1
  O  O21  1  0.19276600  0.19276600  0.20655300  1
  O  O22  1  0.94561900  0.94561900  0.09227500  1
  O  O23  1  0.69067200  0.69067200  0.95847400  1
  O  O24  1  0.30899500  0.30899500  0.54158300  1
  O  O25  1  0.05578700  0.05578700  0.38750700  1
  O  O26  1  0.80830600  0.80830600  0.29282200  1
  O  O27  1  0.55652400  0.55652400  0.16787400  1
  O  O28  1  0.30932800  0.30932800  0.04152600  1
  O  O29  1  0.05438100  0.05438100  0.90772500  1
  O  O30  1  0.80723400  0.80723400  0.79344700  1
  O  O31  1  0.55621200  0.55621200  0.66621500  1
