# generated using pymatgen
data_LiMg
_symmetry_space_group_name_H-M   'P 1'
_cell_length_a   5.63783332
_cell_length_b   5.63783332
_cell_length_c   5.63783332
_cell_angle_alpha   143.68031528
_cell_angle_beta   128.99499633
_cell_angle_gamma   64.21614668
_symmetry_Int_Tables_number   1
_chemical_formula_structural   LiMg
_chemical_formula_sum   'Li2 Mg2'
_cell_volume   81.47454787
_cell_formula_units_Z   2
loop_
 _symmetry_equiv_pos_site_id
 _symmetry_equiv_pos_as_xyz
  1  'x, y, z'
loop_
 _atom_site_type_symbol
 _atom_site_label
 _atom_site_symmetry_multiplicity
 _atom_site_fract_x
 _atom_site_fract_y
 _atom_site_fract_z
 _atom_site_occupancy
  Li  Li0  1  0.38268700  0.63268700  0.75000000  1
  Li  Li1  1  0.61731300  0.36731300  0.25000000  1
  Mg  Mg2  1  0.13376500  0.88376500  0.25000000  1
  Mg  Mg3  1  0.86623500  0.11623500  0.75000000  1
