# generated using pymatgen
data_Li4MnCo2O7
_symmetry_space_group_name_H-M   'P 1'
_cell_length_a   9.84221981
_cell_length_b   9.84221981
_cell_length_c   9.75860664
_cell_angle_alpha   67.39140117
_cell_angle_beta   67.39140117
_cell_angle_gamma   16.80539878
_symmetry_Int_Tables_number   1
_chemical_formula_structural   Li4MnCo2O7
_chemical_formula_sum   'Li8 Mn2 Co4 O14'
_cell_volume   251.82874508
_cell_formula_units_Z   2
loop_
 _symmetry_equiv_pos_site_id
 _symmetry_equiv_pos_as_xyz
  1  'x, y, z'
loop_
 _atom_site_type_symbol
 _atom_site_label
 _atom_site_symmetry_multiplicity
 _atom_site_fract_x
 _atom_site_fract_y
 _atom_site_fract_z
 _atom_site_occupancy
  Li  Li0  1  0.34574500  0.34574500  0.08502400  1
  Li  Li1  1  0.08095700  0.08095700  0.20007700  1
  Li  Li2  1  0.78307000  0.78307000  0.34963400  1
  Li  Li3  1  0.50014700  0.50014700  0.49638700  1
  Li  Li4  1  0.22026300  0.22026300  0.64058500  1
  Li  Li5  1  0.92178000  0.92178000  0.79422200  1
  Li  Li6  1  0.64201800  0.64201800  0.92938200  1
  Li  Li7  1  0.71466400  0.71466400  0.14367700  1
  Mn  Mn8  1  0.99761000  0.99761000  0.99987400  1
  Mn  Mn9  1  0.14869500  0.14869500  0.41645100  1
  Co  Co10  1  0.42321500  0.42321500  0.29432500  1
  Co  Co11  1  0.85980000  0.85980000  0.57762100  1
  Co  Co12  1  0.57526400  0.57526400  0.70690600  1
  Co  Co13  1  0.27616200  0.27616200  0.87801800  1
  O  O14  1  0.46767000  0.46767000  0.89780400  1
  O  O15  1  0.18228700  0.18228700  0.01733500  1
  O  O16  1  0.89020500  0.89020500  0.19634500  1
  O  O17  1  0.60959900  0.60959900  0.33327200  1
  O  O18  1  0.32846300  0.32846300  0.48240400  1
  O  O19  1  0.04866600  0.04866600  0.60323700  1
  O  O20  1  0.76569000  0.76569000  0.74160900  1
  O  O21  1  0.24039500  0.24039500  0.26385300  1
  O  O22  1  0.95389700  0.95389700  0.40255500  1
  O  O23  1  0.67802500  0.67802500  0.51961200  1
  O  O24  1  0.39192000  0.39192000  0.66781600  1
  O  O25  1  0.10710400  0.10710400  0.80209400  1
  O  O26  1  0.81789900  0.81789900  0.95621000  1
  O  O27  1  0.52879000  0.52879000  0.10366800  1
