# generated using pymatgen
data_LiVP4(H2O7)2
_symmetry_space_group_name_H-M   'P 1'
_cell_length_a   7.33151142
_cell_length_b   9.73243146
_cell_length_c   8.33878081
_cell_angle_alpha   69.37573335
_cell_angle_beta   102.18261974
_cell_angle_gamma   77.05452255
_symmetry_Int_Tables_number   1
_chemical_formula_structural   LiVP4(H2O7)2
_chemical_formula_sum   'Li2 V2 P8 H8 O28'
_cell_volume   514.56527471
_cell_formula_units_Z   2
loop_
 _symmetry_equiv_pos_site_id
 _symmetry_equiv_pos_as_xyz
  1  'x, y, z'
loop_
 _atom_site_type_symbol
 _atom_site_label
 _atom_site_symmetry_multiplicity
 _atom_site_fract_x
 _atom_site_fract_y
 _atom_site_fract_z
 _atom_site_occupancy
  Li  Li0  1  0.47904243  0.76527017  0.23931647  1
  Li  Li1  1  0.52100331  0.23462703  0.76068363  1
  V  V2  1  0.00009724  0.50006826  0.50008593  1
  V  V3  1  0.00001708  -0.00009841  0.99994109  1
  P  P4  1  0.17931083  0.10607209  0.62392838  1
  P  P5  1  0.18043325  0.60478876  0.12460980  1
  P  P6  1  0.81968803  0.39511152  0.87540399  1
  P  P7  1  0.82056976  0.89402037  0.37598793  1
  P  P8  1  0.60434358  0.88470124  0.87880081  1
  P  P9  1  0.60421682  0.38450746  0.37939169  1
  P  P10  1  0.39584645  0.61557831  0.62068150  1
  P  P11  1  0.39565687  0.11524209  0.12119000  1
  H  H12  1  0.74114870  0.84632371  0.67897895  1
  H  H13  1  0.73678373  0.34705078  0.17738685  1
  H  H14  1  0.26321808  0.65299028  0.82261946  1
  H  H15  1  0.25875628  0.15372585  0.32096223  1
  H  H16  1  0.97400477  0.47465189  0.16289004  1
  H  H17  1  0.97626145  0.97297428  0.66401000  1
  H  H18  1  0.02348446  0.02712919  0.33572179  1
  H  H19  1  0.02606956  0.52530738  0.83724218  1
  O  O20  1  0.12930066  0.27015976  0.60919353  1
  O  O21  1  0.12916431  0.77051458  0.10639530  1
  O  O22  1  0.87056684  0.22945060  0.89341818  1
  O  O23  1  0.87069954  0.72991630  0.39082730  1
  O  O24  1  0.14518198  0.08651999  0.44918005  1
  O  O25  1  0.14838875  0.58442933  0.95062252  1
  O  O26  1  0.85179326  0.41535047  0.04942805  1
  O  O27  1  0.85477868  0.91360282  0.55069733  1
  O  O28  1  0.73967554  0.97910112  0.91238154  1
  O  O29  1  0.74467379  0.47378146  0.41449358  1
  O  O30  1  0.25537019  0.52624909  0.58558953  1
  O  O31  1  0.26026577  0.02084309  0.08764443  1
  O  O32  1  0.44038818  0.71886363  0.46621323  1
  O  O33  1  0.43873182  0.21797356  0.96540217  1
  O  O34  1  0.56145485  0.78187764  0.03469529  1
  O  O35  1  0.55952867  0.28118772  0.53373859  1
  O  O36  1  0.40517358  0.02987913  0.73922087  1
  O  O37  1  0.40485880  0.53147184  0.24276178  1
  O  O38  1  0.59519867  0.46875360  0.75735559  1
  O  O39  1  0.59477020  0.97005234  0.26088265  1
  O  O40  1  0.67787799  0.79468589  0.77035979  1
  O  O41  1  0.67182983  0.29593535  0.26726432  1
  O  O42  1  0.32811802  0.70417620  0.73277356  1
  O  O43  1  0.32238189  0.20514734  0.22973094  1
  O  O44  1  0.05865530  0.01630208  0.74024763  1
  O  O45  1  0.05771332  0.51701306  0.23924266  1
  O  O46  1  0.94240533  0.48295508  0.76079103  1
  O  O47  1  0.94110156  0.98376468  0.25961583  1
