# generated using pymatgen
data_Li7Mn5O12
_symmetry_space_group_name_H-M   'P 1'
_cell_length_a   5.83556716
_cell_length_b   14.68075013
_cell_length_c   5.96914650
_cell_angle_alpha   98.09295538
_cell_angle_beta   119.15752802
_cell_angle_gamma   84.08552096
_symmetry_Int_Tables_number   1
_chemical_formula_structural   Li7Mn5O12
_chemical_formula_sum   'Li14 Mn10 O24'
_cell_volume   441.78080922
_cell_formula_units_Z   2
loop_
 _symmetry_equiv_pos_site_id
 _symmetry_equiv_pos_as_xyz
  1  'x, y, z'
loop_
 _atom_site_type_symbol
 _atom_site_label
 _atom_site_symmetry_multiplicity
 _atom_site_fract_x
 _atom_site_fract_y
 _atom_site_fract_z
 _atom_site_occupancy
  Li  Li0  1  0.33295000  0.16674500  0.24968200  1
  Li  Li1  1  0.33366500  0.16654800  0.75015000  1
  Li  Li2  1  0.83336400  0.66666100  0.50003600  1
  Li  Li3  1  0.83345400  0.66665500  0.00008300  1
  Li  Li4  1  0.83329500  0.16659900  0.74995900  1
  Li  Li5  1  0.83322200  0.16670800  0.25004100  1
  Li  Li6  1  0.15835900  0.32607900  0.48309600  1
  Li  Li7  1  0.15799800  0.32597300  0.98264200  1
  Li  Li8  1  0.50820800  0.00721200  0.51683900  1
  Li  Li9  1  0.50859100  0.00732300  0.01730300  1
  Li  Li10  1  0.00732800  0.50124200  0.25475800  1
  Li  Li11  1  0.00816200  0.50101900  0.75536900  1
  Li  Li12  1  0.65941000  0.83210600  0.74528100  1
  Li  Li13  1  0.65854900  0.83229800  0.24468900  1
  Mn  Mn14  1  0.33344800  0.66674600  0.50025000  1
  Mn  Mn15  1  0.33344200  0.66666600  0.00012000  1
  Mn  Mn16  1  0.99244500  0.00729800  0.50982300  1
  Mn  Mn17  1  0.99261300  0.00725600  0.01012000  1
  Mn  Mn18  1  0.67410000  0.32601800  0.49007400  1
  Mn  Mn19  1  0.67402600  0.32609700  0.98981300  1
  Mn  Mn20  1  0.49598600  0.49720800  0.73470700  1
  Mn  Mn21  1  0.49599400  0.49684300  0.23505100  1
  Mn  Mn22  1  0.17067200  0.83613800  0.26522700  1
  Mn  Mn23  1  0.17067500  0.83649100  0.76492200  1
  O  O24  1  0.14476700  0.07353200  0.35720600  1
  O  O25  1  0.14504300  0.07345600  0.85726200  1
  O  O26  1  0.52179700  0.25980800  0.64272400  1
  O  O27  1  0.52153000  0.25989100  0.14264600  1
  O  O28  1  0.97930300  0.25672500  0.61550600  1
  O  O29  1  0.97933500  0.25676600  0.11573600  1
  O  O30  1  0.68729100  0.07655800  0.38441900  1
  O  O31  1  0.68724200  0.07652700  0.88416600  1
  O  O32  1  0.80200300  0.40747800  0.83231500  1
  O  O33  1  0.80151400  0.40765200  0.33233300  1
  O  O34  1  0.86512200  0.92565900  0.66761800  1
  O  O35  1  0.86462200  0.92584200  0.16759900  1
  O  O36  1  0.64857000  0.58323900  0.62624800  1
  O  O37  1  0.64833800  0.58279300  0.12505100  1
  O  O38  1  0.01811700  0.75017400  0.37383800  1
  O  O39  1  0.01851800  0.75052400  0.87506000  1
  O  O40  1  0.48672800  0.75170000  0.38925600  1
  O  O41  1  0.48661800  0.75173800  0.88957500  1
  O  O42  1  0.18022500  0.58161800  0.11061000  1
  O  O43  1  0.18006300  0.58172000  0.61087600  1
  O  O44  1  0.31186200  0.91738000  0.64184300  1
  O  O45  1  0.31153200  0.91759800  0.14254000  1
  O  O46  1  0.35478300  0.41594500  0.35813800  1
  O  O47  1  0.35512100  0.41574600  0.85740400  1
