# generated using pymatgen
data_Li2CoSn(PO4)2
_symmetry_space_group_name_H-M   'P 1'
_cell_length_a   5.89832228
_cell_length_b   9.92426562
_cell_length_c   12.11118569
_cell_angle_alpha   79.10202100
_cell_angle_beta   90.00227217
_cell_angle_gamma   89.99094540
_symmetry_Int_Tables_number   1
_chemical_formula_structural   Li2CoSn(PO4)2
_chemical_formula_sum   'Li8 Co4 Sn4 P8 O32'
_cell_volume   696.16103517
_cell_formula_units_Z   4
loop_
 _symmetry_equiv_pos_site_id
 _symmetry_equiv_pos_as_xyz
  1  'x, y, z'
loop_
 _atom_site_type_symbol
 _atom_site_label
 _atom_site_symmetry_multiplicity
 _atom_site_fract_x
 _atom_site_fract_y
 _atom_site_fract_z
 _atom_site_occupancy
  Li  Li0  1  0.99769815  0.00421338  0.00200972  1
  Li  Li1  1  0.00080186  0.50369590  0.00206228  1
  Li  Li2  1  0.50335960  0.00468355  0.00073405  1
  Li  Li3  1  0.50156099  0.50493546  0.00119359  1
  Li  Li4  1  0.99285137  0.24172065  0.49448242  1
  Li  Li5  1  0.00043505  0.74936249  0.50010066  1
  Li  Li6  1  0.50661184  0.24177608  0.49442677  1
  Li  Li7  1  0.49978580  0.74904957  0.49988566  1
  Co  Co8  1  0.24977690  0.02080356  0.31449312  1
  Co  Co9  1  0.74977368  0.97623387  0.68132655  1
  Co  Co10  1  0.24979899  0.51947703  0.31916542  1
  Co  Co11  1  0.74998613  0.47778264  0.68245149  1
  Sn  Sn12  1  0.75001306  0.27523153  0.21482757  1
  Sn  Sn13  1  0.74997068  0.77068721  0.21845484  1
  Sn  Sn14  1  0.25019289  0.22894836  0.77941399  1
  Sn  Sn15  1  0.24986888  0.72789211  0.78306842  1
  P  P16  1  0.25014111  0.20433382  0.10390822  1
  P  P17  1  0.24985048  0.70271608  0.10788290  1
  P  P18  1  0.75027222  0.29975511  0.89560815  1
  P  P19  1  0.74983863  0.80006516  0.89523311  1
  P  P20  1  0.74984850  0.46382031  0.41993453  1
  P  P21  1  0.74980855  0.96493013  0.41750196  1
  P  P22  1  0.24978053  0.03197973  0.57957395  1
  P  P23  1  0.24993905  0.53420163  0.58309359  1
  O  O24  1  0.75031285  0.36270339  0.00327600  1
  O  O25  1  0.75019058  0.86219932  0.00300340  1
  O  O26  1  0.25056441  0.14273268  0.99606204  1
  O  O27  1  0.25020421  0.64577450  0.99754751  1
  O  O28  1  0.24993619  0.36090089  0.08236969  1
  O  O29  1  0.24946195  0.85904513  0.09033477  1
  O  O30  1  0.75033354  0.14328915  0.92004860  1
  O  O31  1  0.74975741  0.64347828  0.91867218  1
  O  O32  1  0.74979561  0.12286137  0.40475384  1
  O  O33  1  0.74980811  0.62180777  0.40541728  1
  O  O34  1  0.24994097  0.37629257  0.59916723  1
  O  O35  1  0.24979287  0.87402154  0.59427539  1
  O  O36  1  0.24973888  0.11159588  0.45484557  1
  O  O37  1  0.24990133  0.61246605  0.45811350  1
  O  O38  1  0.74980044  0.38352725  0.54403803  1
  O  O39  1  0.74980144  0.88392157  0.54159144  1
  O  O40  1  0.04361610  0.13893912  0.18066775  1
  O  O41  1  0.04362334  0.63441550  0.18334812  1
  O  O42  1  0.45640593  0.13928770  0.18102085  1
  O  O43  1  0.45614582  0.63480934  0.18350850  1
  O  O44  1  0.54409006  0.36336421  0.81820102  1
  O  O45  1  0.54365695  0.86421165  0.81777691  1
  O  O46  1  0.95637599  0.36330192  0.81816165  1
  O  O47  1  0.95571836  0.86384814  0.81745251  1
  O  O48  1  0.53432246  0.40906980  0.36579843  1
  O  O49  1  0.53422674  0.91092581  0.36327327  1
  O  O50  1  0.96547313  0.40905328  0.36590043  1
  O  O51  1  0.96548747  0.91093316  0.36333407  1
  O  O52  1  0.03370696  0.08682055  0.63269736  1
  O  O53  1  0.03375459  0.58966361  0.63595781  1
  O  O54  1  0.46594833  0.08680955  0.63262026  1
  O  O55  1  0.46614199  0.58963397  0.63593162  1
