# generated using pymatgen
data_Li5Mn2CoO8
_symmetry_space_group_name_H-M   'P 1'
_cell_length_a   2.88821100
_cell_length_b   10.48982869
_cell_length_c   9.76685749
_cell_angle_alpha   73.25190896
_cell_angle_beta   89.62185165
_cell_angle_gamma   98.14048910
_symmetry_Int_Tables_number   1
_chemical_formula_structural   Li5Mn2CoO8
_chemical_formula_sum   'Li10 Mn4 Co2 O16'
_cell_volume   280.14684073
_cell_formula_units_Z   2
loop_
 _symmetry_equiv_pos_site_id
 _symmetry_equiv_pos_as_xyz
  1  'x, y, z'
loop_
 _atom_site_type_symbol
 _atom_site_label
 _atom_site_symmetry_multiplicity
 _atom_site_fract_x
 _atom_site_fract_y
 _atom_site_fract_z
 _atom_site_occupancy
  Li  Li0  1  0.62564000  0.25255700  0.87341300  1
  Li  Li1  1  0.12436100  0.24744400  0.37658500  1
  Li  Li2  1  0.56702900  0.13950500  0.18523100  1
  Li  Li3  1  0.06907300  0.14213600  0.68546200  1
  Li  Li4  1  0.18296600  0.36049800  0.06477200  1
  Li  Li5  1  0.68093400  0.35786100  0.56453600  1
  Li  Li6  1  0.81095400  0.62408900  0.93171700  1
  Li  Li7  1  0.31508500  0.62415900  0.43467700  1
  Li  Li8  1  0.43491800  0.87584500  0.81532100  1
  Li  Li9  1  0.93904800  0.87590700  0.31828300  1
  Mn  Mn10  1  0.50401500  0.00494300  0.50490800  1
  Mn  Mn11  1  0.24599700  0.49505900  0.74508300  1
  Mn  Mn12  1  0.00057400  0.01123600  0.00285600  1
  Mn  Mn13  1  0.74941200  0.48876100  0.24715400  1
  Co  Co14  1  0.87500600  0.75000100  0.62499600  1
  Co  Co15  1  0.37499800  0.75000000  0.12500100  1
  O  O16  1  0.08622600  0.17402600  0.03453600  1
  O  O17  1  0.58515800  0.16806600  0.53858500  1
  O  O18  1  0.66376300  0.32597700  0.21546900  1
  O  O19  1  0.16485200  0.33193400  0.71141200  1
  O  O20  1  0.72022800  0.44939100  0.88107500  1
  O  O21  1  0.22498700  0.44559500  0.38341600  1
  O  O22  1  0.02978700  0.05061200  0.36891800  1
  O  O23  1  0.52499300  0.05440300  0.86659200  1
  O  O24  1  0.34067600  0.68755100  0.76268400  1
  O  O25  1  0.86448500  0.68392700  0.26982800  1
  O  O26  1  0.88550100  0.81607000  0.98017800  1
  O  O27  1  0.40933600  0.81245100  0.48731000  1
  O  O28  1  0.96380500  0.93052800  0.64538000  1
  O  O29  1  0.46304100  0.94123000  0.14463700  1
  O  O30  1  0.28694100  0.55876600  0.10537200  1
  O  O31  1  0.78620900  0.56947400  0.60461300  1
