# generated using pymatgen
data_Li9Mn2Co5O16
_symmetry_space_group_name_H-M   'P 1'
_cell_length_a   7.78583987
_cell_length_b   7.78583987
_cell_length_c   12.90237785
_cell_angle_alpha   87.70856351
_cell_angle_beta   87.70856351
_cell_angle_gamma   21.60810740
_symmetry_Int_Tables_number   1
_chemical_formula_structural   Li9Mn2Co5O16
_chemical_formula_sum   'Li9 Mn2 Co5 O16'
_cell_volume   287.78661088
_cell_formula_units_Z   1
loop_
 _symmetry_equiv_pos_site_id
 _symmetry_equiv_pos_as_xyz
  1  'x, y, z'
loop_
 _atom_site_type_symbol
 _atom_site_label
 _atom_site_symmetry_multiplicity
 _atom_site_fract_x
 _atom_site_fract_y
 _atom_site_fract_z
 _atom_site_occupancy
  Li  Li0  1  0.56181000  0.56181000  0.81092800  1
  Li  Li1  1  0.43819000  0.43819000  0.18907200  1
  Li  Li2  1  0.31843700  0.31843700  0.55919500  1
  Li  Li3  1  0.18738200  0.18738200  0.93774000  1
  Li  Li4  1  0.06344000  0.06344000  0.32121500  1
  Li  Li5  1  0.93656000  0.93656000  0.67878500  1
  Li  Li6  1  0.81261800  0.81261800  0.06226000  1
  Li  Li7  1  0.68156300  0.68156300  0.44080500  1
  Li  Li8  1  0.50000000  0.50000000  0.50000000  1
  Mn  Mn9  1  0.12106000  0.12106000  0.61882600  1
  Mn  Mn10  1  0.87894000  0.87894000  0.38117400  1
  Co  Co11  1  0.00000000  0.00000000  0.00000000  1
  Co  Co12  1  0.74960000  0.74960000  0.74921700  1
  Co  Co13  1  0.62509700  0.62509700  0.12584900  1
  Co  Co14  1  0.37490300  0.37490300  0.87415100  1
  Co  Co15  1  0.25040000  0.25040000  0.25078300  1
  O  O16  1  0.54093000  0.54093000  0.65399800  1
  O  O17  1  0.41199800  0.41199800  0.02716600  1
  O  O18  1  0.29220900  0.29220900  0.40040400  1
  O  O19  1  0.16105300  0.16105300  0.77099000  1
  O  O20  1  0.03795800  0.03795800  0.15184600  1
  O  O21  1  0.90204700  0.90204700  0.51921900  1
  O  O22  1  0.78605000  0.78605000  0.90049700  1
  O  O23  1  0.66255100  0.66255100  0.27796500  1
  O  O24  1  0.58800200  0.58800200  0.97283400  1
  O  O25  1  0.45907000  0.45907000  0.34600200  1
  O  O26  1  0.33744900  0.33744900  0.72203500  1
  O  O27  1  0.21395000  0.21395000  0.09950300  1
  O  O28  1  0.09795300  0.09795300  0.48078100  1
  O  O29  1  0.96204200  0.96204200  0.84815400  1
  O  O30  1  0.83894700  0.83894700  0.22901000  1
  O  O31  1  0.70779100  0.70779100  0.59959600  1
