# generated using pymatgen
data_Li9Mn2Co5O16
_symmetry_space_group_name_H-M   'P 1'
_cell_length_a   4.98446800
_cell_length_b   5.95152423
_cell_length_c   9.84100080
_cell_angle_alpha   88.79058336
_cell_angle_beta   79.04506404
_cell_angle_gamma   88.97451719
_symmetry_Int_Tables_number   1
_chemical_formula_structural   Li9Mn2Co5O16
_chemical_formula_sum   'Li9 Mn2 Co5 O16'
_cell_volume   286.52260827
_cell_formula_units_Z   1
loop_
 _symmetry_equiv_pos_site_id
 _symmetry_equiv_pos_as_xyz
  1  'x, y, z'
loop_
 _atom_site_type_symbol
 _atom_site_label
 _atom_site_symmetry_multiplicity
 _atom_site_fract_x
 _atom_site_fract_y
 _atom_site_fract_z
 _atom_site_occupancy
  Li  Li0  1  0.25054700  0.00106800  0.25537900  1
  Li  Li1  1  0.24642800  0.25309200  0.75251800  1
  Li  Li2  1  0.24928500  0.50023700  0.25585900  1
  Li  Li3  1  0.75477700  0.25315900  0.24907100  1
  Li  Li4  1  0.75183300  0.49118500  0.74533700  1
  Li  Li5  1  0.75578100  0.75434300  0.25153500  1
  Li  Li6  1  0.24368600  0.74547300  0.74853000  1
  Li  Li7  1  0.74805800  0.00321800  0.74183100  1
  Li  Li8  1  0.00041800  0.24882900  0.49938300  1
  Mn  Mn9  1  0.00020000  0.99963100  0.99924100  1
  Mn  Mn10  1  0.50088000  0.49955200  0.49969300  1
  Co  Co11  1  0.99974600  0.50030900  0.00108000  1
  Co  Co12  1  0.00004700  0.74494500  0.49958000  1
  Co  Co13  1  0.49999500  0.74798800  0.99961700  1
  Co  Co14  1  0.49787500  0.01174000  0.50047500  1
  Co  Co15  1  0.50049300  0.25245900  0.00040100  1
  O  O16  1  0.14092100  0.76793300  0.11599700  1
  O  O17  1  0.12917200  0.96993900  0.60565200  1
  O  O18  1  0.13966700  0.27377200  0.11805500  1
  O  O19  1  0.63837900  0.99831400  0.11605300  1
  O  O20  1  0.60022700  0.26132700  0.61585500  1
  O  O21  1  0.64496000  0.49687000  0.11281500  1
  O  O22  1  0.13524300  0.51767400  0.60840000  1
  O  O23  1  0.63559000  0.73579200  0.61100200  1
  O  O24  1  0.40135400  0.26917900  0.38521900  1
  O  O25  1  0.35504000  0.50280300  0.88741000  1
  O  O26  1  0.36324900  0.74162100  0.38919900  1
  O  O27  1  0.86652800  0.52292700  0.39272500  1
  O  O28  1  0.85998300  0.72412800  0.88450600  1
  O  O29  1  0.86675600  0.97536800  0.39309800  1
  O  O30  1  0.36248500  0.00295300  0.88323000  1
  O  O31  1  0.86039400  0.23217000  0.88125300  1
