# generated using pymatgen
data_Li4Mn3SbO8
_symmetry_space_group_name_H-M   'P 1'
_cell_length_a   6.12893322
_cell_length_b   8.63264661
_cell_length_c   6.26101023
_cell_angle_alpha   90.00300206
_cell_angle_beta   90.06848110
_cell_angle_gamma   91.44339076
_symmetry_Int_Tables_number   1
_chemical_formula_structural   Li4Mn3SbO8
_chemical_formula_sum   'Li8 Mn6 Sb2 O16'
_cell_volume   331.15790786
_cell_formula_units_Z   2
loop_
 _symmetry_equiv_pos_site_id
 _symmetry_equiv_pos_as_xyz
  1  'x, y, z'
loop_
 _atom_site_type_symbol
 _atom_site_label
 _atom_site_symmetry_multiplicity
 _atom_site_fract_x
 _atom_site_fract_y
 _atom_site_fract_z
 _atom_site_occupancy
  Li  Li0  1  0.50488500  0.99882200  0.49953000  1
  Li  Li1  1  0.99442900  0.50132900  0.99993500  1
  Li  Li2  1  0.75002000  0.75002400  0.25008500  1
  Li  Li3  1  0.25007600  0.24999000  0.74999300  1
  Li  Li4  1  0.50023600  0.99979500  0.99506700  1
  Li  Li5  1  0.99984100  0.50029000  0.50496000  1
  Li  Li6  1  0.24933000  0.25004600  0.25081700  1
  Li  Li7  1  0.75009900  0.75000000  0.74996900  1
  Mn  Mn8  1  0.00290900  0.99933400  0.49863400  1
  Mn  Mn9  1  0.49691900  0.50043400  0.00138700  1
  Mn  Mn10  1  0.75018300  0.24995800  0.74980900  1
  Mn  Mn11  1  0.75006600  0.25006500  0.24995100  1
  Mn  Mn12  1  0.25008700  0.75000500  0.75011600  1
  Mn  Mn13  1  0.24989800  0.74990100  0.25011400  1
  Sb  Sb14  1  0.99978200  0.99988100  0.00164200  1
  Sb  Sb15  1  0.50035700  0.50010100  0.49840600  1
  O  O16  1  0.53282300  0.25256400  0.97263900  1
  O  O17  1  0.03253800  0.75189900  0.52631000  1
  O  O18  1  0.96774900  0.24747200  0.52686500  1
  O  O19  1  0.46749400  0.74796300  0.97398900  1
  O  O20  1  0.26557000  0.49362900  0.26987900  1
  O  O21  1  0.76510600  0.00845000  0.76976300  1
  O  O22  1  0.49013500  0.26498600  0.49986500  1
  O  O23  1  0.98977000  0.76449400  0.00074300  1
  O  O24  1  0.76567700  0.99400900  0.23020600  1
  O  O25  1  0.26424100  0.50948800  0.72851300  1
  O  O26  1  0.23438400  0.00633800  0.23025200  1
  O  O27  1  0.73505200  0.49151300  0.73009400  1
  O  O28  1  0.01003500  0.23504000  0.99992500  1
  O  O29  1  0.51020900  0.73556400  0.49935900  1
  O  O30  1  0.73426000  0.50609700  0.26968100  1
  O  O31  1  0.23583900  0.99051400  0.77150200  1
