# generated using pymatgen
data_Li4Fe3Sn3(SbO8)2
_symmetry_space_group_name_H-M   'P 1'
_cell_length_a   6.23263937
_cell_length_b   11.65850463
_cell_length_c   10.76032795
_cell_angle_alpha   116.87773058
_cell_angle_beta   90.08174358
_cell_angle_gamma   74.98540398
_symmetry_Int_Tables_number   1
_chemical_formula_structural   Li4Fe3Sn3(SbO8)2
_chemical_formula_sum   'Li8 Fe6 Sn6 Sb4 O32'
_cell_volume   667.50513829
_cell_formula_units_Z   2
loop_
 _symmetry_equiv_pos_site_id
 _symmetry_equiv_pos_as_xyz
  1  'x, y, z'
loop_
 _atom_site_type_symbol
 _atom_site_label
 _atom_site_symmetry_multiplicity
 _atom_site_fract_x
 _atom_site_fract_y
 _atom_site_fract_z
 _atom_site_occupancy
  Li  Li0  1  0.04759663  0.90011105  0.62076321  1
  Li  Li1  1  0.54804758  0.89964768  0.11802518  1
  Li  Li2  1  0.48900832  0.98148300  0.49873287  1
  Li  Li3  1  0.99029993  0.98001594  0.99472611  1
  Li  Li4  1  0.74269642  0.49482267  0.25471491  1
  Li  Li5  1  0.23733018  0.49771866  0.75251822  1
  Li  Li6  1  0.78582137  0.41165665  0.54244126  1
  Li  Li7  1  0.28818808  0.40963589  0.04057335  1
  Fe  Fe8  1  0.64996181  0.71366315  0.52797193  1
  Fe  Fe9  1  0.14698152  0.71030723  0.02413265  1
  Fe  Fe10  1  0.89158336  0.71170881  0.76805043  1
  Fe  Fe11  1  0.63898443  0.21275854  0.19177346  1
  Fe  Fe12  1  0.13664993  0.21516227  0.69283451  1
  Fe  Fe13  1  0.38983049  0.71223300  0.26854507  1
  Sn  Sn14  1  0.40222105  0.71374769  0.76991066  1
  Sn  Sn15  1  0.90162211  0.71171692  0.26975762  1
  Sn  Sn16  1  0.14914414  0.21311154  0.18942576  1
  Sn  Sn17  1  0.64558585  0.21382390  0.69099470  1
  Sn  Sn18  1  0.39483338  0.21452773  0.43856031  1
  Sn  Sn19  1  0.89382168  0.21323663  0.93767822  1
  Sb  Sb20  1  0.26346208  0.49132990  0.40698653  1
  Sb  Sb21  1  0.76065432  0.49068021  0.90771974  1
  Sb  Sb22  1  0.52450396  0.98022136  0.81878191  1
  Sb  Sb23  1  0.02579798  0.98095959  0.31981287  1
  O  O24  1  0.10449228  0.34669326  0.41316335  1
  O  O25  1  0.60225529  0.34667403  0.91458469  1
  O  O26  1  0.44541727  0.10424071  0.22030322  1
  O  O27  1  0.94422919  0.10504214  0.72037606  1
  O  O28  1  0.34359164  0.31212687  0.65622535  1
  O  O29  1  0.84533100  0.30968410  0.15455424  1
  O  O30  1  0.10727924  0.79774784  0.89662564  1
  O  O31  1  0.59988184  0.79679983  0.39423566  1
  O  O32  1  0.69736058  0.09731073  0.46807710  1
  O  O33  1  0.20258905  0.09882303  0.96477721  1
  O  O34  1  0.44846785  0.59047754  0.37014817  1
  O  O35  1  0.95514906  0.58482357  0.87808853  1
  O  O36  1  0.69337754  0.60673271  0.63709947  1
  O  O37  1  0.20119778  0.60698456  0.14027507  1
  O  O38  1  0.79758627  0.85513709  0.68444728  1
  O  O39  1  0.30806674  0.84652900  0.19026300  1
  O  O40  1  0.96350182  0.58764977  0.37348920  1
  O  O41  1  0.46469228  0.58806536  0.87510124  1
  O  O42  1  0.21499525  0.58939941  0.62006006  1
  O  O43  1  0.69988463  0.59366362  0.12724447  1
  O  O44  1  0.31653173  0.35000133  0.19448698  1
  O  O45  1  0.81536207  0.34953079  0.69540359  1
  O  O46  1  0.54089884  0.35071921  0.41698311  1
  O  O47  1  0.03520403  0.35222148  0.92216316  1
  O  O48  1  0.34855546  0.85597950  0.68968977  1
  O  O49  1  0.85170815  0.85177668  0.18973463  1
  O  O50  1  0.56644897  0.85522479  0.90921292  1
  O  O51  1  0.08457649  0.84359911  0.40395524  1
  O  O52  1  0.96780726  0.08930766  0.20701563  1
  O  O53  1  0.45928785  0.09363956  0.71373909  1
  O  O54  1  0.21322368  0.09245231  0.46082752  1
  O  O55  1  0.70827430  0.09234241  0.95976088  1
