# generated using pymatgen
data_Li3Ag2
_symmetry_space_group_name_H-M   'P 1'
_cell_length_a   3.34102900
_cell_length_b   3.34102900
_cell_length_c   14.92032600
_cell_angle_alpha   90.00000000
_cell_angle_beta   90.00000000
_cell_angle_gamma   90.00000000
_symmetry_Int_Tables_number   1
_chemical_formula_structural   Li3Ag2
_chemical_formula_sum   'Li6 Ag4'
_cell_volume   166.54776267
_cell_formula_units_Z   2
loop_
 _symmetry_equiv_pos_site_id
 _symmetry_equiv_pos_as_xyz
  1  'x, y, z'
loop_
 _atom_site_type_symbol
 _atom_site_label
 _atom_site_symmetry_multiplicity
 _atom_site_fract_x
 _atom_site_fract_y
 _atom_site_fract_z
 _atom_site_occupancy
  Li  Li0  1  0.50000000  0.50000000  0.10761500  1
  Li  Li1  1  0.50000000  0.50000000  0.30014800  1
  Li  Li2  1  0.50000000  0.50000000  0.50000000  1
  Li  Li3  1  0.50000000  0.50000000  0.69985200  1
  Li  Li4  1  0.50000000  0.50000000  0.89238500  1
  Li  Li5  1  0.00000000  0.00000000  0.00000000  1
  Ag  Ag6  1  0.00000000  0.00000000  0.20105700  1
  Ag  Ag7  1  0.00000000  0.00000000  0.40037400  1
  Ag  Ag8  1  0.00000000  0.00000000  0.59962600  1
  Ag  Ag9  1  0.00000000  0.00000000  0.79894300  1
