# generated using pymatgen
data_Li2VFeP2(HO5)2
_symmetry_space_group_name_H-M   'P 1'
_cell_length_a   6.96682935
_cell_length_b   7.39202942
_cell_length_c   7.98973414
_cell_angle_alpha   90.97522292
_cell_angle_beta   92.68691590
_cell_angle_gamma   116.98155399
_symmetry_Int_Tables_number   1
_chemical_formula_structural   Li2VFeP2(HO5)2
_chemical_formula_sum   'Li4 V2 Fe2 P4 H4 O20'
_cell_volume   365.93457335
_cell_formula_units_Z   2
loop_
 _symmetry_equiv_pos_site_id
 _symmetry_equiv_pos_as_xyz
  1  'x, y, z'
loop_
 _atom_site_type_symbol
 _atom_site_label
 _atom_site_symmetry_multiplicity
 _atom_site_fract_x
 _atom_site_fract_y
 _atom_site_fract_z
 _atom_site_occupancy
  Li  Li0  1  0.57015700  0.82433000  0.17507400  1
  Li  Li1  1  0.07024300  0.82445700  0.67507000  1
  Li  Li2  1  0.42985100  0.17567000  0.82491600  1
  Li  Li3  1  0.92974900  0.17552100  0.32493000  1
  V  V4  1  0.49995800  0.99997700  0.50000400  1
  V  V5  1  0.99997600  0.99998400  0.99997700  1
  Fe  Fe6  1  0.00010700  0.50003800  0.00011700  1
  Fe  Fe7  1  0.50005700  0.50018300  0.49999100  1
  P  P8  1  0.51877100  0.23205500  0.15746200  1
  P  P9  1  0.01872100  0.23208000  0.65745300  1
  P  P10  1  0.48122500  0.76794900  0.84253400  1
  P  P11  1  0.98127600  0.76793300  0.34253800  1
  H  H12  1  0.20984900  0.34076200  0.15033200  1
  H  H13  1  0.70984200  0.34076400  0.65022700  1
  H  H14  1  0.79015900  0.65919700  0.84966900  1
  H  H15  1  0.29012400  0.65922400  0.34975100  1
  O  O16  1  0.44241900  0.72286900  0.39527900  1
  O  O17  1  0.94245100  0.72288300  0.89521200  1
  O  O18  1  0.55755900  0.27715600  0.60468500  1
  O  O19  1  0.05755100  0.27709000  0.10479200  1
  O  O20  1  0.46504600  0.37977400  0.26142000  1
  O  O21  1  0.96505200  0.37979400  0.76146900  1
  O  O22  1  0.53493800  0.62023200  0.73856400  1
  O  O23  1  0.03496000  0.62020800  0.23854800  1
  O  O24  1  0.32340800  0.65939400  0.98009200  1
  O  O25  1  0.82341700  0.65946700  0.48006900  1
  O  O26  1  0.67660700  0.34058600  0.01990600  1
  O  O27  1  0.17657900  0.34052200  0.51990900  1
  O  O28  1  0.31253700  0.07274600  0.05839100  1
  O  O29  1  0.81254200  0.07272700  0.55830300  1
  O  O30  1  0.68744200  0.92722400  0.94162000  1
  O  O31  1  0.18743400  0.92723400  0.44170000  1
  O  O32  1  0.61193600  0.11808800  0.27337900  1
  O  O33  1  0.11193800  0.11808500  0.77336400  1
  O  O34  1  0.38805600  0.88190100  0.72662600  1
  O  O35  1  0.88806100  0.88189900  0.22662900  1
