# generated using pymatgen
data_Li5Mn3O8
_symmetry_space_group_name_H-M   'P 1'
_cell_length_a   4.98615157
_cell_length_b   9.80613721
_cell_length_c   5.93710085
_cell_angle_alpha   88.72515447
_cell_angle_beta   89.16245776
_cell_angle_gamma   79.63123891
_symmetry_Int_Tables_number   1
_chemical_formula_structural   Li5Mn3O8
_chemical_formula_sum   'Li10 Mn6 O16'
_cell_volume   285.46599262
_cell_formula_units_Z   2
loop_
 _symmetry_equiv_pos_site_id
 _symmetry_equiv_pos_as_xyz
  1  'x, y, z'
loop_
 _atom_site_type_symbol
 _atom_site_label
 _atom_site_symmetry_multiplicity
 _atom_site_fract_x
 _atom_site_fract_y
 _atom_site_fract_z
 _atom_site_occupancy
  Li  Li0  1  0.74987500  0.24998200  0.24988200  1
  Li  Li1  1  0.24985100  0.74992800  0.24981600  1
  Li  Li2  1  0.74995300  0.25004600  0.74995200  1
  Li  Li3  1  0.25000700  0.75002100  0.74987000  1
  Li  Li4  1  0.50179700  0.99783800  0.25126200  1
  Li  Li5  1  0.99806900  0.50222800  0.24884300  1
  Li  Li6  1  0.25814400  0.25280300  0.48946000  1
  Li  Li7  1  0.74107600  0.75047500  0.48036100  1
  Li  Li8  1  0.24170100  0.24727700  0.01056400  1
  Li  Li9  1  0.75868700  0.74962500  0.01921500  1
  Mn  Mn10  1  0.00093700  0.49810900  0.74420600  1
  Mn  Mn11  1  0.99969200  0.99882100  0.00954900  1
  Mn  Mn12  1  0.99854300  0.00061200  0.49844300  1
  Mn  Mn13  1  0.49915500  0.00182300  0.75580300  1
  Mn  Mn14  1  0.50152000  0.49943500  0.00164500  1
  Mn  Mn15  1  0.50031600  0.50114700  0.49054500  1
  O  O16  1  0.10076600  0.11360000  0.23963200  1
  O  O17  1  0.60718100  0.62235800  0.26988700  1
  O  O18  1  0.39918700  0.38646200  0.26032500  1
  O  O19  1  0.89274900  0.87771300  0.23000500  1
  O  O20  1  0.14404000  0.11522300  0.77219700  1
  O  O21  1  0.63447800  0.60840200  0.73941400  1
  O  O22  1  0.35606900  0.38467200  0.72782500  1
  O  O23  1  0.86575000  0.89154700  0.76045400  1
  O  O24  1  0.63931900  0.11036200  0.98458200  1
  O  O25  1  0.13366700  0.60717500  0.97475800  1
  O  O26  1  0.63494900  0.11188300  0.51878500  1
  O  O27  1  0.13878500  0.61192200  0.51366200  1
  O  O28  1  0.86089800  0.38966400  0.51561900  1
  O  O29  1  0.36662100  0.89288600  0.52546000  1
  O  O30  1  0.86510300  0.38799700  0.98141600  1
  O  O31  1  0.36111600  0.88796300  0.98656600  1
