# generated using pymatgen
data_Li9Mn2Co5O16
_symmetry_space_group_name_H-M   'P 1'
_cell_length_a   2.91493100
_cell_length_b   9.81678400
_cell_length_c   10.09103760
_cell_angle_alpha   80.07522095
_cell_angle_beta   90.00000000
_cell_angle_gamma   90.00000000
_symmetry_Int_Tables_number   1
_chemical_formula_structural   Li9Mn2Co5O16
_chemical_formula_sum   'Li9 Mn2 Co5 O16'
_cell_volume   284.43625190
_cell_formula_units_Z   1
loop_
 _symmetry_equiv_pos_site_id
 _symmetry_equiv_pos_as_xyz
  1  'x, y, z'
loop_
 _atom_site_type_symbol
 _atom_site_label
 _atom_site_symmetry_multiplicity
 _atom_site_fract_x
 _atom_site_fract_y
 _atom_site_fract_z
 _atom_site_occupancy
  Li  Li0  1  0.50000000  0.24942500  0.62633400  1
  Li  Li1  1  0.50000000  0.75057500  0.37366600  1
  Li  Li2  1  0.50000000  0.24439900  0.12112300  1
  Li  Li3  1  0.00000000  0.25167300  0.37597900  1
  Li  Li4  1  0.00000000  0.75764700  0.11529800  1
  Li  Li5  1  0.00000000  0.24235300  0.88470200  1
  Li  Li6  1  0.50000000  0.75560100  0.87887700  1
  Li  Li7  1  0.00000000  0.74832700  0.62402100  1
  Li  Li8  1  0.50000000  0.00000000  0.00000000  1
  Mn  Mn9  1  0.00000000  0.99701300  0.75486400  1
  Mn  Mn10  1  0.00000000  0.00298700  0.24513600  1
  Co  Co11  1  0.00000000  0.50000000  0.50000000  1
  Co  Co12  1  0.00000000  0.50000000  0.00000000  1
  Co  Co13  1  0.50000000  0.50168800  0.24955100  1
  Co  Co14  1  0.50000000  0.49831200  0.75044900  1
  Co  Co15  1  0.50000000  0.00000000  0.50000000  1
  O  O16  1  0.50000000  0.11003100  0.80146200  1
  O  O17  1  0.50000000  0.61611500  0.56035500  1
  O  O18  1  0.50000000  0.10619000  0.31928700  1
  O  O19  1  0.00000000  0.10567800  0.56172400  1
  O  O20  1  0.00000000  0.61733500  0.31100000  1
  O  O21  1  0.00000000  0.11793200  0.08173200  1
  O  O22  1  0.50000000  0.61625600  0.06043000  1
  O  O23  1  0.00000000  0.61309600  0.80933400  1
  O  O24  1  0.50000000  0.38388500  0.43964500  1
  O  O25  1  0.50000000  0.88996900  0.19853800  1
  O  O26  1  0.50000000  0.38374400  0.93957000  1
  O  O27  1  0.00000000  0.38690400  0.19066600  1
  O  O28  1  0.00000000  0.88206800  0.91826800  1
  O  O29  1  0.00000000  0.38266500  0.68900000  1
  O  O30  1  0.50000000  0.89381000  0.68071300  1
  O  O31  1  0.00000000  0.89432200  0.43827600  1
