# generated using pymatgen
data_LiV2P2O9
_symmetry_space_group_name_H-M   'P 1'
_cell_length_a   6.38197400
_cell_length_b   7.71325200
_cell_length_c   13.93807300
_cell_angle_alpha   90.00000000
_cell_angle_beta   90.00000000
_cell_angle_gamma   90.00000000
_symmetry_Int_Tables_number   1
_chemical_formula_structural   LiV2P2O9
_chemical_formula_sum   'Li4 V8 P8 O36'
_cell_volume   686.11242758
_cell_formula_units_Z   4
loop_
 _symmetry_equiv_pos_site_id
 _symmetry_equiv_pos_as_xyz
  1  'x, y, z'
loop_
 _atom_site_type_symbol
 _atom_site_label
 _atom_site_symmetry_multiplicity
 _atom_site_fract_x
 _atom_site_fract_y
 _atom_site_fract_z
 _atom_site_occupancy
  Li  Li0  1  0.75000000  0.95310800  0.76648000  1
  Li  Li1  1  0.75000000  0.54689200  0.26648000  1
  Li  Li2  1  0.25000000  0.45310800  0.73352000  1
  Li  Li3  1  0.25000000  0.04689200  0.23352000  1
  V  V4  1  0.75000000  0.35036600  0.88112100  1
  V  V5  1  0.25000000  0.64963400  0.11887900  1
  V  V6  1  0.25000000  0.85036600  0.61887900  1
  V  V7  1  0.75000000  0.14963400  0.38112100  1
  V  V8  1  0.50000000  0.00000000  0.00000000  1
  V  V9  1  0.50000000  0.50000000  0.50000000  1
  V  V10  1  0.00000000  0.50000000  0.50000000  1
  V  V11  1  0.00000000  0.00000000  0.00000000  1
  P  P12  1  0.25000000  0.35184100  0.93554900  1
  P  P13  1  0.75000000  0.64815900  0.06445100  1
  P  P14  1  0.75000000  0.85184100  0.56445100  1
  P  P15  1  0.25000000  0.14815900  0.43554900  1
  P  P16  1  0.75000000  0.38395800  0.69235600  1
  P  P17  1  0.75000000  0.11604200  0.19235600  1
  P  P18  1  0.25000000  0.88395800  0.80764400  1
  P  P19  1  0.25000000  0.61604200  0.30764400  1
  O  O20  1  0.04732300  0.59651600  0.36856800  1
  O  O21  1  0.54732300  0.40348400  0.63143200  1
  O  O22  1  0.95267700  0.09651600  0.13143200  1
  O  O23  1  0.45267700  0.90348400  0.86856800  1
  O  O24  1  0.95267700  0.40348400  0.63143200  1
  O  O25  1  0.45267700  0.59651600  0.36856800  1
  O  O26  1  0.04732300  0.90348400  0.86856800  1
  O  O27  1  0.54732300  0.09651600  0.13143200  1
  O  O28  1  0.25000000  0.33411900  0.48201900  1
  O  O29  1  0.75000000  0.66588100  0.51798100  1
  O  O30  1  0.75000000  0.83411900  0.01798100  1
  O  O31  1  0.25000000  0.16588100  0.98201900  1
  O  O32  1  0.75000000  0.14699500  0.94687300  1
  O  O33  1  0.25000000  0.85300500  0.05312700  1
  O  O34  1  0.25000000  0.64699500  0.55312700  1
  O  O35  1  0.75000000  0.35300500  0.44687300  1
  O  O36  1  0.75000000  0.21230000  0.75118800  1
  O  O37  1  0.25000000  0.78770000  0.24881200  1
  O  O38  1  0.25000000  0.71230000  0.74881200  1
  O  O39  1  0.75000000  0.28770000  0.25118800  1
  O  O40  1  0.44033700  0.13364200  0.36852500  1
  O  O41  1  0.94033700  0.86635800  0.63147500  1
  O  O42  1  0.55966300  0.63364200  0.13147500  1
  O  O43  1  0.05966300  0.36635800  0.86852500  1
  O  O44  1  0.55966300  0.86635800  0.63147500  1
  O  O45  1  0.05966300  0.13364200  0.36852500  1
  O  O46  1  0.44033700  0.36635800  0.86852500  1
  O  O47  1  0.94033700  0.63364200  0.13147500  1
  O  O48  1  0.75000000  0.51510400  0.98396200  1
  O  O49  1  0.25000000  0.02103300  0.72524300  1
  O  O50  1  0.25000000  0.47896700  0.22524300  1
  O  O51  1  0.75000000  0.52103300  0.77475700  1
  O  O52  1  0.75000000  0.98489600  0.48396200  1
  O  O53  1  0.25000000  0.01510400  0.51603800  1
  O  O54  1  0.25000000  0.48489600  0.01603800  1
  O  O55  1  0.75000000  0.97896700  0.27475700  1
