# generated using pymatgen
data_Li9Co7O16
_symmetry_space_group_name_H-M   'P 1'
_cell_length_a   10.29988475
_cell_length_b   10.29988475
_cell_length_c   9.85682149
_cell_angle_alpha   73.20746069
_cell_angle_beta   73.20746069
_cell_angle_gamma   16.35235793
_symmetry_Int_Tables_number   1
_chemical_formula_structural   Li9Co7O16
_chemical_formula_sum   'Li9 Co7 O16'
_cell_volume   281.58710694
_cell_formula_units_Z   1
loop_
 _symmetry_equiv_pos_site_id
 _symmetry_equiv_pos_as_xyz
  1  'x, y, z'
loop_
 _atom_site_type_symbol
 _atom_site_label
 _atom_site_symmetry_multiplicity
 _atom_site_fract_x
 _atom_site_fract_y
 _atom_site_fract_z
 _atom_site_occupancy
  Li  Li0  1  0.93809300  0.93809300  0.80768200  1
  Li  Li1  1  0.06190700  0.06190700  0.19231800  1
  Li  Li2  1  0.18740300  0.18740300  0.55834100  1
  Li  Li3  1  0.55881300  0.55881300  0.68037600  1
  Li  Li4  1  0.68785800  0.68785800  0.06040900  1
  Li  Li5  1  0.81259700  0.81259700  0.44165900  1
  Li  Li6  1  0.31214200  0.31214200  0.93959100  1
  Li  Li7  1  0.44118700  0.44118700  0.31962400  1
  Li  Li8  1  0.00000000  0.00000000  0.50000000  1
  Co  Co9  1  0.37854900  0.37854900  0.62422000  1
  Co  Co10  1  0.62145100  0.62145100  0.37578000  1
  Co  Co11  1  0.50000000  0.50000000  0.00000000  1
  Co  Co12  1  0.74908300  0.74908300  0.74540100  1
  Co  Co13  1  0.87572300  0.87572300  0.12522400  1
  Co  Co14  1  0.12427700  0.12427700  0.87477600  1
  Co  Co15  1  0.25091700  0.25091700  0.25459900  1
  O  O16  1  0.84393600  0.84393600  0.76134200  1
  O  O17  1  0.96635300  0.96635300  0.15135900  1
  O  O18  1  0.09820500  0.09820600  0.50771300  1
  O  O19  1  0.46080800  0.46080800  0.65697200  1
  O  O20  1  0.58995200  0.58995200  0.02228900  1
  O  O21  1  0.71529200  0.71529200  0.39832600  1
  O  O22  1  0.21593800  0.21593800  0.90162400  1
  O  O23  1  0.34090500  0.34090500  0.27809000  1
  O  O24  1  0.03364700  0.03364700  0.84864100  1
  O  O25  1  0.15606400  0.15606400  0.23865800  1
  O  O26  1  0.28470800  0.28470800  0.60167400  1
  O  O27  1  0.65909500  0.65909500  0.72191000  1
  O  O28  1  0.78406200  0.78406200  0.09837600  1
  O  O29  1  0.90179500  0.90179500  0.49228700  1
  O  O30  1  0.41004800  0.41004800  0.97771100  1
  O  O31  1  0.53919200  0.53919200  0.34302800  1
