# generated using pymatgen
data_Li6MnV3(PO4)6
_symmetry_space_group_name_H-M   'P 1'
_cell_length_a   8.72693600
_cell_length_b   8.76024013
_cell_length_c   12.26272138
_cell_angle_alpha   89.95410000
_cell_angle_beta   89.23855671
_cell_angle_gamma   89.80423786
_symmetry_Int_Tables_number   1
_chemical_formula_structural   Li6MnV3(PO4)6
_chemical_formula_sum   'Li12 Mn2 V6 P12 O48'
_cell_volume   937.39719840
_cell_formula_units_Z   2
loop_
 _symmetry_equiv_pos_site_id
 _symmetry_equiv_pos_as_xyz
  1  'x, y, z'
loop_
 _atom_site_type_symbol
 _atom_site_label
 _atom_site_symmetry_multiplicity
 _atom_site_fract_x
 _atom_site_fract_y
 _atom_site_fract_z
 _atom_site_occupancy
  Li  Li0  1  0.07630600  0.90308300  0.30237800  1
  Li  Li1  1  0.08258500  0.29554600  0.24138600  1
  Li  Li2  1  0.21087400  0.22761500  0.82143900  1
  Li  Li3  1  0.28942400  0.72691900  0.67883000  1
  Li  Li4  1  0.41905500  0.79523500  0.25897100  1
  Li  Li5  1  0.42394200  0.40317300  0.19743300  1
  Li  Li6  1  0.57907600  0.59522000  0.80241700  1
  Li  Li7  1  0.58440500  0.20510500  0.74124700  1
  Li  Li8  1  0.71086300  0.27335100  0.32192000  1
  Li  Li9  1  0.78766500  0.77221800  0.17925200  1
  Li  Li10  1  0.91555800  0.70281500  0.75961100  1
  Li  Li11  1  0.92252800  0.09827000  0.69777400  1
  Mn  Mn12  1  0.74598700  0.95711400  0.38971300  1
  Mn  Mn13  1  0.75591400  0.53293100  0.60666700  1
  V  V14  1  0.24633300  0.46958100  0.38954100  1
  V  V15  1  0.24649900  0.54109800  0.88859000  1
  V  V16  1  0.25414700  0.96886000  0.11010600  1
  V  V17  1  0.25309500  0.04270200  0.61113800  1
  V  V18  1  0.74620700  0.03071000  0.89060800  1
  V  V19  1  0.75291800  0.45834200  0.11156400  1
  P  P20  1  0.03867200  0.75277000  0.50673400  1
  P  P21  1  0.10500500  0.61241400  0.14695100  1
  P  P22  1  0.10628500  0.90155400  0.85123400  1
  P  P23  1  0.39480900  0.11193100  0.35314700  1
  P  P24  1  0.39580400  0.40170700  0.64816700  1
  P  P25  1  0.46095800  0.25188100  0.99369200  1
  P  P26  1  0.53885100  0.74766700  0.00603000  1
  P  P27  1  0.60384700  0.59732700  0.34810000  1
  P  P28  1  0.60700700  0.88690700  0.64494800  1
  P  P29  1  0.89291200  0.09808800  0.15034600  1
  P  P30  1  0.89470800  0.38791300  0.85525400  1
  P  P31  1  0.95993500  0.25204700  0.49370500  1
  O  O32  1  0.04901700  0.13716700  0.56603500  1
  O  O33  1  0.06511900  0.32954400  0.40734800  1
  O  O34  1  0.06952900  0.40472400  0.83407900  1
  O  O35  1  0.07153800  0.10369700  0.15287200  1
  O  O36  1  0.11523000  0.64325600  0.42478500  1
  O  O37  1  0.14749000  0.58626900  0.02716800  1
  O  O38  1  0.14933100  0.77840300  0.18129600  1
  O  O39  1  0.15080100  0.02471000  0.76283700  1
  O  O40  1  0.15842700  0.74005900  0.81255900  1
  O  O41  1  0.16599200  0.83609800  0.57065100  1
  O  O42  1  0.17145500  0.94885000  0.95914500  1
  O  O43  1  0.19295900  0.49196400  0.21729800  1
  O  O44  1  0.30728500  0.99190600  0.28321300  1
  O  O45  1  0.32969100  0.44890500  0.54037100  1
  O  O46  1  0.33308700  0.33356900  0.92951400  1
  O  O47  1  0.34268600  0.23946000  0.68621500  1
  O  O48  1  0.35027100  0.27769900  0.31871100  1
  O  O49  1  0.34977600  0.52406800  0.73651200  1
  O  O50  1  0.35211500  0.08540100  0.47313400  1
  O  O51  1  0.38411300  0.14209800  0.07598200  1
  O  O52  1  0.42504200  0.60383700  0.34659800  1
  O  O53  1  0.43219800  0.90493900  0.66510100  1
  O  O54  1  0.43612100  0.82662100  0.09329600  1
  O  O55  1  0.44925100  0.63503500  0.93395300  1
  O  O56  1  0.55016900  0.36477400  0.06520900  1
  O  O57  1  0.56394000  0.17268100  0.90631800  1
  O  O58  1  0.57003100  0.09503100  0.33344300  1
  O  O59  1  0.57463800  0.39319400  0.65180100  1
  O  O60  1  0.61559900  0.85787200  0.92374600  1
  O  O61  1  0.64346000  0.91126000  0.52350000  1
  O  O62  1  0.64778400  0.47246600  0.26090800  1
  O  O63  1  0.65198500  0.72018400  0.67950100  1
  O  O64  1  0.65346400  0.75737100  0.30775800  1
  O  O65  1  0.66710400  0.66551700  0.06946700  1
  O  O66  1  0.67073000  0.55054300  0.45574600  1
  O  O67  1  0.69409900  0.00641100  0.71569600  1
  O  O68  1  0.80576000  0.50950200  0.78854400  1
  O  O69  1  0.82808100  0.05060200  0.04211900  1
  O  O70  1  0.83286300  0.17351300  0.43021900  1
  O  O71  1  0.84173100  0.25977900  0.18812400  1
  O  O72  1  0.84775100  0.97454900  0.23912500  1
  O  O73  1  0.85053900  0.22170700  0.81984800  1
  O  O74  1  0.85536800  0.41027300  0.97590700  1
  O  O75  1  0.88925100  0.36173300  0.58075800  1
  O  O76  1  0.92767200  0.89512200  0.84822500  1
  O  O77  1  0.93058000  0.59504000  0.16718900  1
  O  O78  1  0.93762600  0.67412300  0.59517400  1
  O  O79  1  0.94908000  0.86638600  0.43410800  1
