# generated using pymatgen
data_Li5V3P8O29
_symmetry_space_group_name_H-M   'P 1'
_cell_length_a   9.78446500
_cell_length_b   9.81153199
_cell_length_c   14.05076589
_cell_angle_alpha   89.86736528
_cell_angle_beta   89.83433632
_cell_angle_gamma   60.13993399
_symmetry_Int_Tables_number   1
_chemical_formula_structural   Li5V3P8O29
_chemical_formula_sum   'Li10 V6 P16 O58'
_cell_volume   1169.80415760
_cell_formula_units_Z   2
loop_
 _symmetry_equiv_pos_site_id
 _symmetry_equiv_pos_as_xyz
  1  'x, y, z'
loop_
 _atom_site_type_symbol
 _atom_site_label
 _atom_site_symmetry_multiplicity
 _atom_site_fract_x
 _atom_site_fract_y
 _atom_site_fract_z
 _atom_site_occupancy
  Li  Li0  1  0.31368500  0.91226100  0.05603300  1
  Li  Li1  1  0.77203000  0.90473400  0.56479500  1
  Li  Li2  1  0.66431000  0.66646000  0.88377600  1
  Li  Li3  1  0.91897600  0.78076600  0.05684600  1
  Li  Li4  1  0.77573700  0.30187400  0.05797200  1
  Li  Li5  1  0.09473000  0.67969300  0.44466700  1
  Li  Li6  1  0.91062800  0.32204600  0.56273600  1
  Li  Li7  1  0.09201700  0.22588100  0.93763900  1
  Li  Li8  1  0.22506700  0.08352700  0.44088900  1
  Li  Li9  1  0.68260800  0.22505900  0.44465300  1
  V  V10  1  0.99915900  0.57023800  0.24849500  1
  V  V11  1  0.00073200  0.43394800  0.75108400  1
  V  V12  1  0.42538900  0.57246200  0.74988100  1
  V  V13  1  0.56278300  0.43499000  0.24936000  1
  V  V14  1  0.43271600  0.99956700  0.24908000  1
  V  V15  1  0.56881200  0.00299600  0.74930900  1
  P  P16  1  0.32008400  0.90910300  0.83909300  1
  P  P17  1  0.31594800  0.76864000  0.34193200  1
  P  P18  1  0.76604800  0.91232900  0.34385100  1
  P  P19  1  0.66587100  0.66564200  0.12710200  1
  P  P20  1  0.66812900  0.66351400  0.62787000  1
  P  P21  1  0.90697500  0.77132200  0.84182800  1
  P  P22  1  0.08818300  0.68107800  0.66049900  1
  P  P23  1  0.76763500  0.31978200  0.84503200  1
  P  P24  1  0.23123900  0.68521100  0.15641600  1
  P  P25  1  0.90916100  0.32287200  0.34088700  1
  P  P26  1  0.08765300  0.23420500  0.15876500  1
  P  P27  1  0.33246600  0.33403200  0.37081200  1
  P  P28  1  0.33466500  0.33417800  0.87173100  1
  P  P29  1  0.23192500  0.08607000  0.65593400  1
  P  P30  1  0.68227900  0.23471000  0.66038800  1
  P  P31  1  0.68359000  0.08687400  0.16086400  1
  O  O32  1  0.24089500  0.00406300  0.56550200  1
  O  O33  1  0.33754900  0.91474900  0.33889100  1
  O  O34  1  0.24599600  0.76338400  0.07001800  1
  O  O35  1  0.33701000  0.74339400  0.83696300  1
  O  O36  1  0.48763100  0.88522900  0.82625500  1
  O  O37  1  0.51209500  0.81242000  0.16450700  1
  O  O38  1  0.61960300  0.89754800  0.32383700  1
  O  O39  1  0.77470800  0.99585300  0.07704400  1
  O  O40  1  0.74112500  0.91907300  0.83290300  1
  O  O41  1  0.52160100  0.66425500  0.67720600  1
  O  O42  1  0.47798600  0.61742900  0.32119900  1
  O  O43  1  0.67342700  0.81281400  0.66271700  1
  O  O44  1  0.66705700  0.65737000  0.02026400  1
  O  O45  1  0.66975800  0.65093300  0.52218700  1
  O  O46  1  0.81338700  0.67186500  0.16486500  1
  O  O47  1  0.62187400  0.48549500  0.82668900  1
  O  O48  1  0.66969900  0.51270800  0.16946100  1
  O  O49  1  0.91713300  0.74764300  0.33879100  1
  O  O50  1  0.99943500  0.78828900  0.75127900  1
  O  O51  1  0.00154600  0.76192600  0.57105300  1
  O  O52  1  0.99066300  0.76020100  0.93147900  1
  O  O53  1  0.88223800  0.62775600  0.82474500  1
  O  O54  1  0.81882700  0.51131400  0.67011800  1
  O  O55  1  0.08434400  0.66508600  0.15839300  1
  O  O56  1  0.89607500  0.48276800  0.32328700  1
  O  O57  1  0.74348300  0.33677900  0.33831000  1
  O  O58  1  0.21037700  0.78999400  0.24924800  1
  O  O59  1  0.23586400  0.75737800  0.42853800  1
  O  O60  1  0.76041400  0.24591400  0.57047800  1
  O  O61  1  0.25495500  0.66338700  0.66512700  1
  O  O62  1  0.10107700  0.51975600  0.67340800  1
  O  O63  1  0.91734600  0.33578900  0.84348700  1
  O  O64  1  0.18763100  0.48823300  0.33251800  1
  O  O65  1  0.10047900  0.38252600  0.17740200  1
  O  O66  1  0.99914300  0.24562800  0.06920600  1
  O  O67  1  0.99625400  0.24126800  0.42992700  1
  O  O68  1  0.99829700  0.21302800  0.24948200  1
  O  O69  1  0.08459800  0.25110900  0.66076800  1
  O  O70  1  0.33580800  0.48228800  0.82430800  1
  O  O71  1  0.38151400  0.52248100  0.17765900  1
  O  O72  1  0.17856100  0.33835800  0.83229800  1
  O  O73  1  0.32786900  0.34132700  0.97727000  1
  O  O74  1  0.34766400  0.33177800  0.47642700  1
  O  O75  1  0.32557700  0.18802900  0.33111200  1
  O  O76  1  0.52290900  0.38443100  0.67825900  1
  O  O77  1  0.48714800  0.32920900  0.32552200  1
  O  O78  1  0.25209900  0.08427100  0.15932300  1
  O  O79  1  0.21316300  0.99672400  0.74831900  1
  O  O80  1  0.23979900  0.99989900  0.92775000  1
  O  O81  1  0.38418200  0.09244600  0.67759100  1
  O  O82  1  0.47749600  0.19056800  0.82674800  1
  O  O83  1  0.52166200  0.09807300  0.17591900  1
  O  O84  1  0.66218500  0.25586700  0.16282000  1
  O  O85  1  0.75605400  0.24366000  0.93371400  1
  O  O86  1  0.78868500  0.21404400  0.75170300  1
  O  O87  1  0.66608300  0.08596900  0.65829000  1
  O  O88  1  0.75720200  0.99578700  0.43523600  1
  O  O89  1  0.78376700  0.01010400  0.25768900  1
