# generated using pymatgen
data_Li4V3P8O29
_symmetry_space_group_name_H-M   'P 1'
_cell_length_a   9.78970800
_cell_length_b   9.82595807
_cell_length_c   14.23299037
_cell_angle_alpha   89.76044165
_cell_angle_beta   89.74925099
_cell_angle_gamma   60.21690049
_symmetry_Int_Tables_number   1
_chemical_formula_structural   Li4V3P8O29
_chemical_formula_sum   'Li8 V6 P16 O58'
_cell_volume   1188.25917620
_cell_formula_units_Z   2
loop_
 _symmetry_equiv_pos_site_id
 _symmetry_equiv_pos_as_xyz
  1  'x, y, z'
loop_
 _atom_site_type_symbol
 _atom_site_label
 _atom_site_symmetry_multiplicity
 _atom_site_fract_x
 _atom_site_fract_y
 _atom_site_fract_z
 _atom_site_occupancy
  Li  Li0  1  0.22563800  0.08328800  0.55489500  1
  Li  Li1  1  0.08636500  0.68780300  0.55616000  1
  Li  Li2  1  0.23049200  0.67603900  0.06264700  1
  Li  Li3  1  0.68664600  0.08692700  0.06376200  1
  Li  Li4  1  0.68590300  0.21982700  0.55169100  1
  Li  Li5  1  0.30940000  0.91631800  0.94410300  1
  Li  Li6  1  0.77680400  0.31327200  0.94776700  1
  Li  Li7  1  0.90647700  0.32224700  0.43432500  1
  V  V8  1  0.43297200  0.57244200  0.25669300  1
  V  V9  1  0.56539900  0.43364900  0.74866100  1
  V  V10  1  0.43258900  0.00181600  0.74770500  1
  V  V11  1  0.56936200  0.99796600  0.25186500  1
  V  V12  1  0.00597900  0.43046600  0.24323600  1
  V  V13  1  0.99643900  0.56938600  0.75459000  1
  P  P14  1  0.08517700  0.23007600  0.83882100  1
  P  P15  1  0.22900300  0.09049300  0.33951600  1
  P  P16  1  0.08503600  0.68002800  0.34222200  1
  P  P17  1  0.33885400  0.33704000  0.12930000  1
  P  P18  1  0.32947600  0.33779500  0.63102100  1
  P  P19  1  0.23189200  0.68044800  0.84113000  1
  P  P20  1  0.31647600  0.76981400  0.65957400  1
  P  P21  1  0.67778800  0.09024600  0.84379800  1
  P  P22  1  0.31942900  0.91191900  0.16019500  1
  P  P23  1  0.67927600  0.23075500  0.33938500  1
  P  P24  1  0.76660800  0.32290200  0.16083900  1
  P  P25  1  0.67530700  0.66081000  0.37055500  1
  P  P26  1  0.66352100  0.66412700  0.86960000  1
  P  P27  1  0.91289300  0.32117400  0.65706100  1
  P  P28  1  0.77130100  0.91416700  0.66352800  1
  P  P29  1  0.91527300  0.77032100  0.16062900  1
  O  O30  1  0.99617500  0.24830400  0.56693100  1
  O  O31  1  0.07861300  0.25745700  0.33158500  1
  O  O32  1  0.24472400  0.98582700  0.06951000  1
  O  O33  1  0.25300000  0.08528500  0.83762600  1
  O  O34  1  0.09459800  0.38265200  0.82127600  1
  O  O35  1  0.18706300  0.33679100  0.17473900  1
  O  O36  1  0.09354500  0.52098500  0.32094400  1
  O  O37  1  0.01261800  0.75837700  0.07793900  1
  O  O38  1  0.08691800  0.65765100  0.83324700  1
  O  O39  1  0.32565100  0.18889100  0.66819700  1
  O  O40  1  0.37596600  0.10428200  0.32107400  1
  O  O41  1  0.18164600  0.48733700  0.67281000  1
  O  O42  1  0.32647100  0.34688300  0.02509800  1
  O  O43  1  0.33612700  0.34316800  0.52681300  1
  O  O44  1  0.33363100  0.48785000  0.17101100  1
  O  O45  1  0.51862300  0.10249700  0.82232100  1
  O  O46  1  0.48803400  0.18680400  0.16603300  1
  O  O47  1  0.25429400  0.65648900  0.33107500  1
  O  O48  1  0.21529400  0.79356100  0.75559600  1
  O  O49  1  0.23332000  0.75582400  0.57730500  1
  O  O50  1  0.24412600  0.75061700  0.93128100  1
  O  O51  1  0.38261400  0.51998100  0.82116000  1
  O  O52  1  0.48315300  0.33402900  0.67355300  1
  O  O53  1  0.34148000  0.74287400  0.16647400  1
  O  O54  1  0.51962200  0.38245900  0.32253700  1
  O  O55  1  0.65696900  0.08727800  0.33573200  1
  O  O56  1  0.21022300  0.99915200  0.25006200  1
  O  O57  1  0.22602900  0.01660200  0.43002300  1
  O  O58  1  0.76795700  0.00536200  0.57977200  1
  O  O59  1  0.33705100  0.91594900  0.65899500  1
  O  O60  1  0.47792900  0.61841400  0.67914800  1
  O  O61  1  0.66192500  0.25769800  0.83195900  1
  O  O62  1  0.52285000  0.65972700  0.32578600  1
  O  O63  1  0.61542300  0.47991600  0.17828700  1
  O  O64  1  0.75839500  0.24424800  0.07282800  1
  O  O65  1  0.75602200  0.24319000  0.42750100  1
  O  O66  1  0.78934900  0.21174900  0.25013800  1
  O  O67  1  0.74557400  0.33968400  0.66020500  1
  O  O68  1  0.51491100  0.81210500  0.83238100  1
  O  O69  1  0.47861800  0.90543300  0.17722000  1
  O  O70  1  0.66799200  0.51251900  0.82499300  1
  O  O71  1  0.67426800  0.64714700  0.97327300  1
  O  O72  1  0.66991800  0.64851500  0.47430800  1
  O  O73  1  0.82094900  0.50876500  0.32878100  1
  O  O74  1  0.61842500  0.90408200  0.67791700  1
  O  O75  1  0.67182000  0.80722800  0.32798500  1
  O  O76  1  0.91176200  0.34542300  0.16414100  1
  O  O77  1  0.00626000  0.20819000  0.74375900  1
  O  O78  1  0.99058600  0.24057900  0.92233500  1
  O  O79  1  0.90471600  0.47950600  0.67790700  1
  O  O80  1  0.81456500  0.66260400  0.82440400  1
  O  O81  1  0.90516500  0.61780500  0.17727700  1
  O  O82  1  0.74854700  0.91486600  0.15980000  1
  O  O83  1  0.74918800  0.02220700  0.93576200  1
  O  O84  1  0.79352500  0.99130200  0.75836200  1
  O  O85  1  0.91631100  0.74476300  0.66516300  1
  O  O86  1  0.01234500  0.74767600  0.43368200  1
  O  O87  1  0.99043100  0.79368800  0.25649500  1
