# generated using pymatgen
data_RbLiMg6O7
_symmetry_space_group_name_H-M   'P 1'
_cell_length_a   4.15575300
_cell_length_b   4.15575300
_cell_length_c   11.40730100
_cell_angle_alpha   90.00000000
_cell_angle_beta   90.00000000
_cell_angle_gamma   90.00000000
_symmetry_Int_Tables_number   1
_chemical_formula_structural   RbLiMg6O7
_chemical_formula_sum   'Rb1 Li1 Mg6 O7'
_cell_volume   197.00731650
_cell_formula_units_Z   1
loop_
 _symmetry_equiv_pos_site_id
 _symmetry_equiv_pos_as_xyz
  1  'x, y, z'
loop_
 _atom_site_type_symbol
 _atom_site_label
 _atom_site_symmetry_multiplicity
 _atom_site_fract_x
 _atom_site_fract_y
 _atom_site_fract_z
 _atom_site_occupancy
  Rb  Rb0  1  0.00000000  0.00000000  0.54612400  1
  Li  Li1  1  0.00000000  0.00000000  0.03034500  1
  Mg  Mg2  1  0.50000000  0.50000000  0.00705200  1
  Mg  Mg3  1  0.50000000  0.50000000  0.40235300  1
  Mg  Mg4  1  0.00000000  0.50000000  0.21159600  1
  Mg  Mg5  1  0.00000000  0.50000000  0.83795500  1
  Mg  Mg6  1  0.50000000  0.00000000  0.21159600  1
  Mg  Mg7  1  0.50000000  0.00000000  0.83795500  1
  O  O8  1  0.00000000  0.00000000  0.20081700  1
  O  O9  1  0.00000000  0.00000000  0.80486700  1
  O  O10  1  0.50000000  0.50000000  0.82827700  1
  O  O11  1  0.00000000  0.50000000  0.02617200  1
  O  O12  1  0.00000000  0.50000000  0.38935900  1
  O  O13  1  0.50000000  0.00000000  0.02617200  1
  O  O14  1  0.50000000  0.00000000  0.38935900  1
