# generated using pymatgen
data_Li9Mn7O16
_symmetry_space_group_name_H-M   'P 1'
_cell_length_a   3.01805800
_cell_length_b   8.20226949
_cell_length_c   12.14637678
_cell_angle_alpha   90.01740847
_cell_angle_beta   94.95732610
_cell_angle_gamma   90.97701936
_symmetry_Int_Tables_number   1
_chemical_formula_structural   Li9Mn7O16
_chemical_formula_sum   'Li9 Mn7 O16'
_cell_volume   299.51386591
_cell_formula_units_Z   1
loop_
 _symmetry_equiv_pos_site_id
 _symmetry_equiv_pos_as_xyz
  1  'x, y, z'
loop_
 _atom_site_type_symbol
 _atom_site_label
 _atom_site_symmetry_multiplicity
 _atom_site_fract_x
 _atom_site_fract_y
 _atom_site_fract_z
 _atom_site_occupancy
  Li  Li0  1  0.99236600  0.74854600  0.87895700  1
  Li  Li1  1  0.48451700  0.50088400  0.25982600  1
  Li  Li2  1  0.98851800  0.26826800  0.62483100  1
  Li  Li3  1  0.50000000  0.00000000  0.00000000  1
  Li  Li4  1  0.01148200  0.73173200  0.37516900  1
  Li  Li5  1  0.51548300  0.49911600  0.74017400  1
  Li  Li6  1  0.00763400  0.25145400  0.12104300  1
  Li  Li7  1  0.50000000  0.00000000  0.50000000  1
  Li  Li8  1  0.50000000  0.50000000  0.50000000  1
  Mn  Mn9  1  0.00656100  0.74001600  0.62049100  1
  Mn  Mn10  1  0.99343900  0.25998400  0.37950900  1
  Mn  Mn11  1  0.50000000  0.50000000  0.00000000  1
  Mn  Mn12  1  0.51353500  0.00039100  0.74523700  1
  Mn  Mn13  1  0.99643800  0.74994600  0.12639900  1
  Mn  Mn14  1  0.00356200  0.25005400  0.87360100  1
  Mn  Mn15  1  0.48646500  0.99960900  0.25476300  1
  O  O16  1  0.53583900  0.75829800  0.73332700  1
  O  O17  1  0.96692300  0.51058000  0.12103100  1
  O  O18  1  0.52671800  0.25065100  0.48253300  1
  O  O19  1  0.97423000  0.00931700  0.86949400  1
  O  O20  1  0.46629500  0.75915100  0.24866000  1
  O  O21  1  0.99328500  0.51791400  0.62744400  1
  O  O22  1  0.46694700  0.25878300  0.99814300  1
  O  O23  1  0.96139300  0.01215200  0.37165400  1
  O  O24  1  0.53305300  0.74121700  0.00185700  1
  O  O25  1  0.00671500  0.48208600  0.37255600  1
  O  O26  1  0.53370500  0.24084900  0.75134000  1
  O  O27  1  0.02577000  0.99068300  0.13050600  1
  O  O28  1  0.47328200  0.74934900  0.51746700  1
  O  O29  1  0.03307700  0.48942000  0.87896900  1
  O  O30  1  0.46416100  0.24170200  0.26667300  1
  O  O31  1  0.03860700  0.98784800  0.62834600  1
