# generated using pymatgen
data_Li3Sn3Pt2
_symmetry_space_group_name_H-M   'P 1'
_cell_length_a   11.36880045
_cell_length_b   11.36880045
_cell_length_c   11.36880045
_cell_angle_alpha   109.47122063
_cell_angle_beta   109.47122063
_cell_angle_gamma   109.47122063
_symmetry_Int_Tables_number   1
_chemical_formula_structural   Li3Sn3Pt2
_chemical_formula_sum   'Li24 Sn24 Pt16'
_cell_volume   1131.15479309
_cell_formula_units_Z   8
loop_
 _symmetry_equiv_pos_site_id
 _symmetry_equiv_pos_as_xyz
  1  'x, y, z'
loop_
 _atom_site_type_symbol
 _atom_site_label
 _atom_site_symmetry_multiplicity
 _atom_site_fract_x
 _atom_site_fract_y
 _atom_site_fract_z
 _atom_site_occupancy
  Li  Li0  1  0.25621400  0.25621400  0.25621400  1
  Li  Li1  1  0.74378600  0.74378600  0.74378600  1
  Li  Li2  1  0.24378600  0.50000000  0.00000000  1
  Li  Li3  1  0.00000000  0.24378600  0.50000000  1
  Li  Li4  1  0.75621400  0.50000000  0.00000000  1
  Li  Li5  1  0.00000000  0.75621400  0.50000000  1
  Li  Li6  1  0.50000000  0.00000000  0.24378600  1
  Li  Li7  1  0.50000000  0.00000000  0.75621400  1
  Li  Li8  1  0.24146400  0.99146400  0.25000000  1
  Li  Li9  1  0.75853600  0.00853600  0.75000000  1
  Li  Li10  1  0.25853600  0.50853600  0.75000000  1
  Li  Li11  1  0.99146400  0.25000000  0.24146400  1
  Li  Li12  1  0.74146400  0.49146400  0.25000000  1
  Li  Li13  1  0.00853600  0.75000000  0.75853600  1
  Li  Li14  1  0.50853600  0.75000000  0.25853600  1
  Li  Li15  1  0.49146400  0.25000000  0.74146400  1
  Li  Li16  1  0.25000000  0.24146400  0.99146400  1
  Li  Li17  1  0.75000000  0.75853600  0.00853600  1
  Li  Li18  1  0.75000000  0.25853600  0.50853600  1
  Li  Li19  1  0.25000000  0.74146400  0.49146400  1
  Li  Li20  1  0.50000000  0.50000000  0.50000000  1
  Li  Li21  1  0.00000000  0.50000000  0.00000000  1
  Li  Li22  1  0.00000000  0.00000000  0.50000000  1
  Li  Li23  1  0.50000000  0.00000000  0.00000000  1
  Sn  Sn24  1  0.02705600  0.26521600  0.02038800  1
  Sn  Sn25  1  0.97294400  0.73478400  0.97961200  1
  Sn  Sn26  1  0.47294400  0.49333200  0.23816000  1
  Sn  Sn27  1  0.75517200  0.23478400  0.26184000  1
  Sn  Sn28  1  0.26521600  0.02038800  0.02705600  1
  Sn  Sn29  1  0.52705600  0.50666800  0.76184000  1
  Sn  Sn30  1  0.24482800  0.76521600  0.73816000  1
  Sn  Sn31  1  0.73478400  0.97961200  0.97294400  1
  Sn  Sn32  1  0.74482800  0.00666800  0.47961200  1
  Sn  Sn33  1  0.49333200  0.23816000  0.47294400  1
  Sn  Sn34  1  0.25517200  0.99333200  0.52038800  1
  Sn  Sn35  1  0.50666800  0.76184000  0.52705600  1
  Sn  Sn36  1  0.23478400  0.26184000  0.75517200  1
  Sn  Sn37  1  0.76521600  0.73816000  0.24482800  1
  Sn  Sn38  1  0.00666800  0.47961200  0.74482800  1
  Sn  Sn39  1  0.99333200  0.52038800  0.25517200  1
  Sn  Sn40  1  0.02038800  0.02705600  0.26521600  1
  Sn  Sn41  1  0.97961200  0.97294400  0.73478400  1
  Sn  Sn42  1  0.26184000  0.75517200  0.23478400  1
  Sn  Sn43  1  0.73816000  0.24482800  0.76521600  1
  Sn  Sn44  1  0.47961200  0.74482800  0.00666800  1
  Sn  Sn45  1  0.52038800  0.25517200  0.99333200  1
  Sn  Sn46  1  0.23816000  0.47294400  0.49333200  1
  Sn  Sn47  1  0.76184000  0.52705600  0.50666800  1
  Pt  Pt48  1  0.02511600  0.77511600  0.25000000  1
  Pt  Pt49  1  0.97488400  0.22488400  0.75000000  1
  Pt  Pt50  1  0.47488400  0.72488400  0.75000000  1
  Pt  Pt51  1  0.77511600  0.25000000  0.02511600  1
  Pt  Pt52  1  0.52511600  0.27511600  0.25000000  1
  Pt  Pt53  1  0.22488400  0.75000000  0.97488400  1
  Pt  Pt54  1  0.72488400  0.75000000  0.47488400  1
  Pt  Pt55  1  0.27511600  0.25000000  0.52511600  1
  Pt  Pt56  1  0.25000000  0.02511600  0.77511600  1
  Pt  Pt57  1  0.75000000  0.97488400  0.22488400  1
  Pt  Pt58  1  0.75000000  0.47488400  0.72488400  1
  Pt  Pt59  1  0.25000000  0.52511600  0.27511600  1
  Pt  Pt60  1  0.00000000  0.00000000  0.00000000  1
  Pt  Pt61  1  0.50000000  0.50000000  0.00000000  1
  Pt  Pt62  1  0.00000000  0.50000000  0.50000000  1
  Pt  Pt63  1  0.50000000  0.00000000  0.50000000  1
