# generated using pymatgen
data_Li4MnCo2O7
_symmetry_space_group_name_H-M   'P 1'
_cell_length_a   14.73592584
_cell_length_b   14.73592584
_cell_length_c   5.88276503
_cell_angle_alpha   83.74538301
_cell_angle_beta   83.74538301
_cell_angle_gamma   11.38903981
_symmetry_Int_Tables_number   1
_chemical_formula_structural   Li4MnCo2O7
_chemical_formula_sum   'Li8 Mn2 Co4 O14'
_cell_volume   250.73693460
_cell_formula_units_Z   2
loop_
 _symmetry_equiv_pos_site_id
 _symmetry_equiv_pos_as_xyz
  1  'x, y, z'
loop_
 _atom_site_type_symbol
 _atom_site_label
 _atom_site_symmetry_multiplicity
 _atom_site_fract_x
 _atom_site_fract_y
 _atom_site_fract_z
 _atom_site_occupancy
  Li  Li0  1  0.00000000  0.00000000  0.00000000  1
  Li  Li1  1  0.14253300  0.14253300  0.42748000  1
  Li  Li2  1  0.28534800  0.28534800  0.85768700  1
  Li  Li3  1  0.56698600  0.56698600  0.71033900  1
  Li  Li4  1  0.71465200  0.71465200  0.14231300  1
  Li  Li5  1  0.85746700  0.85746700  0.57252000  1
  Li  Li6  1  0.43301400  0.43301400  0.28966100  1
  Li  Li7  1  0.00000000  0.00000000  0.50000000  1
  Mn  Mn8  1  0.43207800  0.43207800  0.77959600  1
  Mn  Mn9  1  0.56792200  0.56792200  0.22040400  1
  Co  Co10  1  0.71395800  0.71395800  0.64251800  1
  Co  Co11  1  0.85729100  0.85729100  0.07205100  1
  Co  Co12  1  0.14270900  0.14270900  0.92794900  1
  Co  Co13  1  0.28604200  0.28604200  0.35748200  1
  O  O14  1  0.92730500  0.92730500  0.01111400  1
  O  O15  1  0.07189900  0.07189900  0.43722100  1
  O  O16  1  0.21242500  0.21242500  0.87944500  1
  O  O17  1  0.49427600  0.49427600  0.75367600  1
  O  O18  1  0.63923100  0.63923100  0.16269600  1
  O  O19  1  0.78450100  0.78450100  0.59110700  1
  O  O20  1  0.35644400  0.35644400  0.30409200  1
  O  O21  1  0.07269500  0.07269500  0.98888600  1
  O  O22  1  0.21549900  0.21549900  0.40889300  1
  O  O23  1  0.36076900  0.36076900  0.83730400  1
  O  O24  1  0.64355600  0.64355600  0.69590800  1
  O  O25  1  0.78757500  0.78757500  0.12055500  1
  O  O26  1  0.92810100  0.92810100  0.56277900  1
  O  O27  1  0.50572400  0.50572400  0.24632400  1
