# generated using pymatgen
data_LiRh2N3
_symmetry_space_group_name_H-M   'P 1'
_cell_length_a   5.69162202
_cell_length_b   5.56897946
_cell_length_c   5.40390157
_cell_angle_alpha   90.00000000
_cell_angle_beta   90.00000000
_cell_angle_gamma   119.28973315
_symmetry_Int_Tables_number   1
_chemical_formula_structural   LiRh2N3
_chemical_formula_sum   'Li2 Rh4 N6'
_cell_volume   149.38732236
_cell_formula_units_Z   2
loop_
 _symmetry_equiv_pos_site_id
 _symmetry_equiv_pos_as_xyz
  1  'x, y, z'
loop_
 _atom_site_type_symbol
 _atom_site_label
 _atom_site_symmetry_multiplicity
 _atom_site_fract_x
 _atom_site_fract_y
 _atom_site_fract_z
 _atom_site_occupancy
  Li  Li0  1  -0.00000000  0.67706596  0.49535844  1
  Li  Li1  1  0.00000000  0.32293404  0.99535844  1
  Rh  Rh2  1  0.32744083  0.34058661  0.49200815  1
  Rh  Rh3  1  0.67255917  0.01314578  0.49200815  1
  Rh  Rh4  1  0.67255917  0.65941339  0.99200815  1
  Rh  Rh5  1  0.32744083  0.98685422  0.99200815  1
  N  N6  1  0.35536007  0.33217269  0.85722354  1
  N  N7  1  0.64463993  0.97681263  0.85722354  1
  N  N8  1  0.64463993  0.66782731  0.35722354  1
  N  N9  1  0.35536007  0.02318737  0.35722354  1
  N  N10  1  0.00000000  0.68367366  0.89417818  1
  N  N11  1  1.00000000  0.31632634  0.39417818  1
