# generated using pymatgen
data_LiAsSe2
_symmetry_space_group_name_H-M   'P 1'
_cell_length_a   5.48330100
_cell_length_b   5.70363900
_cell_length_c   5.83103876
_cell_angle_alpha   85.78642089
_cell_angle_beta   90.00000000
_cell_angle_gamma   90.00000000
_symmetry_Int_Tables_number   1
_chemical_formula_structural   LiAsSe2
_chemical_formula_sum   'Li2 As2 Se4'
_cell_volume   181.87147863
_cell_formula_units_Z   2
loop_
 _symmetry_equiv_pos_site_id
 _symmetry_equiv_pos_as_xyz
  1  'x, y, z'
loop_
 _atom_site_type_symbol
 _atom_site_label
 _atom_site_symmetry_multiplicity
 _atom_site_fract_x
 _atom_site_fract_y
 _atom_site_fract_z
 _atom_site_occupancy
  Li  Li0  1  0.75000000  0.26061600  0.00452100  1
  Li  Li1  1  0.25000000  0.73938400  0.99547900  1
  As  As2  1  0.25000000  0.19726800  0.41293700  1
  As  As3  1  0.75000000  0.80273200  0.58706300  1
  Se  Se4  1  0.75000000  0.23113000  0.50190500  1
  Se  Se5  1  0.25000000  0.76887000  0.49809500  1
  Se  Se6  1  0.25000000  0.24904700  0.00837100  1
  Se  Se7  1  0.75000000  0.75095300  0.99162900  1
