# generated using pymatgen
data_Li3CrCo3O8
_symmetry_space_group_name_H-M   'P 1'
_cell_length_a   5.88139084
_cell_length_b   5.89046378
_cell_length_c   10.40007773
_cell_angle_alpha   73.20469579
_cell_angle_beta   106.77783568
_cell_angle_gamma   121.28246719
_symmetry_Int_Tables_number   1
_chemical_formula_structural   Li3CrCo3O8
_chemical_formula_sum   'Li6 Cr2 Co6 O16'
_cell_volume   290.52333001
_cell_formula_units_Z   2
loop_
 _symmetry_equiv_pos_site_id
 _symmetry_equiv_pos_as_xyz
  1  'x, y, z'
loop_
 _atom_site_type_symbol
 _atom_site_label
 _atom_site_symmetry_multiplicity
 _atom_site_fract_x
 _atom_site_fract_y
 _atom_site_fract_z
 _atom_site_occupancy
  Li  Li0  1  0.25353200  0.24773800  0.25112000  1
  Li  Li1  1  0.74636200  0.75218500  0.74890400  1
  Li  Li2  1  0.75237900  0.74489300  0.25066600  1
  Li  Li3  1  0.24750300  0.25499600  0.74932400  1
  Li  Li4  1  0.25063100  0.75146500  0.25410600  1
  Li  Li5  1  0.74921000  0.24842400  0.74589500  1
  Cr  Cr6  1  0.49999800  0.49994700  0.49997700  1
  Cr  Cr7  1  0.00013900  0.99983000  0.00002500  1
  Co  Co8  1  0.49992600  0.49994000  0.99998100  1
  Co  Co9  1  0.00006300  0.00003100  0.50001600  1
  Co  Co10  1  0.49994800  0.99994900  0.00000200  1
  Co  Co11  1  0.99996900  0.50000300  0.49999700  1
  Co  Co12  1  0.99999900  0.49996700  0.99999500  1
  Co  Co13  1  0.49998700  0.00006100  0.50000300  1
  O  O14  1  0.37936800  0.62063000  0.11176800  1
  O  O15  1  0.87213400  0.12970000  0.62034900  1
  O  O16  1  0.12782100  0.87030600  0.37965000  1
  O  O17  1  0.62060200  0.37928600  0.88824300  1
  O  O18  1  0.37250600  0.14785500  0.10607300  1
  O  O19  1  0.87260900  0.64221400  0.60842300  1
  O  O20  1  0.85256400  0.62795800  0.10603600  1
  O  O21  1  0.35529900  0.13110000  0.60911700  1
  O  O22  1  0.86790400  0.13211200  0.10472900  1
  O  O23  1  0.37160700  0.63186900  0.60657800  1
  O  O24  1  0.62842000  0.36825900  0.39347400  1
  O  O25  1  0.13208700  0.86779900  0.89529100  1
  O  O26  1  0.64481200  0.86922200  0.39081800  1
  O  O27  1  0.14750900  0.37216600  0.89389600  1
  O  O28  1  0.12764200  0.35799600  0.39165200  1
  O  O29  1  0.62747000  0.85209900  0.89389300  1
