# generated using pymatgen
data_Li2MnCoO4
_symmetry_space_group_name_H-M   'P 1'
_cell_length_a   3.03508811
_cell_length_b   3.03508811
_cell_length_c   9.82026671
_cell_angle_alpha   83.98181122
_cell_angle_beta   83.98181122
_cell_angle_gamma   57.21535391
_symmetry_Int_Tables_number   1
_chemical_formula_structural   Li2MnCoO4
_chemical_formula_sum   'Li2 Mn1 Co1 O4'
_cell_volume   75.50813701
_cell_formula_units_Z   1
loop_
 _symmetry_equiv_pos_site_id
 _symmetry_equiv_pos_as_xyz
  1  'x, y, z'
loop_
 _atom_site_type_symbol
 _atom_site_label
 _atom_site_symmetry_multiplicity
 _atom_site_fract_x
 _atom_site_fract_y
 _atom_site_fract_z
 _atom_site_occupancy
  Li  Li0  1  0.25091900  0.25091900  0.24711900  1
  Li  Li1  1  0.74908100  0.74908100  0.75288100  1
  Mn  Mn2  1  0.50000000  0.50000000  0.50000000  1
  Co  Co3  1  0.00000000  0.00000000  0.00000000  1
  O  O4  1  0.62838700  0.62838700  0.11312700  1
  O  O5  1  0.10435700  0.10435700  0.61624400  1
  O  O6  1  0.89564300  0.89564300  0.38375600  1
  O  O7  1  0.37161300  0.37161300  0.88687300  1
