# generated using pymatgen
data_LiMg3
_symmetry_space_group_name_H-M   'P 1'
_cell_length_a   6.00727738
_cell_length_b   6.00727738
_cell_length_c   6.00727738
_cell_angle_alpha   149.58628390
_cell_angle_beta   126.01663107
_cell_angle_gamma   63.22984336
_symmetry_Int_Tables_number   1
_chemical_formula_structural   LiMg3
_chemical_formula_sum   'Li1 Mg3'
_cell_volume   87.91296176
_cell_formula_units_Z   1
loop_
 _symmetry_equiv_pos_site_id
 _symmetry_equiv_pos_as_xyz
  1  'x, y, z'
loop_
 _atom_site_type_symbol
 _atom_site_label
 _atom_site_symmetry_multiplicity
 _atom_site_fract_x
 _atom_site_fract_y
 _atom_site_fract_z
 _atom_site_occupancy
  Li  Li0  1  0.83211300  0.50000000  0.33211300  1
  Mg  Mg1  1  0.33518400  0.00000000  0.33518400  1
  Mg  Mg2  1  0.75023000  0.75054500  0.99968400  1
  Mg  Mg3  1  0.24913900  0.24945500  0.99968400  1
