# generated using pymatgen
data_Li8EuSn7
_symmetry_space_group_name_H-M   'P 1'
_cell_length_a   13.70814972
_cell_length_b   13.70814972
_cell_length_c   11.56484500
_cell_angle_alpha   90.00000000
_cell_angle_beta   90.00000000
_cell_angle_gamma   160.64998834
_symmetry_Int_Tables_number   1
_chemical_formula_structural   Li8EuSn7
_chemical_formula_sum   'Li16 Eu2 Sn14'
_cell_volume   720.06026614
_cell_formula_units_Z   2
loop_
 _symmetry_equiv_pos_site_id
 _symmetry_equiv_pos_as_xyz
  1  'x, y, z'
loop_
 _atom_site_type_symbol
 _atom_site_label
 _atom_site_symmetry_multiplicity
 _atom_site_fract_x
 _atom_site_fract_y
 _atom_site_fract_z
 _atom_site_occupancy
  Li  Li0  1  0.97680500  0.02319500  0.25000000  1
  Li  Li1  1  0.02319500  0.97680500  0.75000000  1
  Li  Li2  1  0.00000000  0.00000000  0.00000000  1
  Li  Li3  1  0.00000000  0.00000000  0.50000000  1
  Li  Li4  1  0.75712600  0.24287400  0.09438000  1
  Li  Li5  1  0.24287400  0.75712600  0.90562000  1
  Li  Li6  1  0.24287400  0.75712600  0.59438000  1
  Li  Li7  1  0.75712600  0.24287400  0.40562000  1
  Li  Li8  1  0.89173100  0.10826900  0.51814900  1
  Li  Li9  1  0.10826900  0.89173100  0.48185100  1
  Li  Li10  1  0.10826900  0.89173100  0.01814900  1
  Li  Li11  1  0.89173100  0.10826900  0.98185100  1
  Li  Li12  1  0.54470300  0.45529700  0.12492700  1
  Li  Li13  1  0.45529700  0.54470300  0.87507300  1
  Li  Li14  1  0.45529700  0.54470300  0.62492700  1
  Li  Li15  1  0.54470300  0.45529700  0.37507300  1
  Eu  Eu16  1  0.85817300  0.14182700  0.25000000  1
  Eu  Eu17  1  0.14182700  0.85817300  0.75000000  1
  Sn  Sn18  1  0.43481300  0.56518700  0.12064300  1
  Sn  Sn19  1  0.56518700  0.43481300  0.87935700  1
  Sn  Sn20  1  0.56518700  0.43481300  0.62064300  1
  Sn  Sn21  1  0.43481300  0.56518700  0.37935700  1
  Sn  Sn22  1  0.26345900  0.73654100  0.25000000  1
  Sn  Sn23  1  0.73654100  0.26345900  0.75000000  1
  Sn  Sn24  1  0.07980100  0.92019900  0.25000000  1
  Sn  Sn25  1  0.92019900  0.07980100  0.75000000  1
  Sn  Sn26  1  0.65498600  0.34501400  0.25000000  1
  Sn  Sn27  1  0.34501400  0.65498600  0.75000000  1
  Sn  Sn28  1  0.66993900  0.33006100  0.54518200  1
  Sn  Sn29  1  0.33006100  0.66993900  0.45481800  1
  Sn  Sn30  1  0.33006100  0.66993900  0.04518200  1
  Sn  Sn31  1  0.66993900  0.33006100  0.95481800  1
