# generated using pymatgen
data_Li4MnCo2O7
_symmetry_space_group_name_H-M   'P 1'
_cell_length_a   2.93642000
_cell_length_b   6.58421235
_cell_length_c   13.53851863
_cell_angle_alpha   84.79422299
_cell_angle_beta   86.84243447
_cell_angle_gamma   77.25998152
_symmetry_Int_Tables_number   1
_chemical_formula_structural   Li4MnCo2O7
_chemical_formula_sum   'Li8 Mn2 Co4 O14'
_cell_volume   254.09082774
_cell_formula_units_Z   2
loop_
 _symmetry_equiv_pos_site_id
 _symmetry_equiv_pos_as_xyz
  1  'x, y, z'
loop_
 _atom_site_type_symbol
 _atom_site_label
 _atom_site_symmetry_multiplicity
 _atom_site_fract_x
 _atom_site_fract_y
 _atom_site_fract_z
 _atom_site_occupancy
  Li  Li0  1  0.15116700  0.91502500  0.78364600  1
  Li  Li1  1  0.98331800  0.51018600  0.49986800  1
  Li  Li2  1  0.85759200  0.06950400  0.21470500  1
  Li  Li3  1  0.57623800  0.21625900  0.64126300  1
  Li  Li4  1  0.42235200  0.78545800  0.35930900  1
  Li  Li5  1  0.26871700  0.36058000  0.07654700  1
  Li  Li6  1  0.74124500  0.64036800  0.91981800  1
  Li  Li7  1  0.83129200  0.58149400  0.71829000  1
  Mn  Mn8  1  0.00616500  0.99940600  0.99905600  1
  Mn  Mn9  1  0.43402100  0.29740500  0.85091900  1
  Co  Co10  1  0.71657300  0.13566000  0.43009300  1
  Co  Co11  1  0.57287100  0.71565800  0.14518200  1
  Co  Co12  1  0.28464100  0.84093300  0.57679800  1
  Co  Co13  1  0.14761600  0.42572600  0.28711800  1
  O  O14  1  0.60088300  0.98063700  0.89458000  1
  O  O15  1  0.41240000  0.56933300  0.60004600  1
  O  O16  1  0.28647000  0.11141300  0.32907500  1
  O  O17  1  0.97883400  0.25574400  0.76056400  1
  O  O18  1  0.87304600  0.83033700  0.47128300  1
  O  O19  1  0.71919200  0.39858200  0.18574500  1
  O  O20  1  0.14801500  0.68652300  0.04456400  1
  O  O21  1  0.67781300  0.89599100  0.66894000  1
  O  O22  1  0.57094300  0.45346800  0.38654500  1
  O  O23  1  0.40488900  0.03245700  0.10229200  1
  O  O24  1  0.14414500  0.15659100  0.53263800  1
  O  O25  1  0.99615500  0.74247000  0.24535600  1
  O  O26  1  0.89751100  0.30997100  0.95107800  1
  O  O27  1  0.29589300  0.58281900  0.82468400  1
