# generated using pymatgen
data_Li2Mn3CoO8
_symmetry_space_group_name_H-M   'P 1'
_cell_length_a   5.82743684
_cell_length_b   8.45367559
_cell_length_c   5.83069433
_cell_angle_alpha   90.00683183
_cell_angle_beta   89.99829139
_cell_angle_gamma   90.31659584
_symmetry_Int_Tables_number   1
_chemical_formula_structural   Li2Mn3CoO8
_chemical_formula_sum   'Li4 Mn6 Co2 O16'
_cell_volume   287.23462681
_cell_formula_units_Z   2
loop_
 _symmetry_equiv_pos_site_id
 _symmetry_equiv_pos_as_xyz
  1  'x, y, z'
loop_
 _atom_site_type_symbol
 _atom_site_label
 _atom_site_symmetry_multiplicity
 _atom_site_fract_x
 _atom_site_fract_y
 _atom_site_fract_z
 _atom_site_occupancy
  Li  Li0  1  0.24186900  0.11498400  0.99996300  1
  Li  Li1  1  0.74548300  0.61555200  0.50000600  1
  Li  Li2  1  0.75809200  0.88500600  0.00003400  1
  Li  Li3  1  0.25446900  0.38444100  0.50000200  1
  Mn  Mn4  1  0.75352500  0.25671200  0.25316600  1
  Mn  Mn5  1  0.24644700  0.74318800  0.74682400  1
  Mn  Mn6  1  0.75352500  0.25672000  0.74677700  1
  Mn  Mn7  1  0.24646800  0.74321900  0.25318600  1
  Mn  Mn8  1  0.50005800  0.49999500  0.99995600  1
  Mn  Mn9  1  0.00013600  0.00020400  0.50007900  1
  Co  Co10  1  0.49996800  0.00000700  0.49998200  1
  Co  Co11  1  0.00006900  0.50001900  0.00001900  1
  O  O12  1  0.52544800  0.26812200  0.99995100  1
  O  O13  1  0.02936700  0.73816100  0.49998900  1
  O  O14  1  0.47455700  0.73184500  0.00002800  1
  O  O15  1  0.97061100  0.26181500  0.50001000  1
  O  O16  1  0.97456600  0.27118600  0.99996400  1
  O  O17  1  0.46399400  0.74374200  0.50004500  1
  O  O18  1  0.74909500  0.48813700  0.78162600  1
  O  O19  1  0.23914100  0.96819900  0.26667300  1
  O  O20  1  0.74905000  0.48817500  0.21832900  1
  O  O21  1  0.23914800  0.96815200  0.73318000  1
  O  O22  1  0.25097600  0.51180700  0.78171800  1
  O  O23  1  0.76080500  0.03186600  0.26688200  1
  O  O24  1  0.25096400  0.51185100  0.21828200  1
  O  O25  1  0.76076800  0.03182600  0.73334200  1
  O  O26  1  0.02540800  0.72880400  0.00002800  1
  O  O27  1  0.53599300  0.25626400  0.49996000  1
