# generated using pymatgen
data_Li4V3Cu(PO4)4
_symmetry_space_group_name_H-M   'P 1'
_cell_length_a   6.08992000
_cell_length_b   4.75603600
_cell_length_c   10.41345826
_cell_angle_alpha   89.62063366
_cell_angle_beta   90.00000000
_cell_angle_gamma   90.00000000
_symmetry_Int_Tables_number   1
_chemical_formula_structural   Li4V3Cu(PO4)4
_chemical_formula_sum   'Li4 V3 Cu1 P4 O16'
_cell_volume   301.60753119
_cell_formula_units_Z   1
loop_
 _symmetry_equiv_pos_site_id
 _symmetry_equiv_pos_as_xyz
  1  'x, y, z'
loop_
 _atom_site_type_symbol
 _atom_site_label
 _atom_site_symmetry_multiplicity
 _atom_site_fract_x
 _atom_site_fract_y
 _atom_site_fract_z
 _atom_site_occupancy
  Li  Li0  1  0.24339700  0.00204500  0.00416100  1
  Li  Li1  1  0.75660300  0.00204500  0.00416100  1
  Li  Li2  1  0.75360200  0.50035300  0.49763200  1
  Li  Li3  1  0.24639800  0.50035300  0.49763200  1
  V  V4  1  0.00000000  0.48497000  0.77716400  1
  V  V5  1  0.50000000  0.51654000  0.22201100  1
  V  V6  1  0.50000000  0.98268400  0.72509900  1
  Cu  Cu7  1  0.00000000  0.04082100  0.28583200  1
  P  P8  1  0.50000000  0.08741600  0.40411900  1
  P  P9  1  0.50000000  0.41378400  0.90887400  1
  P  P10  1  0.00000000  0.57812700  0.09401000  1
  P  P11  1  0.00000000  0.91605400  0.59172800  1
  O  O12  1  0.50000000  0.20408300  0.54263100  1
  O  O13  1  0.30148400  0.23062400  0.33176600  1
  O  O14  1  0.69851600  0.23062400  0.33176600  1
  O  O15  1  0.00000000  0.23835100  0.59681800  1
  O  O16  1  0.00000000  0.25522600  0.09451200  1
  O  O17  1  0.29758600  0.27681900  0.83917000  1
  O  O18  1  0.70241400  0.27681900  0.83917000  1
  O  O19  1  0.50000000  0.29116500  0.04798000  1
  O  O20  1  0.00000000  0.71124500  0.95690900  1
  O  O21  1  0.79109500  0.70302500  0.16237800  1
  O  O22  1  0.20890500  0.70302500  0.16237800  1
  O  O23  1  0.50000000  0.73552200  0.90475900  1
  O  O24  1  0.50000000  0.76491800  0.39875600  1
  O  O25  1  0.79704700  0.77818800  0.66240800  1
  O  O26  1  0.20295300  0.77818800  0.66240800  1
  O  O27  1  0.00000000  0.79699100  0.45377100  1
