# generated using pymatgen
data_Li4Mn9O18
_symmetry_space_group_name_H-M   'P 1'
_cell_length_a   2.91447800
_cell_length_b   9.03723600
_cell_length_c   24.97171200
_cell_angle_alpha   90.00000000
_cell_angle_beta   90.00000000
_cell_angle_gamma   90.00000000
_symmetry_Int_Tables_number   1
_chemical_formula_structural   Li4Mn9O18
_chemical_formula_sum   'Li8 Mn18 O36'
_cell_volume   657.72556487
_cell_formula_units_Z   2
loop_
 _symmetry_equiv_pos_site_id
 _symmetry_equiv_pos_as_xyz
  1  'x, y, z'
loop_
 _atom_site_type_symbol
 _atom_site_label
 _atom_site_symmetry_multiplicity
 _atom_site_fract_x
 _atom_site_fract_y
 _atom_site_fract_z
 _atom_site_occupancy
  Li  Li0  1  0.00000000  0.16250200  0.00092900  1
  Li  Li1  1  0.00000000  0.20400400  0.20516600  1
  Li  Li2  1  0.00000000  0.29599600  0.70516600  1
  Li  Li3  1  0.00000000  0.33749800  0.50092900  1
  Li  Li4  1  0.00000000  0.66250200  0.49907100  1
  Li  Li5  1  0.00000000  0.70400400  0.29483400  1
  Li  Li6  1  0.00000000  0.79599600  0.79483400  1
  Li  Li7  1  0.00000000  0.83749800  0.99907100  1
  Mn  Mn8  1  0.00000000  0.00000000  0.50000000  1
  Mn  Mn9  1  0.00000000  0.00796100  0.10541100  1
  Mn  Mn10  1  0.00000000  0.03193000  0.30987300  1
  Mn  Mn11  1  0.50000000  0.13608300  0.58752700  1
  Mn  Mn12  1  0.50000000  0.14703300  0.80653100  1
  Mn  Mn13  1  0.50000000  0.35296700  0.30653100  1
  Mn  Mn14  1  0.50000000  0.36391700  0.08752700  1
  Mn  Mn15  1  0.00000000  0.46807000  0.80987300  1
  Mn  Mn16  1  0.00000000  0.49203900  0.60541100  1
  Mn  Mn17  1  0.00000000  0.50000000  0.00000000  1
  Mn  Mn18  1  0.00000000  0.50796100  0.39458900  1
  Mn  Mn19  1  0.00000000  0.53193000  0.19012700  1
  Mn  Mn20  1  0.50000000  0.63608300  0.91247300  1
  Mn  Mn21  1  0.50000000  0.64703300  0.69346900  1
  Mn  Mn22  1  0.50000000  0.85296700  0.19346900  1
  Mn  Mn23  1  0.50000000  0.86391700  0.41247300  1
  Mn  Mn24  1  0.00000000  0.96807000  0.69012700  1
  Mn  Mn25  1  0.00000000  0.99203900  0.89458900  1
  O  O26  1  0.00000000  0.00572600  0.42277600  1
  O  O27  1  0.00000000  0.99427400  0.57722400  1
  O  O28  1  0.50000000  0.02751100  0.94396300  1
  O  O29  1  0.50000000  0.04722700  0.16004000  1
  O  O30  1  0.50000000  0.09444800  0.66373500  1
  O  O31  1  0.00000000  0.10304200  0.75859200  1
  O  O32  1  0.50000000  0.15368800  0.50970200  1
  O  O33  1  0.50000000  0.15122300  0.27942800  1
  O  O34  1  0.00000000  0.19516700  0.85447800  1
  O  O35  1  0.00000000  0.22520400  0.09052500  1
  O  O36  1  0.00000000  0.27479600  0.59052500  1
  O  O37  1  0.00000000  0.30483300  0.35447800  1
  O  O38  1  0.50000000  0.34877700  0.77942800  1
  O  O39  1  0.50000000  0.34631200  0.00970200  1
  O  O40  1  0.00000000  0.39695800  0.25859200  1
  O  O41  1  0.50000000  0.40555200  0.16373500  1
  O  O42  1  0.50000000  0.45277300  0.66004000  1
  O  O43  1  0.50000000  0.47248900  0.44396300  1
  O  O44  1  0.00000000  0.50572600  0.07722400  1
  O  O45  1  0.00000000  0.49427400  0.92277600  1
  O  O46  1  0.50000000  0.52751100  0.55603700  1
  O  O47  1  0.50000000  0.54722700  0.33996000  1
  O  O48  1  0.50000000  0.59444800  0.83626500  1
  O  O49  1  0.00000000  0.60304200  0.74140800  1
  O  O50  1  0.50000000  0.65368800  0.99029800  1
  O  O51  1  0.50000000  0.65122300  0.22057200  1
  O  O52  1  0.00000000  0.69516700  0.64552200  1
  O  O53  1  0.00000000  0.72520400  0.40947500  1
  O  O54  1  0.00000000  0.77479600  0.90947500  1
  O  O55  1  0.00000000  0.80483300  0.14552200  1
  O  O56  1  0.50000000  0.84877700  0.72057200  1
  O  O57  1  0.50000000  0.84631200  0.49029800  1
  O  O58  1  0.00000000  0.89695800  0.24140800  1
  O  O59  1  0.50000000  0.90555200  0.33626500  1
  O  O60  1  0.50000000  0.95277300  0.83996000  1
  O  O61  1  0.50000000  0.97248900  0.05603700  1
