# generated using pymatgen
data_Li3CN2
_symmetry_space_group_name_H-M   'P 1'
_cell_length_a   5.04148449
_cell_length_b   6.82697585
_cell_length_c   6.85735038
_cell_angle_alpha   90.00000000
_cell_angle_beta   112.24082964
_cell_angle_gamma   90.00000000
_symmetry_Int_Tables_number   1
_chemical_formula_structural   Li3CN2
_chemical_formula_sum   'Li12 C4 N8'
_cell_volume   218.45752205
_cell_formula_units_Z   4
loop_
 _symmetry_equiv_pos_site_id
 _symmetry_equiv_pos_as_xyz
  1  'x, y, z'
loop_
 _atom_site_type_symbol
 _atom_site_label
 _atom_site_symmetry_multiplicity
 _atom_site_fract_x
 _atom_site_fract_y
 _atom_site_fract_z
 _atom_site_occupancy
  Li  Li0  1  0.25281366  0.02631113  0.99698437  1
  Li  Li1  1  0.74718634  0.52631113  0.50301563  1
  Li  Li2  1  0.74718634  0.97368887  0.00301563  1
  Li  Li3  1  0.25281366  0.47368887  0.49698437  1
  Li  Li4  1  0.25223324  0.48542907  0.87210694  1
  Li  Li5  1  0.74776676  0.98542907  0.62789306  1
  Li  Li6  1  0.74776676  0.51457093  0.12789306  1
  Li  Li7  1  0.25223324  0.01457093  0.37210694  1
  Li  Li8  1  0.75391647  0.30278281  0.82281578  1
  Li  Li9  1  0.24608353  0.80278281  0.67718422  1
  Li  Li10  1  0.24608353  0.69721719  0.17718422  1
  Li  Li11  1  0.75391647  0.19721719  0.32281578  1
  C  C12  1  0.16048050  0.13808189  0.63190812  1
  C  C13  1  0.83951950  0.63808189  0.86809188  1
  C  C14  1  0.83951950  0.86191811  0.36809188  1
  C  C15  1  0.16048050  0.36191811  0.13190812  1
  N  N16  1  0.42587382  0.07551793  0.72065662  1
  N  N17  1  0.57412618  0.57551793  0.77934338  1
  N  N18  1  0.57412618  0.92448207  0.27934338  1
  N  N19  1  0.42587382  0.42448207  0.22065662  1
  N  N20  1  0.00141930  0.29020374  0.62907482  1
  N  N21  1  0.99858070  0.79020374  0.87092518  1
  N  N22  1  0.99858070  0.70979626  0.37092518  1
  N  N23  1  0.00141930  0.20979626  0.12907482  1
