# generated using pymatgen
data_Li2Ni3SnO8
_symmetry_space_group_name_H-M   'P 1'
_cell_length_a   5.91806937
_cell_length_b   6.05972186
_cell_length_c   8.19343241
_cell_angle_alpha   88.00598483
_cell_angle_beta   90.21905497
_cell_angle_gamma   90.85961459
_symmetry_Int_Tables_number   1
_chemical_formula_structural   Li2Ni3SnO8
_chemical_formula_sum   'Li4 Ni6 Sn2 O16'
_cell_volume   293.61910397
_cell_formula_units_Z   2
loop_
 _symmetry_equiv_pos_site_id
 _symmetry_equiv_pos_as_xyz
  1  'x, y, z'
loop_
 _atom_site_type_symbol
 _atom_site_label
 _atom_site_symmetry_multiplicity
 _atom_site_fract_x
 _atom_site_fract_y
 _atom_site_fract_z
 _atom_site_occupancy
  Li  Li0  1  0.98777000  0.24292800  0.11661600  1
  Li  Li1  1  0.48948700  0.74335900  0.61627600  1
  Li  Li2  1  0.01243200  0.75693900  0.88332600  1
  Li  Li3  1  0.51052000  0.25681600  0.38380400  1
  Ni  Ni4  1  0.50014600  0.00017700  0.00004600  1
  Ni  Ni5  1  0.75095500  0.74983300  0.24989100  1
  Ni  Ni6  1  0.24901200  0.25022700  0.75017300  1
  Ni  Ni7  1  0.99981500  0.49977300  0.49998700  1
  Ni  Ni8  1  0.25098900  0.75008900  0.25002100  1
  Ni  Ni9  1  0.74886300  0.24986000  0.74982700  1
  Sn  Sn10  1  0.00029800  0.99963200  0.50045900  1
  Sn  Sn11  1  0.49993300  0.50025900  0.99961800  1
  O  O12  1  0.97642500  0.52772600  0.26815800  1
  O  O13  1  0.47556900  0.02909200  0.76797500  1
  O  O14  1  0.02212100  0.47098400  0.73209700  1
  O  O15  1  0.52565100  0.97222900  0.23187600  1
  O  O16  1  0.22391500  0.73672000  0.48054000  1
  O  O17  1  0.72295800  0.23703500  0.98040200  1
  O  O18  1  0.75790900  0.75412100  0.48169200  1
  O  O19  1  0.25660700  0.25480700  0.98186400  1
  O  O20  1  0.99374500  0.96106100  0.24759200  1
  O  O21  1  0.49016500  0.46290800  0.74747200  1
  O  O22  1  0.00786500  0.03728200  0.75248900  1
  O  O23  1  0.50810900  0.53881700  0.25249700  1
  O  O24  1  0.24197100  0.24605300  0.51823300  1
  O  O25  1  0.74351800  0.74525000  0.01830600  1
  O  O26  1  0.77599600  0.26256500  0.51939800  1
  O  O27  1  0.27725600  0.76345800  0.01936400  1
