# generated using pymatgen
data_LiTi(PO3)4
_symmetry_space_group_name_H-M   'P 1'
_cell_length_a   7.28409687
_cell_length_b   7.28409687
_cell_length_c   10.09808783
_cell_angle_alpha   66.40845977
_cell_angle_beta   66.40845977
_cell_angle_gamma   70.15374381
_symmetry_Int_Tables_number   1
_chemical_formula_structural   LiTi(PO3)4
_chemical_formula_sum   'Li2 Ti2 P8 O24'
_cell_volume   439.59022580
_cell_formula_units_Z   2
loop_
 _symmetry_equiv_pos_site_id
 _symmetry_equiv_pos_as_xyz
  1  'x, y, z'
loop_
 _atom_site_type_symbol
 _atom_site_label
 _atom_site_symmetry_multiplicity
 _atom_site_fract_x
 _atom_site_fract_y
 _atom_site_fract_z
 _atom_site_occupancy
  Li  Li0  1  0.00000000  0.50000000  0.50000000  1
  Li  Li1  1  0.50000000  0.00000000  0.00000000  1
  Ti  Ti2  1  0.05458800  0.94541200  0.25000000  1
  Ti  Ti3  1  0.94541200  0.05458800  0.75000000  1
  P  P4  1  0.70897000  0.69117300  0.80072000  1
  P  P5  1  0.25298800  0.72685100  0.97799200  1
  P  P6  1  0.27314900  0.74701200  0.52200800  1
  P  P7  1  0.69117300  0.70897000  0.30072000  1
  P  P8  1  0.30882700  0.29103000  0.69928000  1
  P  P9  1  0.72685100  0.25298800  0.47799200  1
  P  P10  1  0.74701200  0.27314900  0.02200800  1
  P  P11  1  0.29103000  0.30882700  0.19928000  1
  O  O12  1  0.81029600  0.65067600  0.65332600  1
  O  O13  1  0.27295300  0.80861400  0.08723900  1
  O  O14  1  0.46680100  0.69890500  0.84799900  1
  O  O15  1  0.09028800  0.84463300  0.90212400  1
  O  O16  1  0.87880700  0.73048700  0.31923900  1
  O  O17  1  0.21908600  0.49755500  0.06200800  1
  O  O18  1  0.80861400  0.27295300  0.58723900  1
  O  O19  1  0.15536700  0.90971200  0.59787600  1
  O  O20  1  0.50244500  0.78091400  0.43799200  1
  O  O21  1  0.65067600  0.81029600  0.15332600  1
  O  O22  1  0.30109500  0.53319900  0.65200100  1
  O  O23  1  0.26951300  0.12119300  0.18076100  1
  O  O24  1  0.73048700  0.87880700  0.81923900  1
  O  O25  1  0.69890500  0.46680100  0.34799900  1
  O  O26  1  0.34932400  0.18970400  0.84667400  1
  O  O27  1  0.49755500  0.21908600  0.56200800  1
  O  O28  1  0.84463300  0.09028800  0.40212400  1
  O  O29  1  0.19138600  0.72704700  0.41276100  1
  O  O30  1  0.78091400  0.50244500  0.93799200  1
  O  O31  1  0.12119300  0.26951300  0.68076100  1
  O  O32  1  0.90971200  0.15536700  0.09787600  1
  O  O33  1  0.53319900  0.30109500  0.15200100  1
  O  O34  1  0.72704700  0.19138600  0.91276100  1
  O  O35  1  0.18970400  0.34932400  0.34667400  1
