# generated using pymatgen
data_Li2Al2(SiO4)3
_symmetry_space_group_name_H-M   'P 1'
_cell_length_a   12.62920029
_cell_length_b   9.69127481
_cell_length_c   9.37086368
_cell_angle_alpha   82.96760828
_cell_angle_beta   49.60523940
_cell_angle_gamma   47.42715232
_symmetry_Int_Tables_number   1
_chemical_formula_structural   Li2Al2(SiO4)3
_chemical_formula_sum   'Li4 Al4 Si6 O24'
_cell_volume   531.44464145
_cell_formula_units_Z   2
loop_
 _symmetry_equiv_pos_site_id
 _symmetry_equiv_pos_as_xyz
  1  'x, y, z'
loop_
 _atom_site_type_symbol
 _atom_site_label
 _atom_site_symmetry_multiplicity
 _atom_site_fract_x
 _atom_site_fract_y
 _atom_site_fract_z
 _atom_site_occupancy
  Li  Li0  1  0.12952500  0.46890100  0.79674800  1
  Li  Li1  1  0.60482600  0.79674800  0.46890100  1
  Li  Li2  1  0.45325200  0.64517400  0.12047500  1
  Li  Li3  1  0.78109900  0.12047500  0.64517400  1
  Al  Al4  1  0.00391200  0.68955600  0.55574500  1
  Al  Al5  1  0.75078600  0.55574500  0.68955600  1
  Al  Al6  1  0.69425500  0.49921400  0.24608800  1
  Al  Al7  1  0.56044400  0.24608800  0.49921400  1
  Si  Si8  1  0.25679200  0.24320800  0.24320800  1
  Si  Si9  1  0.00679200  0.99320800  0.99320800  1
  Si  Si10  1  0.24166800  0.70008400  0.55257800  1
  Si  Si11  1  0.50567000  0.55257800  0.70008400  1
  Si  Si12  1  0.69742200  0.74433000  0.00833200  1
  Si  Si13  1  0.54991600  0.00833200  0.74433000  1
  O  O14  1  0.19980600  0.44730600  0.31156900  1
  O  O15  1  0.04131900  0.31156900  0.44730600  1
  O  O16  1  0.93843100  0.20868100  0.05019400  1
  O  O17  1  0.80269400  0.05019400  0.20868100  1
  O  O18  1  0.10200200  0.77854100  0.51503900  1
  O  O19  1  0.60441800  0.51503900  0.77854100  1
  O  O20  1  0.73496100  0.64558200  0.14799800  1
  O  O21  1  0.47145900  0.14799800  0.64558200  1
  O  O22  1  0.92271900  0.65778000  0.78446300  1
  O  O23  1  0.63503800  0.78446300  0.65778000  1
  O  O24  1  0.46553700  0.61496200  0.32728100  1
  O  O25  1  0.59222000  0.32728100  0.61496200  1
  O  O26  1  0.31630500  0.49357600  0.58588400  1
  O  O27  1  0.60423500  0.58588400  0.49357600  1
  O  O28  1  0.66411600  0.64576500  0.93369500  1
  O  O29  1  0.75642400  0.93369500  0.64576500  1
  O  O30  1  0.07039200  0.92210800  0.77728900  1
  O  O31  1  0.23021100  0.77728900  0.92210800  1
  O  O32  1  0.47271100  0.01978900  0.17960800  1
  O  O33  1  0.32789200  0.17960800  0.01978900  1
  O  O34  1  0.58077500  0.34372000  0.96810300  1
  O  O35  1  0.10740200  0.96810300  0.34372000  1
  O  O36  1  0.28189700  0.14259800  0.66922500  1
  O  O37  1  0.90628000  0.66922500  0.14259800  1
