# generated using pymatgen
data_Li3Mn2(SiO4)2
_symmetry_space_group_name_H-M   'P 1'
_cell_length_a   6.73487785
_cell_length_b   7.29159805
_cell_length_c   7.21905192
_cell_angle_alpha   97.59438520
_cell_angle_beta   89.72467087
_cell_angle_gamma   88.40078738
_symmetry_Int_Tables_number   1
_chemical_formula_structural   Li3Mn2(SiO4)2
_chemical_formula_sum   'Li6 Mn4 Si4 O16'
_cell_volume   351.25396822
_cell_formula_units_Z   2
loop_
 _symmetry_equiv_pos_site_id
 _symmetry_equiv_pos_as_xyz
  1  'x, y, z'
loop_
 _atom_site_type_symbol
 _atom_site_label
 _atom_site_symmetry_multiplicity
 _atom_site_fract_x
 _atom_site_fract_y
 _atom_site_fract_z
 _atom_site_occupancy
  Li  Li0  1  0.98129200  0.65455000  0.85497800  1
  Li  Li1  1  0.00931600  0.15364900  0.32276200  1
  Li  Li2  1  0.51340200  0.59537100  0.38463900  1
  Li  Li3  1  0.48063000  0.09868800  0.91845800  1
  Li  Li4  1  0.76963500  0.81042600  0.16737200  1
  Li  Li5  1  0.76623000  0.33474300  0.67091200  1
  Mn  Mn6  1  0.00187800  0.05199100  0.87685100  1
  Mn  Mn7  1  0.51086800  0.17557900  0.34925200  1
  Mn  Mn8  1  0.03761600  0.60245100  0.42421000  1
  Mn  Mn9  1  0.47687300  0.63210000  0.80011300  1
  Si  Si10  1  0.23620600  0.34383400  0.68686600  1
  Si  Si11  1  0.25273500  0.84139800  0.15639100  1
  Si  Si12  1  0.75937600  0.40251600  0.08131200  1
  Si  Si13  1  0.75305500  0.92087300  0.59769700  1
  O  O14  1  0.03342700  0.85458700  0.04939800  1
  O  O15  1  0.04211000  0.35916600  0.55028200  1
  O  O16  1  0.22984000  0.52678900  0.84902900  1
  O  O17  1  0.26537400  0.03812800  0.28999800  1
  O  O18  1  0.27010400  0.66774800  0.27543300  1
  O  O19  1  0.24696900  0.14894200  0.77138700  1
  O  O20  1  0.44414100  0.83276600  0.00165100  1
  O  O21  1  0.45374400  0.39320100  0.58532900  1
  O  O22  1  0.55943600  0.29176300  0.11652700  1
  O  O23  1  0.58579600  0.76631600  0.60918300  1
  O  O24  1  0.78592300  0.56556500  0.26203400  1
  O  O25  1  0.73151400  0.09825300  0.76532000  1
  O  O26  1  0.74484500  0.51127800  0.89356800  1
  O  O27  1  0.75616600  0.99952700  0.39490500  1
  O  O28  1  0.95415600  0.25315200  0.07092700  1
  O  O29  1  0.97201100  0.83304600  0.65774400  1
