# generated using pymatgen
data_Li9Mn2Co5O16
_symmetry_space_group_name_H-M   'P 1'
_cell_length_a   5.90516500
_cell_length_b   6.44407087
_cell_length_c   7.87907154
_cell_angle_alpha   87.56213715
_cell_angle_beta   104.37840562
_cell_angle_gamma   103.30686319
_symmetry_Int_Tables_number   1
_chemical_formula_structural   Li9Mn2Co5O16
_chemical_formula_sum   'Li9 Mn2 Co5 O16'
_cell_volume   282.60147856
_cell_formula_units_Z   1
loop_
 _symmetry_equiv_pos_site_id
 _symmetry_equiv_pos_as_xyz
  1  'x, y, z'
loop_
 _atom_site_type_symbol
 _atom_site_label
 _atom_site_symmetry_multiplicity
 _atom_site_fract_x
 _atom_site_fract_y
 _atom_site_fract_z
 _atom_site_occupancy
  Li  Li0  1  0.86715800  0.87915400  0.62626300  1
  Li  Li1  1  0.87400900  0.37498600  0.11495400  1
  Li  Li2  1  0.13037100  0.12716000  0.38119900  1
  Li  Li3  1  0.11706500  0.61066800  0.87506600  1
  Li  Li4  1  0.37867100  0.37117600  0.12013500  1
  Li  Li5  1  0.39389100  0.88808500  0.62736800  1
  Li  Li6  1  0.62159800  0.62090800  0.87346500  1
  Li  Li7  1  0.61472000  0.12725000  0.38646600  1
  Li  Li8  1  0.74858900  0.24749800  0.74908900  1
  Mn  Mn9  1  0.99915100  0.00301000  0.99553400  1
  Mn  Mn10  1  0.99626000  0.50110000  0.50421500  1
  Co  Co11  1  0.24702500  0.25123700  0.74950700  1
  Co  Co12  1  0.25036700  0.75104200  0.25155000  1
  Co  Co13  1  0.49937800  0.49765800  0.50309700  1
  Co  Co14  1  0.50355900  0.99976900  0.99345300  1
  Co  Co15  1  0.75237300  0.74942400  0.24863600  1
  O  O16  1  0.70473300  0.93537500  0.82351400  1
  O  O17  1  0.70643100  0.45191600  0.31402400  1
  O  O18  1  0.95967900  0.20780000  0.56623900  1
  O  O19  1  0.96119200  0.70168400  0.06784300  1
  O  O20  1  0.18811800  0.46139300  0.33485700  1
  O  O21  1  0.18651200  0.95574500  0.83122800  1
  O  O22  1  0.46114700  0.70805200  0.07150500  1
  O  O23  1  0.44001600  0.21000900  0.56102500  1
  O  O24  1  0.04217000  0.79818600  0.43064700  1
  O  O25  1  0.05839300  0.29385800  0.94585800  1
  O  O26  1  0.29862000  0.04356300  0.18292000  1
  O  O27  1  0.29085800  0.55216800  0.68493600  1
  O  O28  1  0.53540400  0.28902900  0.93059800  1
  O  O29  1  0.54440100  0.79435000  0.42913000  1
  O  O30  1  0.81339500  0.55491500  0.65978500  1
  O  O31  1  0.81474700  0.04183100  0.16589600  1
