# generated using pymatgen
data_LiMnH8(SO6)2
_symmetry_space_group_name_H-M   'P 1'
_cell_length_a   11.77031439
_cell_length_b   11.77031439
_cell_length_c   11.57050969
_cell_angle_alpha   65.75783165
_cell_angle_beta   65.75783165
_cell_angle_gamma   46.62986304
_symmetry_Int_Tables_number   1
_chemical_formula_structural   LiMnH8(SO6)2
_chemical_formula_sum   'Li4 Mn4 H32 S8 O48'
_cell_volume   1042.30447727
_cell_formula_units_Z   4
loop_
 _symmetry_equiv_pos_site_id
 _symmetry_equiv_pos_as_xyz
  1  'x, y, z'
loop_
 _atom_site_type_symbol
 _atom_site_label
 _atom_site_symmetry_multiplicity
 _atom_site_fract_x
 _atom_site_fract_y
 _atom_site_fract_z
 _atom_site_occupancy
  Li  Li0  1  0.75488100  0.97268000  0.96080800  1
  Li  Li1  1  0.56634100  0.69789100  0.54691800  1
  Li  Li2  1  0.02732000  0.24511900  0.03919200  1
  Li  Li3  1  0.30210900  0.43365900  0.45308200  1
  Mn  Mn4  1  0.99794800  0.50398000  0.74857100  1
  Mn  Mn5  1  0.75154700  0.24845300  0.50000000  1
  Mn  Mn6  1  0.49602000  0.00205200  0.25142900  1
  Mn  Mn7  1  0.25462200  0.74537800  0.00000000  1
  H  H8  1  0.00331300  0.03577700  0.91821000  1
  H  H9  1  0.90684000  0.36381800  0.28862600  1
  H  H10  1  0.88836500  0.38614800  0.42471200  1
  H  H11  1  0.74144700  0.52160000  0.79348900  1
  H  H12  1  0.97947300  0.76305000  0.71978600  1
  H  H13  1  0.53681000  0.49266100  0.91978700  1
  H  H14  1  0.70851500  0.68447000  0.70995200  1
  H  H15  1  0.80693200  0.80471700  0.27741300  1
  H  H16  1  0.80803300  0.80624400  0.78966600  1
  H  H17  1  0.68784300  0.70491100  0.22051600  1
  H  H18  1  0.50243000  0.54019500  0.41782800  1
  H  H19  1  0.96422300  0.99668700  0.08179000  1
  H  H20  1  0.75929500  0.97620600  0.22364100  1
  H  H21  1  0.52164100  0.74287200  0.28779600  1
  H  H22  1  0.63618200  0.09316000  0.71137400  1
  H  H23  1  0.40862700  0.86496700  0.92338200  1
  H  H24  1  0.61385200  0.11163500  0.57528800  1
  H  H25  1  0.35936100  0.91231800  0.78985400  1
  H  H26  1  0.47840000  0.25855300  0.20651100  1
  H  H27  1  0.23695000  0.02052700  0.28021400  1
  H  H28  1  0.03246800  0.99114100  0.42108100  1
  H  H29  1  0.50733900  0.46319000  0.08021300  1
  H  H30  1  0.31553000  0.29148500  0.29004800  1
  H  H31  1  0.19528300  0.19306800  0.72258700  1
  H  H32  1  0.19375600  0.19196700  0.21033400  1
  H  H33  1  0.29508900  0.31215700  0.77948400  1
  H  H34  1  0.45980500  0.49757000  0.58217200  1
  H  H35  1  0.02379400  0.24070500  0.77635900  1
  H  H36  1  0.25712800  0.47835900  0.71220400  1
  H  H37  1  0.13503300  0.59137300  0.07661800  1
  H  H38  1  0.08768200  0.64063900  0.21014600  1
  H  H39  1  0.00885900  0.96753200  0.57891900  1
  S  S40  1  0.77638500  0.25696200  0.78097100  1
  S  S41  1  0.98193700  0.50206800  0.03963400  1
  S  S42  1  0.49352800  0.98255000  0.53993300  1
  S  S43  1  0.74303800  0.22361500  0.21902900  1
  S  S44  1  0.27809900  0.75093200  0.28295900  1
  S  S45  1  0.49793200  0.01806300  0.96036600  1
  S  S46  1  0.01745000  0.50647200  0.46006700  1
  S  S47  1  0.24906800  0.72190100  0.71704100  1
  O  O48  1  0.94258600  0.16720100  0.79497400  1
  O  O49  1  0.82838400  0.28491100  0.12795800  1
  O  O50  1  0.98224900  0.45121900  0.93425200  1
  O  O51  1  0.78122100  0.27371700  0.64465800  1
  O  O52  1  0.84537700  0.37118000  0.37900700  1
  O  O53  1  0.91941500  0.45566600  0.51140000  1
  O  O54  1  0.96135100  0.64387400  0.35086000  1
  O  O55  1  0.67465000  0.42267700  0.80265500  1
  O  O56  1  0.82028700  0.63911000  0.08207700  1
  O  O57  1  0.76411100  0.59398800  0.78062800  1
  O  O58  1  0.91114500  0.73504900  0.73482700  1
  O  O59  1  0.95752000  0.04248000  0.50000000  1
  O  O60  1  0.73746100  0.90803300  0.22106700  1
  O  O61  1  0.59356000  0.76097800  0.28970500  1
  O  O62  1  0.62345800  0.80897900  0.57828900  1
  O  O63  1  0.83279900  0.05741400  0.20502600  1
  O  O64  1  0.44133900  0.67141200  0.29740000  1
  O  O65  1  0.64671200  0.96840100  0.85704800  1
  O  O66  1  0.46974500  0.90231400  0.00959100  1
  O  O67  1  0.71508900  0.17161600  0.87204200  1
  O  O68  1  0.54878100  0.01775100  0.06574800  1
  O  O69  1  0.36835600  0.84589100  0.87853400  1
  O  O70  1  0.72628300  0.21877900  0.35534200  1
  O  O71  1  0.28516400  0.76876400  0.14577900  1
  O  O72  1  0.62882000  0.15462300  0.62099300  1
  O  O73  1  0.43714000  0.99039300  0.43599500  1
  O  O74  1  0.34526000  0.77228400  0.62866000  1
  O  O75  1  0.54433400  0.08058500  0.48860000  1
  O  O76  1  0.35612600  0.03864900  0.64914000  1
  O  O77  1  0.57732300  0.32535000  0.19734500  1
  O  O78  1  0.16752100  0.91674700  0.30761500  1
  O  O79  1  0.36089000  0.17971300  0.91792300  1
  O  O80  1  0.40601200  0.23588900  0.21937200  1
  O  O81  1  0.26495100  0.08885500  0.26517300  1
  O  O82  1  0.54196000  0.45804000  0.50000000  1
  O  O83  1  0.46078300  0.53921700  0.00000000  1
  O  O84  1  0.09196700  0.26253900  0.77893300  1
  O  O85  1  0.23902200  0.40644000  0.71029500  1
  O  O86  1  0.19102100  0.37654200  0.42171100  1
  O  O87  1  0.32858800  0.55866100  0.70260000  1
  O  O88  1  0.03159900  0.35328800  0.14295200  1
  O  O89  1  0.09768600  0.53025500  0.99040900  1
  O  O90  1  0.15410900  0.63164400  0.12146600  1
  O  O91  1  0.23123600  0.71483600  0.85422100  1
  O  O92  1  0.00960700  0.56286000  0.56400500  1
  O  O93  1  0.22771600  0.65474000  0.37134000  1
  O  O94  1  0.08325300  0.83247900  0.69238500  1
  O  O95  1  0.04471300  0.95528700  0.00000000  1
