# generated using pymatgen
data_Li5Mn2CoO8
_symmetry_space_group_name_H-M   'P 1'
_cell_length_a   2.88564931
_cell_length_b   15.36146701
_cell_length_c   6.46554307
_cell_angle_alpha   91.61477160
_cell_angle_beta   77.17701629
_cell_angle_gamma   90.46481227
_symmetry_Int_Tables_number   1
_chemical_formula_structural   Li5Mn2CoO8
_chemical_formula_sum   'Li10 Mn4 Co2 O16'
_cell_volume   279.34408777
_cell_formula_units_Z   2
loop_
 _symmetry_equiv_pos_site_id
 _symmetry_equiv_pos_as_xyz
  1  'x, y, z'
loop_
 _atom_site_type_symbol
 _atom_site_label
 _atom_site_symmetry_multiplicity
 _atom_site_fract_x
 _atom_site_fract_y
 _atom_site_fract_z
 _atom_site_occupancy
  Li  Li0  1  0.62543700  0.12631500  0.74541500  1
  Li  Li1  1  0.12458700  0.62371600  0.75459400  1
  Li  Li2  1  0.95020500  0.18809500  0.10327200  1
  Li  Li3  1  0.44908600  0.68770600  0.10946400  1
  Li  Li4  1  0.30092500  0.06228900  0.39057700  1
  Li  Li5  1  0.79984600  0.56190600  0.39670600  1
  Li  Li6  1  0.18203200  0.44289400  0.62534000  1
  Li  Li7  1  0.67613600  0.94547000  0.62912000  1
  Li  Li8  1  0.56805200  0.30704200  0.87457600  1
  Li  Li9  1  0.07386800  0.80455200  0.87093200  1
  Mn  Mn10  1  0.50068700  0.50080800  0.99659200  1
  Mn  Mn11  1  0.24914700  0.24908900  0.50333000  1
  Mn  Mn12  1  0.99871600  0.00482200  0.98899500  1
  Mn  Mn13  1  0.75133400  0.74523300  0.51100300  1
  Co  Co14  1  0.87499400  0.37496600  0.25001500  1
  Co  Co15  1  0.37501400  0.87504200  0.24998400  1
  O  O16  1  0.46642000  0.08474500  0.05845000  1
  O  O17  1  0.96965600  0.57990300  0.06587900  1
  O  O18  1  0.78029000  0.17000300  0.43407900  1
  O  O19  1  0.28353500  0.66536500  0.44164100  1
  O  O20  1  0.73380600  0.33640600  0.53947900  1
  O  O21  1  0.23483500  0.83166100  0.55214200  1
  O  O22  1  0.01620800  0.41350800  0.96040300  1
  O  O23  1  0.51512900  0.91845600  0.94798100  1
  O  O24  1  0.10791600  0.22505300  0.78640400  1
  O  O25  1  0.60917400  0.72068000  0.79326100  1
  O  O26  1  0.14077800  0.02936300  0.70685200  1
  O  O27  1  0.64214300  0.52493600  0.71348500  1
  O  O28  1  0.35357100  0.45859200  0.29779300  1
  O  O29  1  0.83381900  0.96540800  0.29803500  1
  O  O30  1  0.39644500  0.29132000  0.20218200  1
  O  O31  1  0.91620800  0.78466100  0.20202000  1
