# generated using pymatgen
data_Li4MnCo2O7
_symmetry_space_group_name_H-M   'P 1'
_cell_length_a   3.02064800
_cell_length_b   5.05893492
_cell_length_c   16.73312702
_cell_angle_alpha   90.01175392
_cell_angle_beta   92.29979651
_cell_angle_gamma   91.56078977
_symmetry_Int_Tables_number   1
_chemical_formula_structural   Li4MnCo2O7
_chemical_formula_sum   'Li8 Mn2 Co4 O14'
_cell_volume   255.40232488
_cell_formula_units_Z   2
loop_
 _symmetry_equiv_pos_site_id
 _symmetry_equiv_pos_as_xyz
  1  'x, y, z'
loop_
 _atom_site_type_symbol
 _atom_site_label
 _atom_site_symmetry_multiplicity
 _atom_site_fract_x
 _atom_site_fract_y
 _atom_site_fract_z
 _atom_site_occupancy
  Li  Li0  1  0.71465100  0.92913100  0.42790600  1
  Li  Li1  1  0.13956400  0.78741800  0.28484700  1
  Li  Li2  1  0.56467400  0.64566200  0.14281500  1
  Li  Li3  1  0.00000000  0.50000000  0.00000000  1
  Li  Li4  1  0.43532600  0.35433800  0.85718500  1
  Li  Li5  1  0.86043600  0.21258200  0.71515300  1
  Li  Li6  1  0.28534900  0.07086900  0.57209400  1
  Li  Li7  1  0.50000000  0.00000000  0.00000000  1
  Mn  Mn8  1  0.79376100  0.57238000  0.57304200  1
  Mn  Mn9  1  0.20623900  0.42762000  0.42695800  1
  Co  Co10  1  0.63659200  0.27928500  0.28246800  1
  Co  Co11  1  0.06737700  0.14157900  0.13595800  1
  Co  Co12  1  0.93262300  0.85842100  0.86404200  1
  Co  Co13  1  0.36340800  0.72071500  0.71753200  1
  O  O14  1  0.21989600  0.73243100  0.49946700  1
  O  O15  1  0.64130100  0.58701900  0.35357000  1
  O  O16  1  0.11353700  0.42945700  0.21165400  1
  O  O17  1  0.51401400  0.31066400  0.07673100  1
  O  O18  1  0.95825200  0.14714500  0.92012100  1
  O  O19  1  0.35989700  0.01478500  0.78729900  1
  O  O20  1  0.82953000  0.87527800  0.64453400  1
  O  O21  1  0.17047000  0.12472200  0.35546600  1
  O  O22  1  0.64010300  0.98521500  0.21270100  1
  O  O23  1  0.04174800  0.85285500  0.07987900  1
  O  O24  1  0.48598600  0.68933600  0.92326900  1
  O  O25  1  0.88646300  0.57054300  0.78834600  1
  O  O26  1  0.35869900  0.41298100  0.64643000  1
  O  O27  1  0.78010400  0.26756900  0.50053300  1
