# generated using pymatgen
data_Li8Ni(O2F)2
_symmetry_space_group_name_H-M   'P 1'
_cell_length_a   5.46853503
_cell_length_b   6.06998192
_cell_length_c   16.36476869
_cell_angle_alpha   97.32648723
_cell_angle_beta   88.97346261
_cell_angle_gamma   90.40677918
_symmetry_Int_Tables_number   1
_chemical_formula_structural   Li8Ni(O2F)2
_chemical_formula_sum   'Li32 Ni4 O16 F8'
_cell_volume   538.68282702
_cell_formula_units_Z   4
loop_
 _symmetry_equiv_pos_site_id
 _symmetry_equiv_pos_as_xyz
  1  'x, y, z'
loop_
 _atom_site_type_symbol
 _atom_site_label
 _atom_site_symmetry_multiplicity
 _atom_site_fract_x
 _atom_site_fract_y
 _atom_site_fract_z
 _atom_site_occupancy
  Li  Li0  1  0.18031000  0.40128800  0.53166900  1
  Li  Li1  1  0.68050400  0.90111300  0.78181800  1
  Li  Li2  1  0.18054800  0.40101600  0.03175100  1
  Li  Li3  1  0.68031000  0.90099000  0.28169100  1
  Li  Li4  1  0.81952800  0.59911300  0.46823400  1
  Li  Li5  1  0.31970400  0.09880200  0.71829100  1
  Li  Li6  1  0.81977600  0.59902000  0.96835600  1
  Li  Li7  1  0.31960400  0.09890100  0.21826600  1
  Li  Li8  1  0.32662300  0.43036900  0.39141600  1
  Li  Li9  1  0.82648400  0.93022600  0.64136700  1
  Li  Li10  1  0.32679300  0.43052300  0.89140100  1
  Li  Li11  1  0.82677000  0.93030400  0.14130300  1
  Li  Li12  1  0.67326300  0.56960400  0.60854000  1
  Li  Li13  1  0.17345100  0.06977500  0.85867100  1
  Li  Li14  1  0.67329900  0.56941000  0.10864300  1
  Li  Li15  1  0.17316000  0.06953200  0.35869900  1
  Li  Li16  1  0.35541800  0.76642900  0.56523400  1
  Li  Li17  1  0.85550200  0.26628000  0.81529000  1
  Li  Li18  1  0.35548300  0.76629800  0.06525000  1
  Li  Li19  1  0.85547500  0.26620500  0.31531000  1
  Li  Li20  1  0.64448100  0.23363700  0.43473900  1
  Li  Li21  1  0.14439200  0.73372300  0.68469800  1
  Li  Li22  1  0.64457200  0.23375600  0.93477800  1
  Li  Li23  1  0.14455300  0.73368700  0.18474000  1
  Li  Li24  1  0.45098100  0.14659300  0.57152600  1
  Li  Li25  1  0.95120900  0.64632500  0.82150600  1
  Li  Li26  1  0.45120800  0.14617700  0.07154700  1
  Li  Li27  1  0.95105000  0.64657700  0.32158900  1
  Li  Li28  1  0.54885200  0.85356500  0.42841100  1
  Li  Li29  1  0.04907600  0.35318300  0.67839700  1
  Li  Li30  1  0.54908200  0.85346100  0.92846600  1
  Li  Li31  1  0.04882000  0.35347000  0.17846400  1
  Ni  Ni32  1  0.99992800  0.00008700  0.50015700  1
  Ni  Ni33  1  0.49998400  0.50010700  0.74993800  1
  Ni  Ni34  1  0.00006700  0.00000100  0.99982000  1
  Ni  Ni35  1  0.49989100  0.49992600  0.25004000  1
  O  O36  1  0.31716200  0.15804200  0.46084300  1
  O  O37  1  0.81702700  0.65786500  0.71074100  1
  O  O38  1  0.31752500  0.15766600  0.96080100  1
  O  O39  1  0.81706400  0.65782700  0.21069900  1
  O  O40  1  0.68252800  0.84235900  0.53919500  1
  O  O41  1  0.18300500  0.34219500  0.78928000  1
  O  O42  1  0.68273800  0.84215100  0.03915200  1
  O  O43  1  0.18293700  0.34218000  0.28928600  1
  O  O44  1  0.34324700  0.49778800  0.63071100  1
  O  O45  1  0.84365400  0.99788100  0.88082400  1
  O  O46  1  0.34334200  0.49757600  0.13074600  1
  O  O47  1  0.84331700  0.99755600  0.38078000  1
  O  O48  1  0.65655100  0.50248100  0.36926600  1
  O  O49  1  0.15636100  0.00217000  0.61921100  1
  O  O50  1  0.65681300  0.50251100  0.86931500  1
  O  O51  1  0.15646700  0.00213200  0.11911900  1
  F  F52  1  0.16728100  0.65667000  0.46618500  1
  F  F53  1  0.66853800  0.15529900  0.71648500  1
  F  F54  1  0.16768700  0.65626400  0.96635700  1
  F  F55  1  0.66833300  0.15546400  0.21645000  1
  F  F56  1  0.83233200  0.34374300  0.53363700  1
  F  F57  1  0.33159700  0.84466700  0.78356200  1
  F  F58  1  0.83273400  0.34345700  0.03378000  1
  F  F59  1  0.33161100  0.84458300  0.28356000  1
