# generated using pymatgen
data_LiV3O4
_symmetry_space_group_name_H-M   'P 1'
_cell_length_a   5.28438932
_cell_length_b   6.08484407
_cell_length_c   5.28439054
_cell_angle_alpha   89.99864797
_cell_angle_beta   109.80959356
_cell_angle_gamma   89.99856341
_symmetry_Int_Tables_number   1
_chemical_formula_structural   LiV3O4
_chemical_formula_sum   'Li2 V6 O8'
_cell_volume   159.86285710
_cell_formula_units_Z   2
loop_
 _symmetry_equiv_pos_site_id
 _symmetry_equiv_pos_as_xyz
  1  'x, y, z'
loop_
 _atom_site_type_symbol
 _atom_site_label
 _atom_site_symmetry_multiplicity
 _atom_site_fract_x
 _atom_site_fract_y
 _atom_site_fract_z
 _atom_site_occupancy
  Li  Li0  1  0.00000000  0.00000000  0.00000000  1
  Li  Li1  1  0.50000000  0.50000000  0.50000000  1
  V  V2  1  0.50001700  0.00000000  0.49998300  1
  V  V3  1  0.99998800  0.74862600  0.50000300  1
  V  V4  1  0.49999900  0.25137400  0.00001200  1
  V  V5  1  0.99999300  0.50000000  0.00000900  1
  V  V6  1  0.50000300  0.75137000  0.00000200  1
  V  V7  1  0.99999900  0.24863000  0.49999700  1
  O  O8  1  0.74999900  0.25000900  0.75000500  1
  O  O9  1  0.24999400  0.74999200  0.25000000  1
  O  O10  1  0.25000300  0.24999800  0.25000500  1
  O  O11  1  0.74999400  0.75000000  0.74999500  1
  O  O12  1  0.26278200  0.00000000  0.73721800  1
  O  O13  1  0.76277600  0.50000000  0.23722400  1
  O  O14  1  0.23721600  0.50000000  0.76278400  1
  O  O15  1  0.73723800  0.00000000  0.26276300  1
