# generated using pymatgen
data_Rb2Li5(BO2)7
_symmetry_space_group_name_H-M   'P 1'
_cell_length_a   7.17719553
_cell_length_b   7.17719553
_cell_length_c   20.85006700
_cell_angle_alpha   90.00000000
_cell_angle_beta   90.00000000
_cell_angle_gamma   143.85177344
_symmetry_Int_Tables_number   1
_chemical_formula_structural   Rb2Li5(BO2)7
_chemical_formula_sum   'Rb4 Li10 B14 O28'
_cell_volume   633.54565493
_cell_formula_units_Z   2
loop_
 _symmetry_equiv_pos_site_id
 _symmetry_equiv_pos_as_xyz
  1  'x, y, z'
loop_
 _atom_site_type_symbol
 _atom_site_label
 _atom_site_symmetry_multiplicity
 _atom_site_fract_x
 _atom_site_fract_y
 _atom_site_fract_z
 _atom_site_occupancy
  Rb  Rb0  1  0.65445800  0.28017000  0.84420300  1
  Rb  Rb1  1  0.28017000  0.65445800  0.15579700  1
  Rb  Rb2  1  0.65445800  0.28017000  0.65579700  1
  Rb  Rb3  1  0.28017000  0.65445800  0.34420300  1
  Li  Li4  1  0.29434300  0.63568100  0.75000000  1
  Li  Li5  1  0.63568100  0.29434300  0.25000000  1
  Li  Li6  1  0.96940400  0.00314400  0.93562900  1
  Li  Li7  1  0.00314400  0.96940400  0.06437100  1
  Li  Li8  1  0.96940400  0.00314400  0.56437100  1
  Li  Li9  1  0.00314400  0.96940400  0.43562900  1
  Li  Li10  1  0.39816800  0.56640400  0.01178800  1
  Li  Li11  1  0.56640400  0.39816800  0.98821200  1
  Li  Li12  1  0.39816800  0.56640400  0.48821200  1
  Li  Li13  1  0.56640400  0.39816800  0.51178800  1
  B  B14  1  0.05698800  0.87652100  0.75000000  1
  B  B15  1  0.87652100  0.05698800  0.25000000  1
  B  B16  1  0.89120700  0.03206800  0.81055000  1
  B  B17  1  0.03206800  0.89120700  0.18945000  1
  B  B18  1  0.89120700  0.03206800  0.68945000  1
  B  B19  1  0.03206800  0.89120700  0.31055000  1
  B  B20  1  0.75966400  0.15976900  0.00693100  1
  B  B21  1  0.15976900  0.75966400  0.99306900  1
  B  B22  1  0.75966400  0.15976900  0.49306900  1
  B  B23  1  0.15976900  0.75966400  0.50693100  1
  B  B24  1  0.38416400  0.53282100  0.87355000  1
  B  B25  1  0.53282100  0.38416400  0.12645000  1
  B  B26  1  0.38416400  0.53282100  0.62645000  1
  B  B27  1  0.53282100  0.38416400  0.37355000  1
  O  O28  1  0.15852500  0.78047500  0.75000000  1
  O  O29  1  0.78047500  0.15852500  0.25000000  1
  O  O30  1  0.00423900  0.92754800  0.80802000  1
  O  O31  1  0.92754800  0.00423900  0.19198000  1
  O  O32  1  0.00423900  0.92754800  0.69198000  1
  O  O33  1  0.92754800  0.00423900  0.30802000  1
  O  O34  1  0.86275700  0.42468900  0.99163100  1
  O  O35  1  0.42468900  0.86275700  0.00836900  1
  O  O36  1  0.86275700  0.42468900  0.50836900  1
  O  O37  1  0.42468900  0.86275700  0.49163100  1
  O  O38  1  0.94233000  0.17285900  0.75000000  1
  O  O39  1  0.17285900  0.94233000  0.25000000  1
  O  O40  1  0.54383800  0.75621400  0.82529900  1
  O  O41  1  0.75621400  0.54383800  0.17470100  1
  O  O42  1  0.54383800  0.75621400  0.67470100  1
  O  O43  1  0.75621400  0.54383800  0.32529900  1
  O  O44  1  0.05308700  0.25422000  0.86603800  1
  O  O45  1  0.25422000  0.05308700  0.13396200  1
  O  O46  1  0.05308700  0.25422000  0.63396200  1
  O  O47  1  0.25422000  0.05308700  0.36603800  1
  O  O48  1  0.52012800  0.56798400  0.92687800  1
  O  O49  1  0.56798400  0.52012800  0.07312200  1
  O  O50  1  0.52012800  0.56798400  0.57312200  1
  O  O51  1  0.56798400  0.52012800  0.42687800  1
  O  O52  1  0.94301600  0.16305700  0.01975800  1
  O  O53  1  0.16305700  0.94301600  0.98024200  1
  O  O54  1  0.94301600  0.16305700  0.48024200  1
  O  O55  1  0.16305700  0.94301600  0.51975800  1
