# generated using pymatgen
data_Li7V3P8O29
_symmetry_space_group_name_H-M   'P 1'
_cell_length_a   9.85536419
_cell_length_b   9.85536419
_cell_length_c   13.95099926
_cell_angle_alpha   89.38573866
_cell_angle_beta   89.38573866
_cell_angle_gamma   60.11725653
_symmetry_Int_Tables_number   1
_chemical_formula_structural   Li7V3P8O29
_chemical_formula_sum   'Li14 V6 P16 O58'
_cell_volume   1174.78911737
_cell_formula_units_Z   2
loop_
 _symmetry_equiv_pos_site_id
 _symmetry_equiv_pos_as_xyz
  1  'x, y, z'
loop_
 _atom_site_type_symbol
 _atom_site_label
 _atom_site_symmetry_multiplicity
 _atom_site_fract_x
 _atom_site_fract_y
 _atom_site_fract_z
 _atom_site_occupancy
  Li  Li0  1  0.66797900  0.23975200  0.06297100  1
  Li  Li1  1  0.67936800  0.09126500  0.56543600  1
  Li  Li2  1  0.23975200  0.66797900  0.56297100  1
  Li  Li3  1  0.33074800  0.33606100  0.38395600  1
  Li  Li4  1  0.33606100  0.33074800  0.88395600  1
  Li  Li5  1  0.09126500  0.67936800  0.06543600  1
  Li  Li6  1  0.23472300  0.09427900  0.06078400  1
  Li  Li7  1  0.09427900  0.23472300  0.56078400  1
  Li  Li8  1  0.66237900  0.67754400  0.61140100  1
  Li  Li9  1  0.67754400  0.66237900  0.11140100  1
  Li  Li10  1  0.77199000  0.31862400  0.43600100  1
  Li  Li11  1  0.31862400  0.77199000  0.93600100  1
  Li  Li12  1  0.94781700  0.03622900  0.99705800  1
  Li  Li13  1  0.03622900  0.94781700  0.49705800  1
  V  V14  1  0.99793000  0.56415400  0.24911100  1
  V  V15  1  0.99937000  0.43708200  0.75289900  1
  V  V16  1  0.56415400  0.99793000  0.74911100  1
  V  V17  1  0.43708200  0.99937000  0.25289900  1
  V  V18  1  0.56456800  0.43405100  0.24889900  1
  V  V19  1  0.43405100  0.56456800  0.74889900  1
  P  P20  1  0.68006700  0.22371500  0.84266100  1
  P  P21  1  0.68420600  0.08651100  0.34876600  1
  P  P22  1  0.22371500  0.68006700  0.34266100  1
  P  P23  1  0.33077800  0.33175500  0.12498800  1
  P  P24  1  0.33175500  0.33077800  0.62498800  1
  P  P25  1  0.08651100  0.68420600  0.84876600  1
  P  P26  1  0.91571000  0.77821000  0.66134200  1
  P  P27  1  0.22701900  0.08976300  0.84280000  1
  P  P28  1  0.77821000  0.91571000  0.16134200  1
  P  P29  1  0.08976300  0.22701900  0.34280000  1
  P  P30  1  0.91441100  0.30892800  0.15581500  1
  P  P31  1  0.66855500  0.66472500  0.37191100  1
  P  P32  1  0.66472500  0.66855500  0.87191100  1
  P  P33  1  0.77390700  0.32094400  0.65820400  1
  P  P34  1  0.30892800  0.91441100  0.65581500  1
  P  P35  1  0.32094400  0.77390700  0.15820400  1
  O  O36  1  0.76749800  0.23481900  0.57053600  1
  O  O37  1  0.66957600  0.24921500  0.34001900  1
  O  O38  1  0.78913800  0.01502500  0.08290600  1
  O  O39  1  0.66184400  0.07923200  0.83216000  1
  O  O40  1  0.51622400  0.37077000  0.83221300  1
  O  O41  1  0.48037900  0.33207700  0.15764500  1
  O  O42  1  0.37077000  0.51622400  0.33221300  1
  O  O43  1  0.23481900  0.76749800  0.07053600  1
  O  O44  1  0.24921500  0.66957600  0.84001900  1
  O  O45  1  0.48183400  0.18250800  0.66503900  1
  O  O46  1  0.51784000  0.10801700  0.33150600  1
  O  O47  1  0.33207700  0.48037900  0.65764500  1
  O  O48  1  0.32059800  0.32690500  0.01769300  1
  O  O49  1  0.32690500  0.32059800  0.51769300  1
  O  O50  1  0.18250800  0.48183400  0.16503900  1
  O  O51  1  0.37423600  0.10836900  0.82851600  1
  O  O52  1  0.33195300  0.18379800  0.17053800  1
  O  O53  1  0.07923200  0.66184400  0.33216000  1
  O  O54  1  0.98258000  0.79535800  0.76262500  1
  O  O55  1  0.01502500  0.78913800  0.58290600  1
  O  O56  1  0.00880600  0.75947200  0.94100100  1
  O  O57  1  0.10801700  0.51784000  0.83150600  1
  O  O58  1  0.18379800  0.33195300  0.67053800  1
  O  O59  1  0.91685800  0.74628600  0.15693800  1
  O  O60  1  0.10836900  0.37423600  0.32851600  1
  O  O61  1  0.25272400  0.08280600  0.33729300  1
  O  O62  1  0.79535800  0.98258000  0.26262500  1
  O  O63  1  0.75947200  0.00880600  0.44100100  1
  O  O64  1  0.20461600  0.01300200  0.57633300  1
  O  O65  1  0.74628600  0.91685800  0.65693800  1
  O  O66  1  0.90784300  0.62463400  0.66579100  1
  O  O67  1  0.08280600  0.25272400  0.83729300  1
  O  O68  1  0.81717400  0.65540600  0.32119900  1
  O  O69  1  0.90345800  0.47174800  0.16234200  1
  O  O70  1  0.01300200  0.20461600  0.07633300  1
  O  O71  1  0.00206700  0.23396300  0.43377800  1
  O  O72  1  0.98738500  0.22030500  0.25681600  1
  O  O73  1  0.92323700  0.33464300  0.65792900  1
  O  O74  1  0.65540600  0.81717400  0.82119900  1
  O  O75  1  0.62463400  0.90784300  0.16579100  1
  O  O76  1  0.81566700  0.52783000  0.82459600  1
  O  O77  1  0.67731600  0.67260300  0.97815100  1
  O  O78  1  0.67260300  0.67731600  0.47815100  1
  O  O79  1  0.66451400  0.51671000  0.34104600  1
  O  O80  1  0.47174800  0.90345800  0.66234200  1
  O  O81  1  0.52783000  0.81566700  0.32459600  1
  O  O82  1  0.74757600  0.33433000  0.15512400  1
  O  O83  1  0.78633800  0.21945700  0.75198500  1
  O  O84  1  0.76485800  0.21686500  0.93307700  1
  O  O85  1  0.63151100  0.48682800  0.66891200  1
  O  O86  1  0.51671000  0.66451400  0.84104600  1
  O  O87  1  0.48682800  0.63151100  0.16891200  1
  O  O88  1  0.33464300  0.92323700  0.15792900  1
  O  O89  1  0.23396300  0.00206700  0.93377800  1
  O  O90  1  0.22030500  0.98738500  0.75681600  1
  O  O91  1  0.33433000  0.74757600  0.65512400  1
  O  O92  1  0.21686500  0.76485800  0.43307700  1
  O  O93  1  0.21945700  0.78633800  0.25198500  1
