# generated using pymatgen
data_Li2GaSn
_symmetry_space_group_name_H-M   'P 1'
_cell_length_a   11.06088852
_cell_length_b   11.06088852
_cell_length_c   11.06088852
_cell_angle_alpha   120.33535991
_cell_angle_beta   119.88944824
_cell_angle_gamma   89.80585571
_symmetry_Int_Tables_number   1
_chemical_formula_structural   Li2GaSn
_chemical_formula_sum   'Li2 Ga1 Sn1'
_cell_volume   955.22483187
_cell_formula_units_Z   1
loop_
 _symmetry_equiv_pos_site_id
 _symmetry_equiv_pos_as_xyz
  1  'x, y, z'
loop_
 _atom_site_type_symbol
 _atom_site_label
 _atom_site_symmetry_multiplicity
 _atom_site_fract_x
 _atom_site_fract_y
 _atom_site_fract_z
 _atom_site_occupancy
  Li  Li0  1  0.00000000  0.25017400  0.25017400  1
  Li  Li1  1  0.00000000  0.74982600  0.74982600  1
  Ga  Ga2  1  0.00000000  0.00000000  0.00000000  1
  Sn  Sn3  1  0.00000000  0.50000000  0.50000000  1
