# generated using pymatgen
data_Li9Mn2Co5O16
_symmetry_space_group_name_H-M   'P 1'
_cell_length_a   2.96406300
_cell_length_b   9.86912764
_cell_length_c   10.37452106
_cell_angle_alpha   73.08821497
_cell_angle_beta   82.69650591
_cell_angle_gamma   87.72267592
_symmetry_Int_Tables_number   1
_chemical_formula_structural   Li9Mn2Co5O16
_chemical_formula_sum   'Li9 Mn2 Co5 O16'
_cell_volume   288.00144506
_cell_formula_units_Z   1
loop_
 _symmetry_equiv_pos_site_id
 _symmetry_equiv_pos_as_xyz
  1  'x, y, z'
loop_
 _atom_site_type_symbol
 _atom_site_label
 _atom_site_symmetry_multiplicity
 _atom_site_fract_x
 _atom_site_fract_y
 _atom_site_fract_z
 _atom_site_occupancy
  Li  Li0  1  0.92783600  0.68741100  0.13164200  1
  Li  Li1  1  0.42063700  0.17712700  0.13194100  1
  Li  Li2  1  0.31802900  0.56433800  0.37930200  1
  Li  Li3  1  0.81414000  0.05551200  0.36778300  1
  Li  Li4  1  0.68994600  0.43833200  0.62290800  1
  Li  Li5  1  0.19029900  0.93657700  0.62319800  1
  Li  Li6  1  0.07199900  0.31900000  0.87175300  1
  Li  Li7  1  0.56876500  0.81391800  0.87208000  1
  Li  Li8  1  0.38730300  0.88378900  0.25052300  1
  Mn  Mn9  1  0.99168700  0.99687100  0.00607300  1
  Mn  Mn10  1  0.87306000  0.37682400  0.25220400  1
  Co  Co11  1  0.50176300  0.50398000  0.99892000  1
  Co  Co12  1  0.75646100  0.75528700  0.48946700  1
  Co  Co13  1  0.24783500  0.24658100  0.50368500  1
  Co  Co14  1  0.13054400  0.62285900  0.74454100  1
  Co  Co15  1  0.61733300  0.12219100  0.74921700  1
  O  O16  1  0.48591300  0.86272400  0.05404800  1
  O  O17  1  0.95916500  0.35802700  0.06428100  1
  O  O18  1  0.83193400  0.71920700  0.33418700  1
  O  O19  1  0.30126700  0.22238700  0.32015000  1
  O  O20  1  0.18371600  0.60345000  0.56488000  1
  O  O21  1  0.72631300  0.10088300  0.57068300  1
  O  O22  1  0.59629000  0.47632600  0.81244800  1
  O  O23  1  0.05453700  0.97843700  0.81617000  1
  O  O24  1  0.44622400  0.52961800  0.18628400  1
  O  O25  1  0.91793900  0.03249200  0.17064800  1
  O  O26  1  0.77151600  0.39564600  0.43711100  1
  O  O27  1  0.30987800  0.89398400  0.44451400  1
  O  O28  1  0.18558100  0.27122000  0.68607800  1
  O  O29  1  0.66213100  0.76992000  0.67665800  1
  O  O30  1  0.50784800  0.13614100  0.93485300  1
  O  O31  1  0.05210900  0.64893800  0.93176700  1
