# generated using pymatgen
data_Li9Mn7O16
_symmetry_space_group_name_H-M   'P 1'
_cell_length_a   3.00672100
_cell_length_b   9.94353724
_cell_length_c   10.18606331
_cell_angle_alpha   77.82708968
_cell_angle_beta   86.49285587
_cell_angle_gamma   86.13114995
_symmetry_Int_Tables_number   1
_chemical_formula_structural   Li9Mn7O16
_chemical_formula_sum   'Li9 Mn7 O16'
_cell_volume   296.66724564
_cell_formula_units_Z   1
loop_
 _symmetry_equiv_pos_site_id
 _symmetry_equiv_pos_as_xyz
  1  'x, y, z'
loop_
 _atom_site_type_symbol
 _atom_site_label
 _atom_site_symmetry_multiplicity
 _atom_site_fract_x
 _atom_site_fract_y
 _atom_site_fract_z
 _atom_site_occupancy
  Li  Li0  1  0.00646400  0.25486100  0.87500400  1
  Li  Li1  1  0.50332000  0.75224600  0.87543200  1
  Li  Li2  1  0.49668000  0.24775400  0.12456800  1
  Li  Li3  1  0.99353600  0.74513900  0.12499600  1
  Li  Li4  1  0.01068500  0.24169600  0.38774100  1
  Li  Li5  1  0.51214700  0.75827500  0.38024100  1
  Li  Li6  1  0.48785300  0.24172500  0.61975900  1
  Li  Li7  1  0.98931500  0.75830400  0.61225900  1
  Li  Li8  1  0.50000000  0.00000000  0.50000000  1
  Mn  Mn9  1  0.99669100  0.00163400  0.74093900  1
  Mn  Mn10  1  0.00330900  0.99836600  0.25906100  1
  Mn  Mn11  1  0.49919200  0.50186100  0.74958600  1
  Mn  Mn12  1  0.50000000  0.00000000  0.00000000  1
  Mn  Mn13  1  0.00000000  0.50000000  0.00000000  1
  Mn  Mn14  1  0.50080800  0.49813900  0.25041400  1
  Mn  Mn15  1  0.00000000  0.50000000  0.50000000  1
  O  O16  1  0.46743500  0.10577000  0.80997000  1
  O  O17  1  0.03595300  0.61810200  0.82022900  1
  O  O18  1  0.02905000  0.11362900  0.06617000  1
  O  O19  1  0.53297000  0.61855500  0.06960400  1
  O  O20  1  0.47330500  0.10752200  0.30267900  1
  O  O21  1  0.03445200  0.61500400  0.31824100  1
  O  O22  1  0.00668800  0.11815900  0.57734500  1
  O  O23  1  0.53420100  0.61933400  0.56877000  1
  O  O24  1  0.46703000  0.38144500  0.93039600  1
  O  O25  1  0.97095000  0.88637100  0.93383000  1
  O  O26  1  0.96404700  0.38189800  0.17977100  1
  O  O27  1  0.53256500  0.89423000  0.19003000  1
  O  O28  1  0.46579900  0.38066600  0.43123000  1
  O  O29  1  0.99331200  0.88184100  0.42265500  1
  O  O30  1  0.96554800  0.38499600  0.68175900  1
  O  O31  1  0.52669500  0.89247800  0.69732100  1
