# generated using pymatgen
data_LiCoSnO4
_symmetry_space_group_name_H-M   'P 1'
_cell_length_a   6.20878114
_cell_length_b   6.20870452
_cell_length_c   8.53490621
_cell_angle_alpha   88.04336839
_cell_angle_beta   88.04731021
_cell_angle_gamma   89.68092054
_symmetry_Int_Tables_number   1
_chemical_formula_structural   LiCoSnO4
_chemical_formula_sum   'Li4 Co4 Sn4 O16'
_cell_volume   328.62176081
_cell_formula_units_Z   4
loop_
 _symmetry_equiv_pos_site_id
 _symmetry_equiv_pos_as_xyz
  1  'x, y, z'
loop_
 _atom_site_type_symbol
 _atom_site_label
 _atom_site_symmetry_multiplicity
 _atom_site_fract_x
 _atom_site_fract_y
 _atom_site_fract_z
 _atom_site_occupancy
  Li  Li0  1  0.24822800  0.50115800  0.37484800  1
  Li  Li1  1  0.74904300  0.00178000  0.87513800  1
  Li  Li2  1  0.75213400  0.49777900  0.62502000  1
  Li  Li3  1  0.25176800  0.99810800  0.12501100  1
  Co  Co4  1  0.49896600  0.99844500  0.50024800  1
  Co  Co5  1  0.25169800  0.75100400  0.74982200  1
  Co  Co6  1  0.99899700  0.49878200  0.99986600  1
  Co  Co7  1  0.75119400  0.25105600  0.25005500  1
  Sn  Sn8  1  0.74985400  0.75037400  0.25007700  1
  Sn  Sn9  1  0.25001200  0.25053400  0.74981700  1
  Sn  Sn10  1  0.99954500  0.99998400  0.50020500  1
  Sn  Sn11  1  0.49960400  0.50012200  0.99991700  1
  O  O12  1  0.02203300  0.50023000  0.77215900  1
  O  O13  1  0.52188500  0.00010700  0.27238700  1
  O  O14  1  0.74968800  0.22803000  0.47787200  1
  O  O15  1  0.24993700  0.72789600  0.97763000  1
  O  O16  1  0.24914100  0.77118300  0.52103000  1
  O  O17  1  0.74904400  0.27128200  0.02120400  1
  O  O18  1  0.97856100  0.50096300  0.22874000  1
  O  O19  1  0.47893200  0.00094600  0.72893200  1
  O  O20  1  0.97808000  0.99757900  0.25481000  1
  O  O21  1  0.47848400  0.49747300  0.75460600  1
  O  O22  1  0.75255500  0.77146600  0.49545500  1
  O  O23  1  0.25243700  0.27187900  0.99519900  1
  O  O24  1  0.24698000  0.22788100  0.50469600  1
  O  O25  1  0.74711600  0.72808900  0.00485200  1
  O  O26  1  0.02224200  0.00290600  0.74528600  1
  O  O27  1  0.52184000  0.50296700  0.24511700  1
