# generated using pymatgen
data_Li9Mn2Co5O16
_symmetry_space_group_name_H-M   'P 1'
_cell_length_a   5.91701400
_cell_length_b   6.46638137
_cell_length_c   8.58850842
_cell_angle_alpha   83.00353070
_cell_angle_beta   109.44442546
_cell_angle_gamma   113.80863089
_symmetry_Int_Tables_number   1
_chemical_formula_structural   Li9Mn2Co5O16
_chemical_formula_sum   'Li9 Mn2 Co5 O16'
_cell_volume   283.46804072
_cell_formula_units_Z   1
loop_
 _symmetry_equiv_pos_site_id
 _symmetry_equiv_pos_as_xyz
  1  'x, y, z'
loop_
 _atom_site_type_symbol
 _atom_site_label
 _atom_site_symmetry_multiplicity
 _atom_site_fract_x
 _atom_site_fract_y
 _atom_site_fract_z
 _atom_site_occupancy
  Li  Li0  1  0.73226400  0.74037200  0.25967100  1
  Li  Li1  1  0.25471800  0.99730600  0.50522300  1
  Li  Li2  1  0.27327900  0.74469000  0.26559700  1
  Li  Li3  1  0.74612200  0.99567400  0.50269400  1
  Li  Li4  1  0.73947200  0.25965300  0.73522500  1
  Li  Li5  1  0.25529600  0.26016800  0.74035000  1
  Li  Li6  1  0.23841300  0.49867500  0.99577100  1
  Li  Li7  1  0.75660500  0.50339400  0.99673700  1
  Li  Li8  1  0.49804000  0.50073000  0.50269000  1
  Mn  Mn9  1  0.00607000  0.00210100  0.99745200  1
  Mn  Mn10  1  0.50134200  0.25321900  0.25530200  1
  Co  Co11  1  0.99880400  0.50302300  0.49993300  1
  Co  Co12  1  0.50187600  0.74708600  0.74689900  1
  Co  Co13  1  0.50342400  0.99950600  0.99848600  1
  Co  Co14  1  0.01007300  0.25882900  0.25253300  1
  Co  Co15  1  0.98691000  0.74056400  0.74872200  1
  O  O16  1  0.14722300  0.02734000  0.24107800  1
  O  O17  1  0.61341600  0.24725000  0.48270300  1
  O  O18  1  0.61169900  0.00919100  0.23319800  1
  O  O19  1  0.09907500  0.26367100  0.48061100  1
  O  O20  1  0.10731900  0.50938000  0.74302100  1
  O  O21  1  0.61590600  0.51518800  0.75294300  1
  O  O22  1  0.65954100  0.78645900  0.99398300  1
  O  O23  1  0.11596800  0.76173500  0.99121700  1
  O  O24  1  0.38007300  0.48598400  0.24499100  1
  O  O25  1  0.89257600  0.73693300  0.51464400  1
  O  O26  1  0.84477500  0.47071700  0.25163600  1
  O  O27  1  0.36862800  0.74059100  0.51525600  1
  O  O28  1  0.39318800  0.98583600  0.76717100  1
  O  O29  1  0.89707700  0.99475300  0.76238700  1
  O  O30  1  0.89305400  0.23893200  0.01519700  1
  O  O31  1  0.35777500  0.22104900  0.00668000  1
