# generated using pymatgen
data_LiCo5O7F
_symmetry_space_group_name_H-M   'P 1'
_cell_length_a   5.79838902
_cell_length_b   5.79837897
_cell_length_c   10.16369552
_cell_angle_alpha   74.31782142
_cell_angle_beta   91.42435329
_cell_angle_gamma   61.31584935
_symmetry_Int_Tables_number   1
_chemical_formula_structural   LiCo5O7F
_chemical_formula_sum   'Li2 Co10 O14 F2'
_cell_volume   283.74547848
_cell_formula_units_Z   2
loop_
 _symmetry_equiv_pos_site_id
 _symmetry_equiv_pos_as_xyz
  1  'x, y, z'
loop_
 _atom_site_type_symbol
 _atom_site_label
 _atom_site_symmetry_multiplicity
 _atom_site_fract_x
 _atom_site_fract_y
 _atom_site_fract_z
 _atom_site_occupancy
  Li  Li0  1  0.02392600  0.01155000  0.00821300  1
  Li  Li1  1  0.51676000  0.01411800  0.50458100  1
  Co  Co2  1  0.35964800  0.23560300  0.12192400  1
  Co  Co3  1  0.86337700  0.24671800  0.62018600  1
  Co  Co4  1  0.93684000  0.62203300  0.31463200  1
  Co  Co5  1  0.44019600  0.62999900  0.81080100  1
  Co  Co6  1  0.18278800  0.62425400  0.56149500  1
  Co  Co7  1  0.68369300  0.61697600  0.06342600  1
  Co  Co8  1  0.92157000  0.12298200  0.30981200  1
  Co  Co9  1  0.43192800  0.12935500  0.80870800  1
  Co  Co10  1  0.43312900  0.61108600  0.30961700  1
  Co  Co11  1  0.93745600  0.62369100  0.80834100  1
  O  O12  1  0.55985600  0.37253900  0.18520000  1
  O  O13  1  0.06856500  0.39662500  0.67422100  1
  O  O14  1  0.02077600  0.38041500  0.19571500  1
  O  O15  1  0.52078200  0.39503200  0.69294700  1
  O  O16  1  0.57764700  0.82340800  0.19519400  1
  O  O17  1  0.08489700  0.83196300  0.69328400  1
  O  O18  1  0.79772800  0.38412900  0.41467200  1
  O  O19  1  0.29050600  0.37220500  0.91745100  1
  O  O20  1  0.07331000  0.85702800  0.21491400  1
  O  O21  1  0.58932700  0.88447100  0.70657600  1
  O  O22  1  0.28639300  0.42505000  0.43119000  1
  O  O23  1  0.79285600  0.42828800  0.92806700  1
  O  O24  1  0.85418900  0.85665700  0.43072800  1
  O  O25  1  0.36073600  0.86188000  0.92860300  1
  F  F26  1  0.31462600  0.86257700  0.45510500  1
  F  F27  1  0.82650300  0.87937800  0.94440300  1
