# generated using pymatgen
data_Li9Mn2Co5O16
_symmetry_space_group_name_H-M   'P 1'
_cell_length_a   5.80395800
_cell_length_b   5.10288900
_cell_length_c   9.77168330
_cell_angle_alpha   81.45814055
_cell_angle_beta   90.00000000
_cell_angle_gamma   90.00000000
_symmetry_Int_Tables_number   1
_chemical_formula_structural   Li9Mn2Co5O16
_chemical_formula_sum   'Li9 Mn2 Co5 O16'
_cell_volume   286.19726919
_cell_formula_units_Z   1
loop_
 _symmetry_equiv_pos_site_id
 _symmetry_equiv_pos_as_xyz
  1  'x, y, z'
loop_
 _atom_site_type_symbol
 _atom_site_label
 _atom_site_symmetry_multiplicity
 _atom_site_fract_x
 _atom_site_fract_y
 _atom_site_fract_z
 _atom_site_occupancy
  Li  Li0  1  0.25568100  0.24964000  0.75009800  1
  Li  Li1  1  0.25568100  0.75036000  0.24990200  1
  Li  Li2  1  0.50219900  0.75320900  0.76037200  1
  Li  Li3  1  0.50219900  0.24679100  0.23962800  1
  Li  Li4  1  0.74446000  0.24016900  0.75373500  1
  Li  Li5  1  0.74446000  0.75983100  0.24626500  1
  Li  Li6  1  0.99853900  0.75210800  0.75186400  1
  Li  Li7  1  0.99853900  0.24789200  0.24813600  1
  Li  Li8  1  0.50427200  0.00000000  0.00000000  1
  Mn  Mn9  1  0.99661100  0.00000000  0.00000000  1
  Mn  Mn10  1  0.75021100  0.00000000  0.50000000  1
  Co  Co11  1  0.99873900  0.50000000  0.50000000  1
  Co  Co12  1  0.25319400  0.50000000  0.00000000  1
  Co  Co13  1  0.25044000  0.00000000  0.50000000  1
  Co  Co14  1  0.50156000  0.50000000  0.50000000  1
  Co  Co15  1  0.74379800  0.50000000  0.00000000  1
  O  O16  1  0.23501500  0.84448600  0.89238600  1
  O  O17  1  0.25029700  0.37842100  0.38379500  1
  O  O18  1  0.49492800  0.39678500  0.89074300  1
  O  O19  1  0.50327800  0.88144500  0.38378100  1
  O  O20  1  0.76726100  0.88188200  0.88347600  1
  O  O21  1  0.74998100  0.39564700  0.37850000  1
  O  O22  1  0.00104600  0.35926500  0.89432700  1
  O  O23  1  0.99790200  0.87985500  0.38574200  1
  O  O24  1  0.25029700  0.62157900  0.61620500  1
  O  O25  1  0.23501500  0.15551400  0.10761400  1
  O  O26  1  0.50327800  0.11855500  0.61621900  1
  O  O27  1  0.49492800  0.60321500  0.10925700  1
  O  O28  1  0.74998100  0.60435300  0.62150000  1
  O  O29  1  0.76726100  0.11811800  0.11652400  1
  O  O30  1  0.99790200  0.12014500  0.61425800  1
  O  O31  1  0.00104600  0.64073500  0.10567300  1
