# generated using pymatgen
data_LiNdTiO4
_symmetry_space_group_name_H-M   'P 1'
_cell_length_a   3.74738300
_cell_length_b   3.74738300
_cell_length_c   12.24777800
_cell_angle_alpha   90.00000000
_cell_angle_beta   90.00000000
_cell_angle_gamma   90.00000000
_symmetry_Int_Tables_number   1
_chemical_formula_structural   LiNdTiO4
_chemical_formula_sum   'Li2 Nd2 Ti2 O8'
_cell_volume   171.99406874
_cell_formula_units_Z   2
loop_
 _symmetry_equiv_pos_site_id
 _symmetry_equiv_pos_as_xyz
  1  'x, y, z'
loop_
 _atom_site_type_symbol
 _atom_site_label
 _atom_site_symmetry_multiplicity
 _atom_site_fract_x
 _atom_site_fract_y
 _atom_site_fract_z
 _atom_site_occupancy
  Li  Li0  1  0.50000000  0.50000000  0.50000000  1
  Li  Li1  1  0.00000000  0.00000000  0.50000000  1
  Nd  Nd2  1  0.00000000  0.50000000  0.11585500  1
  Nd  Nd3  1  0.50000000  0.00000000  0.88414500  1
  Ti  Ti4  1  0.00000000  0.50000000  0.70977300  1
  Ti  Ti5  1  0.50000000  0.00000000  0.29022700  1
  O  O6  1  0.00000000  0.50000000  0.92524200  1
  O  O7  1  0.50000000  0.00000000  0.07475800  1
  O  O8  1  0.00000000  0.50000000  0.56287700  1
  O  O9  1  0.50000000  0.00000000  0.43712300  1
  O  O10  1  0.00000000  0.00000000  0.75050000  1
  O  O11  1  0.50000000  0.50000000  0.75050000  1
  O  O12  1  0.50000000  0.50000000  0.24950000  1
  O  O13  1  0.00000000  0.00000000  0.24950000  1
