# generated using pymatgen
data_Li2O
_symmetry_space_group_name_H-M   'P 1'
_cell_length_a   10.72756756
_cell_length_b   10.40012557
_cell_length_c   9.37080373
_cell_angle_alpha   90.64512106
_cell_angle_beta   89.05603279
_cell_angle_gamma   93.60072431
_symmetry_Int_Tables_number   1
_chemical_formula_structural   Li2O
_chemical_formula_sum   'Li68 O34'
_cell_volume   1043.22207213
_cell_formula_units_Z   34
loop_
 _symmetry_equiv_pos_site_id
 _symmetry_equiv_pos_as_xyz
  1  'x, y, z'
loop_
 _atom_site_type_symbol
 _atom_site_label
 _atom_site_symmetry_multiplicity
 _atom_site_fract_x
 _atom_site_fract_y
 _atom_site_fract_z
 _atom_site_occupancy
  Li  Li0  1  0.54902961  0.27065161  0.79238063  1
  Li  Li1  1  0.58413686  0.98350096  0.25868053  1
  Li  Li2  1  0.49808305  0.79277229  0.72897070  1
  Li  Li3  1  0.62797838  0.49237665  0.87848623  1
  Li  Li4  1  0.62456069  0.05977780  0.89744366  1
  Li  Li5  1  0.17360750  0.48501058  0.47723491  1
  Li  Li6  1  0.78716521  0.87634529  0.17630109  1
  Li  Li7  1  0.10350182  0.30908719  0.35775701  1
  Li  Li8  1  0.62872108  0.32900793  0.32690829  1
  Li  Li9  1  0.87963349  0.45175465  0.39918033  1
  Li  Li10  1  0.69540018  0.70843963  0.82256538  1
  Li  Li11  1  0.34277807  0.34729270  0.66260017  1
  Li  Li12  1  0.86883559  0.02097027  0.01000572  1
  Li  Li13  1  0.93989366  0.14766600  0.22253308  1
  Li  Li14  1  0.33338946  0.29343847  0.41889385  1
  Li  Li15  1  0.62099154  0.62615796  0.40724192  1
  Li  Li16  1  0.27193083  0.69782925  0.34174691  1
  Li  Li17  1  0.35190584  0.67212082  0.10291708  1
  Li  Li18  1  0.27807272  0.15793825  0.94451476  1
  Li  Li19  1  0.85236935  0.89828637  0.75571516  1
  Li  Li20  1  0.78092429  0.24579240  0.44875303  1
  Li  Li21  1  0.38350092  0.35838485  0.89948249  1
  Li  Li22  1  0.92777116  0.36838931  0.16289666  1
  Li  Li23  1  0.21807960  0.37564370  0.09270136  1
  Li  Li24  1  0.24629801  0.68381906  0.73535799  1
  Li  Li25  1  0.45282877  0.59575683  0.89664003  1
  Li  Li26  1  0.32309616  0.92159929  0.87155337  1
  Li  Li27  1  0.08484086  0.93104570  0.65879873  1
  Li  Li28  1  0.72368447  0.14229553  0.15146655  1
  Li  Li29  1  0.99194700  0.26577152  0.56358530  1
  Li  Li30  1  0.73947147  0.03591424  0.67684447  1
  Li  Li31  1  0.59906941  0.16061811  0.56253243  1
  Li  Li32  1  0.06392269  0.94509865  0.08105946  1
  Li  Li33  1  0.49647830  0.80445235  0.39704887  1
  Li  Li34  1  0.22719670  0.50037566  0.90318199  1
  Li  Li35  1  0.20492011  0.76462686  0.97889880  1
  Li  Li36  1  0.28154792  0.92297473  0.50308580  1
  Li  Li37  1  0.83544132  0.65200409  0.28214044  1
  Li  Li38  1  0.95792696  0.50513071  0.81071731  1
  Li  Li39  1  0.68670134  0.82758429  0.56893543  1
  Li  Li40  1  0.82807423  0.57971490  0.58819942  1
  Li  Li41  1  0.59042149  0.83832227  0.96399311  1
  Li  Li42  1  0.07766370  0.59079498  0.07392398  1
  Li  Li43  1  0.82435913  0.23625799  0.85788334  1
  Li  Li44  1  0.06093733  0.83372987  0.28909143  1
  Li  Li45  1  0.27016729  0.90568492  0.20877836  1
  Li  Li46  1  0.41327744  0.04672941  0.09146051  1
  Li  Li47  1  0.51424733  0.53291013  0.14786913  1
  Li  Li48  1  0.40776416  0.10103632  0.73324330  1
  Li  Li49  1  0.88913677  0.80664571  0.45353734  1
  Li  Li50  1  0.09212126  0.71327661  0.52215037  1
  Li  Li51  1  0.47012726  0.12650144  0.38311014  1
  Li  Li52  1  0.77762618  -0.00673092  0.38494382  1
  Li  Li53  1  0.61564278  0.54310334  0.64753203  1
  Li  Li54  1  0.99146472  0.00605594  0.43018295  1
  Li  Li55  1  0.24579875  0.14472522  0.59056991  1
  Li  Li56  1  0.05007422  0.58676344  0.28806427  1
  Li  Li57  1  0.13508515  0.01189437  0.87004921  1
  Li  Li58  1  0.53078307  0.36974516  0.53193315  1
  Li  Li59  1  0.12164990  0.33932533  0.72591655  1
  Li  Li60  1  0.98666546  0.73961357  0.89772645  1
  Li  Li61  1  0.34069892  0.48647364  0.25489713  1
  Li  Li62  1  0.02118563  0.26883650  0.92391660  1
  Li  Li63  1  0.45003280  0.30557500  0.10994978  1
  Li  Li64  1  0.78871697  0.57855536  0.00960712  1
  Li  Li65  1  0.59783916  0.73222003  0.18573016  1
  Li  Li66  1  0.77805801  0.36963647  0.68304441  1
  Li  Li67  1  0.41104068  0.61698248  0.50720691  1
  O  O68  1  0.93950731  0.96610800  0.23102425  1
  O  O69  1  0.55768553  0.69522488  0.57695376  1
  O  O70  1  0.70769152  0.43109888  0.48914426  1
  O  O71  1  0.24615309  0.64148963  0.53833456  1
  O  O72  1  0.90812512  0.54849868  0.14294422  1
  O  O73  1  0.36805206  0.48151383  0.04132459  1
  O  O74  1  0.49054617  0.43806889  0.75102435  1
  O  O75  1  0.68995107  0.19380089  0.73365025  1
  O  O76  1  0.78240118  0.55714491  0.78438932  1
  O  O77  1  0.10676234  0.62100825  0.87201575  1
  O  O78  1  0.45657809  0.18316137  0.94581255  1
  O  O79  1  0.65802677  0.13768047  0.35997821  1
  O  O80  1  0.88075991  0.20958243  0.04744906  1
  O  O81  1  0.94294838  0.63204941  0.44607029  1
  O  O82  1  0.41264369  0.95703899  0.32311032  1
  O  O83  1  0.71406602  0.78575457  0.33298116  1
  O  O84  1  0.20055446  0.31045585  0.89781070  1
  O  O85  1  0.42931112  0.20611660  0.57013446  1
  O  O86  1  0.61965885  0.64092942  0.00753367  1
  O  O87  1  0.18525673  0.30666450  0.54093068  1
  O  O88  1  0.94864900  0.32929202  0.74529859  1
  O  O89  1  0.98213610  0.91746452  0.88626133  1
  O  O90  1  0.16180148  0.44896637  0.26117446  1
  O  O91  1  0.46299105  0.35328518  0.29863245  1
  O  O92  1  0.44870331  0.65146473  0.28710830  1
  O  O93  1  0.25251917  0.00596939  0.71604902  1
  O  O94  1  0.93529696  0.27437449  0.36994237  1
  O  O95  1  0.23800242  0.99640137  0.03439718  1
  O  O96  1  0.85123793  0.95416012  0.56088959  1
  O  O97  1  0.66188050  0.88835924  0.77843658  1
  O  O98  1  0.37401794  0.75550798  0.88444590  1
  O  O99  1  0.10934242  0.89044905  0.46811381  1
  O  O100  1  0.17273333  0.73732478  0.17719545  1
  O  O101  1  0.66558680  0.97599731  0.07944276  1
