# generated using pymatgen
data_Li2WO4
_symmetry_space_group_name_H-M   'P 1'
_cell_length_a   9.07346121
_cell_length_b   9.07346121
_cell_length_c   9.07346112
_cell_angle_alpha   107.85401677
_cell_angle_beta   107.85401677
_cell_angle_gamma   107.85401446
_symmetry_Int_Tables_number   1
_chemical_formula_structural   Li2WO4
_chemical_formula_sum   'Li12 W6 O24'
_cell_volume   607.03053501
_cell_formula_units_Z   6
loop_
 _symmetry_equiv_pos_site_id
 _symmetry_equiv_pos_as_xyz
  1  'x, y, z'
loop_
 _atom_site_type_symbol
 _atom_site_label
 _atom_site_symmetry_multiplicity
 _atom_site_fract_x
 _atom_site_fract_y
 _atom_site_fract_z
 _atom_site_occupancy
  Li  Li0  1  0.10761900  0.87293100  0.27707700  1
  Li  Li1  1  0.72292300  0.89238100  0.12706900  1
  Li  Li2  1  0.39082600  0.56658500  0.79645900  1
  Li  Li3  1  0.60917400  0.43341500  0.20354100  1
  Li  Li4  1  0.79645900  0.39082600  0.56658500  1
  Li  Li5  1  0.12706900  0.72292300  0.89238100  1
  Li  Li6  1  0.43341500  0.20354100  0.60917400  1
  Li  Li7  1  0.27707700  0.10761900  0.87293100  1
  Li  Li8  1  0.87293100  0.27707700  0.10761900  1
  Li  Li9  1  0.56658500  0.79645900  0.39082600  1
  Li  Li10  1  0.20354100  0.60917400  0.43341500  1
  Li  Li11  1  0.89238100  0.12706900  0.72292300  1
  W  W12  1  0.23167400  0.46304200  0.05453000  1
  W  W13  1  0.46304200  0.05453000  0.23167400  1
  W  W14  1  0.05453000  0.23167400  0.46304200  1
  W  W15  1  0.76832600  0.53695800  0.94547000  1
  W  W16  1  0.94547000  0.76832600  0.53695800  1
  W  W17  1  0.53695800  0.94547000  0.76832600  1
  O  O18  1  0.69293600  0.02876400  0.99151200  1
  O  O19  1  0.27830100  0.31695000  0.61713600  1
  O  O20  1  0.30706400  0.97123600  0.00848800  1
  O  O21  1  0.65184500  0.95789700  0.63660400  1
  O  O22  1  0.31695000  0.61713600  0.27830100  1
  O  O23  1  0.75354900  0.42366300  0.07803600  1
  O  O24  1  0.07803600  0.75354900  0.42366300  1
  O  O25  1  0.63660400  0.65184500  0.95789700  1
  O  O26  1  0.97123600  0.00848800  0.30706400  1
  O  O27  1  0.04210300  0.36339600  0.34815500  1
  O  O28  1  0.68305000  0.38286400  0.72169900  1
  O  O29  1  0.36339600  0.34815500  0.04210300  1
  O  O30  1  0.38286400  0.72169900  0.68305000  1
  O  O31  1  0.42366300  0.07803600  0.75354900  1
  O  O32  1  0.61713600  0.27830100  0.31695000  1
  O  O33  1  0.57633700  0.92196400  0.24645100  1
  O  O34  1  0.95789700  0.63660400  0.65184500  1
  O  O35  1  0.34815500  0.04210300  0.36339600  1
  O  O36  1  0.99151200  0.69293600  0.02876400  1
  O  O37  1  0.92196400  0.24645100  0.57633700  1
  O  O38  1  0.24645100  0.57633700  0.92196400  1
  O  O39  1  0.72169900  0.68305000  0.38286400  1
  O  O40  1  0.02876400  0.99151200  0.69293600  1
  O  O41  1  0.00848800  0.30706400  0.97123600  1
