# generated using pymatgen
data_Li4MnCo3O8
_symmetry_space_group_name_H-M   'P 1'
_cell_length_a   5.93982514
_cell_length_b   5.93982514
_cell_length_c   5.93982499
_cell_angle_alpha   59.12902919
_cell_angle_beta   59.12902919
_cell_angle_gamma   59.12902702
_symmetry_Int_Tables_number   1
_chemical_formula_structural   Li4MnCo3O8
_chemical_formula_sum   'Li4 Mn1 Co3 O8'
_cell_volume   145.24377461
_cell_formula_units_Z   1
loop_
 _symmetry_equiv_pos_site_id
 _symmetry_equiv_pos_as_xyz
  1  'x, y, z'
loop_
 _atom_site_type_symbol
 _atom_site_label
 _atom_site_symmetry_multiplicity
 _atom_site_fract_x
 _atom_site_fract_y
 _atom_site_fract_z
 _atom_site_occupancy
  Li  Li0  1  0.00000000  0.00000000  0.50000000  1
  Li  Li1  1  0.50000000  0.00000000  0.00000000  1
  Li  Li2  1  0.00000000  0.50000000  0.00000000  1
  Li  Li3  1  0.50000000  0.50000000  0.50000000  1
  Mn  Mn4  1  0.00000000  0.00000000  0.00000000  1
  Co  Co5  1  0.50000000  0.50000000  0.00000000  1
  Co  Co6  1  0.00000000  0.50000000  0.50000000  1
  Co  Co7  1  0.50000000  0.00000000  0.50000000  1
  O  O8  1  0.76573600  0.76573600  0.23888200  1
  O  O9  1  0.23888200  0.76573600  0.76573600  1
  O  O10  1  0.76573600  0.23888200  0.76573600  1
  O  O11  1  0.25856200  0.25856200  0.25856200  1
  O  O12  1  0.23426400  0.23426400  0.76111800  1
  O  O13  1  0.76111800  0.23426400  0.23426400  1
  O  O14  1  0.23426400  0.76111800  0.23426400  1
  O  O15  1  0.74143800  0.74143800  0.74143800  1
