# generated using pymatgen
data_Li2FeCSO7
_symmetry_space_group_name_H-M   'P 1'
_cell_length_a   8.13879150
_cell_length_b   8.13728734
_cell_length_c   9.85886873
_cell_angle_alpha   103.62839732
_cell_angle_beta   103.59476832
_cell_angle_gamma   104.57476696
_symmetry_Int_Tables_number   1
_chemical_formula_structural   Li2FeCSO7
_chemical_formula_sum   'Li8 Fe4 C4 S4 O28'
_cell_volume   583.27998549
_cell_formula_units_Z   4
loop_
 _symmetry_equiv_pos_site_id
 _symmetry_equiv_pos_as_xyz
  1  'x, y, z'
loop_
 _atom_site_type_symbol
 _atom_site_label
 _atom_site_symmetry_multiplicity
 _atom_site_fract_x
 _atom_site_fract_y
 _atom_site_fract_z
 _atom_site_occupancy
  Li  Li0  1  0.45161800  0.93542900  0.17355000  1
  Li  Li1  1  0.95161900  0.43574600  0.17425100  1
  Li  Li2  1  0.68524400  0.70193400  0.17443400  1
  Li  Li3  1  0.18476800  0.20133500  0.17279700  1
  Li  Li4  1  0.04822700  0.56464500  0.82625200  1
  Li  Li5  1  0.54839500  0.06447600  0.82588100  1
  Li  Li6  1  0.81456200  0.79812500  0.82547000  1
  Li  Li7  1  0.31490700  0.29859000  0.82699600  1
  Fe  Fe8  1  0.43639900  0.68632100  0.35514900  1
  Fe  Fe9  1  0.06363800  0.81334200  0.64477700  1
  Fe  Fe10  1  0.93637200  0.18651300  0.35428400  1
  Fe  Fe11  1  0.56355400  0.31374700  0.64586400  1
  C  C12  1  0.77603600  0.02599000  0.07275700  1
  C  C13  1  0.27606000  0.52634500  0.07345400  1
  C  C14  1  0.72386100  0.47405400  0.92725200  1
  C  C15  1  0.22377800  0.97366100  0.92634200  1
  S  S16  1  0.70647700  0.45607000  0.40926400  1
  S  S17  1  0.20635200  0.95665900  0.40871300  1
  S  S18  1  0.79359000  0.04392600  0.59090300  1
  S  S19  1  0.29388400  0.54328800  0.59132600  1
  O  O20  1  0.30485400  0.05484300  0.06340800  1
  O  O21  1  0.80495600  0.55549600  0.06423500  1
  O  O22  1  0.19489000  0.44524900  0.93641800  1
  O  O23  1  0.69498200  0.94457600  0.93578300  1
  O  O24  1  0.91832400  0.16836700  0.11975700  1
  O  O25  1  0.41852200  0.66852500  0.12056500  1
  O  O26  1  0.58159100  0.33167700  0.88029600  1
  O  O27  1  0.08140300  0.83138200  0.87925100  1
  O  O28  1  0.72088600  0.97125200  0.17503300  1
  O  O29  1  0.22087200  0.47122700  0.17555200  1
  O  O30  1  0.77895500  0.52882700  0.82497100  1
  O  O31  1  0.27901200  0.02876100  0.82428600  1
  O  O32  1  0.67213700  0.92197700  0.44590600  1
  O  O33  1  0.17246900  0.42200100  0.44614000  1
  O  O34  1  0.82793200  0.57803900  0.55426100  1
  O  O35  1  0.32763500  0.07798800  0.55389400  1
  O  O36  1  0.56716600  0.31519300  0.43151100  1
  O  O37  1  0.06571500  0.81646700  0.43038400  1
  O  O38  1  0.93301100  0.18476100  0.56867600  1
  O  O39  1  0.43484800  0.68306600  0.56957400  1
  O  O40  1  0.61908300  0.55408900  0.32034900  1
  O  O41  1  0.12022900  0.05550000  0.31976700  1
  O  O42  1  0.80537400  0.37040600  0.32014300  1
  O  O43  1  0.30510700  0.86999300  0.32000800  1
  O  O44  1  0.69476100  0.12976800  0.68001300  1
  O  O45  1  0.19539400  0.63027600  0.68004500  1
  O  O46  1  0.88095000  0.94576700  0.67971100  1
  O  O47  1  0.37959700  0.44433000  0.68034500  1
