# generated using pymatgen
data_Li2MnV(P2O7)2
_symmetry_space_group_name_H-M   'P 1'
_cell_length_a   4.85003900
_cell_length_b   7.05225996
_cell_length_c   24.98893316
_cell_angle_alpha   89.44463922
_cell_angle_beta   89.72687284
_cell_angle_gamma   71.29206720
_symmetry_Int_Tables_number   1
_chemical_formula_structural   Li2MnV(P2O7)2
_chemical_formula_sum   'Li6 Mn3 V3 P12 O42'
_cell_volume   809.51748968
_cell_formula_units_Z   3
loop_
 _symmetry_equiv_pos_site_id
 _symmetry_equiv_pos_as_xyz
  1  'x, y, z'
loop_
 _atom_site_type_symbol
 _atom_site_label
 _atom_site_symmetry_multiplicity
 _atom_site_fract_x
 _atom_site_fract_y
 _atom_site_fract_z
 _atom_site_occupancy
  Li  Li0  1  0.17253600  0.32525700  0.62027800  1
  Li  Li1  1  0.17386900  0.32679700  0.95399200  1
  Li  Li2  1  0.17690600  0.32578600  0.28717300  1
  Li  Li3  1  0.82313700  0.67617400  0.12023700  1
  Li  Li4  1  0.82539300  0.67326500  0.45363500  1
  Li  Li5  1  0.82334200  0.67557900  0.78679300  1
  Mn  Mn6  1  0.21307000  0.26880200  0.49958900  1
  Mn  Mn7  1  0.78520400  0.72861700  0.66649800  1
  Mn  Mn8  1  0.78507100  0.73109400  0.99987100  1
  V  V9  1  0.21607100  0.27309100  0.16647700  1
  V  V10  1  0.21474000  0.27266900  0.83311000  1
  V  V11  1  0.78570900  0.72922400  0.33306900  1
  P  P12  1  0.40225500  0.47796700  0.05913900  1
  P  P13  1  0.39872600  0.48168600  0.39337100  1
  P  P14  1  0.40107200  0.47822500  0.72567700  1
  P  P15  1  0.21352300  0.91466400  0.26119300  1
  P  P16  1  0.21292300  0.90920500  0.59579900  1
  P  P17  1  0.21339500  0.91141300  0.92843300  1
  P  P18  1  0.78993500  0.08633000  0.09550200  1
  P  P19  1  0.78728700  0.08819800  0.42865600  1
  P  P20  1  0.78879100  0.08669500  0.76201200  1
  P  P21  1  0.59999300  0.52349800  0.22690200  1
  P  P22  1  0.59910300  0.51659700  0.55931800  1
  P  P23  1  0.60149100  0.51844400  0.89361600  1
  O  O24  1  0.05136100  0.15317200  0.10836600  1
  O  O25  1  0.04979000  0.15376500  0.77502200  1
  O  O26  1  0.05782500  0.14614100  0.44236500  1
  O  O27  1  0.13121800  0.11127200  0.89865800  1
  O  O28  1  0.13300200  0.11546800  0.23206700  1
  O  O29  1  0.12623200  0.11107400  0.56747100  1
  O  O30  1  0.18888100  0.51795800  0.01197300  1
  O  O31  1  0.18689900  0.51816800  0.67851800  1
  O  O32  1  0.18966700  0.51756600  0.34555900  1
  O  O33  1  0.25013300  0.49513500  0.78024300  1
  O  O34  1  0.25072100  0.49476700  0.11367200  1
  O  O35  1  0.24349300  0.50361200  0.44699600  1
  O  O36  1  0.39572800  0.39634400  0.22596000  1
  O  O37  1  0.39163800  0.38975400  0.55713700  1
  O  O38  1  0.39172900  0.39490800  0.89179600  1
  O  O39  1  0.60170900  0.08510500  0.14517500  1
  O  O40  1  0.60124000  0.08478500  0.47842100  1
  O  O41  1  0.59991300  0.08617300  0.81171900  1
  O  O42  1  0.59791800  0.24725100  0.05134500  1
  O  O43  1  0.59621500  0.25009200  0.38563600  1
  O  O44  1  0.59690300  0.24762600  0.71780900  1
  O  O45  1  0.40469800  0.75450200  0.21803000  1
  O  O46  1  0.40455200  0.75091100  0.88567600  1
  O  O47  1  0.40236400  0.74975500  0.55214500  1
  O  O48  1  0.39794900  0.91617500  0.31095600  1
  O  O49  1  0.40083500  0.90997700  0.64515700  1
  O  O50  1  0.39740500  0.91436000  0.97811800  1
  O  O51  1  0.60459000  0.60824600  0.05795100  1
  O  O52  1  0.60843800  0.60537700  0.39169700  1
  O  O53  1  0.60396800  0.60786400  0.72435900  1
  O  O54  1  0.75309100  0.50687700  0.28106800  1
  O  O55  1  0.74992000  0.49309600  0.61320900  1
  O  O56  1  0.75545800  0.49559100  0.94719000  1
  O  O57  1  0.81253300  0.48505000  0.17948300  1
  O  O58  1  0.80968500  0.48228600  0.51140400  1
  O  O59  1  0.81105900  0.48403000  0.84559500  1
  O  O60  1  0.87348700  0.88566000  0.06759900  1
  O  O61  1  0.87247400  0.88593300  0.73434800  1
  O  O62  1  0.86832700  0.88981800  0.39903800  1
  O  O63  1  0.94859700  0.85170400  0.27458100  1
  O  O64  1  0.94307200  0.84954700  0.60945600  1
  O  O65  1  0.94174100  0.85382300  0.94227200  1
