# generated using pymatgen
data_Li6Zn3(PS4)4
_symmetry_space_group_name_H-M   'P 1'
_cell_length_a   9.33398302
_cell_length_b   11.59530224
_cell_length_c   23.11374098
_cell_angle_alpha   89.91759056
_cell_angle_beta   90.02737642
_cell_angle_gamma   89.94020344
_symmetry_Int_Tables_number   1
_chemical_formula_structural   Li6Zn3(PS4)4
_chemical_formula_sum   'Li24 Zn12 P16 S64'
_cell_volume   2501.60413589
_cell_formula_units_Z   4
loop_
 _symmetry_equiv_pos_site_id
 _symmetry_equiv_pos_as_xyz
  1  'x, y, z'
loop_
 _atom_site_type_symbol
 _atom_site_label
 _atom_site_symmetry_multiplicity
 _atom_site_fract_x
 _atom_site_fract_y
 _atom_site_fract_z
 _atom_site_occupancy
  Li  Li0  1  0.74776746  0.99434955  0.62792529  1
  Li  Li1  1  0.74928374  0.99185016  0.87387311  1
  Li  Li2  1  0.25061262  0.75232269  0.74871343  1
  Li  Li3  1  0.24835195  0.73999944  0.99826608  1
  Li  Li4  1  0.50528118  0.49881352  0.25104225  1
  Li  Li5  1  0.50157826  0.99995653  0.25035354  1
  Li  Li6  1  0.50195829  0.50146208  0.50138984  1
  Li  Li7  1  0.49807587  0.00018214  0.49652881  1
  Li  Li8  1  0.00571900  0.75152488  0.37375920  1
  Li  Li9  1  0.00184821  0.25038966  0.37496393  1
  Li  Li10  1  0.50540798  0.50018436  0.74971563  1
  Li  Li11  1  0.49331234  0.00129641  0.74956044  1
  Li  Li12  1  0.00562653  0.74946326  0.62180703  1
  Li  Li13  1  0.00057444  0.25224710  0.62539829  1
  Li  Li14  1  0.50817196  0.49786716  0.99889738  1
  Li  Li15  1  0.49624259  0.00095255  0.00271790  1
  Li  Li16  1  0.99454270  0.74625800  0.87481565  1
  Li  Li17  1  0.00337515  0.25340371  0.87568855  1
  Li  Li18  1  0.99849162  0.74843656  0.12696862  1
  Li  Li19  1  0.00017540  0.25122910  0.12488839  1
  Li  Li20  1  0.49967536  0.74781838  0.62353223  1
  Li  Li21  1  0.50831595  0.74780923  0.87580671  1
  Li  Li22  1  0.00788375  0.00115375  0.74931167  1
  Li  Li23  1  0.99107453  0.49879938  0.00029659  1
  Zn  Zn24  1  0.49850889  0.25163643  0.12398777  1
  Zn  Zn25  1  0.50711600  0.74807429  0.12700420  1
  Zn  Zn26  1  0.49939193  0.24978903  0.37432426  1
  Zn  Zn27  1  0.49921040  0.75050662  0.37576777  1
  Zn  Zn28  1  0.00034514  0.49964480  0.24994892  1
  Zn  Zn29  1  0.99796820  0.00050230  0.25000396  1
  Zn  Zn30  1  0.49039539  0.24987260  0.62576680  1
  Zn  Zn31  1  0.99966276  0.50029472  0.50004160  1
  Zn  Zn32  1  0.00536075  0.00114059  0.49890389  1
  Zn  Zn33  1  0.49198575  0.25267427  0.87554459  1
  Zn  Zn34  1  0.99164452  0.50045505  0.74963815  1
  Zn  Zn35  1  0.99918908  0.99993724  0.00168355  1
  P  P36  1  0.75017514  0.24967297  0.24983651  1
  P  P37  1  0.75060481  0.75017389  0.25075109  1
  P  P38  1  0.75154752  0.24876355  0.50016377  1
  P  P39  1  0.74951390  0.74644350  0.49919529  1
  P  P40  1  0.25052633  0.49996282  0.37520786  1
  P  P41  1  0.25021987  0.00062767  0.37418239  1
  P  P42  1  0.74769102  0.24886038  0.74753644  1
  P  P43  1  0.75077911  0.75282551  0.75147797  1
  P  P44  1  0.24560485  0.49882319  0.62799058  1
  P  P45  1  0.25342447  0.99636792  0.62196452  1
  P  P46  1  0.74581850  0.24615193  0.00143875  1
  P  P47  1  0.75258004  0.75901344  0.99925336  1
  P  P48  1  0.24894436  0.49672867  0.87687310  1
  P  P49  1  0.24970177  0.00211002  0.87402564  1
  P  P50  1  0.25419465  0.50578440  0.12559165  1
  P  P51  1  0.24751840  0.99978771  0.12492154  1
  S  S52  1  0.86245243  0.35236277  0.05175597  1
  S  S53  1  0.86825512  0.86408631  0.05486473  1
  S  S54  1  0.86442308  0.36113596  0.30202521  1
  S  S55  1  0.86575960  0.86145283  0.30257659  1
  S  S56  1  0.37132764  0.61219954  0.17931567  1
  S  S57  1  0.36620261  0.10886161  0.17614907  1
  S  S58  1  0.86388447  0.36028275  0.55224371  1
  S  S59  1  0.86920283  0.86173720  0.55083567  1
  S  S60  1  0.36445011  0.61110974  0.42752386  1
  S  S61  1  0.36216756  0.11324747  0.42635716  1
  S  S62  1  0.86033845  0.35814632  0.80094896  1
  S  S63  1  0.87446984  0.85969012  0.80280061  1
  S  S64  1  0.36649911  0.60698332  0.67833065  1
  S  S65  1  0.36020491  0.10974986  0.67674011  1
  S  S66  1  0.36960043  0.60683608  0.92701104  1
  S  S67  1  0.37149258  0.10609954  0.92731561  1
  S  S68  1  0.63560397  0.64686776  0.30656564  1
  S  S69  1  0.63675489  0.14535279  0.30602828  1
  S  S70  1  0.64112998  0.64419704  0.55422143  1
  S  S71  1  0.62922455  0.14498389  0.55559940  1
  S  S72  1  0.13756156  0.89593714  0.43014480  1
  S  S73  1  0.13644147  0.39557001  0.43103821  1
  S  S74  1  0.63207337  0.64749217  0.80200511  1
  S  S75  1  0.62773957  0.14598513  0.80451378  1
  S  S76  1  0.13263542  0.89400195  0.67648064  1
  S  S77  1  0.12896871  0.39365114  0.68217636  1
  S  S78  1  0.63270582  0.65273515  0.05334696  1
  S  S79  1  0.62827322  0.14133358  0.05574750  1
  S  S80  1  0.13167604  0.89472907  0.93085795  1
  S  S81  1  0.12968417  0.39648682  0.92907544  1
  S  S82  1  0.13386986  0.89603371  0.18069283  1
  S  S83  1  0.13738503  0.39969302  0.17998284  1
  S  S84  1  0.86424547  0.13852439  0.19748704  1
  S  S85  1  0.86224031  0.63761269  0.19838318  1
  S  S86  1  0.86334640  0.13732693  0.44754520  1
  S  S87  1  0.87504075  0.64316065  0.44701958  1
  S  S88  1  0.36493084  0.38884541  0.32277334  1
  S  S89  1  0.36482275  0.88878945  0.32247286  1
  S  S90  1  0.86690833  0.14035057  0.69692023  1
  S  S91  1  0.87476740  0.64872121  0.69796954  1
  S  S92  1  0.36113655  0.39009703  0.57440647  1
  S  S93  1  0.37428609  0.89482528  0.57045721  1
  S  S94  1  0.86616412  0.13569814  0.94759174  1
  S  S95  1  0.86567978  0.64905215  0.94901297  1
  S  S96  1  0.36788268  0.39275102  0.82233089  1
  S  S97  1  0.36858262  0.89128321  0.82364404  1
  S  S98  1  0.36662114  0.39354232  0.07288515  1
  S  S99  1  0.36690693  0.88603236  0.07391103  1
  S  S100  1  0.63478213  0.35316995  0.19413056  1
  S  S101  1  0.63878079  0.85611379  0.19474985  1
  S  S102  1  0.63244988  0.35155242  0.44560780  1
  S  S103  1  0.63890586  0.85398683  0.44322054  1
  S  S104  1  0.13658540  0.60371544  0.31894176  1
  S  S105  1  0.13515926  0.10456398  0.31838492  1
  S  S106  1  0.62873018  0.35301296  0.69393533  1
  S  S107  1  0.62996967  0.85590036  0.69662070  1
  S  S108  1  0.13510792  0.60194642  0.57009067  1
  S  S109  1  0.12864429  0.10394237  0.57053927  1
  S  S110  1  0.63629412  0.35009337  0.94369783  1
  S  S111  1  0.62684708  0.86290376  0.94753431  1
  S  S112  1  0.13076555  0.60287520  0.81967104  1
  S  S113  1  0.12757441  0.10438205  0.82355823  1
  S  S114  1  0.13160349  0.60620991  0.07153466  1
  S  S115  1  0.13881198  0.10559643  0.06845877  1
