# generated using pymatgen
data_Li5V3P8O29
_symmetry_space_group_name_H-M   'P 1'
_cell_length_a   9.78198300
_cell_length_b   9.82609346
_cell_length_c   14.12145044
_cell_angle_alpha   89.74094609
_cell_angle_beta   89.69367207
_cell_angle_gamma   60.21136603
_symmetry_Int_Tables_number   1
_chemical_formula_structural   Li5V3P8O29
_chemical_formula_sum   'Li10 V6 P16 O58'
_cell_volume   1177.96279978
_cell_formula_units_Z   2
loop_
 _symmetry_equiv_pos_site_id
 _symmetry_equiv_pos_as_xyz
  1  'x, y, z'
loop_
 _atom_site_type_symbol
 _atom_site_label
 _atom_site_symmetry_multiplicity
 _atom_site_fract_x
 _atom_site_fract_y
 _atom_site_fract_z
 _atom_site_occupancy
  Li  Li0  1  0.09278300  0.67763100  0.94467700  1
  Li  Li1  1  0.23215900  0.66681700  0.43808300  1
  Li  Li2  1  0.10140500  0.23384400  0.44003200  1
  Li  Li3  1  0.22812700  0.08430200  0.93889800  1
  Li  Li4  1  0.68019000  0.22721900  0.94136700  1
  Li  Li5  1  0.66592300  0.10225300  0.44080500  1
  Li  Li6  1  0.77270300  0.90598100  0.06189000  1
  Li  Li7  1  0.66215100  0.66501300  0.39095400  1
  Li  Li8  1  0.90817700  0.31933300  0.06280400  1
  Li  Li9  1  0.99305600  0.00239200  0.49824000  1
  V  V10  1  0.43325300  0.99843200  0.74868100  1
  V  V11  1  0.56584700  0.00217400  0.25074000  1
  V  V12  1  0.43249600  0.56710100  0.24874500  1
  V  V13  1  0.56491900  0.43718900  0.74584300  1
  V  V14  1  0.99821200  0.56653100  0.74590300  1
  V  V15  1  0.00375600  0.43105800  0.25110000  1
  P  P16  1  0.08608300  0.68299800  0.15786900  1
  P  P17  1  0.22709400  0.68758100  0.65611400  1
  P  P18  1  0.08772600  0.22675500  0.65867700  1
  P  P19  1  0.33039500  0.33490800  0.86855500  1
  P  P20  1  0.33674400  0.33381400  0.37335500  1
  P  P21  1  0.23294000  0.08565500  0.15703800  1
  P  P22  1  0.30732100  0.91320700  0.34088600  1
  P  P23  1  0.67895700  0.23453300  0.15700100  1
  P  P24  1  0.31495100  0.76962900  0.83965700  1
  P  P25  1  0.68716100  0.08882500  0.65802500  1
  P  P26  1  0.77020400  0.91081500  0.83919700  1
  P  P27  1  0.66619900  0.66654000  0.63005800  1
  P  P28  1  0.67041300  0.66369300  0.13069900  1
  P  P29  1  0.91007600  0.77686800  0.34030300  1
  P  P30  1  0.77695100  0.31036300  0.34009800  1
  P  P31  1  0.90942500  0.31977100  0.84074100  1
  O  O32  1  0.00424500  0.78668600  0.42044100  1
  O  O33  1  0.08651700  0.65685400  0.66993500  1
  O  O34  1  0.22777100  0.75713900  0.92209000  1
  O  O35  1  0.24979500  0.66181800  0.16252400  1
  O  O36  1  0.09296500  0.52415700  0.18105800  1
  O  O37  1  0.17952700  0.48316500  0.82536200  1
  O  O38  1  0.08908500  0.38343900  0.67415100  1
  O  O39  1  0.99805600  0.24168800  0.92943800  1
  O  O40  1  0.08484700  0.25126600  0.16358600  1
  O  O41  1  0.33122900  0.48614100  0.32978000  1
  O  O42  1  0.38331500  0.52939500  0.67126200  1
  O  O43  1  0.19081500  0.32591900  0.33483700  1
  O  O44  1  0.32937000  0.34558900  0.97387800  1
  O  O45  1  0.33585400  0.34258100  0.47918000  1
  O  O46  1  0.32908600  0.18533100  0.83279000  1
  O  O47  1  0.51782400  0.37801000  0.17531400  1
  O  O48  1  0.47935600  0.33653700  0.82495500  1
  O  O49  1  0.25644200  0.08837400  0.66980300  1
  O  O50  1  0.21603500  0.98647700  0.24161500  1
  O  O51  1  0.20253100  0.01132100  0.42021200  1
  O  O52  1  0.24551700  0.01130400  0.06374700  1
  O  O53  1  0.38292600  0.09644200  0.18195400  1
  O  O54  1  0.49051600  0.18804000  0.33500500  1
  O  O55  1  0.33792500  0.91393100  0.84099700  1
  O  O56  1  0.53221500  0.08918500  0.66960500  1
  O  O57  1  0.65878700  0.25884500  0.67265900  1
  O  O58  1  0.21340500  0.79694200  0.74272500  1
  O  O59  1  0.21644700  0.76508100  0.56370500  1
  O  O60  1  0.79078000  0.20316100  0.41977200  1
  O  O61  1  0.33282700  0.74527500  0.34328900  1
  O  O62  1  0.47219600  0.89992800  0.33267500  1
  O  O63  1  0.66932900  0.08139000  0.16073700  1
  O  O64  1  0.52026700  0.80900200  0.67091900  1
  O  O65  1  0.61845200  0.90400700  0.82208600  1
  O  O66  1  0.76126100  0.99806000  0.92845400  1
  O  O67  1  0.77570500  0.02251700  0.56782300  1
  O  O68  1  0.79669300  0.99551500  0.74846500  1
  O  O69  1  0.73906100  0.92027200  0.34110500  1
  O  O70  1  0.52578200  0.66067000  0.18039100  1
  O  O71  1  0.47498300  0.61791100  0.82039100  1
  O  O72  1  0.67250400  0.81324300  0.16950100  1
  O  O73  1  0.66801300  0.66138900  0.02531000  1
  O  O74  1  0.67695500  0.65635400  0.52487100  1
  O  O75  1  0.81746100  0.66376700  0.67358100  1
  O  O76  1  0.62630400  0.47270800  0.33556000  1
  O  O77  1  0.66982400  0.51536900  0.67417200  1
  O  O78  1  0.91577500  0.74302100  0.83854400  1
  O  O79  1  0.98274500  0.79866300  0.24219700  1
  O  O80  1  0.99775800  0.75117900  0.06706900  1
  O  O81  1  0.89524200  0.62775900  0.33270600  1
  O  O82  1  0.81901700  0.51048700  0.16944300  1
  O  O83  1  0.90297700  0.47791900  0.82183200  1
  O  O84  1  0.74167100  0.34097600  0.84076900  1
  O  O85  1  0.75451100  0.24449700  0.06560700  1
  O  O86  1  0.79584200  0.21925300  0.24154100  1
  O  O87  1  0.92081100  0.33869300  0.34039600  1
  O  O88  1  0.01361300  0.22168700  0.56800500  1
  O  O89  1  0.99447000  0.21159000  0.74940000  1
