# generated using pymatgen
data_Li7Mn4CoO12
_symmetry_space_group_name_H-M   'P 1'
_cell_length_a   2.96000761
_cell_length_b   7.81486846
_cell_length_c   19.09995925
_cell_angle_alpha   91.92857366
_cell_angle_beta   94.90701205
_cell_angle_gamma   82.76642237
_symmetry_Int_Tables_number   1
_chemical_formula_structural   Li7Mn4CoO12
_chemical_formula_sum   'Li14 Mn8 Co2 O24'
_cell_volume   436.58166516
_cell_formula_units_Z   2
loop_
 _symmetry_equiv_pos_site_id
 _symmetry_equiv_pos_as_xyz
  1  'x, y, z'
loop_
 _atom_site_type_symbol
 _atom_site_label
 _atom_site_symmetry_multiplicity
 _atom_site_fract_x
 _atom_site_fract_y
 _atom_site_fract_z
 _atom_site_occupancy
  Li  Li0  1  0.66582900  0.75104800  0.08275900  1
  Li  Li1  1  0.66750000  0.24894900  0.58390700  1
  Li  Li2  1  0.78669100  0.39610800  0.04449500  1
  Li  Li3  1  0.78568300  0.89634800  0.54468600  1
  Li  Li4  1  0.54765200  0.10365600  0.12198100  1
  Li  Li5  1  0.54664200  0.60389400  0.62217000  1
  Li  Li6  1  0.15125800  0.88181100  0.20131400  1
  Li  Li7  1  0.15662500  0.37805000  0.70289400  1
  Li  Li8  1  0.18206500  0.11819000  0.46535200  1
  Li  Li9  1  0.17670200  0.62195100  0.96377000  1
  Li  Li10  1  0.49468100  0.37333300  0.37565700  1
  Li  Li11  1  0.49724400  0.87633600  0.87589900  1
  Li  Li12  1  0.83864000  0.62666900  0.29101000  1
  Li  Li13  1  0.83609400  0.12366400  0.79076500  1
  Mn  Mn14  1  0.02265700  0.99286100  0.00231600  1
  Mn  Mn15  1  0.01978200  0.48999200  0.50337600  1
  Mn  Mn16  1  0.31355000  0.51000400  0.16329300  1
  Mn  Mn17  1  0.31068100  0.00714000  0.66435100  1
  Mn  Mn18  1  0.33726600  0.74977800  0.41732500  1
  Mn  Mn19  1  0.34857800  0.25000000  0.91520900  1
  Mn  Mn20  1  0.99606000  0.25021600  0.24934500  1
  Mn  Mn21  1  0.98477900  0.75000900  0.75145900  1
  Co  Co22  1  0.66667700  0.50000000  0.83333100  1
  Co  Co23  1  0.66665500  0.99999800  0.33333400  1
  O  O24  1  0.46758100  0.16628700  0.01378500  1
  O  O25  1  0.46419100  0.66143900  0.51540600  1
  O  O26  1  0.86913700  0.33855900  0.15126100  1
  O  O27  1  0.86575300  0.83371800  0.65288100  1
  O  O28  1  0.77095700  0.66607900  0.18460400  1
  O  O29  1  0.76830500  0.16330400  0.68512000  1
  O  O30  1  0.56237300  0.33391800  0.48206400  1
  O  O31  1  0.56503200  0.83669500  0.98154600  1
  O  O32  1  0.08265700  0.18290200  0.34851700  1
  O  O33  1  0.04937900  0.68013200  0.84954900  1
  O  O34  1  0.25066100  0.81709300  0.31815000  1
  O  O35  1  0.28397500  0.31987100  0.81711500  1
  O  O36  1  0.73290400  0.92742700  0.43747700  1
  O  O37  1  0.71906600  0.43818300  0.93178400  1
  O  O38  1  0.60042100  0.07257100  0.22919100  1
  O  O39  1  0.61428200  0.56182000  0.73488000  1
  O  O40  1  0.08593700  0.94727700  0.09610400  1
  O  O41  1  0.08583300  0.44545600  0.59757600  1
  O  O42  1  0.24750000  0.55454300  0.06909200  1
  O  O43  1  0.24739200  0.05272600  0.57056300  1
  O  O44  1  0.38554900  0.43228000  0.26447800  1
  O  O45  1  0.37021300  0.93366000  0.76579600  1
  O  O46  1  0.94777900  0.56771700  0.40219000  1
  O  O47  1  0.96313200  0.06634000  0.90086800  1
