# generated using pymatgen
data_Li9Mn2Co5O16
_symmetry_space_group_name_H-M   'P 1'
_cell_length_a   4.98758500
_cell_length_b   7.74624403
_cell_length_c   7.99023132
_cell_angle_alpha   100.19769834
_cell_angle_beta   97.89841661
_cell_angle_gamma   103.32146154
_symmetry_Int_Tables_number   1
_chemical_formula_structural   Li9Mn2Co5O16
_chemical_formula_sum   'Li9 Mn2 Co5 O16'
_cell_volume   290.48759027
_cell_formula_units_Z   1
loop_
 _symmetry_equiv_pos_site_id
 _symmetry_equiv_pos_as_xyz
  1  'x, y, z'
loop_
 _atom_site_type_symbol
 _atom_site_label
 _atom_site_symmetry_multiplicity
 _atom_site_fract_x
 _atom_site_fract_y
 _atom_site_fract_z
 _atom_site_occupancy
  Li  Li0  1  0.49118300  0.74754400  0.74468300  1
  Li  Li1  1  0.00932900  0.38037500  0.12874000  1
  Li  Li2  1  0.49626200  0.99258900  0.49890300  1
  Li  Li3  1  0.98823900  0.87088800  0.62138800  1
  Li  Li4  1  0.50767100  0.50334200  0.00425400  1
  Li  Li5  1  0.00009000  0.12506800  0.37572800  1
  Li  Li6  1  0.00078100  0.62396700  0.87431800  1
  Li  Li7  1  0.50752700  0.25835600  0.25329800  1
  Li  Li8  1  0.50085000  0.62476700  0.37523500  1
  Mn  Mn9  1  0.99528300  0.99720400  0.00214500  1
  Mn  Mn10  1  0.49775100  0.12304300  0.87289900  1
  Co  Co11  1  0.99964000  0.25401400  0.74503400  1
  Co  Co12  1  0.50261400  0.87317000  0.12993000  1
  Co  Co13  1  0.00395000  0.50248800  0.49223400  1
  Co  Co14  1  0.00156400  0.74683400  0.26083800  1
  Co  Co15  1  0.49890500  0.37812600  0.62200200  1
  O  O16  1  0.74467800  0.76326300  0.00624100  1
  O  O17  1  0.22812000  0.38472200  0.38615900  1
  O  O18  1  0.73915100  0.00706400  0.74882700  1
  O  O19  1  0.24643600  0.88975900  0.87924300  1
  O  O20  1  0.77481300  0.51467400  0.25632800  1
  O  O21  1  0.24939000  0.14764300  0.62531200  1
  O  O22  1  0.23898300  0.65016000  0.13189300  1
  O  O23  1  0.75552400  0.27001000  0.51209200  1
  O  O24  1  0.22272300  0.73407000  0.49306200  1
  O  O25  1  0.75360300  0.35816200  0.87123400  1
  O  O26  1  0.25851300  0.98060800  0.24851400  1
  O  O27  1  0.77406400  0.86390200  0.36236600  1
  O  O28  1  0.26136400  0.49246300  0.74078400  1
  O  O29  1  0.74618500  0.10580700  0.12535600  1
  O  O30  1  0.76158900  0.59933700  0.61820400  1
  O  O31  1  0.24322200  0.23657900  0.99275500  1
