# generated using pymatgen
data_Li5Mg
_symmetry_space_group_name_H-M   'P 1'
_cell_length_a   3.12458613
_cell_length_b   3.12458613
_cell_length_c   14.59961100
_cell_angle_alpha   90.00000000
_cell_angle_beta   90.00000000
_cell_angle_gamma   120.00000271
_symmetry_Int_Tables_number   1
_chemical_formula_structural   Li5Mg
_chemical_formula_sum   'Li5 Mg1'
_cell_volume   123.44028189
_cell_formula_units_Z   1
loop_
 _symmetry_equiv_pos_site_id
 _symmetry_equiv_pos_as_xyz
  1  'x, y, z'
loop_
 _atom_site_type_symbol
 _atom_site_label
 _atom_site_symmetry_multiplicity
 _atom_site_fract_x
 _atom_site_fract_y
 _atom_site_fract_z
 _atom_site_occupancy
  Li  Li0  1  0.66666700  0.33333300  0.17063400  1
  Li  Li1  1  0.00000000  0.00000000  0.33523500  1
  Li  Li2  1  0.66666700  0.33333300  0.50000000  1
  Li  Li3  1  0.00000000  0.00000000  0.66476500  1
  Li  Li4  1  0.66666700  0.33333300  0.82936600  1
  Mg  Mg5  1  0.00000000  0.00000000  0.00000000  1
