# generated using pymatgen
data_Li4Co5SnO12
_symmetry_space_group_name_H-M   'P 1'
_cell_length_a   5.08058461
_cell_length_b   5.05819887
_cell_length_c   19.79180798
_cell_angle_alpha   92.43068130
_cell_angle_beta   85.09724778
_cell_angle_gamma   120.11001579
_symmetry_Int_Tables_number   1
_chemical_formula_structural   Li4Co5SnO12
_chemical_formula_sum   'Li8 Co10 Sn2 O24'
_cell_volume   438.38046069
_cell_formula_units_Z   2
loop_
 _symmetry_equiv_pos_site_id
 _symmetry_equiv_pos_as_xyz
  1  'x, y, z'
loop_
 _atom_site_type_symbol
 _atom_site_label
 _atom_site_symmetry_multiplicity
 _atom_site_fract_x
 _atom_site_fract_y
 _atom_site_fract_z
 _atom_site_occupancy
  Li  Li0  1  0.21053700  0.33040500  0.37300700  1
  Li  Li1  1  0.71401300  0.33900800  0.87224600  1
  Li  Li2  1  0.61971100  0.33005800  0.12698800  1
  Li  Li3  1  0.12521200  0.33908000  0.62777000  1
  Li  Li4  1  0.87994400  0.66975200  0.37297400  1
  Li  Li5  1  0.36957800  0.66270600  0.87246100  1
  Li  Li6  1  0.29010900  0.66983500  0.12703800  1
  Li  Li7  1  0.79297600  0.66253800  0.62750400  1
  Co  Co8  1  0.75162200  0.00307300  0.74998500  1
  Co  Co9  1  0.08061600  0.66103300  0.74999300  1
  Co  Co10  1  0.41299800  0.32617400  0.74999500  1
  Co  Co11  1  0.66656100  0.33331200  0.99980800  1
  Co  Co12  1  0.16674100  0.33333300  0.50019400  1
  Co  Co13  1  0.25011300  0.00006400  0.24999200  1
  Co  Co14  1  0.58461800  0.67001700  0.25000100  1
  Co  Co15  1  0.91466500  0.32969700  0.25007200  1
  Co  Co16  1  0.83357400  0.66700400  0.50010700  1
  Co  Co17  1  0.33344000  0.66697800  0.99989200  1
  Sn  Sn18  1  0.99968400  0.00034500  0.00017500  1
  Sn  Sn19  1  0.50067600  0.00041800  0.49982000  1
  O  O20  1  0.92113400  0.00052500  0.30184000  1
  O  O21  1  0.40783000  0.99585700  0.79840300  1
  O  O22  1  0.57817600  0.99948200  0.19803200  1
  O  O23  1  0.08816000  0.99598400  0.70155300  1
  O  O24  1  0.33877300  0.00013100  0.05332800  1
  O  O25  1  0.83784500  0.99971100  0.55392600  1
  O  O26  1  0.16145200  0.00034200  0.44666300  1
  O  O27  1  0.66183900  0.99972900  0.94606800  1
  O  O28  1  0.62459100  0.64322100  0.05370500  1
  O  O29  1  0.12613500  0.64491800  0.55348300  1
  O  O30  1  0.51873400  0.64339900  0.44627800  1
  O  O31  1  0.01880600  0.64495700  0.94652100  1
  O  O32  1  0.98107400  0.35653700  0.05373400  1
  O  O33  1  0.48171200  0.35614400  0.55390400  1
  O  O34  1  0.87555000  0.35668900  0.44625900  1
  O  O35  1  0.37449500  0.35621900  0.94609400  1
  O  O36  1  0.28109700  0.32417600  0.19745800  1
  O  O37  1  0.80555100  0.36104400  0.69475900  1
  O  O38  1  0.95660200  0.67506000  0.19762600  1
  O  O39  1  0.41727600  0.64444900  0.69994800  1
  O  O40  1  0.54305800  0.32398400  0.30252900  1
  O  O41  1  0.05587700  0.36139900  0.80534800  1
  O  O42  1  0.21967800  0.67642400  0.30256400  1
  O  O43  1  0.72716700  0.64478900  0.79995100  1
