# generated using pymatgen
data_Li7V3(SiO6)2
_symmetry_space_group_name_H-M   'P 1'
_cell_length_a   4.96165145
_cell_length_b   8.59574019
_cell_length_c   9.85102419
_cell_angle_alpha   89.99967284
_cell_angle_beta   99.20134823
_cell_angle_gamma   90.00001950
_symmetry_Int_Tables_number   1
_chemical_formula_structural   Li7V3(SiO6)2
_chemical_formula_sum   'Li14 V6 Si4 O24'
_cell_volume   414.73087678
_cell_formula_units_Z   2
loop_
 _symmetry_equiv_pos_site_id
 _symmetry_equiv_pos_as_xyz
  1  'x, y, z'
loop_
 _atom_site_type_symbol
 _atom_site_label
 _atom_site_symmetry_multiplicity
 _atom_site_fract_x
 _atom_site_fract_y
 _atom_site_fract_z
 _atom_site_occupancy
  Li  Li0  1  0.75000000  0.83334400  0.75000200  1
  Li  Li1  1  0.25000000  0.33334400  0.75000200  1
  Li  Li2  1  0.49564600  0.33334000  0.50740800  1
  Li  Li3  1  0.99566000  0.83334500  0.50739000  1
  Li  Li4  1  0.50434100  0.83334400  0.99261100  1
  Li  Li5  1  0.00435100  0.33334200  0.99259900  1
  Li  Li6  1  0.49379100  0.17046900  0.99307200  1
  Li  Li7  1  0.99380100  0.67049600  0.99308300  1
  Li  Li8  1  0.50620500  0.99618700  0.50691200  1
  Li  Li9  1  0.00622900  0.49621500  0.50692900  1
  Li  Li10  1  0.50619400  0.67049800  0.50692200  1
  Li  Li11  1  0.00621300  0.17046600  0.50693000  1
  Li  Li12  1  0.99379600  0.99618700  0.99309200  1
  Li  Li13  1  0.49378000  0.49621200  0.99307700  1
  V  V14  1  0.24996800  0.83339000  0.24997000  1
  V  V15  1  0.25001400  0.49955700  0.24993600  1
  V  V16  1  0.25002600  0.16710100  0.24993100  1
  V  V17  1  0.74998300  0.33332900  0.25002200  1
  V  V18  1  0.74997000  0.99954800  0.25002900  1
  V  V19  1  0.74998100  0.66705300  0.25005400  1
  Si  Si20  1  0.75000000  0.16660000  0.75000300  1
  Si  Si21  1  0.25000100  0.66659400  0.75000300  1
  Si  Si22  1  0.25000100  0.00006400  0.75000300  1
  Si  Si23  1  0.75000000  0.50006000  0.75000300  1
  O  O24  1  0.65766200  0.33331500  0.85278700  1
  O  O25  1  0.15763000  0.83331300  0.85277400  1
  O  O26  1  0.34237100  0.83331600  0.64723000  1
  O  O27  1  0.84233800  0.33331700  0.64721500  1
  O  O28  1  0.37040200  0.33332900  0.12651300  1
  O  O29  1  0.87029500  0.83333500  0.12652900  1
  O  O30  1  0.62973600  0.83333500  0.37347700  1
  O  O31  1  0.12960700  0.33333400  0.37349800  1
  O  O32  1  0.90413900  0.02039900  0.64754700  1
  O  O33  1  0.40414200  0.52039100  0.64755100  1
  O  O34  1  0.59586100  0.02039900  0.85245600  1
  O  O35  1  0.09585900  0.52039000  0.85245200  1
  O  O36  1  0.40414800  0.14624600  0.64755200  1
  O  O37  1  0.90414300  0.64623600  0.64754700  1
  O  O38  1  0.59585700  0.64623500  0.85245500  1
  O  O39  1  0.09585400  0.14624500  0.85245100  1
  O  O40  1  0.62734800  0.16686600  0.37007600  1
  O  O41  1  0.12741500  0.66685800  0.37009800  1
  O  O42  1  0.37256600  0.99982800  0.12989400  1
  O  O43  1  0.87267800  0.49983100  0.12990800  1
  O  O44  1  0.37258400  0.66685800  0.12990900  1
  O  O45  1  0.87266500  0.16686400  0.12992700  1
  O  O46  1  0.12740900  0.99983000  0.37009200  1
  O  O47  1  0.62733800  0.49983900  0.37007900  1
