# generated using pymatgen
data_Li10Zn(PS4)4
_symmetry_space_group_name_H-M   'P 1'
_cell_length_a   10.23602802
_cell_length_b   10.24590772
_cell_length_c   13.99467009
_cell_angle_alpha   107.26757671
_cell_angle_beta   106.97481142
_cell_angle_gamma   101.16577156
_symmetry_Int_Tables_number   1
_chemical_formula_structural   Li10Zn(PS4)4
_chemical_formula_sum   'Li20 Zn2 P8 S32'
_cell_volume   1275.81529735
_cell_formula_units_Z   2
loop_
 _symmetry_equiv_pos_site_id
 _symmetry_equiv_pos_as_xyz
  1  'x, y, z'
loop_
 _atom_site_type_symbol
 _atom_site_label
 _atom_site_symmetry_multiplicity
 _atom_site_fract_x
 _atom_site_fract_y
 _atom_site_fract_z
 _atom_site_occupancy
  Li  Li0  1  0.71647301  0.47193094  0.49396407  1
  Li  Li1  1  0.21687415  0.97206213  0.50155991  1
  Li  Li2  1  0.95400466  0.72173587  0.99764899  1
  Li  Li3  1  0.46991556  0.23262349  0.00229905  1
  Li  Li4  1  0.41782439  0.16046996  0.25058860  1
  Li  Li5  1  0.89871954  0.64709503  0.25055818  1
  Li  Li6  1  0.16164853  0.91148306  0.74866360  1
  Li  Li7  1  0.97654642  0.21222008  0.50039306  1
  Li  Li8  1  0.47581707  0.71394619  0.49531962  1
  Li  Li9  1  0.71986152  0.96702596  0.00235414  1
  Li  Li10  1  0.65153153  0.90121576  0.24933931  1
  Li  Li11  1  0.16230373  0.41305720  0.25388122  1
  Li  Li12  1  0.90897952  0.16032773  0.74876389  1
  Li  Li13  1  0.39785634  0.65403085  0.74249655  1
  Li  Li14  1  0.04765205  0.04644560  0.24338066  1
  Li  Li15  1  0.79665014  0.80285093  0.74258297  1
  Li  Li16  1  0.57138584  0.06378521  0.48937761  1
  Li  Li17  1  0.06791877  0.57114401  0.49216172  1
  Li  Li18  1  0.82508467  0.32435717  0.00156761  1
  Li  Li19  1  0.32181331  0.82606383  0.99370310  1
  Zn  Zn20  1  0.64717281  0.39870643  0.74612486  1
  Zn  Zn21  1  0.22682452  0.47008361  0.00145680  1
  P  P22  1  0.83982014  0.83856138  0.50023267  1
  P  P23  1  0.34539477  0.33710125  0.49980870  1
  P  P24  1  0.09809357  0.09447916  0.00241191  1
  P  P25  1  0.57822785  0.59127885  0.99798095  1
  P  P26  1  0.78693254  0.27792491  0.24975837  1
  P  P27  1  0.27635003  0.78362028  0.24324000  1
  P  P28  1  0.02896674  0.52765098  0.74920416  1
  P  P29  1  0.53239527  0.03499531  0.75101871  1
  S  S30  1  0.50021922  0.27690429  0.44758362  1
  S  S31  1  0.99595868  0.77990720  0.44662051  1
  S  S32  1  0.73031451  0.51898999  0.93786276  1
  S  S33  1  0.24804146  0.03323214  0.94535512  1
  S  S34  1  0.58576250  0.28973654  0.19515390  1
  S  S35  1  0.06821404  0.78946554  0.19130987  1
  S  S36  1  0.81855197  0.54180148  0.69849832  1
  S  S37  1  0.33272824  0.04723833  0.69685732  1
  S  S38  1  0.78064073  0.99373220  0.44632890  1
  S  S39  1  0.28478399  0.49409933  0.45041673  1
  S  S40  1  0.03430783  0.25076266  0.94680652  1
  S  S41  1  0.52290491  0.74359336  0.94000858  1
  S  S42  1  0.79816914  0.07056638  0.19684248  1
  S  S43  1  0.29239124  0.57785595  0.19028984  1
  S  S44  1  0.04212353  0.32899311  0.69683116  1
  S  S45  1  0.54751440  0.83085726  0.69381261  1
  S  S46  1  0.66633813  0.66681458  0.15929379  1
  S  S47  1  0.18353131  0.18102734  0.16727117  1
  S  S48  1  0.93135024  0.93128202  0.66745874  1
  S  S49  1  0.42122234  0.41789250  0.66754406  1
  S  S50  1  0.86488042  0.35589320  0.41677653  1
  S  S51  1  0.35411778  0.85331517  0.40916427  1
  S  S52  1  0.10695225  0.61108449  0.91975851  1
  S  S53  1  0.61367216  0.11426131  0.91734836  1
  S  S54  1  0.16778722  0.16137026  0.44172305  1
  S  S55  1  0.66656597  0.66370726  0.44176457  1
  S  S56  1  0.39902495  0.41105350  0.93158584  1
  S  S57  1  0.91606312  0.92259874  0.94381321  1
  S  S58  1  0.40209164  0.90802871  0.19248892  1
  S  S59  1  0.91441329  0.40389945  0.19900218  1
  S  S60  1  0.66105305  0.16075457  0.69601362  1
  S  S61  1  0.14587478  0.65762201  0.69706194  1
