# generated using pymatgen
data_Li4Fe2P4H3O16
_symmetry_space_group_name_H-M   'P 1'
_cell_length_a   4.92624400
_cell_length_b   7.68120785
_cell_length_c   8.34875192
_cell_angle_alpha   91.39785448
_cell_angle_beta   91.03507571
_cell_angle_gamma   103.26673058
_symmetry_Int_Tables_number   1
_chemical_formula_structural   Li4Fe2P4H3O16
_chemical_formula_sum   'Li4 Fe2 P4 H3 O16'
_cell_volume   307.29923322
_cell_formula_units_Z   1
loop_
 _symmetry_equiv_pos_site_id
 _symmetry_equiv_pos_as_xyz
  1  'x, y, z'
loop_
 _atom_site_type_symbol
 _atom_site_label
 _atom_site_symmetry_multiplicity
 _atom_site_fract_x
 _atom_site_fract_y
 _atom_site_fract_z
 _atom_site_occupancy
  Li  Li0  1  0.12056800  0.67987200  0.64763800  1
  Li  Li1  1  0.39453100  0.85247700  0.12786700  1
  Li  Li2  1  0.58499200  0.15108000  0.87707600  1
  Li  Li3  1  0.88229900  0.31923800  0.35051800  1
  Fe  Fe4  1  0.99914300  0.49633500  0.00322400  1
  Fe  Fe5  1  0.49729000  0.00217300  0.49858000  1
  P  P6  1  0.10936000  0.25419800  0.66896200  1
  P  P7  1  0.37665700  0.23931600  0.15115100  1
  P  P8  1  0.62313100  0.75364300  0.84732900  1
  P  P9  1  0.88531000  0.74677500  0.33109500  1
  H  H10  1  0.45781700  0.47241800  0.60363400  1
  H  H11  1  0.54137800  0.51912100  0.38037300  1
  H  H12  1  0.95554700  0.97711800  0.98541700  1
  O  O13  1  0.11260600  0.82571600  0.45605200  1
  O  O14  1  0.98568100  0.30374200  0.82716300  1
  O  O15  1  0.15778000  0.35748700  0.17248400  1
  O  O16  1  0.25378400  0.44637100  0.59034400  1
  O  O17  1  0.38290600  0.65796100  0.95266600  1
  O  O18  1  0.51670700  0.80144300  0.68566700  1
  O  O19  1  0.25712900  0.06350500  0.05454600  1
  O  O20  1  0.33550600  0.15077900  0.69082300  1
  O  O21  1  0.66096100  0.85134900  0.30812000  1
  O  O22  1  0.75189000  0.93902900  0.94271600  1
  O  O23  1  0.48309400  0.20287300  0.31838200  1
  O  O24  1  0.62269300  0.34777700  0.05229500  1
  O  O25  1  0.74045600  0.55561600  0.41134100  1
  O  O26  1  0.84848900  0.64388800  0.82850200  1
  O  O27  1  0.00738400  0.69657300  0.17244400  1
  O  O28  1  0.88378800  0.17402200  0.54369000  1
