# generated using pymatgen
data_Li2Cu(Si2O5)2
_symmetry_space_group_name_H-M   'P 1'
_cell_length_a   11.04019887
_cell_length_b   7.70051798
_cell_length_c   11.12709246
_cell_angle_alpha   90.00000000
_cell_angle_beta   110.87169954
_cell_angle_gamma   90.00000000
_symmetry_Int_Tables_number   1
_chemical_formula_structural   Li2Cu(Si2O5)2
_chemical_formula_sum   'Li8 Cu4 Si16 O40'
_cell_volume   883.89836286
_cell_formula_units_Z   4
loop_
 _symmetry_equiv_pos_site_id
 _symmetry_equiv_pos_as_xyz
  1  'x, y, z'
loop_
 _atom_site_type_symbol
 _atom_site_label
 _atom_site_symmetry_multiplicity
 _atom_site_fract_x
 _atom_site_fract_y
 _atom_site_fract_z
 _atom_site_occupancy
  Li  Li0  1  0.09563310  0.25000000  0.39536475  1
  Li  Li1  1  0.04224544  0.25000000  0.10700232  1
  Li  Li2  1  0.36944470  0.25000000  0.83541160  1
  Li  Li3  1  0.38472328  0.25000000  0.44597603  1
  Li  Li4  1  0.61527572  0.75000000  0.55402397  1
  Li  Li5  1  0.63055530  0.75000000  0.16458840  1
  Li  Li6  1  0.95775456  0.75000000  0.89299768  1
  Li  Li7  1  0.90436690  0.75000000  0.60463525  1
  Cu  Cu8  1  0.21391754  0.02921230  0.28217615  1
  Cu  Cu9  1  0.21391754  0.47078770  0.28217615  1
  Cu  Cu10  1  0.78608246  0.52921230  0.71782385  1
  Cu  Cu11  1  0.78608246  0.97078770  0.71782385  1
  Si  Si12  1  0.08503989  0.04743847  0.74123601  1
  Si  Si13  1  0.08503989  0.45256153  0.74123601  1
  Si  Si14  1  0.26190567  0.95491487  0.58919590  1
  Si  Si15  1  0.26190567  0.54508513  0.58919590  1
  Si  Si16  1  0.23732527  0.54964436  0.01522409  1
  Si  Si17  1  0.23732527  0.95035564  0.01522409  1
  Si  Si18  1  0.53089743  0.94607082  0.77615110  1
  Si  Si19  1  0.53089743  0.55392918  0.77615110  1
  Si  Si20  1  0.46910257  0.05392918  0.22384890  1
  Si  Si21  1  0.46910257  0.44607082  0.22384890  1
  Si  Si22  1  0.76267473  0.04964436  0.98477591  1
  Si  Si23  1  0.76267473  0.45035564  0.98477591  1
  Si  Si24  1  0.73809433  0.04508513  0.41080410  1
  Si  Si25  1  0.73809433  0.45491487  0.41080410  1
  Si  Si26  1  0.91496011  0.54743847  0.25876399  1
  Si  Si27  1  0.91496011  0.95256153  0.25876399  1
  O  O28  1  0.04355841  0.25000000  0.70405382  1
  O  O29  1  0.21390561  0.04969921  0.87657394  1
  O  O30  1  0.21390561  0.45030079  0.87657394  1
  O  O31  1  0.18147853  0.75000000  0.98132399  1
  O  O32  1  0.13272470  0.53251513  0.62857378  1
  O  O33  1  0.13272470  0.96748487  0.62857378  1
  O  O34  1  0.03093133  0.07026144  0.24994723  1
  O  O35  1  0.03093133  0.42973856  0.24994723  1
  O  O36  1  0.29230776  0.75000000  0.57029051  1
  O  O37  1  0.24552732  0.07159526  0.46503944  1
  O  O38  1  0.24552732  0.42840474  0.46503944  1
  O  O39  1  0.16619235  0.44873151  0.09769565  1
  O  O40  1  0.16619235  0.05126849  0.09769565  1
  O  O41  1  0.38364581  0.46481420  0.71587424  1
  O  O42  1  0.38364581  0.03518580  0.71587424  1
  O  O43  1  0.51358507  0.75000000  0.82543457  1
  O  O44  1  0.60405315  0.06002670  0.90756607  1
  O  O45  1  0.60405315  0.43997330  0.90756607  1
  O  O46  1  0.39959339  0.04907318  0.32883341  1
  O  O47  1  0.39959339  0.45092682  0.32883341  1
  O  O48  1  0.60040661  0.54907318  0.67116659  1
  O  O49  1  0.60040661  0.95092682  0.67116659  1
  O  O50  1  0.39594685  0.56002670  0.09243393  1
  O  O51  1  0.39594685  0.93997330  0.09243393  1
  O  O52  1  0.48641493  0.25000000  0.17456543  1
  O  O53  1  0.61635419  0.53518580  0.28412576  1
  O  O54  1  0.61635419  0.96481420  0.28412576  1
  O  O55  1  0.83380765  0.94873151  0.90230435  1
  O  O56  1  0.83380765  0.55126849  0.90230435  1
  O  O57  1  0.75447268  0.57159526  0.53496056  1
  O  O58  1  0.75447268  0.92840474  0.53496056  1
  O  O59  1  0.70769224  0.25000000  0.42970949  1
  O  O60  1  0.96906867  0.57026144  0.75005277  1
  O  O61  1  0.96906867  0.92973856  0.75005277  1
  O  O62  1  0.86727530  0.03251513  0.37142622  1
  O  O63  1  0.86727530  0.46748487  0.37142622  1
  O  O64  1  0.81852147  0.25000000  0.01867601  1
  O  O65  1  0.78609439  0.54969921  0.12342606  1
  O  O66  1  0.78609439  0.95030079  0.12342606  1
  O  O67  1  0.95644159  0.75000000  0.29594618  1
