# generated using pymatgen
data_Li6Mn3V(PO4)6
_symmetry_space_group_name_H-M   'P 1'
_cell_length_a   8.63940900
_cell_length_b   8.71617443
_cell_length_c   12.35553560
_cell_angle_alpha   89.28132383
_cell_angle_beta   87.97684570
_cell_angle_gamma   89.19867728
_symmetry_Int_Tables_number   1
_chemical_formula_structural   Li6Mn3V(PO4)6
_chemical_formula_sum   'Li12 Mn6 V2 P12 O48'
_cell_volume   929.66540227
_cell_formula_units_Z   2
loop_
 _symmetry_equiv_pos_site_id
 _symmetry_equiv_pos_as_xyz
  1  'x, y, z'
loop_
 _atom_site_type_symbol
 _atom_site_label
 _atom_site_symmetry_multiplicity
 _atom_site_fract_x
 _atom_site_fract_y
 _atom_site_fract_z
 _atom_site_occupancy
  Li  Li0  1  0.91888900  0.08083700  0.69552800  1
  Li  Li1  1  0.92188500  0.69749400  0.75872300  1
  Li  Li2  1  0.79163700  0.78131600  0.17664500  1
  Li  Li3  1  0.70750200  0.27894400  0.32639700  1
  Li  Li4  1  0.57566800  0.19290400  0.73974000  1
  Li  Li5  1  0.57781200  0.58446300  0.80275300  1
  Li  Li6  1  0.42211400  0.41824400  0.19836000  1
  Li  Li7  1  0.42120900  0.80531700  0.26416100  1
  Li  Li8  1  0.29152800  0.71896000  0.67245500  1
  Li  Li9  1  0.20869500  0.21652100  0.82717500  1
  Li  Li10  1  0.08795700  0.30516700  0.23815200  1
  Li  Li11  1  0.08153500  0.91717700  0.30307000  1
  Mn  Mn12  1  0.74847400  0.03693500  0.89798500  1
  Mn  Mn13  1  0.74788200  0.95777600  0.39120800  1
  Mn  Mn14  1  0.25176900  0.04087600  0.60856400  1
  Mn  Mn15  1  0.24690100  0.54236000  0.89002900  1
  Mn  Mn16  1  0.25242000  0.96259400  0.10116900  1
  Mn  Mn17  1  0.24864200  0.46370600  0.39894700  1
  V  V18  1  0.75200500  0.53195500  0.60784300  1
  V  V19  1  0.75318900  0.45919000  0.11046600  1
  P  P20  1  0.96485800  0.25085100  0.49279800  1
  P  P21  1  0.89589200  0.38285200  0.85201000  1
  P  P22  1  0.89918300  0.10031700  0.15384000  1
  P  P23  1  0.60084500  0.59841300  0.35028400  1
  P  P24  1  0.60230200  0.88602800  0.64051300  1
  P  P25  1  0.53931400  0.74890000  0.00597500  1
  P  P26  1  0.46103700  0.24749800  0.99711400  1
  P  P27  1  0.39651900  0.11592200  0.35996100  1
  P  P28  1  0.39614500  0.40062700  0.65781700  1
  P  P29  1  0.10056900  0.90164400  0.84466500  1
  P  P30  1  0.10544800  0.61773900  0.13975400  1
  P  P31  1  0.03857600  0.74688300  0.50497400  1
  O  O32  1  0.95119900  0.86608300  0.43337000  1
  O  O33  1  0.91861300  0.89330800  0.84950300  1
  O  O34  1  0.92929300  0.67928200  0.59544900  1
  O  O35  1  0.93058000  0.59574000  0.16567400  1
  O  O36  1  0.89854400  0.36976000  0.57318800  1
  O  O37  1  0.85703400  0.21345000  0.82038000  1
  O  O38  1  0.85138000  0.40889600  0.97149400  1
  O  O39  1  0.85845500  0.98038800  0.24661400  1
  O  O40  1  0.84576800  0.26474900  0.18818700  1
  O  O41  1  0.83267000  0.17655900  0.43407100  1
  O  O42  1  0.82965500  0.04360100  0.05171100  1
  O  O43  1  0.80505700  0.50210600  0.78186000  1
  O  O44  1  0.69465500  0.00540700  0.70200300  1
  O  O45  1  0.67293000  0.54700800  0.45502000  1
  O  O46  1  0.67072400  0.66711000  0.06816400  1
  O  O47  1  0.64982700  0.75880100  0.30743300  1
  O  O48  1  0.63456800  0.89751400  0.51741600  1
  O  O49  1  0.63969200  0.71744200  0.67821500  1
  O  O50  1  0.64108100  0.47595600  0.26043900  1
  O  O51  1  0.60893100  0.86860300  0.92650700  1
  O  O52  1  0.57052100  0.17838600  0.90556700  1
  O  O53  1  0.57739900  0.39350200  0.65323300  1
  O  O54  1  0.57352600  0.09373900  0.33448800  1
  O  O55  1  0.54683600  0.36056100  0.06821100  1
  O  O56  1  0.45450200  0.63534500  0.93492600  1
  O  O57  1  0.42495300  0.90844500  0.66541900  1
  O  O58  1  0.41867800  0.60830900  0.35522500  1
  O  O59  1  0.43122100  0.81816700  0.09726100  1
  O  O60  1  0.39719700  0.12533700  0.07796200  1
  O  O61  1  0.35821100  0.52478300  0.74822500  1
  O  O62  1  0.35893600  0.28544400  0.32234600  1
  O  O63  1  0.36503400  0.10589000  0.48319400  1
  O  O64  1  0.34826200  0.23964500  0.69806500  1
  O  O65  1  0.32736100  0.32496200  0.93717300  1
  O  O66  1  0.32380300  0.45754500  0.55530500  1
  O  O67  1  0.30385900  0.99657900  0.29869700  1
  O  O68  1  0.20169400  0.49777100  0.20219100  1
  O  O69  1  0.17204000  0.95702400  0.94650100  1
  O  O70  1  0.17296600  0.82113100  0.56143300  1
  O  O71  1  0.15148300  0.73956600  0.80604900  1
  O  O72  1  0.13895200  0.02308800  0.75240700  1
  O  O73  1  0.13447300  0.60449100  0.01612200  1
  O  O74  1  0.14175500  0.78703400  0.17471700  1
  O  O75  1  0.09955800  0.62719400  0.42187700  1
  O  O76  1  0.07151500  0.40204900  0.82991900  1
  O  O77  1  0.07454900  0.32042300  0.40232900  1
  O  O78  1  0.08045400  0.10927300  0.15057500  1
  O  O79  1  0.05120800  0.13214000  0.56480900  1
