# generated using pymatgen
data_Li6MnV3(PO4)6
_symmetry_space_group_name_H-M   'P 1'
_cell_length_a   9.07256272
_cell_length_b   8.47599421
_cell_length_c   14.66261153
_cell_angle_alpha   90.43285171
_cell_angle_beta   74.42473310
_cell_angle_gamma   61.81878497
_symmetry_Int_Tables_number   1
_chemical_formula_structural   Li6MnV3(PO4)6
_chemical_formula_sum   'Li12 Mn2 V6 P12 O48'
_cell_volume   945.32069007
_cell_formula_units_Z   2
loop_
 _symmetry_equiv_pos_site_id
 _symmetry_equiv_pos_as_xyz
  1  'x, y, z'
loop_
 _atom_site_type_symbol
 _atom_site_label
 _atom_site_symmetry_multiplicity
 _atom_site_fract_x
 _atom_site_fract_y
 _atom_site_fract_z
 _atom_site_occupancy
  Li  Li0  1  0.15124696  0.25343892  0.33132991  1
  Li  Li1  1  0.14943249  0.79578213  0.13173248  1
  Li  Li2  1  0.15026678  0.29558271  0.63210459  1
  Li  Li3  1  0.15049259  0.72622707  0.46064176  1
  Li  Li4  1  0.15018678  0.22603687  0.96172521  1
  Li  Li5  1  0.14918818  0.75458459  0.83210994  1
  Li  Li6  1  0.84989090  0.24455251  0.16794470  1
  Li  Li7  1  0.84928319  0.77555245  0.03908770  1
  Li  Li8  1  0.85244982  0.27233629  0.53908965  1
  Li  Li9  1  0.84890445  0.70468402  0.36865920  1
  Li  Li10  1  0.84909710  0.20387364  0.86827100  1
  Li  Li11  1  0.84935945  0.74788559  0.66867422  1
  Mn  Mn12  1  0.56085885  0.22132822  0.07148590  1
  Mn  Mn13  1  0.95682442  0.02175361  0.67360718  1
  V  V14  1  0.04624280  0.97653120  0.32594950  1
  V  V15  1  0.04498841  0.47761970  0.82602904  1
  V  V16  1  0.43839675  0.28038043  0.42691077  1
  V  V17  1  0.56263401  0.71952679  0.57305556  1
  V  V18  1  0.43672436  0.78147597  0.92797992  1
  V  V19  1  0.95336094  0.52318207  0.17402345  1
  P  P20  1  0.25004658  0.08286890  0.12574590  1
  P  P21  1  0.25246860  0.02128056  0.47849651  1
  P  P22  1  0.25189269  0.51854980  0.26828809  1
  P  P23  1  0.25060058  0.02049988  0.77061559  1
  P  P24  1  0.25098463  0.58410354  0.62528433  1
  P  P25  1  0.24955526  0.52086818  0.97886911  1
  P  P26  1  0.75090921  0.48104448  0.02091067  1
  P  P27  1  0.74908020  0.41546500  0.37470387  1
  P  P28  1  0.75106968  0.97829812  0.22955700  1
  P  P29  1  0.74971965  0.47966308  0.72983849  1
  P  P30  1  0.74994592  0.98028123  0.52012245  1
  P  P31  1  0.74583003  0.91483781  0.87687435  1
  O  O32  1  0.09727785  0.25960362  0.10495486  1
  O  O33  1  0.18908850  0.06699809  0.23356115  1
  O  O34  1  0.09711806  0.61597719  0.07753481  1
  O  O35  1  0.09897832  0.12412167  0.57432587  1
  O  O36  1  0.10004745  0.47620349  0.26746336  1
  O  O37  1  0.41876126  0.08892614  0.10060396  1
  O  O38  1  0.27359362  0.17430966  0.42842266  1
  O  O39  1  0.19428300  0.71729048  0.25220569  1
  O  O40  1  0.19339629  0.21913054  0.75374928  1
  O  O41  1  0.26923961  0.49627007  0.37038294  1
  O  O42  1  0.42480275  0.38770217  0.19186392  1
  O  O43  1  0.09513938  0.75811838  0.60457796  1
  O  O44  1  0.26365146  0.92521682  0.06219343  1
  O  O45  1  0.26844688  0.42480459  0.56153434  1
  O  O46  1  0.58188657  0.10886913  0.30598701  1
  O  O47  1  0.19240632  0.56655758  0.73271753  1
  O  O48  1  0.19485580  0.92440381  0.41608836  1
  O  O49  1  0.19128384  0.42563681  0.91629714  1
  O  O50  1  0.73654664  0.99881447  0.12741337  1
  O  O51  1  0.58093332  0.61441149  0.00334557  1
  O  O52  1  0.57941541  0.11381013  0.50219260  1
  O  O53  1  0.09725937  0.97902195  0.77203159  1
  O  O54  1  0.73939932  0.32389695  0.06849000  1
  O  O55  1  0.58000508  0.40584643  0.40081596  1
  O  O56  1  0.41781415  0.59511546  0.59932133  1
  O  O57  1  0.26476318  0.67838259  0.93166087  1
  O  O58  1  0.90252127  0.02089878  0.23215509  1
  O  O59  1  0.42028120  0.88457578  0.49707657  1
  O  O60  1  0.42021531  0.38568333  0.99438629  1
  O  O61  1  0.26963786  0.99711980  0.87244829  1
  O  O62  1  0.80780497  0.57902265  0.08288929  1
  O  O63  1  0.80419183  0.07891316  0.58242527  1
  O  O64  1  0.80659306  0.43303960  0.26724443  1
  O  O65  1  0.42017131  0.89238864  0.69356970  1
  O  O66  1  0.73245298  0.57386093  0.43795803  1
  O  O67  1  0.72800367  0.07583480  0.94122096  1
  O  O68  1  0.90180854  0.24012759  0.39563528  1
  O  O69  1  0.57869695  0.61048506  0.80667798  1
  O  O70  1  0.73204283  0.50452960  0.62804112  1
  O  O71  1  0.80801631  0.77953234  0.24728686  1
  O  O72  1  0.80460465  0.28184308  0.74713908  1
  O  O73  1  0.73398625  0.82369921  0.56730364  1
  O  O74  1  0.57654996  0.90581077  0.90493089  1
  O  O75  1  0.90186284  0.52191367  0.73097031  1
  O  O76  1  0.90378520  0.88321700  0.42162261  1
  O  O77  1  0.90307010  0.38586366  0.92150586  1
  O  O78  1  0.80093440  0.93169668  0.77073439  1
  O  O79  1  0.90044282  0.74041375  0.89731943  1
