# generated using pymatgen
data_Li3Cr(CoO3)2
_symmetry_space_group_name_H-M   'P 1'
_cell_length_a   2.95608677
_cell_length_b   11.86697499
_cell_length_c   6.58614438
_cell_angle_alpha   104.16060447
_cell_angle_beta   77.32984028
_cell_angle_gamma   91.92836700
_symmetry_Int_Tables_number   1
_chemical_formula_structural   Li3Cr(CoO3)2
_chemical_formula_sum   'Li6 Cr2 Co4 O12'
_cell_volume   218.51619620
_cell_formula_units_Z   2
loop_
 _symmetry_equiv_pos_site_id
 _symmetry_equiv_pos_as_xyz
  1  'x, y, z'
loop_
 _atom_site_type_symbol
 _atom_site_label
 _atom_site_symmetry_multiplicity
 _atom_site_fract_x
 _atom_site_fract_y
 _atom_site_fract_z
 _atom_site_occupancy
  Li  Li0  1  0.33570390  0.41761720  0.32942906  1
  Li  Li1  1  0.33233033  0.91820031  0.33221694  1
  Li  Li2  1  0.99498036  0.24957812  0.99482238  1
  Li  Li3  1  0.00818109  0.75111046  0.99586652  1
  Li  Li4  1  0.65713193  0.08392090  0.66805357  1
  Li  Li5  1  0.65931370  0.58385305  0.67627755  1
  Cr  Cr6  1  0.32082593  0.16834332  0.33916811  1
  Cr  Cr7  1  0.33854528  0.66723355  0.32826030  1
  Co  Co8  1  0.99394422  0.00020319  0.00054930  1
  Co  Co9  1  0.67109728  0.33399989  0.67109289  1
  Co  Co10  1  0.66838747  0.83373786  0.66161324  1
  Co  Co11  1  0.99915172  0.50080475  0.99550229  1
  O  O12  1  0.46692698  0.12004354  0.01300848  1
  O  O13  1  0.46066744  0.61914945  0.00689986  1
  O  O14  1  0.16567706  0.21357375  0.66135177  1
  O  O15  1  0.18795856  0.71408779  0.65400294  1
  O  O16  1  0.82875795  0.28803487  0.34899707  1
  O  O17  1  0.84919224  0.78372698  0.33543737  1
  O  O18  1  0.81123928  0.05185292  0.32901778  1
  O  O19  1  0.83225063  0.54784083  0.31110088  1
  O  O20  1  0.16398823  0.45602508  0.68336516  1
  O  O21  1  0.15477057  0.95038274  0.66992843  1
  O  O22  1  0.53909584  0.38104474  0.98628025  1
  O  O23  1  0.51499400  0.88329074  0.99268986  1
