# generated using pymatgen
data_LiMn2O4
_symmetry_space_group_name_H-M   'P 1'
_cell_length_a   6.02769573
_cell_length_b   5.79379855
_cell_length_c   6.01463521
_cell_angle_alpha   61.36123101
_cell_angle_beta   57.95262250
_cell_angle_gamma   61.08547649
_symmetry_Int_Tables_number   1
_chemical_formula_structural   LiMn2O4
_chemical_formula_sum   'Li2 Mn4 O8'
_cell_volume   148.65876348
_cell_formula_units_Z   2
loop_
 _symmetry_equiv_pos_site_id
 _symmetry_equiv_pos_as_xyz
  1  'x, y, z'
loop_
 _atom_site_type_symbol
 _atom_site_label
 _atom_site_symmetry_multiplicity
 _atom_site_fract_x
 _atom_site_fract_y
 _atom_site_fract_z
 _atom_site_occupancy
  Li  Li0  1  0.13761300  0.11311200  0.13668900  1
  Li  Li1  1  0.86236600  0.88692600  0.86321900  1
  Mn  Mn2  1  0.50011900  0.49995000  0.99993100  1
  Mn  Mn3  1  0.49999500  0.99994000  0.50006900  1
  Mn  Mn4  1  0.99995200  0.49998500  0.50006700  1
  Mn  Mn5  1  0.50001800  0.49995500  0.50011400  1
  O  O6  1  0.28090500  0.24997600  0.72210400  1
  O  O7  1  0.27603900  0.69906400  0.27742000  1
  O  O8  1  0.72247300  0.24667300  0.28124300  1
  O  O9  1  0.27765800  0.24758700  0.27587300  1
  O  O10  1  0.71913300  0.75004400  0.27778700  1
  O  O11  1  0.72392000  0.30104000  0.72261800  1
  O  O12  1  0.27750600  0.75333900  0.71873400  1
  O  O13  1  0.72230300  0.75240800  0.72413100  1
