# generated using pymatgen
data_Li4TiO4
_symmetry_space_group_name_H-M   'P 1'
_cell_length_a   9.26776200
_cell_length_b   9.42444122
_cell_length_c   9.42683219
_cell_angle_alpha   89.62135646
_cell_angle_beta   89.41121290
_cell_angle_gamma   89.51101475
_symmetry_Int_Tables_number   1
_chemical_formula_structural   Li4TiO4
_chemical_formula_sum   'Li32 Ti8 O32'
_cell_volume   823.28134622
_cell_formula_units_Z   8
loop_
 _symmetry_equiv_pos_site_id
 _symmetry_equiv_pos_as_xyz
  1  'x, y, z'
loop_
 _atom_site_type_symbol
 _atom_site_label
 _atom_site_symmetry_multiplicity
 _atom_site_fract_x
 _atom_site_fract_y
 _atom_site_fract_z
 _atom_site_occupancy
  Li  Li0  1  0.09981200  0.13362600  0.36036800  1
  Li  Li1  1  0.10469600  0.63541900  0.13595100  1
  Li  Li2  1  0.12433100  0.35441500  0.13191000  1
  Li  Li3  1  0.12450800  0.85971300  0.35332100  1
  Li  Li4  1  0.18000800  0.91783900  0.63483100  1
  Li  Li5  1  0.33166300  0.56863700  0.86459800  1
  Li  Li6  1  0.32898500  0.84427500  0.88935100  1
  Li  Li7  1  0.30682100  0.32486000  0.59901100  1
  Li  Li8  1  0.38004600  0.83594900  0.38739500  1
  Li  Li9  1  0.37623900  0.32781500  0.10505000  1
  Li  Li10  1  0.39804300  0.13174000  0.86163100  1
  Li  Li11  1  0.40266700  0.62823800  0.61619500  1
  Li  Li12  1  0.55304500  0.38408600  0.39572600  1
  Li  Li13  1  0.53954000  0.89285700  0.09756900  1
  Li  Li14  1  0.61636400  0.66416700  0.89137900  1
  Li  Li15  1  0.60076100  0.16009500  0.61703800  1
  Li  Li16  1  0.62782000  0.63113500  0.35799700  1
  Li  Li17  1  0.62219400  0.13164100  0.15080900  1
  Li  Li18  1  0.64746800  0.89291700  0.37821000  1
  Li  Li19  1  0.64964100  0.39565900  0.12394300  1
  Li  Li20  1  0.67269800  0.10373600  0.88443900  1
  Li  Li21  1  0.67665700  0.60260400  0.62204000  1
  Li  Li22  1  0.82753100  0.10133600  0.38431400  1
  Li  Li23  1  0.83223500  0.60096900  0.11785500  1
  Li  Li24  1  0.87774000  0.39331300  0.62206800  1
  Li  Li25  1  0.89267100  0.89726800  0.87413100  1
  Li  Li26  1  0.88523600  0.64112400  0.85643200  1
  Li  Li27  1  0.88695900  0.13687900  0.64220900  1
  Li  Li28  1  0.90533600  0.65569700  0.38844700  1
  Li  Li29  1  0.89422400  0.15419300  0.11451300  1
  Li  Li30  1  0.94386700  0.38989300  0.88779700  1
  Li  Li31  1  0.91333400  0.87638100  0.61138500  1
  Ti  Ti32  1  0.12598300  0.12566800  0.86544500  1
  Ti  Ti33  1  0.12383700  0.62003600  0.63176500  1
  Ti  Ti34  1  0.37740800  0.11894100  0.36176400  1
  Ti  Ti35  1  0.38350500  0.62100400  0.14837600  1
  Ti  Ti36  1  0.63195900  0.38463200  0.85071500  1
  Ti  Ti37  1  0.62675300  0.88162500  0.65359100  1
  Ti  Ti38  1  0.86483800  0.37753800  0.34793100  1
  Ti  Ti39  1  0.86306200  0.87743400  0.15135200  1
  O  O40  1  0.98476700  0.51880100  0.73455200  1
  O  O41  1  0.00720200  0.00866700  0.74474900  1
  O  O42  1  0.03327700  0.75186700  0.51086000  1
  O  O43  1  0.01995000  0.24083400  0.99158200  1
  O  O44  1  0.25518400  0.01516900  0.95212500  1
  O  O45  1  0.25229400  0.51043700  0.54575400  1
  O  O46  1  0.24738500  0.23451800  0.76527400  1
  O  O47  1  0.25056200  0.72687900  0.73916500  1
  O  O48  1  0.26521200  0.22987100  0.25006300  1
  O  O49  1  0.26561700  0.73199400  0.25340200  1
  O  O50  1  0.25082800  0.99633400  0.44949900  1
  O  O51  1  0.26284200  0.50261500  0.05349700  1
  O  O52  1  0.46807900  0.23292900  0.48927400  1
  O  O53  1  0.46601400  0.73094500  0.00577000  1
  O  O54  1  0.52154100  0.50763900  0.23742000  1
  O  O55  1  0.51240400  0.00037400  0.26930000  1
  O  O56  1  0.53429100  0.00815000  0.76380700  1
  O  O57  1  0.52749400  0.52036400  0.75649500  1
  O  O58  1  0.54629100  0.26438400  0.98407700  1
  O  O59  1  0.54317100  0.76017700  0.51966100  1
  O  O60  1  0.74954600  0.49663900  0.95978700  1
  O  O61  1  0.74234100  0.99492100  0.54121000  1
  O  O62  1  0.74356000  0.26729200  0.73976000  1
  O  O63  1  0.75316400  0.76975700  0.75474200  1
  O  O64  1  0.75061100  0.25980900  0.24360800  1
  O  O65  1  0.75652700  0.75731500  0.26291100  1
  O  O66  1  0.75618800  0.49592300  0.46408400  1
  O  O67  1  0.75146300  0.99644600  0.03985800  1
  O  O68  1  0.94883200  0.25099500  0.46969400  1
  O  O69  1  0.95003000  0.75313700  0.02764300  1
  O  O70  1  0.96605200  0.99700200  0.26221600  1
  O  O71  1  0.97062000  0.49762000  0.23600300  1
