# generated using pymatgen
data_LiMnAsO5
_symmetry_space_group_name_H-M   'P 1'
_cell_length_a   5.44863422
_cell_length_b   10.20099854
_cell_length_c   7.05581283
_cell_angle_alpha   74.65273681
_cell_angle_beta   74.15686481
_cell_angle_gamma   96.38259115
_symmetry_Int_Tables_number   1
_chemical_formula_structural   LiMnAsO5
_chemical_formula_sum   'Li4 Mn4 As4 O20'
_cell_volume   356.63921862
_cell_formula_units_Z   4
loop_
 _symmetry_equiv_pos_site_id
 _symmetry_equiv_pos_as_xyz
  1  'x, y, z'
loop_
 _atom_site_type_symbol
 _atom_site_label
 _atom_site_symmetry_multiplicity
 _atom_site_fract_x
 _atom_site_fract_y
 _atom_site_fract_z
 _atom_site_occupancy
  Li  Li0  1  0.54305400  0.35611300  0.37701300  1
  Li  Li1  1  0.04250700  0.85615700  0.87703500  1
  Li  Li2  1  0.45759700  0.64383200  0.62298000  1
  Li  Li3  1  0.95710000  0.14389600  0.12297100  1
  Mn  Mn4  1  0.00011400  0.49996000  0.50011900  1
  Mn  Mn5  1  0.00015400  0.50004200  0.00017100  1
  Mn  Mn6  1  0.49969700  0.99998700  0.99987000  1
  Mn  Mn7  1  0.49990800  0.00000600  0.49991300  1
  As  As8  1  0.99793100  0.15675700  0.60437300  1
  As  As9  1  0.49814000  0.65672200  0.10458400  1
  As  As10  1  0.00187500  0.84326100  0.39545500  1
  As  As11  1  0.50207800  0.34321100  0.89567400  1
  O  O12  1  0.98235800  0.68475700  0.35317100  1
  O  O13  1  0.48226800  0.18483500  0.85290800  1
  O  O14  1  0.01751200  0.31512000  0.64720600  1
  O  O15  1  0.51744500  0.81521100  0.14693400  1
  O  O16  1  0.67758900  0.84112700  0.51117200  1
  O  O17  1  0.17782000  0.34111700  0.01150600  1
  O  O18  1  0.32224200  0.15895300  0.48846000  1
  O  O19  1  0.82248900  0.65894100  0.98880500  1
  O  O20  1  0.17124300  0.87356700  0.55959400  1
  O  O21  1  0.67164000  0.37347600  0.05980600  1
  O  O22  1  0.82838900  0.12660500  0.44016900  1
  O  O23  1  0.32877100  0.62653100  0.94036600  1
  O  O24  1  0.12437300  0.96735500  0.15438100  1
  O  O25  1  0.62473000  0.46740200  0.65476000  1
  O  O26  1  0.87524800  0.03250900  0.84516900  1
  O  O27  1  0.37564800  0.53257400  0.34557400  1
  O  O28  1  0.40832400  0.94426500  0.79137800  1
  O  O29  1  0.90873400  0.44424200  0.29165100  1
  O  O30  1  0.59127400  0.05574400  0.20829700  1
  O  O31  1  0.09174600  0.55572700  0.70853400  1
