# generated using pymatgen
data_Li4MnCo2O7
_symmetry_space_group_name_H-M   'P 1'
_cell_length_a   2.93584600
_cell_length_b   8.12132475
_cell_length_c   10.64617732
_cell_angle_alpha   101.68105652
_cell_angle_beta   94.90738014
_cell_angle_gamma   89.02753021
_symmetry_Int_Tables_number   1
_chemical_formula_structural   Li4MnCo2O7
_chemical_formula_sum   'Li8 Mn2 Co4 O14'
_cell_volume   247.66812948
_cell_formula_units_Z   2
loop_
 _symmetry_equiv_pos_site_id
 _symmetry_equiv_pos_as_xyz
  1  'x, y, z'
loop_
 _atom_site_type_symbol
 _atom_site_label
 _atom_site_symmetry_multiplicity
 _atom_site_fract_x
 _atom_site_fract_y
 _atom_site_fract_z
 _atom_site_occupancy
  Li  Li0  1  0.28186900  0.14387200  0.56747900  1
  Li  Li1  1  0.57691700  0.29832700  0.14362400  1
  Li  Li2  1  0.86619800  0.43405100  0.72061600  1
  Li  Li3  1  0.71813100  0.85612800  0.43252100  1
  Li  Li4  1  0.00000000  0.00000000  0.00000000  1
  Li  Li5  1  0.13380200  0.56594900  0.27938400  1
  Li  Li6  1  0.42308300  0.70167300  0.85637600  1
  Li  Li7  1  0.00000000  0.50000000  0.00000000  1
  Mn  Mn8  1  0.43651000  0.22191100  0.85953000  1
  Mn  Mn9  1  0.56349000  0.77808900  0.14047000  1
  Co  Co10  1  0.71412900  0.35758500  0.42821800  1
  Co  Co11  1  0.28587100  0.64241500  0.57178200  1
  Co  Co12  1  0.87043600  0.92664700  0.71588700  1
  Co  Co13  1  0.12956400  0.07335300  0.28411300  1
  O  O14  1  0.88899000  0.17012700  0.72855300  1
  O  O15  1  0.11809300  0.31143800  0.29239600  1
  O  O16  1  0.42018300  0.44496200  0.85217400  1
  O  O17  1  0.26285700  0.88430500  0.57755900  1
  O  O18  1  0.53794100  0.02903200  0.15176300  1
  O  O19  1  0.68605800  0.59848700  0.43741600  1
  O  O20  1  0.02566200  0.75587800  0.01850100  1
  O  O21  1  0.73714300  0.11569500  0.42244100  1
  O  O22  1  0.97433800  0.24412200  0.98149900  1
  O  O23  1  0.31394200  0.40151300  0.56258400  1
  O  O24  1  0.11101000  0.82987300  0.27144700  1
  O  O25  1  0.46205900  0.97096800  0.84823700  1
  O  O26  1  0.57981700  0.55503800  0.14782600  1
  O  O27  1  0.88190700  0.68856200  0.70760400  1
