# generated using pymatgen
data_Li4Mn3NbO8
_symmetry_space_group_name_H-M   'P 1'
_cell_length_a   6.05452504
_cell_length_b   6.11856112
_cell_length_c   10.67690397
_cell_angle_alpha   90.12795368
_cell_angle_beta   73.50175640
_cell_angle_gamma   61.85984785
_symmetry_Int_Tables_number   1
_chemical_formula_structural   Li4Mn3NbO8
_chemical_formula_sum   'Li8 Mn6 Nb2 O16'
_cell_volume   330.04812642
_cell_formula_units_Z   2
loop_
 _symmetry_equiv_pos_site_id
 _symmetry_equiv_pos_as_xyz
  1  'x, y, z'
loop_
 _atom_site_type_symbol
 _atom_site_label
 _atom_site_symmetry_multiplicity
 _atom_site_fract_x
 _atom_site_fract_y
 _atom_site_fract_z
 _atom_site_occupancy
  Li  Li0  1  0.50024800  0.74614500  0.25148600  1
  Li  Li1  1  0.50062200  0.24658600  0.75145900  1
  Li  Li2  1  0.53298800  0.96261400  0.98903500  1
  Li  Li3  1  0.46499100  0.53470400  0.51307000  1
  Li  Li4  1  0.99831100  0.24882500  0.25120600  1
  Li  Li5  1  0.99907500  0.74883400  0.75096900  1
  Li  Li6  1  0.01078000  0.49651000  0.01175300  1
  Li  Li7  1  0.98620700  0.00233000  0.49018500  1
  Mn  Mn8  1  0.99855900  0.74911600  0.25089600  1
  Mn  Mn9  1  0.49891100  0.99875900  0.50241900  1
  Mn  Mn10  1  0.49821200  0.49941500  0.99949500  1
  Mn  Mn11  1  0.99852000  0.24963300  0.75126200  1
  Mn  Mn12  1  0.49832500  0.74920200  0.75092400  1
  Mn  Mn13  1  0.49823600  0.24852400  0.25057000  1
  Nb  Nb14  1  0.99644500  0.48558400  0.49965800  1
  Nb  Nb15  1  0.00077300  0.01317200  0.00241300  1
  O  O16  1  0.26872400  0.87239400  0.64139200  1
  O  O17  1  0.22539700  0.42276600  0.14258900  1
  O  O18  1  0.77115700  0.07578500  0.35912200  1
  O  O19  1  0.72820400  0.62638600  0.86078800  1
  O  O20  1  0.24199200  0.66220100  0.87537700  1
  O  O21  1  0.22145100  0.14893300  0.38555100  1
  O  O22  1  0.76049500  0.36820300  0.61352900  1
  O  O23  1  0.77405800  0.87176200  0.11621400  1
  O  O24  1  0.76085000  0.11313600  0.88952200  1
  O  O25  1  0.76233900  0.61275600  0.38157100  1
  O  O26  1  0.77489200  0.35011300  0.11665000  1
  O  O27  1  0.75462600  0.83711600  0.62683100  1
  O  O28  1  0.23650500  0.13082100  0.88856400  1
  O  O29  1  0.22310800  0.62667300  0.38550100  1
  O  O30  1  0.23425500  0.88589700  0.12025600  1
  O  O31  1  0.23569100  0.38576700  0.61242200  1
