# generated using pymatgen
data_Li5Co3(NiO5)2
_symmetry_space_group_name_H-M   'P 1'
_cell_length_a   5.11433708
_cell_length_b   10.15974698
_cell_length_c   7.71389237
_cell_angle_alpha   108.17344087
_cell_angle_beta   104.71901354
_cell_angle_gamma   98.23962961
_symmetry_Int_Tables_number   1
_chemical_formula_structural   Li5Co3(NiO5)2
_chemical_formula_sum   'Li10 Co6 Ni4 O20'
_cell_volume   357.35972318
_cell_formula_units_Z   2
loop_
 _symmetry_equiv_pos_site_id
 _symmetry_equiv_pos_as_xyz
  1  'x, y, z'
loop_
 _atom_site_type_symbol
 _atom_site_label
 _atom_site_symmetry_multiplicity
 _atom_site_fract_x
 _atom_site_fract_y
 _atom_site_fract_z
 _atom_site_occupancy
  Li  Li0  1  0.50029600  0.24991800  0.50025200  1
  Li  Li1  1  0.50004500  0.75018500  0.49804000  1
  Li  Li2  1  0.19809800  0.45404900  0.41322000  1
  Li  Li3  1  0.19128500  0.95305800  0.41363400  1
  Li  Li4  1  0.79879500  0.04780700  0.58817100  1
  Li  Li5  1  0.80638500  0.54561600  0.58495500  1
  Li  Li6  1  0.38784100  0.14888400  0.78587400  1
  Li  Li7  1  0.38682500  0.65053400  0.79334200  1
  Li  Li8  1  0.61150200  0.35045200  0.21455400  1
  Li  Li9  1  0.61312600  0.85159800  0.20651300  1
  Co  Co10  1  0.00298000  0.75088100  0.99991400  1
  Co  Co11  1  0.68932200  0.45062500  0.88889000  1
  Co  Co12  1  0.31280500  0.04881000  0.11200900  1
  Co  Co13  1  0.99993300  0.24987000  0.00091500  1
  Co  Co14  1  0.68439100  0.95102700  0.88706300  1
  Co  Co15  1  0.31311700  0.54845300  0.11416700  1
  Ni  Ni16  1  0.09800000  0.34529300  0.69467500  1
  Ni  Ni17  1  0.90234500  0.15470300  0.30600600  1
  Ni  Ni18  1  0.10273900  0.84905200  0.69349600  1
  Ni  Ni19  1  0.89599800  0.65130600  0.30527300  1
  O  O20  1  0.05684700  0.05918100  0.87091500  1
  O  O21  1  0.04404800  0.55878400  0.86868200  1
  O  O22  1  0.94371300  0.44584000  0.13298800  1
  O  O23  1  0.96092800  0.94213800  0.13084700  1
  O  O24  1  0.33885600  0.35403800  0.93830300  1
  O  O25  1  0.35687200  0.85768300  0.95017000  1
  O  O26  1  0.66088400  0.14662600  0.06223400  1
  O  O27  1  0.65261700  0.64279500  0.06018200  1
  O  O28  1  0.13692800  0.15085400  0.53449600  1
  O  O29  1  0.13697200  0.65485900  0.53578700  1
  O  O30  1  0.86292400  0.34835300  0.46648600  1
  O  O31  1  0.84993000  0.83613300  0.44339300  1
  O  O32  1  0.21117500  0.23750200  0.23508400  1
  O  O33  1  0.21661900  0.74202000  0.22010700  1
  O  O34  1  0.78857000  0.26309000  0.76631600  1
  O  O35  1  0.78047200  0.75640200  0.78056600  1
  O  O36  1  0.43175700  0.44582300  0.66756300  1
  O  O37  1  0.46784200  0.95300000  0.66227100  1
  O  O38  1  0.57069500  0.05736100  0.33621000  1
  O  O39  1  0.53552200  0.54539800  0.33643400  1
