# generated using pymatgen
data_Li8Mn3Fe5(BO3)8
_symmetry_space_group_name_H-M   'P 1'
_cell_length_a   5.22424100
_cell_length_b   5.23227008
_cell_length_c   20.76274730
_cell_angle_alpha   90.99955168
_cell_angle_beta   90.69502554
_cell_angle_gamma   119.84699231
_symmetry_Int_Tables_number   1
_chemical_formula_structural   Li8Mn3Fe5(BO3)8
_chemical_formula_sum   'Li8 Mn3 Fe5 B8 O24'
_cell_volume   492.04537519
_cell_formula_units_Z   1
loop_
 _symmetry_equiv_pos_site_id
 _symmetry_equiv_pos_as_xyz
  1  'x, y, z'
loop_
 _atom_site_type_symbol
 _atom_site_label
 _atom_site_symmetry_multiplicity
 _atom_site_fract_x
 _atom_site_fract_y
 _atom_site_fract_z
 _atom_site_occupancy
  Li  Li0  1  0.34883400  0.32303200  0.66632200  1
  Li  Li1  1  0.32183500  0.34803000  0.91611700  1
  Li  Li2  1  0.34723000  0.32065300  0.16639100  1
  Li  Li3  1  0.32107100  0.34760300  0.41627100  1
  Li  Li4  1  0.66294600  0.65387600  0.79187500  1
  Li  Li5  1  0.65080900  0.66140000  0.54122100  1
  Li  Li6  1  0.66419500  0.65132800  0.29102200  1
  Li  Li7  1  0.65235800  0.66426300  0.04103500  1
  Mn  Mn8  1  0.99467700  0.32675400  0.55910500  1
  Mn  Mn9  1  0.99819300  0.67845500  0.43286600  1
  Mn  Mn10  1  0.67724900  0.99906600  0.18312100  1
  Fe  Fe11  1  0.00326700  0.32958600  0.05806500  1
  Fe  Fe12  1  0.00601900  0.68148400  0.93326400  1
  Fe  Fe13  1  0.67395500  0.99033900  0.68451700  1
  Fe  Fe14  1  0.32256500  0.99514000  0.80857500  1
  Fe  Fe15  1  0.32885500  0.00354400  0.30815000  1
  B  B16  1  0.66046400  0.00217200  0.93720200  1
  B  B17  1  0.65863100  0.00328000  0.43643700  1
  B  B18  1  0.99542100  0.33247400  0.81180600  1
  B  B19  1  0.99354700  0.33160600  0.31185700  1
  B  B20  1  0.00449700  0.66127000  0.68731600  1
  B  B21  1  0.00304700  0.65983500  0.18725900  1
  B  B22  1  0.33421000  0.99415700  0.56272400  1
  B  B23  1  0.33098900  0.99295700  0.06162800  1
  O  O24  1  0.74773500  0.07029900  0.79170300  1
  O  O25  1  0.74691200  0.06583100  0.29224300  1
  O  O26  1  0.92841300  0.25813000  0.95192400  1
  O  O27  1  0.41533500  0.02566800  0.91733100  1
  O  O28  1  0.93238900  0.25216300  0.45194300  1
  O  O29  1  0.42295200  0.03744500  0.41566300  1
  O  O30  1  0.97092500  0.58210200  0.82691400  1
  O  O31  1  0.36284400  0.27065100  0.56988400  1
  O  O32  1  0.96873900  0.58013800  0.32642700  1
  O  O33  1  0.35134400  0.26753000  0.06795600  1
  O  O34  1  0.26970900  0.35189100  0.81869400  1
  O  O35  1  0.26816900  0.35205400  0.31827700  1
  O  O36  1  0.72960200  0.63842900  0.69449800  1
  O  O37  1  0.72505600  0.62667600  0.19413400  1
  O  O38  1  0.63563100  0.72759400  0.94368700  1
  O  O39  1  0.02709300  0.41770100  0.66792300  1
  O  O40  1  0.62490700  0.72594800  0.44398300  1
  O  O41  1  0.03704400  0.42399300  0.16617400  1
  O  O42  1  0.57530900  0.95731900  0.57860200  1
  O  O43  1  0.58012700  0.96913500  0.07633100  1
  O  O44  1  0.06778100  0.75332800  0.54121300  1
  O  O45  1  0.06553700  0.74631400  0.04198300  1
  O  O46  1  0.25831200  0.93286100  0.70177800  1
  O  O47  1  0.25207300  0.93329500  0.20279100  1
