# generated using pymatgen
data_Li5V3P8O29
_symmetry_space_group_name_H-M   'P 1'
_cell_length_a   9.77151400
_cell_length_b   9.78473914
_cell_length_c   14.01479209
_cell_angle_alpha   90.39837646
_cell_angle_beta   90.21293627
_cell_angle_gamma   119.52996975
_symmetry_Int_Tables_number   1
_chemical_formula_structural   Li5V3P8O29
_chemical_formula_sum   'Li10 V6 P16 O58'
_cell_volume   1165.84498120
_cell_formula_units_Z   2
loop_
 _symmetry_equiv_pos_site_id
 _symmetry_equiv_pos_as_xyz
  1  'x, y, z'
loop_
 _atom_site_type_symbol
 _atom_site_label
 _atom_site_symmetry_multiplicity
 _atom_site_fract_x
 _atom_site_fract_y
 _atom_site_fract_z
 _atom_site_occupancy
  Li  Li0  1  0.32428200  0.09454300  0.94207100  1
  Li  Li1  1  0.66151200  0.32257600  0.60957900  1
  Li  Li2  1  0.91570800  0.22650100  0.94182800  1
  Li  Li3  1  0.76845900  0.67374400  0.93917000  1
  Li  Li4  1  0.09318700  0.32613300  0.55890000  1
  Li  Li5  1  0.90539900  0.67219200  0.43851000  1
  Li  Li6  1  0.09338800  0.77223000  0.06111100  1
  Li  Li7  1  0.34248100  0.67530400  0.38748100  1
  Li  Li8  1  0.67501900  0.90710200  0.06345800  1
  Li  Li9  1  0.00256900  0.99982500  0.49420800  1
  V  V10  1  0.99981700  0.42959000  0.75250500  1
  V  V11  1  0.99986900  0.56839200  0.24783100  1
  V  V12  1  0.43031100  0.42544800  0.24860000  1
  V  V13  1  0.56239000  0.56978900  0.74707400  1
  V  V14  1  0.43056300  0.99884500  0.74503800  1
  V  V15  1  0.57059900  0.00322300  0.25693200  1
  P  P16  1  0.31707500  0.08323600  0.15988900  1
  P  P17  1  0.31051600  0.22542800  0.65777700  1
  P  P18  1  0.77791900  0.08542300  0.65580900  1
  P  P19  1  0.66509100  0.33441500  0.87106100  1
  P  P20  1  0.67055200  0.34079100  0.37288700  1
  P  P21  1  0.91093500  0.22890700  0.15955000  1
  P  P22  1  0.09332600  0.31824300  0.34202600  1
  P  P23  1  0.76485300  0.68086600  0.15551300  1
  P  P24  1  0.23333000  0.31542400  0.84493300  1
  P  P25  1  0.90535400  0.67946700  0.65716300  1
  P  P26  1  0.08817400  0.77001900  0.83935600  1
  P  P27  1  0.32678900  0.66166000  0.62625500  1
  P  P28  1  0.33781300  0.66845000  0.12916600  1
  P  P29  1  0.22076000  0.91304200  0.34482700  1
  P  P30  1  0.68845400  0.77465000  0.34125900  1
  P  P31  1  0.68217900  0.91544900  0.84130600  1
  O  O32  1  0.19946100  0.99490100  0.42769800  1
  O  O33  1  0.34440200  0.08628100  0.66140700  1
  O  O34  1  0.24578700  0.23627000  0.93143800  1
  O  O35  1  0.34028500  0.25192100  0.16464800  1
  O  O36  1  0.47589100  0.09137800  0.17994700  1
  O  O37  1  0.51411300  0.18605900  0.83108200  1
  O  O38  1  0.62874400  0.10257100  0.66673600  1
  O  O39  1  0.75676900  0.99752000  0.93355400  1
  O  O40  1  0.74557500  0.08161700  0.16440400  1
  O  O41  1  0.52208900  0.34100000  0.32569100  1
  O  O42  1  0.47521600  0.37716700  0.66999000  1
  O  O43  1  0.67207600  0.19487100  0.33231000  1
  O  O44  1  0.66823700  0.34551000  0.97705200  1
  O  O45  1  0.66376800  0.34712300  0.47943300  1
  O  O46  1  0.81456500  0.32806000  0.83308900  1
  O  O47  1  0.61811600  0.52229500  0.17661700  1
  O  O48  1  0.66681800  0.48460700  0.82588200  1
  O  O49  1  0.92089700  0.25820600  0.66357300  1
  O  O50  1  0.00234200  0.21097600  0.25050900  1
  O  O51  1  0.01832400  0.23499700  0.43178500  1
  O  O52  1  0.99121700  0.23869900  0.06838100  1
  O  O53  1  0.90109400  0.38060700  0.18144100  1
  O  O54  1  0.81691300  0.49309900  0.33673300  1
  O  O55  1  0.08557700  0.33567700  0.84258500  1
  O  O56  1  0.88919700  0.51554800  0.67070700  1
  O  O57  1  0.73646100  0.65744700  0.66831100  1
  O  O58  1  0.21114000  0.20737800  0.75211700  1
  O  O59  1  0.21494100  0.22040500  0.57382000  1
  O  O60  1  0.79366700  0.78599500  0.42158800  1
  O  O61  1  0.26264900  0.34144300  0.33269900  1
  O  O62  1  0.10950100  0.48272400  0.32992200  1
  O  O63  1  0.91556400  0.66600200  0.15713400  1
  O  O64  1  0.18255300  0.50876300  0.66294100  1
  O  O65  1  0.09896400  0.61945600  0.81985900  1
  O  O66  1  0.99944900  0.75687400  0.92926600  1
  O  O67  1  0.97979900  0.76181900  0.56729300  1
  O  O68  1  0.99751200  0.78857800  0.74852400  1
  O  O69  1  0.07909600  0.74014100  0.33675500  1
  O  O70  1  0.33977600  0.52314600  0.17883500  1
  O  O71  1  0.38203500  0.47506900  0.82180200  1
  O  O72  1  0.18612700  0.67148900  0.16610100  1
  O  O73  1  0.33953800  0.66255700  0.02326900  1
  O  O74  1  0.33567700  0.65606600  0.52019700  1
  O  O75  1  0.32758800  0.80745300  0.66857500  1
  O  O76  1  0.52636700  0.62349500  0.33237400  1
  O  O77  1  0.47706900  0.66077800  0.67356800  1
  O  O78  1  0.25218000  0.91795300  0.83859200  1
  O  O79  1  0.20313600  0.99091700  0.24608000  1
  O  O80  1  0.24301500  0.00010200  0.06772700  1
  O  O81  1  0.37108800  0.89846700  0.33574900  1
  O  O82  1  0.48812900  0.81661000  0.17006400  1
  O  O83  1  0.52330800  0.90732600  0.82065800  1
  O  O84  1  0.66100500  0.74665500  0.83847200  1
  O  O85  1  0.75207100  0.75375200  0.06425300  1
  O  O86  1  0.78345300  0.79549600  0.24260900  1
  O  O87  1  0.65562200  0.91483600  0.34013400  1
  O  O88  1  0.79589700  0.00277500  0.57258400  1
  O  O89  1  0.79503600  0.00658000  0.75447200  1
