# generated using pymatgen
data_Li7Mn5O12
_symmetry_space_group_name_H-M   'P 1'
_cell_length_a   2.98511220
_cell_length_b   15.19888445
_cell_length_c   9.80265604
_cell_angle_alpha   93.08422369
_cell_angle_beta   83.81789054
_cell_angle_gamma   92.82388477
_symmetry_Int_Tables_number   1
_chemical_formula_structural   Li7Mn5O12
_chemical_formula_sum   'Li14 Mn10 O24'
_cell_volume   441.09981350
_cell_formula_units_Z   2
loop_
 _symmetry_equiv_pos_site_id
 _symmetry_equiv_pos_as_xyz
  1  'x, y, z'
loop_
 _atom_site_type_symbol
 _atom_site_label
 _atom_site_symmetry_multiplicity
 _atom_site_fract_x
 _atom_site_fract_y
 _atom_site_fract_z
 _atom_site_occupancy
  Li  Li0  1  0.99998900  0.33332900  0.00000500  1
  Li  Li1  1  0.50000800  0.83334300  0.00000000  1
  Li  Li2  1  0.87537500  0.12529600  0.25316500  1
  Li  Li3  1  0.37539900  0.62529300  0.25315900  1
  Li  Li4  1  0.62461900  0.04136500  0.74683700  1
  Li  Li5  1  0.12460200  0.54137400  0.74683900  1
  Li  Li6  1  0.11119600  0.21321300  0.75722700  1
  Li  Li7  1  0.61120400  0.71321700  0.75721400  1
  Li  Li8  1  0.88879700  0.45345000  0.24278000  1
  Li  Li9  1  0.38880500  0.95345000  0.24277000  1
  Li  Li10  1  0.36919600  0.29807500  0.24153800  1
  Li  Li11  1  0.86919200  0.79807500  0.24154000  1
  Li  Li12  1  0.63081100  0.36859700  0.75845500  1
  Li  Li13  1  0.13081200  0.86859300  0.75846500  1
  Mn  Mn14  1  0.75002500  0.58332900  0.49999600  1
  Mn  Mn15  1  0.98906900  0.99569400  0.00364300  1
  Mn  Mn16  1  0.51092200  0.17097400  0.99635500  1
  Mn  Mn17  1  0.74990500  0.24979100  0.49955900  1
  Mn  Mn18  1  0.75009900  0.91687700  0.50043700  1
  Mn  Mn19  1  0.24997100  0.08333600  0.50000800  1
  Mn  Mn20  1  0.48908000  0.49568700  0.00364400  1
  Mn  Mn21  1  0.01092000  0.67098000  0.99635200  1
  Mn  Mn22  1  0.24992300  0.74979200  0.49956100  1
  Mn  Mn23  1  0.25007200  0.41687000  0.50044400  1
  O  O24  1  0.46154700  0.05878600  0.10520200  1
  O  O25  1  0.96155000  0.55877800  0.10518700  1
  O  O26  1  0.03845500  0.10788500  0.89480300  1
  O  O27  1  0.53845600  0.60789100  0.89480900  1
  O  O28  1  0.65444000  0.14905200  0.61675000  1
  O  O29  1  0.15444100  0.64904600  0.61673900  1
  O  O30  1  0.84556400  0.01761900  0.38326400  1
  O  O31  1  0.34555600  0.51761500  0.38325500  1
  O  O32  1  0.98153200  0.21732100  0.10734800  1
  O  O33  1  0.48153000  0.71733100  0.10733700  1
  O  O34  1  0.01847400  0.44933700  0.89266100  1
  O  O35  1  0.51846300  0.94934900  0.89265400  1
  O  O36  1  0.15327800  0.31652200  0.61867300  1
  O  O37  1  0.65328600  0.81652100  0.61866900  1
  O  O38  1  0.84671100  0.35014500  0.38132700  1
  O  O39  1  0.34672300  0.85014600  0.38132300  1
  O  O40  1  0.43212800  0.40450000  0.11762800  1
  O  O41  1  0.93211300  0.90450300  0.11763400  1
  O  O42  1  0.56788700  0.26216300  0.88236700  1
  O  O43  1  0.06787600  0.76216900  0.88237100  1
  O  O44  1  0.65122600  0.48283500  0.61979200  1
  O  O45  1  0.15123300  0.98284000  0.61979100  1
  O  O46  1  0.34876600  0.18382700  0.38021800  1
  O  O47  1  0.84876600  0.68382300  0.38020900  1
