# generated using pymatgen
data_Li4FeTe(WO6)2
_symmetry_space_group_name_H-M   'P 1'
_cell_length_a   7.55274257
_cell_length_b   7.58351278
_cell_length_c   7.57679269
_cell_angle_alpha   86.49083939
_cell_angle_beta   93.29697976
_cell_angle_gamma   93.53926006
_symmetry_Int_Tables_number   1
_chemical_formula_structural   Li4FeTe(WO6)2
_chemical_formula_sum   'Li8 Fe2 Te2 W4 O24'
_cell_volume   431.70165140
_cell_formula_units_Z   2
loop_
 _symmetry_equiv_pos_site_id
 _symmetry_equiv_pos_as_xyz
  1  'x, y, z'
loop_
 _atom_site_type_symbol
 _atom_site_label
 _atom_site_symmetry_multiplicity
 _atom_site_fract_x
 _atom_site_fract_y
 _atom_site_fract_z
 _atom_site_occupancy
  Li  Li0  1  0.19853400  0.79235000  0.26727000  1
  Li  Li1  1  0.69909500  0.29573900  0.27124800  1
  Li  Li2  1  0.71941100  0.78335000  0.81039300  1
  Li  Li3  1  0.22749300  0.27731200  0.80016100  1
  Li  Li4  1  0.70462900  0.29792400  0.81135800  1
  Li  Li5  1  0.20445800  0.80161800  0.80496500  1
  Li  Li6  1  0.28157900  0.21911200  0.20401400  1
  Li  Li7  1  0.74857500  0.74134600  0.23479800  1
  Fe  Fe8  1  0.49092700  0.50816100  0.99985700  1
  Fe  Fe9  1  0.99201900  0.00532200  0.00230100  1
  Te  Te10  1  0.49498500  0.01204600  0.51793100  1
  Te  Te11  1  0.00045800  0.50195800  0.50495200  1
  W  W12  1  0.99754900  0.01192000  0.49866700  1
  W  W13  1  0.49883700  0.50714100  0.50439700  1
  W  W14  1  0.49478500  0.99459900  0.00748500  1
  W  W15  1  0.99768400  0.49700200  0.00480800  1
  O  O16  1  0.94812000  0.74538300  0.42615900  1
  O  O17  1  0.44419300  0.25358900  0.42493700  1
  O  O18  1  0.93932100  0.93839900  0.73187600  1
  O  O19  1  0.44633100  0.42407200  0.73715200  1
  O  O20  1  0.74276300  0.93159500  0.05021600  1
  O  O21  1  0.24044500  0.43352800  0.04621400  1
  O  O22  1  0.77792700  0.08116800  0.41627800  1
  O  O23  1  0.24926100  0.56956200  0.43922300  1
  O  O24  1  0.44820600  0.75639400  0.92043400  1
  O  O25  1  0.94163200  0.25703800  0.94244800  1
  O  O26  1  0.57125600  0.07470600  0.75818200  1
  O  O27  1  0.06672100  0.56088000  0.74595200  1
  O  O28  1  0.42677900  0.92187700  0.23367100  1
  O  O29  1  0.93998900  0.43978300  0.25693100  1
  O  O30  1  0.54921400  0.23948800  0.05898400  1
  O  O31  1  0.05848500  0.73918700  0.04390700  1
  O  O32  1  0.24515200  0.94459600  0.57533500  1
  O  O33  1  0.75790100  0.41914100  0.55589200  1
  O  O34  1  0.25132800  0.05074800  0.93574600  1
  O  O35  1  0.75500500  0.54636700  0.94380400  1
  O  O36  1  0.07925400  0.03913300  0.25848100  1
  O  O37  1  0.55927000  0.55004500  0.25865900  1
  O  O38  1  0.07599000  0.25833100  0.56296400  1
  O  O39  1  0.59204000  0.72048500  0.57434800  1
