# generated using pymatgen
data_Li2InHg
_symmetry_space_group_name_H-M   'P 1'
_cell_length_a   11.25204169
_cell_length_b   11.25204169
_cell_length_c   11.25204169
_cell_angle_alpha   120.18588845
_cell_angle_beta   119.30835045
_cell_angle_gamma   90.44023010
_symmetry_Int_Tables_number   1
_chemical_formula_structural   Li2InHg
_chemical_formula_sum   'Li2 In1 Hg1'
_cell_volume   1011.09139180
_cell_formula_units_Z   1
loop_
 _symmetry_equiv_pos_site_id
 _symmetry_equiv_pos_as_xyz
  1  'x, y, z'
loop_
 _atom_site_type_symbol
 _atom_site_label
 _atom_site_symmetry_multiplicity
 _atom_site_fract_x
 _atom_site_fract_y
 _atom_site_fract_z
 _atom_site_occupancy
  Li  Li0  1  0.25023400  0.00000000  0.25023400  1
  Li  Li1  1  0.74976600  0.00000000  0.74976600  1
  In  In2  1  0.00000000  0.00000000  0.00000000  1
  Hg  Hg3  1  0.50000000  0.00000000  0.50000000  1
