# generated using pymatgen
data_Li2VF6
_symmetry_space_group_name_H-M   'P 1'
_cell_length_a   9.87388000
_cell_length_b   9.96160625
_cell_length_c   11.30155193
_cell_angle_alpha   115.92052804
_cell_angle_beta   115.75561959
_cell_angle_gamma   90.14119191
_symmetry_Int_Tables_number   1
_chemical_formula_structural   Li2VF6
_chemical_formula_sum   'Li16 V8 F48'
_cell_volume   874.69583739
_cell_formula_units_Z   8
loop_
 _symmetry_equiv_pos_site_id
 _symmetry_equiv_pos_as_xyz
  1  'x, y, z'
loop_
 _atom_site_type_symbol
 _atom_site_label
 _atom_site_symmetry_multiplicity
 _atom_site_fract_x
 _atom_site_fract_y
 _atom_site_fract_z
 _atom_site_occupancy
  Li  Li0  1  0.12626100  0.87496500  0.75272900  1
  Li  Li1  1  0.37724700  0.64043500  0.76296900  1
  Li  Li2  1  0.19020800  0.68074500  0.36387100  1
  Li  Li3  1  0.32191500  0.30136900  0.62741300  1
  Li  Li4  1  0.29495300  0.80767100  0.12707300  1
  Li  Li5  1  0.38284500  0.15436300  0.29556600  1
  Li  Li6  1  0.29793800  0.31282900  0.11687200  1
  Li  Li7  1  0.67779400  0.18853300  0.86998800  1
  Li  Li8  1  0.68159300  0.70069200  0.38846200  1
  Li  Li9  1  0.81111800  0.31099200  0.62487100  1
  Li  Li10  1  0.63210600  0.88867100  0.24647700  1
  Li  Li11  1  0.87167600  0.64229700  0.74825200  1
  Li  Li12  1  0.63629600  0.36569800  0.24609000  1
  Li  Li13  1  0.89903300  0.12220100  0.76311200  1
  Li  Li14  1  0.85389500  0.61512000  0.19863600  1
  Li  Li15  1  0.87944200  0.12561200  0.25252200  1
  V  V16  1  0.00000900  0.50115600  0.00050300  1
  V  V17  1  0.00474700  0.00269900  0.00700500  1
  V  V18  1  0.00475100  0.49905000  0.49768300  1
  V  V19  1  0.00311400  0.99715000  0.49954900  1
  V  V20  1  0.48943500  0.49381300  0.99353400  1
  V  V21  1  0.50244600  0.00291800  0.99841800  1
  V  V22  1  0.49724500  0.50327600  0.50037800  1
  V  V23  1  0.50042200  0.00002800  0.50237700  1
  F  F24  1  0.02364300  0.01125200  0.84530400  1
  F  F25  1  0.13214400  0.37032000  0.99225300  1
  F  F26  1  0.15800700  0.97913900  0.65594700  1
  F  F27  1  0.00460100  0.32683800  0.34213700  1
  F  F28  1  0.36543700  0.63058800  0.00825300  1
  F  F29  1  0.02351300  0.81503700  0.35739400  1
  F  F30  1  0.18684200  0.47556800  0.63720700  1
  F  F31  1  0.12909600  0.13153000  0.50156100  1
  F  F32  1  0.12693500  0.63021400  0.49069100  1
  F  F33  1  0.32683300  0.83432600  0.83907500  1
  F  F34  1  0.00781300  0.50066800  0.17324400  1
  F  F35  1  0.34269700  0.32035200  0.83734900  1
  F  F36  1  0.17228600  0.67071300  0.14345700  1
  F  F37  1  0.50307400  0.52499200  0.84545500  1
  F  F38  1  0.19086200  0.16802300  0.14647200  1
  F  F39  1  0.53529200  0.04416900  0.86782000  1
  F  F40  1  0.37915000  0.85779100  0.49531700  1
  F  F41  1  0.38101300  0.34252800  0.49027800  1
  F  F42  1  0.62285600  0.86869200  0.00654300  1
  F  F43  1  0.13613000  0.86882200  0.99833700  1
  F  F44  1  0.32917800  0.52295900  0.35537200  1
  F  F45  1  0.47086700  0.16674600  0.64551300  1
  F  F46  1  0.33020500  0.99508400  0.33080000  1
  F  F47  1  0.46761300  0.65228000  0.64947600  1
  F  F48  1  0.50994400  0.33650600  0.33005600  1
  F  F49  1  0.68380000  0.01609000  0.66672300  1
  F  F50  1  0.54156200  0.83805600  0.35356300  1
  F  F51  1  0.67746100  0.47414700  0.63026200  1
  F  F52  1  0.87516900  0.13473300  0.99477500  1
  F  F53  1  0.37573100  0.13694700  0.01371500  1
  F  F54  1  0.63362700  0.64292800  0.50674000  1
  F  F55  1  0.61657300  0.13790300  0.48903100  1
  F  F56  1  0.46826500  0.97009800  0.14761300  1
  F  F57  1  0.84181700  0.82869700  0.86243200  1
  F  F58  1  0.47834100  0.45609100  0.14398700  1
  F  F59  1  0.83579700  0.31374100  0.85075300  1
  F  F60  1  0.65962200  0.67587300  0.17042500  1
  F  F61  1  0.98060300  0.51531200  0.83141900  1
  F  F62  1  0.67875300  0.17022600  0.16351100  1
  F  F63  1  0.87170200  0.37901000  0.50872900  1
  F  F64  1  0.85947500  0.86751100  0.49196100  1
  F  F65  1  0.82066200  0.52912200  0.35338200  1
  F  F66  1  0.95356400  0.16251600  0.63623600  1
  F  F67  1  0.65022700  0.39197900  0.01225300  1
  F  F68  1  0.99307700  0.67122900  0.65879600  1
  F  F69  1  0.83171400  0.01205600  0.33721700  1
  F  F70  1  0.85929700  0.61464800  0.01278200  1
  F  F71  1  0.98483800  0.00187500  0.16081400  1
