# generated using pymatgen
data_Li9Mn(SiO5)2
_symmetry_space_group_name_H-M   'P 1'
_cell_length_a   5.36036400
_cell_length_b   5.92011359
_cell_length_c   15.30894649
_cell_angle_alpha   96.24171460
_cell_angle_beta   98.09796837
_cell_angle_gamma   91.96678417
_symmetry_Int_Tables_number   1
_chemical_formula_structural   Li9Mn(SiO5)2
_chemical_formula_sum   'Li18 Mn2 Si4 O20'
_cell_volume   477.50972067
_cell_formula_units_Z   2
loop_
 _symmetry_equiv_pos_site_id
 _symmetry_equiv_pos_as_xyz
  1  'x, y, z'
loop_
 _atom_site_type_symbol
 _atom_site_label
 _atom_site_symmetry_multiplicity
 _atom_site_fract_x
 _atom_site_fract_y
 _atom_site_fract_z
 _atom_site_occupancy
  Li  Li0  1  0.95041400  0.65300600  0.72826700  1
  Li  Li1  1  0.22783100  0.52886600  0.61434800  1
  Li  Li2  1  0.76771800  0.61266700  0.87173100  1
  Li  Li3  1  0.49510900  0.16010900  0.26654700  1
  Li  Li4  1  0.25049000  0.49937000  0.98691300  1
  Li  Li5  1  0.82469300  0.26735700  0.54532000  1
  Li  Li6  1  0.65725400  0.16668700  0.82796300  1
  Li  Li7  1  0.04096600  0.91931800  0.26602300  1
  Li  Li8  1  0.80132500  0.97679500  0.39192600  1
  Li  Li9  1  0.24183000  0.05877400  0.60905700  1
  Li  Li10  1  0.96861200  0.06869100  0.72877600  1
  Li  Li11  1  0.15044200  0.74193500  0.46965900  1
  Li  Li12  1  0.72808700  0.52057300  0.02317800  1
  Li  Li13  1  0.47788100  0.83429300  0.72336100  1
  Li  Li14  1  0.43690900  0.69615000  0.36092000  1
  Li  Li15  1  0.22010700  0.39692200  0.13413600  1
  Li  Li16  1  0.80751000  0.46045100  0.39077500  1
  Li  Li17  1  0.00351400  0.34846700  0.26312600  1
  Mn  Mn18  1  0.08711500  0.92836600  0.09334400  1
  Mn  Mn19  1  0.02663500  0.01739100  0.91151800  1
  Si  Si20  1  0.28788300  0.37289100  0.81370800  1
  Si  Si21  1  0.30477100  0.23280000  0.43226000  1
  Si  Si22  1  0.67253000  0.65380700  0.19204900  1
  Si  Si23  1  0.71153100  0.77033100  0.56432800  1
  O  O24  1  0.84638400  0.56034000  0.61223100  1
  O  O25  1  0.99879100  0.75456400  0.97492300  1
  O  O26  1  0.28493100  0.58578500  0.75661400  1
  O  O27  1  0.60820700  0.22708900  0.42334400  1
  O  O28  1  0.15981800  0.12926500  0.19450300  1
  O  O29  1  0.50545700  0.41341800  0.90334300  1
  O  O30  1  0.23183300  0.27657100  0.53164600  1
  O  O31  1  0.00697600  0.31419400  0.84764000  1
  O  O32  1  0.34040400  0.13291200  0.75525900  1
  O  O33  1  0.17569500  0.97830000  0.38500400  1
  O  O34  1  0.10960300  0.18819800  0.02340900  1
  O  O35  1  0.87214300  0.00672200  0.61087500  1
  O  O36  1  0.66352800  0.88372600  0.25973900  1
  O  O37  1  0.46578800  0.61532200  0.09985200  1
  O  O38  1  0.73787600  0.73376200  0.45704700  1
  O  O39  1  0.95935200  0.66459200  0.15392400  1
  O  O40  1  0.81721000  0.87636900  0.80853100  1
  O  O41  1  0.41538300  0.78670600  0.58428300  1
  O  O42  1  0.66520000  0.43956500  0.25096000  1
  O  O43  1  0.18030700  0.44531600  0.37747000  1
