# generated using pymatgen
data_Li15W7N19
_symmetry_space_group_name_H-M   'P 1'
_cell_length_a   5.78464511
_cell_length_b   11.10040300
_cell_length_c   17.58868998
_cell_angle_alpha   91.21181051
_cell_angle_beta   93.95526150
_cell_angle_gamma   104.16676860
_symmetry_Int_Tables_number   1
_chemical_formula_structural   Li15W7N19
_chemical_formula_sum   'Li30 W14 N38'
_cell_volume   1091.60217202
_cell_formula_units_Z   2
loop_
 _symmetry_equiv_pos_site_id
 _symmetry_equiv_pos_as_xyz
  1  'x, y, z'
loop_
 _atom_site_type_symbol
 _atom_site_label
 _atom_site_symmetry_multiplicity
 _atom_site_fract_x
 _atom_site_fract_y
 _atom_site_fract_z
 _atom_site_occupancy
  Li  Li0  1  0.50013500  0.61374200  0.45389600  1
  Li  Li1  1  0.49986500  0.38625800  0.54610400  1
  Li  Li2  1  0.52741200  0.16964600  0.65279900  1
  Li  Li3  1  0.47258800  0.83035400  0.34720100  1
  Li  Li4  1  0.78418000  0.98699900  0.20811100  1
  Li  Li5  1  0.21582000  0.01300100  0.79188900  1
  Li  Li6  1  0.93092500  0.96340000  0.36792400  1
  Li  Li7  1  0.06907500  0.03660000  0.63207600  1
  Li  Li8  1  0.83284800  0.75928100  0.28375700  1
  Li  Li9  1  0.16715200  0.24071900  0.71624300  1
  Li  Li10  1  0.77555100  0.14027800  0.82189500  1
  Li  Li11  1  0.22444900  0.85972200  0.17810500  1
  Li  Li12  1  0.88235500  0.91965600  0.89555800  1
  Li  Li13  1  0.11764500  0.08034400  0.10444200  1
  Li  Li14  1  0.65449700  0.07127300  0.95607400  1
  Li  Li15  1  0.34550300  0.92872700  0.04392600  1
  Li  Li16  1  0.63176700  0.91475000  0.50193300  1
  Li  Li17  1  0.36823300  0.08525000  0.49806700  1
  Li  Li18  1  0.62405000  0.51408600  0.30200300  1
  Li  Li19  1  0.37595000  0.48591400  0.69799700  1
  Li  Li20  1  0.98017700  0.37692100  0.01709900  1
  Li  Li21  1  0.01982300  0.62307900  0.98290100  1
  Li  Li22  1  0.85260100  0.73258100  0.79303900  1
  Li  Li23  1  0.14739900  0.26741900  0.20696100  1
  Li  Li24  1  0.71985600  0.16612100  0.40557000  1
  Li  Li25  1  0.28014400  0.83387900  0.59443000  1
  Li  Li26  1  0.57372400  0.34292300  0.85075900  1
  Li  Li27  1  0.42627600  0.65707700  0.14924100  1
  Li  Li28  1  0.00000000  0.50000000  0.50000000  1
  Li  Li29  1  0.50000000  0.50000000  0.00000000  1
  W  W30  1  0.60108000  0.20759500  0.11997200  1
  W  W31  1  0.39892000  0.79240500  0.88002800  1
  W  W32  1  0.81308200  0.42811900  0.70202900  1
  W  W33  1  0.18691800  0.57188100  0.29797100  1
  W  W34  1  0.70758200  0.66961600  0.61339900  1
  W  W35  1  0.29241800  0.33038400  0.38660100  1
  W  W36  1  0.03145000  0.75501300  0.45639300  1
  W  W37  1  0.96855000  0.24498700  0.54360700  1
  W  W38  1  0.87110400  0.54194700  0.12574700  1
  W  W39  1  0.12889600  0.45805300  0.87425300  1
  W  W40  1  0.62726500  0.93689900  0.70832400  1
  W  W41  1  0.37273500  0.06310100  0.29167600  1
  W  W42  1  0.72524600  0.81889100  0.06181200  1
  W  W43  1  0.27475400  0.18110900  0.93818800  1
  N  N44  1  0.87360000  0.16100500  0.13845300  1
  N  N45  1  0.12640000  0.83899500  0.86154700  1
  N  N46  1  0.84464400  0.36345000  0.60464100  1
  N  N47  1  0.15535600  0.63655000  0.39535900  1
  N  N48  1  0.64861500  0.01714300  0.31618800  1
  N  N49  1  0.35138500  0.98285700  0.68381200  1
  N  N50  1  0.60499400  0.84155400  0.80075900  1
  N  N51  1  0.39500600  0.15844600  0.19924100  1
  N  N52  1  0.67532600  0.38112400  0.10398200  1
  N  N53  1  0.32467400  0.61887600  0.89601800  1
  N  N54  1  0.55855500  0.43673900  0.42869500  1
  N  N55  1  0.44144500  0.56326100  0.57130500  1
  N  N56  1  0.73887600  0.10388700  0.51751600  1
  N  N57  1  0.26112400  0.89611300  0.48248400  1
  N  N58  1  0.96705600  0.67554900  0.55134600  1
  N  N59  1  0.03294400  0.32445100  0.44865400  1
  N  N60  1  0.03075400  0.90137400  0.08606300  1
  N  N61  1  0.96924600  0.09862600  0.91393700  1
  N  N62  1  0.76203100  0.79294700  0.41284900  1
  N  N63  1  0.23796900  0.20705300  0.58715100  1
  N  N64  1  0.65864400  0.83293300  0.62192400  1
  N  N65  1  0.34135600  0.16706700  0.37807600  1
  N  N66  1  0.85598400  0.45678500  0.91750300  1
  N  N67  1  0.14401600  0.54321500  0.08249700  1
  N  N68  1  0.58253600  0.87542800  0.96885400  1
  N  N69  1  0.41746400  0.12457200  0.03114600  1
  N  N70  1  0.71644400  0.64232200  0.06456500  1
  N  N71  1  0.28355600  0.35767800  0.93543500  1
  N  N72  1  0.87720900  0.07668400  0.72206200  1
  N  N73  1  0.12279100  0.92331600  0.27793800  1
  N  N74  1  0.91693900  0.58957900  0.23280400  1
  N  N75  1  0.08306100  0.41042100  0.76719600  1
  N  N76  1  0.77652500  0.59697200  0.70791800  1
  N  N77  1  0.22347500  0.40302800  0.29208200  1
  N  N78  1  0.53788700  0.33473700  0.73185100  1
  N  N79  1  0.46211300  0.66526300  0.26814900  1
  N  N80  1  0.53951500  0.85143800  0.13517200  1
  N  N81  1  0.46048500  0.14856200  0.86482800  1
