# generated using pymatgen
data_Li9Mn7O16
_symmetry_space_group_name_H-M   'P 1'
_cell_length_a   6.51208118
_cell_length_b   6.51208118
_cell_length_c   8.83686884
_cell_angle_alpha   89.47108818
_cell_angle_beta   89.47108818
_cell_angle_gamma   52.43850180
_symmetry_Int_Tables_number   1
_chemical_formula_structural   Li9Mn7O16
_chemical_formula_sum   'Li9 Mn7 O16'
_cell_volume   297.04592384
_cell_formula_units_Z   1
loop_
 _symmetry_equiv_pos_site_id
 _symmetry_equiv_pos_as_xyz
  1  'x, y, z'
loop_
 _atom_site_type_symbol
 _atom_site_label
 _atom_site_symmetry_multiplicity
 _atom_site_fract_x
 _atom_site_fract_y
 _atom_site_fract_z
 _atom_site_occupancy
  Li  Li0  1  0.62190100  0.12993300  0.24229700  1
  Li  Li1  1  0.37809900  0.87006700  0.75770300  1
  Li  Li2  1  0.12993300  0.62190100  0.24229700  1
  Li  Li3  1  0.50000000  0.50000000  0.50000000  1
  Li  Li4  1  0.25252700  0.25252700  0.00101600  1
  Li  Li5  1  0.00000000  0.00000000  0.50000000  1
  Li  Li6  1  0.87006700  0.37809900  0.75770300  1
  Li  Li7  1  0.74747300  0.74747300  0.99898400  1
  Li  Li8  1  0.50000000  0.50000000  0.00000000  1
  Mn  Mn9  1  0.00000000  0.00000000  0.00000000  1
  Mn  Mn10  1  0.62512600  0.12810700  0.75961200  1
  Mn  Mn11  1  0.75010700  0.75010700  0.49993900  1
  Mn  Mn12  1  0.24989300  0.24989300  0.50006100  1
  Mn  Mn13  1  0.37487400  0.87189300  0.24038800  1
  Mn  Mn14  1  0.12810700  0.62512600  0.75961200  1
  Mn  Mn15  1  0.87189300  0.37487400  0.24038800  1
  O  O16  1  0.64352000  0.11978600  0.98802700  1
  O  O17  1  0.38608900  0.88573900  0.49547700  1
  O  O18  1  0.11978600  0.64352000  0.98802700  1
  O  O19  1  0.51164700  0.51164700  0.25529100  1
  O  O20  1  0.26110800  0.26110800  0.75274500  1
  O  O21  1  0.00885000  0.00885000  0.25657400  1
  O  O22  1  0.88573900  0.38608900  0.49547700  1
  O  O23  1  0.76163800  0.76163800  0.75107900  1
  O  O24  1  0.61391100  0.11426100  0.50452300  1
  O  O25  1  0.35648000  0.88021400  0.01197300  1
  O  O26  1  0.11426100  0.61391100  0.50452300  1
  O  O27  1  0.48835300  0.48835300  0.74470900  1
  O  O28  1  0.23836200  0.23836200  0.24892100  1
  O  O29  1  0.99115000  0.99115000  0.74342600  1
  O  O30  1  0.88021400  0.35648000  0.01197300  1
  O  O31  1  0.73889200  0.73889200  0.24725500  1
