# generated using pymatgen
data_LiFeSiO4
_symmetry_space_group_name_H-M   'P 1'
_cell_length_a   10.70207145
_cell_length_b   10.83161310
_cell_length_c   12.20715762
_cell_angle_alpha   90.00000000
_cell_angle_beta   90.00000000
_cell_angle_gamma   119.54756486
_symmetry_Int_Tables_number   1
_chemical_formula_structural   LiFeSiO4
_chemical_formula_sum   'Li12 Fe12 Si12 O48'
_cell_volume   1231.02857688
_cell_formula_units_Z   12
loop_
 _symmetry_equiv_pos_site_id
 _symmetry_equiv_pos_as_xyz
  1  'x, y, z'
loop_
 _atom_site_type_symbol
 _atom_site_label
 _atom_site_symmetry_multiplicity
 _atom_site_fract_x
 _atom_site_fract_y
 _atom_site_fract_z
 _atom_site_occupancy
  Li  Li0  1  -0.00000000  0.50000000  0.34194045  1
  Li  Li1  1  -0.00000000  0.50000000  0.83769722  1
  Li  Li2  1  -0.00000000  -0.00000000  0.00084611  1
  Li  Li3  1  -0.00000000  -0.00000000  0.33623247  1
  Li  Li4  1  -0.00000000  -0.00000000  0.66774578  1
  Li  Li5  1  0.50000000  0.50000000  0.15930428  1
  Li  Li6  1  0.50000000  0.50000000  0.66886155  1
  Li  Li7  1  0.50000000  -0.00000000  0.37866171  1
  Li  Li8  1  0.50000000  -0.00000000  0.00626273  1
  Li  Li9  1  0.50000000  -0.00000000  0.18735128  1
  Li  Li10  1  0.50000000  -0.00000000  0.63304857  1
  Li  Li11  1  0.50000000  -0.00000000  0.82510350  1
  Fe  Fe12  1  0.00052814  0.75016771  0.83899965  1
  Fe  Fe13  1  0.24349889  0.74971733  0.17080289  1
  Fe  Fe14  1  0.99947186  0.24983229  0.83899965  1
  Fe  Fe15  1  0.25627632  0.50573394  0.50247847  1
  Fe  Fe16  1  0.24924945  0.25303361  0.16343685  1
  Fe  Fe17  1  0.50446031  0.75105834  0.83383995  1
  Fe  Fe18  1  0.24269946  0.99991046  0.50079585  1
  Fe  Fe19  1  0.49553969  0.24894166  0.83383995  1
  Fe  Fe20  1  0.75075055  0.74696639  0.16343685  1
  Fe  Fe21  1  0.74372368  0.49426606  0.50247847  1
  Fe  Fe22  1  0.75650111  0.25028267  0.17080289  1
  Fe  Fe23  1  0.75730054  0.00008954  0.50079585  1
  Si  Si24  1  0.99279384  0.74697991  0.33886051  1
  Si  Si25  1  0.00720616  0.25302009  0.33886051  1
  Si  Si26  1  0.25719317  0.75520122  0.67321707  1
  Si  Si27  1  0.25183870  0.50905619  0.00017618  1
  Si  Si28  1  0.49951707  0.75226585  0.32813292  1
  Si  Si29  1  0.24587737  0.24979396  0.66692225  1
  Si  Si30  1  0.25511052  0.00111308  0.00343246  1
  Si  Si31  1  0.75412263  0.75020604  0.66692225  1
  Si  Si32  1  0.50048293  0.24773415  0.32813292  1
  Si  Si33  1  0.74816130  0.49094381  0.00017618  1
  Si  Si34  1  0.74280683  0.24479878  0.67321707  1
  Si  Si35  1  0.74488948  0.99888692  0.00343246  1
  O  O36  1  0.10431225  0.89522376  0.94165073  1
  O  O37  1  0.08512997  0.89273390  0.41062786  1
  O  O38  1  0.08832133  0.69852714  0.26356742  1
  O  O39  1  0.12230748  0.70400648  0.75901151  1
  O  O40  1  0.32054695  0.92942778  0.09115966  1
  O  O41  1  0.29654680  0.89244196  0.59145170  1
  O  O42  1  0.09358980  0.39553493  0.41348931  1
  O  O43  1  0.21146233  0.60949670  0.07444165  1
  O  O44  1  0.23171186  0.61890012  0.60418702  1
  O  O45  1  0.11328980  0.41701333  0.91834623  1
  O  O46  1  0.09949463  0.19655587  0.74122518  1
  O  O47  1  0.41300271  0.82342799  0.26159041  1
  O  O48  1  0.41138467  0.82982232  0.74441589  1
  O  O49  1  0.09901027  0.19888509  0.26379815  1
  O  O50  1  0.29954708  0.41895580  0.08328955  1
  O  O51  1  0.39636020  0.61697440  0.40155871  1
  O  O52  1  0.39133764  0.60479180  0.92333149  1
  O  O53  1  0.30257710  0.39164209  0.59186656  1
  O  O54  1  0.60189423  0.89311609  0.40535113  1
  O  O55  1  0.20639015  0.10630783  0.06193795  1
  O  O56  1  0.60498130  0.92673621  0.91832609  1
  O  O57  1  0.19340341  0.10379204  0.59565149  1
  O  O58  1  0.57902709  0.70046589  0.23836745  1
  O  O59  1  0.38952785  0.29848013  0.74223449  1
  O  O60  1  0.61047215  0.70151987  0.74223449  1
  O  O61  1  0.42097291  0.29953411  0.23836745  1
  O  O62  1  0.80659659  0.89620796  0.59565149  1
  O  O63  1  0.39501870  0.07326379  0.91832609  1
  O  O64  1  0.79360985  0.89369217  0.06193795  1
  O  O65  1  0.39810577  0.10688391  0.40535113  1
  O  O66  1  0.69742290  0.60835791  0.59186656  1
  O  O67  1  0.60866236  0.39520820  0.92333149  1
  O  O68  1  0.60363980  0.38302560  0.40155871  1
  O  O69  1  0.70045292  0.58104420  0.08328955  1
  O  O70  1  0.90098973  0.80111491  0.26379815  1
  O  O71  1  0.58861533  0.17017768  0.74441589  1
  O  O72  1  0.58699729  0.17657201  0.26159041  1
  O  O73  1  0.90050537  0.80344413  0.74122518  1
  O  O74  1  0.88671020  0.58298667  0.91834623  1
  O  O75  1  0.76828814  0.38109988  0.60418702  1
  O  O76  1  0.78853767  0.39050330  0.07444165  1
  O  O77  1  0.90641020  0.60446507  0.41348931  1
  O  O78  1  0.70345320  0.10755804  0.59145170  1
  O  O79  1  0.67945305  0.07057222  0.09115966  1
  O  O80  1  0.87769252  0.29599352  0.75901151  1
  O  O81  1  0.91167867  0.30147286  0.26356742  1
  O  O82  1  0.91487003  0.10726610  0.41062786  1
  O  O83  1  0.89568775  0.10477624  0.94165073  1
