# generated using pymatgen
data_Li4MnCo2O7
_symmetry_space_group_name_H-M   'P 1'
_cell_length_a   5.13263525
_cell_length_b   5.13263525
_cell_length_c   18.16132200
_cell_angle_alpha   83.29606595
_cell_angle_beta   83.29606595
_cell_angle_gamma   32.46285728
_symmetry_Int_Tables_number   1
_chemical_formula_structural   Li4MnCo2O7
_chemical_formula_sum   'Li8 Mn2 Co4 O14'
_cell_volume   254.89921608
_cell_formula_units_Z   2
loop_
 _symmetry_equiv_pos_site_id
 _symmetry_equiv_pos_as_xyz
  1  'x, y, z'
loop_
 _atom_site_type_symbol
 _atom_site_label
 _atom_site_symmetry_multiplicity
 _atom_site_fract_x
 _atom_site_fract_y
 _atom_site_fract_z
 _atom_site_occupancy
  Li  Li0  1  0.28241200  0.28241200  0.92393500  1
  Li  Li1  1  0.85781400  0.85781400  0.77529600  1
  Li  Li2  1  0.43530400  0.43530400  0.64232600  1
  Li  Li3  1  0.00350900  0.00350900  0.50326300  1
  Li  Li4  1  0.57298200  0.57298200  0.35952600  1
  Li  Li5  1  0.14007800  0.14007800  0.21938700  1
  Li  Li6  1  0.71649200  0.71649200  0.07536000  1
  Li  Li7  1  0.13992500  0.13992500  0.71264500  1
  Mn  Mn8  1  0.99620300  0.99620300  0.99934100  1
  Mn  Mn9  1  0.56626000  0.56626000  0.84972500  1
  Co  Co10  1  0.71841500  0.71841500  0.58083300  1
  Co  Co11  1  0.28271100  0.28271100  0.43203000  1
  Co  Co12  1  0.85988200  0.85988200  0.28907100  1
  Co  Co13  1  0.43134400  0.43134400  0.14656500  1
  O  O14  1  0.36629300  0.36629300  0.03070200  1
  O  O15  1  0.93964300  0.93964300  0.88956100  1
  O  O16  1  0.50355600  0.50355600  0.76048500  1
  O  O17  1  0.08407000  0.08407000  0.60414700  1
  O  O18  1  0.65068800  0.65068800  0.46149900  1
  O  O19  1  0.22776300  0.22776300  0.31882900  1
  O  O20  1  0.80415300  0.80415300  0.17514700  1
  O  O21  1  0.19429000  0.19429000  0.82729900  1
  O  O22  1  0.78890900  0.78890900  0.67280800  1
  O  O23  1  0.34621900  0.34621900  0.53356300  1
  O  O24  1  0.91760200  0.91760200  0.39201500  1
  O  O25  1  0.49293600  0.49293600  0.25163600  1
  O  O26  1  0.05658700  0.05658700  0.10976800  1
  O  O27  1  0.62396500  0.62396500  0.96323800  1
