# generated using pymatgen
data_Li2Cr3WO8
_symmetry_space_group_name_H-M   'P 1'
_cell_length_a   6.01896602
_cell_length_b   10.56774284
_cell_length_c   6.01912769
_cell_angle_alpha   89.57988810
_cell_angle_beta   119.86237366
_cell_angle_gamma   73.31815624
_symmetry_Int_Tables_number   1
_chemical_formula_structural   Li2Cr3WO8
_chemical_formula_sum   'Li4 Cr6 W2 O16'
_cell_volume   312.80358681
_cell_formula_units_Z   2
loop_
 _symmetry_equiv_pos_site_id
 _symmetry_equiv_pos_as_xyz
  1  'x, y, z'
loop_
 _atom_site_type_symbol
 _atom_site_label
 _atom_site_symmetry_multiplicity
 _atom_site_fract_x
 _atom_site_fract_y
 _atom_site_fract_z
 _atom_site_occupancy
  Li  Li0  1  0.87328100  0.19448000  0.93448400  1
  Li  Li1  1  0.87310200  0.69463500  0.43802800  1
  Li  Li2  1  0.12672000  0.30552300  0.56551400  1
  Li  Li3  1  0.12689800  0.80537000  0.06197400  1
  Cr  Cr4  1  0.49848700  0.49920300  0.99679900  1
  Cr  Cr5  1  0.50151100  0.00079700  0.50320400  1
  Cr  Cr6  1  0.00012600  0.49988000  0.99462300  1
  Cr  Cr7  1  0.99988100  0.00011500  0.50539400  1
  Cr  Cr8  1  0.50257700  0.49943800  0.49891500  1
  Cr  Cr9  1  0.49742300  0.00056100  0.00107700  1
  W  W10  1  0.50000100  0.24999900  0.24999600  1
  W  W11  1  0.50000300  0.74999500  0.75000200  1
  O  O12  1  0.73705500  0.39799900  0.86787400  1
  O  O13  1  0.73598400  0.89882900  0.37099200  1
  O  O14  1  0.26294000  0.10200500  0.63212200  1
  O  O15  1  0.26401900  0.60117100  0.12901000  1
  O  O16  1  0.73242500  0.62498700  0.08657800  1
  O  O17  1  0.73757200  0.11907800  0.59787100  1
  O  O18  1  0.28600000  0.61991400  0.63696700  1
  O  O19  1  0.28436500  0.12064100  0.14500500  1
  O  O20  1  0.73372800  0.61988900  0.63737400  1
  O  O21  1  0.73121300  0.12552800  0.14499400  1
  O  O22  1  0.26627100  0.88011100  0.86262600  1
  O  O23  1  0.26878600  0.37447500  0.35500300  1
  O  O24  1  0.71399100  0.88008400  0.86303100  1
  O  O25  1  0.71563700  0.37936100  0.35499400  1
  O  O26  1  0.26758300  0.87501100  0.41342900  1
  O  O27  1  0.26242100  0.38092400  0.90212300  1
