# generated using pymatgen
data_Li4Fe(WO4)3
_symmetry_space_group_name_H-M   'P 1'
_cell_length_a   5.11933652
_cell_length_b   10.19531827
_cell_length_c   10.09545099
_cell_angle_alpha   60.32184485
_cell_angle_beta   90.65949022
_cell_angle_gamma   90.32099601
_symmetry_Int_Tables_number   1
_chemical_formula_structural   Li4Fe(WO4)3
_chemical_formula_sum   'Li8 Fe2 W6 O24'
_cell_volume   457.76375694
_cell_formula_units_Z   2
loop_
 _symmetry_equiv_pos_site_id
 _symmetry_equiv_pos_as_xyz
  1  'x, y, z'
loop_
 _atom_site_type_symbol
 _atom_site_label
 _atom_site_symmetry_multiplicity
 _atom_site_fract_x
 _atom_site_fract_y
 _atom_site_fract_z
 _atom_site_occupancy
  Li  Li0  1  0.99979200  0.71183200  0.14381100  1
  Li  Li1  1  0.00023200  0.71179000  0.64438500  1
  Li  Li2  1  0.00003300  0.83890500  0.83059100  1
  Li  Li3  1  0.99999300  0.84086700  0.32953500  1
  Li  Li4  1  0.49862400  0.33590100  0.33172600  1
  Li  Li5  1  0.50136900  0.33590600  0.83235800  1
  Li  Li6  1  0.50009900  0.19348600  0.15336300  1
  Li  Li7  1  0.49992900  0.19415600  0.65282700  1
  Fe  Fe8  1  0.99755500  0.10088100  0.44990700  1
  Fe  Fe9  1  0.00230600  0.10080700  0.94936600  1
  W  W10  1  0.50000300  0.61449000  0.94274800  1
  W  W11  1  0.00006600  0.39818200  0.05088300  1
  W  W12  1  0.00000600  0.39837000  0.55085300  1
  W  W13  1  0.49998900  0.61445800  0.44276300  1
  W  W14  1  0.50057300  0.93433600  0.03271800  1
  W  W15  1  0.49936200  0.93426000  0.53296900  1
  O  O16  1  0.15661800  0.26656100  0.23509300  1
  O  O17  1  0.15512900  0.26625100  0.73564700  1
  O  O18  1  0.84365800  0.26653900  0.99828900  1
  O  O19  1  0.84484600  0.26627900  0.49817200  1
  O  O20  1  0.18450500  0.58018900  0.05913200  1
  O  O21  1  0.18435100  0.57993200  0.55935300  1
  O  O22  1  0.81547200  0.58014700  0.86067000  1
  O  O23  1  0.81563200  0.57992800  0.36072200  1
  O  O24  1  0.18768000  0.90012800  0.95453700  1
  O  O25  1  0.18558600  0.90077200  0.45480200  1
  O  O26  1  0.81207100  0.90003600  0.64547300  1
  O  O27  1  0.81450400  0.90077500  0.14433300  1
  O  O28  1  0.31781200  0.43408100  0.93117900  1
  O  O29  1  0.31803000  0.43354900  0.43181000  1
  O  O30  1  0.68225200  0.43401000  0.13471700  1
  O  O31  1  0.68201200  0.43360300  0.63467300  1
  O  O32  1  0.34423900  0.07348100  0.07563600  1
  O  O33  1  0.34489700  0.07568900  0.57296700  1
  O  O34  1  0.65603100  0.07338500  0.35097900  1
  O  O35  1  0.65491600  0.07558000  0.85124800  1
  O  O36  1  0.35483700  0.75074200  0.75256800  1
  O  O37  1  0.35595300  0.75060300  0.25262700  1
  O  O38  1  0.64498600  0.75071900  0.99669700  1
  O  O39  1  0.64405100  0.75056500  0.49678700  1
