# generated using pymatgen
data_Li6V3P8O29
_symmetry_space_group_name_H-M   'P 1'
_cell_length_a   9.80243100
_cell_length_b   9.85761736
_cell_length_c   13.99941382
_cell_angle_alpha   89.94313818
_cell_angle_beta   90.49963826
_cell_angle_gamma   119.77631752
_symmetry_Int_Tables_number   1
_chemical_formula_structural   Li6V3P8O29
_chemical_formula_sum   'Li12 V6 P16 O58'
_cell_volume   1174.08892179
_cell_formula_units_Z   2
loop_
 _symmetry_equiv_pos_site_id
 _symmetry_equiv_pos_as_xyz
  1  'x, y, z'
loop_
 _atom_site_type_symbol
 _atom_site_label
 _atom_site_symmetry_multiplicity
 _atom_site_fract_x
 _atom_site_fract_y
 _atom_site_fract_z
 _atom_site_occupancy
  Li  Li0  1  0.31793000  0.22618000  0.44106500  1
  Li  Li1  1  0.76971500  0.09204800  0.43590500  1
  Li  Li2  1  0.65684700  0.32633500  0.11354600  1
  Li  Li3  1  0.90532600  0.23137000  0.94128300  1
  Li  Li4  1  0.77002000  0.67610300  0.94146800  1
  Li  Li5  1  0.09071600  0.31864200  0.56018000  1
  Li  Li6  1  0.90754800  0.67777200  0.43453200  1
  Li  Li7  1  0.23034400  0.32278700  0.06189900  1
  Li  Li8  1  0.34075000  0.68075100  0.89096900  1
  Li  Li9  1  0.22890700  0.90757400  0.56068100  1
  Li  Li10  1  0.68315800  0.77450500  0.55620000  1
  Li  Li11  1  0.01775000  0.96485900  0.00616700  1
  V  V12  1  0.99577600  0.43184100  0.74824100  1
  V  V13  1  0.00456900  0.57120100  0.24946700  1
  V  V14  1  0.43481900  0.43567000  0.24953300  1
  V  V15  1  0.56630700  0.56585300  0.75214100  1
  V  V16  1  0.43197000  0.00292300  0.75503900  1
  V  V17  1  0.56493400  0.99639100  0.24359500  1
  P  P18  1  0.30554800  0.08650800  0.15561500  1
  P  P19  1  0.31980200  0.23246000  0.66063100  1
  P  P20  1  0.76290400  0.08305300  0.65741300  1
  P  P21  1  0.66580700  0.33416200  0.87323900  1
  P  P22  1  0.66902400  0.33415400  0.37085600  1
  P  P23  1  0.90839200  0.22819800  0.15903200  1
  P  P24  1  0.08671200  0.31811100  0.34281400  1
  P  P25  1  0.77439900  0.68299200  0.15766000  1
  P  P26  1  0.22663900  0.31903700  0.84300100  1
  P  P27  1  0.91336800  0.68250600  0.65487400  1
  P  P28  1  0.08857000  0.77545300  0.83993000  1
  P  P29  1  0.33201700  0.66558300  0.62974400  1
  P  P30  1  0.33364900  0.66499000  0.12797500  1
  P  P31  1  0.23563300  0.91692100  0.34150500  1
  P  P32  1  0.68017300  0.76933000  0.33969400  1
  P  P33  1  0.69225500  0.91416300  0.84316400  1
  O  O34  1  0.24737900  0.00198700  0.43322800  1
  O  O35  1  0.33127400  0.08138700  0.66200500  1
  O  O36  1  0.22007900  0.23721000  0.93366000  1
  O  O37  1  0.33313000  0.25551600  0.15869800  1
  O  O38  1  0.47031500  0.09961200  0.16569300  1
  O  O39  1  0.51731800  0.19316900  0.83065500  1
  O  O40  1  0.61357300  0.09160900  0.68024200  1
  O  O41  1  0.79526200  0.01249900  0.92309200  1
  O  O42  1  0.74231700  0.08347500  0.16067200  1
  O  O43  1  0.51787100  0.33505900  0.32575000  1
  O  O44  1  0.48046300  0.37868000  0.67783000  1
  O  O45  1  0.67046200  0.18738000  0.32842500  1
  O  O46  1  0.67104100  0.34346100  0.98036500  1
  O  O47  1  0.65904500  0.33021600  0.47711500  1
  O  O48  1  0.81359600  0.33046400  0.83554400  1
  O  O49  1  0.62500400  0.51974100  0.16788400  1
  O  O50  1  0.67014200  0.48879600  0.83367400  1
  O  O51  1  0.91029200  0.24859200  0.65904300  1
  O  O52  1  0.99791400  0.20957900  0.25108600  1
  O  O53  1  0.99648700  0.24122500  0.43190700  1
  O  O54  1  0.99877400  0.23249300  0.07140400  1
  O  O55  1  0.89024000  0.37394500  0.17135700  1
  O  O56  1  0.81655700  0.48804900  0.33470500  1
  O  O57  1  0.07882000  0.34071000  0.83563700  1
  O  O58  1  0.90252200  0.52292300  0.67841200  1
  O  O59  1  0.74936000  0.66591200  0.65672900  1
  O  O60  1  0.20969200  0.21384800  0.75119800  1
  O  O61  1  0.24099600  0.24323400  0.57051200  1
  O  O62  1  0.76031100  0.75835400  0.42935400  1
  O  O63  1  0.25152100  0.33608700  0.34381300  1
  O  O64  1  0.09339500  0.47526800  0.32317000  1
  O  O65  1  0.91784500  0.65739800  0.16765800  1
  O  O66  1  0.18312400  0.51143200  0.66689500  1
  O  O67  1  0.10037100  0.62517500  0.83160600  1
  O  O68  1  0.99537000  0.78509900  0.92073300  1
  O  O69  1  0.00069500  0.75087100  0.56397700  1
  O  O70  1  0.01102000  0.79538800  0.74194000  1
  O  O71  1  0.08891100  0.75167200  0.34057800  1
  O  O72  1  0.33384200  0.51252100  0.16795200  1
  O  O73  1  0.37420700  0.48294300  0.83086100  1
  O  O74  1  0.18939700  0.66500600  0.17090600  1
  O  O75  1  0.32955300  0.65174500  0.02124200  1
  O  O76  1  0.34183200  0.66512100  0.52370600  1
  O  O77  1  0.32749300  0.81163300  0.66992700  1
  O  O78  1  0.51961100  0.62304000  0.32356800  1
  O  O79  1  0.48292100  0.66611100  0.67606000  1
  O  O80  1  0.25911800  0.91500400  0.83798000  1
  O  O81  1  0.21345200  0.00979600  0.25488800  1
  O  O82  1  0.20334200  0.99735400  0.07388700  1
  O  O83  1  0.38591000  0.90871600  0.32143700  1
  O  O84  1  0.48362900  0.80975000  0.16787400  1
  O  O85  1  0.52692100  0.89827600  0.83353300  1
  O  O86  1  0.66976500  0.74749600  0.84402500  1
  O  O87  1  0.78423500  0.76783800  0.06729800  1
  O  O88  1  0.78933000  0.78818100  0.24891800  1
  O  O89  1  0.66802600  0.91967200  0.33818300  1
  O  O90  1  0.74936100  0.99882200  0.56533800  1
  O  O91  1  0.78445000  0.98800400  0.74321500  1
