# generated using pymatgen
data_LiMn2(PO4)2
_symmetry_space_group_name_H-M   'P 1'
_cell_length_a   7.29675600
_cell_length_b   8.47342900
_cell_length_c   14.65859364
_cell_angle_alpha   89.85239237
_cell_angle_beta   90.00000000
_cell_angle_gamma   90.00000000
_symmetry_Int_Tables_number   1
_chemical_formula_structural   LiMn2(PO4)2
_chemical_formula_sum   'Li6 Mn12 P12 O48'
_cell_volume   906.31649299
_cell_formula_units_Z   6
loop_
 _symmetry_equiv_pos_site_id
 _symmetry_equiv_pos_as_xyz
  1  'x, y, z'
loop_
 _atom_site_type_symbol
 _atom_site_label
 _atom_site_symmetry_multiplicity
 _atom_site_fract_x
 _atom_site_fract_y
 _atom_site_fract_z
 _atom_site_occupancy
  Li  Li0  1  0.83461100  0.81981900  0.65873400  1
  Li  Li1  1  0.68198200  0.82371100  0.00963200  1
  Li  Li2  1  0.82216600  0.84399400  0.33539500  1
  Li  Li3  1  0.32216600  0.15600600  0.66460500  1
  Li  Li4  1  0.18198200  0.17628900  0.99036800  1
  Li  Li5  1  0.33461100  0.18018100  0.34126600  1
  Mn  Mn6  1  0.96274500  0.48539200  0.66658700  1
  Mn  Mn7  1  0.04780300  0.49877600  0.33504000  1
  Mn  Mn8  1  0.00461300  0.51774900  0.99254500  1
  Mn  Mn9  1  0.54780300  0.50122400  0.66496000  1
  Mn  Mn10  1  0.50461300  0.48225100  0.00745500  1
  Mn  Mn11  1  0.46274500  0.51460800  0.33341300  1
  Mn  Mn12  1  0.54608600  0.99439800  0.17387500  1
  Mn  Mn13  1  0.50645800  0.97564300  0.49510600  1
  Mn  Mn14  1  0.45761400  0.98786100  0.83545900  1
  Mn  Mn15  1  0.00645800  0.02435700  0.50489400  1
  Mn  Mn16  1  0.95761400  0.01213900  0.16454100  1
  Mn  Mn17  1  0.04608600  0.00560200  0.82612500  1
  P  P18  1  0.25830700  0.30155600  0.15920900  1
  P  P19  1  0.23789600  0.33462200  0.51451700  1
  P  P20  1  0.25591200  0.36238900  0.82110500  1
  P  P21  1  0.75591200  0.63761100  0.17889500  1
  P  P22  1  0.73789600  0.66537800  0.48548300  1
  P  P23  1  0.75830700  0.69844400  0.84079100  1
  P  P24  1  0.25159800  0.80962100  0.66280000  1
  P  P25  1  0.25833200  0.83977200  0.02264700  1
  P  P26  1  0.23179700  0.85800600  0.32584000  1
  P  P27  1  0.73179700  0.14199400  0.67416000  1
  P  P28  1  0.75833200  0.16022800  0.97735300  1
  P  P29  1  0.75159800  0.19037900  0.33720000  1
  O  O30  1  0.57345900  0.28428400  0.34658500  1
  O  O31  1  0.92247300  0.28502300  0.36110900  1
  O  O32  1  0.75317500  0.31756400  0.70012200  1
  O  O33  1  0.05698600  0.32480400  0.56780500  1
  O  O34  1  0.73473800  0.32478800  0.01749900  1
  O  O35  1  0.39386300  0.36138200  0.58407900  1
  O  O36  1  0.23861600  0.34541700  0.26120300  1
  O  O37  1  0.27593400  0.36833200  0.92641400  1
  O  O38  1  0.43436400  0.42643900  0.77731700  1
  O  O39  1  0.23287500  0.46225300  0.43618600  1
  O  O40  1  0.28144600  0.44741700  0.09882700  1
  O  O41  1  0.08773900  0.45172100  0.78999200  1
  O  O42  1  0.73287500  0.53774700  0.56381400  1
  O  O43  1  0.58773900  0.54827900  0.21000800  1
  O  O44  1  0.78144600  0.55258300  0.90117300  1
  O  O45  1  0.93436400  0.57356100  0.22268300  1
  O  O46  1  0.73861600  0.65458300  0.73879700  1
  O  O47  1  0.77593400  0.63166800  0.07358600  1
  O  O48  1  0.89386300  0.63861800  0.41592100  1
  O  O49  1  0.55698600  0.67519600  0.43219500  1
  O  O50  1  0.23473800  0.67521200  0.98250100  1
  O  O51  1  0.25317500  0.68243600  0.29987800  1
  O  O52  1  0.42247300  0.71497700  0.63889100  1
  O  O53  1  0.07345900  0.71571600  0.65341500  1
  O  O54  1  0.92936200  0.80785600  0.85587900  1
  O  O55  1  0.58879900  0.78904300  0.87824300  1
  O  O56  1  0.73504600  0.82073900  0.20559300  1
  O  O57  1  0.77125200  0.82851900  0.53092400  1
  O  O58  1  0.44327900  0.84952300  0.07546400  1
  O  O59  1  0.09598100  0.87569800  0.08741300  1
  O  O60  1  0.21536700  0.88108500  0.42943800  1
  O  O61  1  0.26426100  0.86998100  0.76698500  1
  O  O62  1  0.05209300  0.92643700  0.28252200  1
  O  O63  1  0.24226000  0.96208900  0.60354100  1
  O  O64  1  0.39496000  0.96178500  0.29156100  1
  O  O65  1  0.26291200  0.96835500  0.94432000  1
  O  O66  1  0.89496000  0.03821500  0.70843900  1
  O  O67  1  0.74226000  0.03791100  0.39645900  1
  O  O68  1  0.76291200  0.03164500  0.05568000  1
  O  O69  1  0.55209300  0.07356300  0.71747800  1
  O  O70  1  0.71536700  0.11891500  0.57056200  1
  O  O71  1  0.76426100  0.13001900  0.23301500  1
  O  O72  1  0.59598100  0.12430200  0.91258700  1
  O  O73  1  0.27125200  0.17148100  0.46907600  1
  O  O74  1  0.94327900  0.15047700  0.92453600  1
  O  O75  1  0.23504600  0.17926100  0.79440700  1
  O  O76  1  0.08879900  0.21095700  0.12175700  1
  O  O77  1  0.42936200  0.19214400  0.14412100  1
