# generated using pymatgen
data_Li3Mn2O5
_symmetry_space_group_name_H-M   'P 1'
_cell_length_a   2.99965580
_cell_length_b   2.99965616
_cell_length_c   24.64844426
_cell_angle_alpha   93.48853590
_cell_angle_beta   90.00000000
_cell_angle_gamma   119.99999608
_symmetry_Int_Tables_number   1
_chemical_formula_structural   Li3Mn2O5
_chemical_formula_sum   'Li6 Mn4 O10'
_cell_volume   191.59686535
_cell_formula_units_Z   2
loop_
 _symmetry_equiv_pos_site_id
 _symmetry_equiv_pos_as_xyz
  1  'x, y, z'
loop_
 _atom_site_type_symbol
 _atom_site_label
 _atom_site_symmetry_multiplicity
 _atom_site_fract_x
 _atom_site_fract_y
 _atom_site_fract_z
 _atom_site_occupancy
  Li  Li0  1  0.09625435  0.19250870  0.28876305  1
  Li  Li1  1  0.50024858  0.00049717  0.50074575  1
  Li  Li2  1  0.90000000  0.80000000  0.70000000  1
  Li  Li3  1  0.29975142  0.59950283  0.89925425  1
  Li  Li4  1  0.70374565  0.40749130  0.11123695  1
  Li  Li5  1  0.40000000  0.80000000  0.20000000  1
  Mn  Mn6  1  0.00015626  0.00031253  0.00046879  1
  Mn  Mn7  1  0.79984374  0.59968747  0.39953121  1
  Mn  Mn8  1  0.20002056  0.40004113  0.60006169  1
  Mn  Mn9  1  0.59997944  0.19995887  0.79993831  1
  O  O10  1  0.14840094  0.29680188  0.44520282  1
  O  O11  1  0.54858930  0.09717861  0.64576791  1
  O  O12  1  0.94884554  0.89769108  0.84653661  1
  O  O13  1  0.34722564  0.69445129  0.04167693  1
  O  O14  1  0.75020827  0.50041654  0.25062480  1
  O  O15  1  0.04979173  0.09958346  0.14937520  1
  O  O16  1  0.45277436  0.90554871  0.35832307  1
  O  O17  1  0.85115446  0.70230892  0.55346339  1
  O  O18  1  0.25141070  0.50282139  0.75423209  1
  O  O19  1  0.65159906  0.30319812  0.95479718  1
