# generated using pymatgen
data_Li3(WO3)8
_symmetry_space_group_name_H-M   'P 1'
_cell_length_a   6.54020730
_cell_length_b   6.54020730
_cell_length_c   10.79592407
_cell_angle_alpha   89.90752167
_cell_angle_beta   89.90752167
_cell_angle_gamma   70.43461421
_symmetry_Int_Tables_number   1
_chemical_formula_structural   Li3(WO3)8
_chemical_formula_sum   'Li3 W8 O24'
_cell_volume   435.12368959
_cell_formula_units_Z   1
loop_
 _symmetry_equiv_pos_site_id
 _symmetry_equiv_pos_as_xyz
  1  'x, y, z'
loop_
 _atom_site_type_symbol
 _atom_site_label
 _atom_site_symmetry_multiplicity
 _atom_site_fract_x
 _atom_site_fract_y
 _atom_site_fract_z
 _atom_site_occupancy
  Li  Li0  1  0.24926300  0.24926300  0.24964200  1
  Li  Li1  1  0.75073700  0.75073700  0.75035800  1
  Li  Li2  1  0.00000000  0.00000000  0.50000000  1
  W  W3  1  0.00000000  0.50000000  0.50000000  1
  W  W4  1  0.50000000  0.00000000  0.00000000  1
  W  W5  1  0.74560500  0.25188100  0.24674600  1
  W  W6  1  0.25439500  0.74811900  0.75325400  1
  W  W7  1  0.25188100  0.74560500  0.24674600  1
  W  W8  1  0.74811900  0.25439500  0.75325400  1
  W  W9  1  0.50000000  0.00000000  0.50000000  1
  W  W10  1  0.00000000  0.50000000  0.00000000  1
  O  O11  1  0.70656000  0.70656000  0.49921700  1
  O  O12  1  0.20901200  0.20901200  0.99786100  1
  O  O13  1  0.49906600  0.49906600  0.70220900  1
  O  O14  1  0.99761900  0.99761900  0.21111500  1
  O  O15  1  0.50093400  0.50093400  0.29779100  1
  O  O16  1  0.00238100  0.00238100  0.78888500  1
  O  O17  1  0.29344000  0.29344000  0.50078300  1
  O  O18  1  0.79098800  0.79098800  0.00213900  1
  O  O19  1  0.35250100  0.94741600  0.35240900  1
  O  O20  1  0.85575100  0.45070400  0.84084900  1
  O  O21  1  0.94741600  0.35250100  0.35240900  1
  O  O22  1  0.45070400  0.85575100  0.84084900  1
  O  O23  1  0.05258400  0.64749900  0.64759100  1
  O  O24  1  0.54929600  0.14424900  0.15915100  1
  O  O25  1  0.64749900  0.05258400  0.64759100  1
  O  O26  1  0.14424900  0.54929600  0.15915100  1
  O  O27  1  0.70023100  0.09534700  0.40026800  1
  O  O28  1  0.19393200  0.60175800  0.88907400  1
  O  O29  1  0.90465300  0.29976900  0.59973200  1
  O  O30  1  0.39824200  0.80606800  0.11092600  1
  O  O31  1  0.09534700  0.70023100  0.40026800  1
  O  O32  1  0.60175800  0.19393200  0.88907400  1
  O  O33  1  0.29976900  0.90465300  0.59973200  1
  O  O34  1  0.80606800  0.39824200  0.11092600  1
