# generated using pymatgen
data_Li2BiS2
_symmetry_space_group_name_H-M   'P 1'
_cell_length_a   7.32194514
_cell_length_b   7.32194514
_cell_length_c   7.32194514
_cell_angle_alpha   148.19219491
_cell_angle_beta   147.96765783
_cell_angle_gamma   45.76765280
_symmetry_Int_Tables_number   1
_chemical_formula_structural   Li2BiS2
_chemical_formula_sum   'Li2 Bi1 S2'
_cell_volume   109.36875882
_cell_formula_units_Z   1
loop_
 _symmetry_equiv_pos_site_id
 _symmetry_equiv_pos_as_xyz
  1  'x, y, z'
loop_
 _atom_site_type_symbol
 _atom_site_label
 _atom_site_symmetry_multiplicity
 _atom_site_fract_x
 _atom_site_fract_y
 _atom_site_fract_z
 _atom_site_occupancy
  Li  Li0  1  0.26028100  0.26028100  0.00000000  1
  Li  Li1  1  0.73971900  0.73971900  0.00000000  1
  Bi  Bi2  1  0.00000000  0.00000000  0.00000000  1
  S  S3  1  0.85182700  0.35182700  0.50000000  1
  S  S4  1  0.14817300  0.64817300  0.50000000  1
