# generated using pymatgen
data_LiMg
_symmetry_space_group_name_H-M   'P 1'
_cell_length_a   8.10771355
_cell_length_b   8.10771355
_cell_length_c   5.03649700
_cell_angle_alpha   90.00000000
_cell_angle_beta   90.00000000
_cell_angle_gamma   157.24073106
_symmetry_Int_Tables_number   1
_chemical_formula_structural   LiMg
_chemical_formula_sum   'Li3 Mg3'
_cell_volume   128.07942278
_cell_formula_units_Z   3
loop_
 _symmetry_equiv_pos_site_id
 _symmetry_equiv_pos_as_xyz
  1  'x, y, z'
loop_
 _atom_site_type_symbol
 _atom_site_label
 _atom_site_symmetry_multiplicity
 _atom_site_fract_x
 _atom_site_fract_y
 _atom_site_fract_z
 _atom_site_occupancy
  Li  Li0  1  0.99859500  0.00140500  0.00000000  1
  Li  Li1  1  0.66524400  0.33475600  0.00000000  1
  Li  Li2  1  0.11161400  0.88838600  0.50000000  1
  Mg  Mg3  1  0.33247500  0.66752500  0.00000000  1
  Mg  Mg4  1  0.44995900  0.55004100  0.50000000  1
  Mg  Mg5  1  0.77544600  0.22455400  0.50000000  1
