# generated using pymatgen
data_LiCo(PO3)5
_symmetry_space_group_name_H-M   'P 1'
_cell_length_a   10.24900900
_cell_length_b   9.83532200
_cell_length_c   11.82477669
_cell_angle_alpha   73.31126543
_cell_angle_beta   90.00000000
_cell_angle_gamma   90.00000000
_symmetry_Int_Tables_number   1
_chemical_formula_structural   LiCo(PO3)5
_chemical_formula_sum   'Li4 Co4 P20 O60'
_cell_volume   1141.75795728
_cell_formula_units_Z   4
loop_
 _symmetry_equiv_pos_site_id
 _symmetry_equiv_pos_as_xyz
  1  'x, y, z'
loop_
 _atom_site_type_symbol
 _atom_site_label
 _atom_site_symmetry_multiplicity
 _atom_site_fract_x
 _atom_site_fract_y
 _atom_site_fract_z
 _atom_site_occupancy
  Li  Li0  1  0.39084200  0.91172300  0.49192300  1
  Li  Li1  1  0.89084200  0.58827700  0.50807700  1
  Li  Li2  1  0.60915800  0.08827700  0.50807700  1
  Li  Li3  1  0.10915800  0.41172300  0.49192300  1
  Co  Co4  1  0.11310500  0.78224800  0.65556400  1
  Co  Co5  1  0.61310500  0.71775200  0.34443600  1
  Co  Co6  1  0.88689500  0.21775200  0.34443600  1
  Co  Co7  1  0.38689500  0.28224800  0.65556400  1
  P  P8  1  0.09231500  0.13933600  0.58595600  1
  P  P9  1  0.59231500  0.36066400  0.41404400  1
  P  P10  1  0.90768500  0.86066400  0.41404400  1
  P  P11  1  0.40768500  0.63933600  0.58595600  1
  P  P12  1  0.52593200  0.04321000  0.25643600  1
  P  P13  1  0.02593200  0.45679000  0.74356400  1
  P  P14  1  0.47406800  0.95679000  0.74356400  1
  P  P15  1  0.97406800  0.54321000  0.25643600  1
  P  P16  1  0.83528400  0.07692800  0.72210000  1
  P  P17  1  0.33528400  0.42307200  0.27790000  1
  P  P18  1  0.16471600  0.92307200  0.27790000  1
  P  P19  1  0.66471600  0.57692800  0.72210000  1
  P  P20  1  0.77699200  0.11681800  0.12129500  1
  P  P21  1  0.27699200  0.38318200  0.87870500  1
  P  P22  1  0.22300800  0.88318200  0.87870500  1
  P  P23  1  0.72300800  0.61681800  0.12129500  1
  P  P24  1  0.72127000  0.79743600  0.86184200  1
  P  P25  1  0.22127000  0.70256400  0.13815800  1
  P  P26  1  0.27873000  0.20256400  0.13815800  1
  P  P27  1  0.77873000  0.29743600  0.86184200  1
  O  O28  1  0.13440600  0.99490700  0.58103000  1
  O  O29  1  0.63440600  0.50509300  0.41897000  1
  O  O30  1  0.86559400  0.00509300  0.41897000  1
  O  O31  1  0.36559400  0.49490700  0.58103000  1
  O  O32  1  0.98141300  0.10766500  0.70934200  1
  O  O33  1  0.48141300  0.39233500  0.29065800  1
  O  O34  1  0.01858700  0.89233500  0.29065800  1
  O  O35  1  0.51858700  0.60766500  0.70934200  1
  O  O36  1  0.99091900  0.77334700  0.51553400  1
  O  O37  1  0.49091900  0.72665300  0.48446600  1
  O  O38  1  0.00908100  0.22665300  0.48446600  1
  O  O39  1  0.50908100  0.27334700  0.51553400  1
  O  O40  1  0.49889300  0.06719400  0.37302000  1
  O  O41  1  0.99889300  0.43280600  0.62698000  1
  O  O42  1  0.50110700  0.93280600  0.62698000  1
  O  O43  1  0.00110700  0.56719400  0.37302000  1
  O  O44  1  0.30377800  0.72919000  0.62064500  1
  O  O45  1  0.80377800  0.77081000  0.37935500  1
  O  O46  1  0.69622200  0.27081000  0.37935500  1
  O  O47  1  0.19622200  0.22919000  0.62064500  1
  O  O48  1  0.64207700  0.13657200  0.18727500  1
  O  O49  1  0.14207700  0.36342800  0.81272500  1
  O  O50  1  0.35792300  0.86342800  0.81272500  1
  O  O51  1  0.85792300  0.63657200  0.18727500  1
  O  O52  1  0.83070400  0.90915000  0.80372000  1
  O  O53  1  0.33070400  0.59085000  0.19628000  1
  O  O54  1  0.16929600  0.09085000  0.19628000  1
  O  O55  1  0.66929600  0.40915000  0.80372000  1
  O  O56  1  0.78767200  0.98552300  0.08632200  1
  O  O57  1  0.28767200  0.51447700  0.91367800  1
  O  O58  1  0.21232800  0.01447700  0.91367800  1
  O  O59  1  0.71232800  0.48552300  0.08632200  1
  O  O60  1  0.02701000  0.60460400  0.75249600  1
  O  O61  1  0.52701000  0.89539600  0.24750400  1
  O  O62  1  0.97299000  0.39539600  0.24750400  1
  O  O63  1  0.47299000  0.10460400  0.75249600  1
  O  O64  1  0.41022500  0.12739300  0.16188300  1
  O  O65  1  0.91022500  0.37260700  0.83811700  1
  O  O66  1  0.58977500  0.87260700  0.83811700  1
  O  O67  1  0.08977500  0.62739300  0.16188300  1
  O  O68  1  0.74737100  0.09857700  0.62130700  1
  O  O69  1  0.24737100  0.40142300  0.37869300  1
  O  O70  1  0.25262900  0.90142300  0.37869300  1
  O  O71  1  0.75262900  0.59857700  0.62130700  1
  O  O72  1  0.77885600  0.16515100  0.81201500  1
  O  O73  1  0.27885600  0.33484900  0.18798500  1
  O  O74  1  0.22114400  0.83484900  0.18798500  1
  O  O75  1  0.72114400  0.66515100  0.81201500  1
  O  O76  1  0.11970800  0.82373700  0.81805700  1
  O  O77  1  0.61970800  0.67626300  0.18194300  1
  O  O78  1  0.88029200  0.17626300  0.18194300  1
  O  O79  1  0.38029200  0.32373700  0.81805700  1
  O  O80  1  0.74480600  0.25053000  0.99182500  1
  O  O81  1  0.24480600  0.24947000  0.00817500  1
  O  O82  1  0.25519400  0.74947000  0.00817500  1
  O  O83  1  0.75519400  0.75053000  0.99182500  1
  O  O84  1  0.98191200  0.56198700  0.97890800  1
  O  O85  1  0.48191200  0.93801300  0.02109200  1
  O  O86  1  0.01808800  0.43801300  0.02109200  1
  O  O87  1  0.51808800  0.06198700  0.97890800  1
