# generated using pymatgen
data_LiY2Ga
_symmetry_space_group_name_H-M   'P 1'
_cell_length_a   12.07179952
_cell_length_b   12.07179952
_cell_length_c   12.07179952
_cell_angle_alpha   121.05201162
_cell_angle_beta   119.77410503
_cell_angle_gamma   89.28964601
_symmetry_Int_Tables_number   1
_chemical_formula_structural   LiY2Ga
_chemical_formula_sum   'Li1 Y2 Ga1'
_cell_volume   1235.88008036
_cell_formula_units_Z   1
loop_
 _symmetry_equiv_pos_site_id
 _symmetry_equiv_pos_as_xyz
  1  'x, y, z'
loop_
 _atom_site_type_symbol
 _atom_site_label
 _atom_site_symmetry_multiplicity
 _atom_site_fract_x
 _atom_site_fract_y
 _atom_site_fract_z
 _atom_site_occupancy
  Li  Li0  1  0.00000000  0.00000000  0.00000000  1
  Y  Y1  1  0.00000000  0.27849000  0.27849000  1
  Y  Y2  1  0.00000000  0.72151000  0.72151000  1
  Ga  Ga3  1  0.00000000  0.50000000  0.50000000  1
