# generated using pymatgen
data_Li2V(OF)2
_symmetry_space_group_name_H-M   'P 1'
_cell_length_a   5.95483242
_cell_length_b   5.95478915
_cell_length_c   8.32876883
_cell_angle_alpha   91.09969465
_cell_angle_beta   88.90118911
_cell_angle_gamma   87.07837745
_symmetry_Int_Tables_number   1
_chemical_formula_structural   Li2V(OF)2
_chemical_formula_sum   'Li8 V4 O8 F8'
_cell_volume   294.83795225
_cell_formula_units_Z   4
loop_
 _symmetry_equiv_pos_site_id
 _symmetry_equiv_pos_as_xyz
  1  'x, y, z'
loop_
 _atom_site_type_symbol
 _atom_site_label
 _atom_site_symmetry_multiplicity
 _atom_site_fract_x
 _atom_site_fract_y
 _atom_site_fract_z
 _atom_site_occupancy
  Li  Li0  1  0.49707000  0.24702300  0.62497400  1
  Li  Li1  1  0.99505700  0.74505200  0.12499500  1
  Li  Li2  1  0.50085700  0.75581200  0.37487100  1
  Li  Li3  1  0.00576600  0.25092700  0.87516000  1
  Li  Li4  1  0.75117900  0.25002000  0.25082000  1
  Li  Li5  1  0.25293200  0.75687900  0.74720300  1
  Li  Li6  1  0.00687700  0.00289100  0.50277200  1
  Li  Li7  1  0.50008100  0.50120800  0.99921900  1
  V  V8  1  0.74514100  0.75298300  0.74542400  1
  V  V9  1  0.00291900  0.49516500  0.50465900  1
  V  V10  1  0.25315700  0.24729500  0.25409600  1
  V  V11  1  0.49725600  0.00319300  0.99586300  1
  O  O12  1  0.76968300  0.73205000  0.51992400  1
  O  O13  1  0.27734100  0.23171000  0.01183300  1
  O  O14  1  0.48173700  0.02729400  0.23805600  1
  O  O15  1  0.98197900  0.51976700  0.73023200  1
  O  O16  1  0.22842400  0.26033300  0.48947000  1
  O  O17  1  0.72422400  0.76962100  0.98213400  1
  O  O18  1  0.51035400  0.97843700  0.76044200  1
  O  O19  1  0.01965300  0.47415800  0.26780000  1
  F  F20  1  0.23005600  0.73633600  0.50496900  1
  F  F21  1  0.73078100  0.23637700  0.00522900  1
  F  F22  1  0.98627800  0.98002300  0.74512100  1
  F  F23  1  0.48640700  0.48079700  0.24475300  1
  F  F24  1  0.01458800  0.01946000  0.25672000  1
  F  F25  1  0.50994900  0.52080200  0.75631200  1
  F  F26  1  0.77074700  0.25979700  0.49369700  1
  F  F27  1  0.26950600  0.76458900  0.99324900  1
