# generated using pymatgen
data_Li7Mn5O12
_symmetry_space_group_name_H-M   'P 1'
_cell_length_a   6.02815299
_cell_length_b   7.80441570
_cell_length_c   9.77028633
_cell_angle_alpha   94.45605523
_cell_angle_beta   84.19894301
_cell_angle_gamma   104.26536181
_symmetry_Int_Tables_number   1
_chemical_formula_structural   Li7Mn5O12
_chemical_formula_sum   'Li14 Mn10 O24'
_cell_volume   442.53534813
_cell_formula_units_Z   2
loop_
 _symmetry_equiv_pos_site_id
 _symmetry_equiv_pos_as_xyz
  1  'x, y, z'
loop_
 _atom_site_type_symbol
 _atom_site_label
 _atom_site_symmetry_multiplicity
 _atom_site_fract_x
 _atom_site_fract_y
 _atom_site_fract_z
 _atom_site_occupancy
  Li  Li0  1  0.83905500  0.33382800  0.99588200  1
  Li  Li1  1  0.33860900  0.83389400  0.49597200  1
  Li  Li2  1  0.67742700  0.40911200  0.76034900  1
  Li  Li3  1  0.17844900  0.90942600  0.25994400  1
  Li  Li4  1  0.00372800  0.25089000  0.23574900  1
  Li  Li5  1  0.50330900  0.75142000  0.73584900  1
  Li  Li6  1  0.81715900  0.59071200  0.25747800  1
  Li  Li7  1  0.31835900  0.09116100  0.75695300  1
  Li  Li8  1  0.34636500  0.57930900  0.24271000  1
  Li  Li9  1  0.84815300  0.07960200  0.74187800  1
  Li  Li10  1  0.15439200  0.41812800  0.75298900  1
  Li  Li11  1  0.65506400  0.91798600  0.25206300  1
  Li  Li12  1  0.49741400  0.25594500  0.25427200  1
  Li  Li13  1  0.99687800  0.75688100  0.75499200  1
  Mn  Mn14  1  0.83391700  0.83371400  0.50026000  1
  Mn  Mn15  1  0.99182000  0.00362900  0.00340900  1
  Mn  Mn16  1  0.49088600  0.50308100  0.50350200  1
  Mn  Mn17  1  0.67450900  0.65909000  0.99600800  1
  Mn  Mn18  1  0.17613400  0.15956600  0.49552300  1
  Mn  Mn19  1  0.33469000  0.33387400  0.00052300  1
  Mn  Mn20  1  0.49883300  0.00353800  0.00222200  1
  Mn  Mn21  1  0.99737400  0.50437100  0.50340400  1
  Mn  Mn22  1  0.16139800  0.66198800  0.99947300  1
  Mn  Mn23  1  0.66338300  0.16142200  0.49853000  1
  O  O24  1  0.23185000  0.88669500  0.89560100  1
  O  O25  1  0.73124400  0.38646000  0.39602600  1
  O  O26  1  0.40192600  0.79684100  0.11563300  1
  O  O27  1  0.90203700  0.29727600  0.61554000  1
  O  O28  1  0.09050300  0.20063100  0.88757300  1
  O  O29  1  0.59013300  0.70054200  0.38789900  1
  O  O30  1  0.57507000  0.45846100  0.11504000  1
  O  O31  1  0.07527500  0.95877500  0.61433100  1
  O  O32  1  0.93814400  0.54899100  0.87680200  1
  O  O33  1  0.43942900  0.04894100  0.37640900  1
  O  O34  1  0.26546700  0.60651800  0.60762700  1
  O  O35  1  0.76559000  0.10642400  0.10735700  1
  O  O36  1  0.76194300  0.87455500  0.88431200  1
  O  O37  1  0.26170400  0.37472000  0.38429800  1
  O  O38  1  0.90353700  0.79634500  0.11559400  1
  O  O39  1  0.40358700  0.29607100  0.61551200  1
  O  O40  1  0.55014800  0.21047900  0.89538400  1
  O  O41  1  0.04996200  0.71061200  0.39480100  1
  O  O42  1  0.11825200  0.45370400  0.10690400  1
  O  O43  1  0.61771300  0.95338100  0.60740700  1
  O  O44  1  0.43263800  0.53127900  0.88258100  1
  O  O45  1  0.93385900  0.03183000  0.38255400  1
  O  O46  1  0.23124100  0.13387400  0.11756500  1
  O  O47  1  0.73144000  0.63402900  0.61731900  1
