# generated using pymatgen
data_Li2Ti3MnO8
_symmetry_space_group_name_H-M   'P 1'
_cell_length_a   6.03479405
_cell_length_b   17.04561675
_cell_length_c   6.01481461
_cell_angle_alpha   89.99949572
_cell_angle_beta   89.99994713
_cell_angle_gamma   89.69008858
_symmetry_Int_Tables_number   1
_chemical_formula_structural   Li2Ti3MnO8
_chemical_formula_sum   'Li8 Ti12 Mn4 O32'
_cell_volume   618.71559938
_cell_formula_units_Z   4
loop_
 _symmetry_equiv_pos_site_id
 _symmetry_equiv_pos_as_xyz
  1  'x, y, z'
loop_
 _atom_site_type_symbol
 _atom_site_label
 _atom_site_symmetry_multiplicity
 _atom_site_fract_x
 _atom_site_fract_y
 _atom_site_fract_z
 _atom_site_occupancy
  Li  Li0  1  0.23760400  0.55950400  0.00000100  1
  Li  Li1  1  0.73761500  0.80949500  0.49999900  1
  Li  Li2  1  0.23759100  0.05949600  0.00000000  1
  Li  Li3  1  0.73761100  0.30950900  0.50000000  1
  Li  Li4  1  0.00211300  0.75060500  0.99999800  1
  Li  Li5  1  0.50209800  0.00060000  0.49999900  1
  Li  Li6  1  0.00211600  0.25060600  0.99999700  1
  Li  Li7  1  0.50212200  0.50060400  0.49999900  1
  Ti  Ti8  1  0.50509300  0.74943800  0.99999700  1
  Ti  Ti9  1  0.00512800  0.99942800  0.50000200  1
  Ti  Ti10  1  0.50511800  0.24943200  0.99999900  1
  Ti  Ti11  1  0.00506900  0.49942100  0.50000600  1
  Ti  Ti12  1  0.75123300  0.62633800  0.24617700  1
  Ti  Ti13  1  0.25128500  0.87633200  0.74619000  1
  Ti  Ti14  1  0.75127500  0.12633900  0.24618700  1
  Ti  Ti15  1  0.25122700  0.37634900  0.74619700  1
  Ti  Ti16  1  0.75124600  0.62633400  0.75382400  1
  Ti  Ti17  1  0.25129700  0.87633300  0.25381300  1
  Ti  Ti18  1  0.75125900  0.12634100  0.75379600  1
  Ti  Ti19  1  0.25122200  0.37634700  0.25382700  1
  Mn  Mn20  1  0.76354200  0.94104100  0.99998900  1
  Mn  Mn21  1  0.26317300  0.19106300  0.49996100  1
  Mn  Mn22  1  0.76308300  0.44094400  0.00002600  1
  Mn  Mn23  1  0.26330200  0.69092200  0.50014100  1
  O  O24  1  0.52060300  0.62988900  0.99999200  1
  O  O25  1  0.02056400  0.87988900  0.50000000  1
  O  O26  1  0.52056600  0.12988900  0.99999600  1
  O  O27  1  0.02061000  0.37988500  0.49999900  1
  O  O28  1  0.48059500  0.87049600  0.99999600  1
  O  O29  1  0.98059900  0.12049800  0.49999900  1
  O  O30  1  0.48053900  0.37048000  0.00000100  1
  O  O31  1  0.98052500  0.62047900  0.50000100  1
  O  O32  1  0.72872900  0.73904800  0.22899900  1
  O  O33  1  0.22871200  0.98904900  0.72901300  1
  O  O34  1  0.72871500  0.23905300  0.22902000  1
  O  O35  1  0.22872500  0.48904900  0.72900000  1
  O  O36  1  0.72872800  0.73904700  0.77099400  1
  O  O37  1  0.22871100  0.98905100  0.27098100  1
  O  O38  1  0.72871800  0.23905200  0.77098100  1
  O  O39  1  0.22872200  0.48904900  0.27099600  1
  O  O40  1  0.95728800  0.62507700  0.99999000  1
  O  O41  1  0.45730100  0.87507700  0.49999800  1
  O  O42  1  0.95730500  0.12507000  0.99999900  1
  O  O43  1  0.45730800  0.37507000  0.49999900  1
  O  O44  1  0.04092900  0.87255400  0.99999700  1
  O  O45  1  0.54091500  0.12255700  0.49999800  1
  O  O46  1  0.04089200  0.37256800  0.00000000  1
  O  O47  1  0.54087700  0.62255000  0.49991700  1
  O  O48  1  0.26629200  0.76033500  0.22473600  1
  O  O49  1  0.76629600  0.01034800  0.72468800  1
  O  O50  1  0.26629700  0.26035400  0.22462200  1
  O  O51  1  0.76631400  0.51033600  0.72472700  1
  O  O52  1  0.26629700  0.76033400  0.77525900  1
  O  O53  1  0.76629600  0.01034800  0.27530500  1
  O  O54  1  0.26629700  0.26035400  0.77537800  1
  O  O55  1  0.76631700  0.51033900  0.27529600  1
