# generated using pymatgen
data_LiFeSiO4
_symmetry_space_group_name_H-M   'P 1'
_cell_length_a   5.48588200
_cell_length_b   8.26486500
_cell_length_c   18.76245900
_cell_angle_alpha   90.00000000
_cell_angle_beta   90.00000000
_cell_angle_gamma   90.00000000
_symmetry_Int_Tables_number   1
_chemical_formula_structural   LiFeSiO4
_chemical_formula_sum   'Li12 Fe12 Si12 O48'
_cell_volume   850.69128203
_cell_formula_units_Z   12
loop_
 _symmetry_equiv_pos_site_id
 _symmetry_equiv_pos_as_xyz
  1  'x, y, z'
loop_
 _atom_site_type_symbol
 _atom_site_label
 _atom_site_symmetry_multiplicity
 _atom_site_fract_x
 _atom_site_fract_y
 _atom_site_fract_z
 _atom_site_occupancy
  Li  Li0  1  0.48279600  0.17290300  0.41737800  1
  Li  Li1  1  0.01720400  0.67290300  0.41737800  1
  Li  Li2  1  0.50000000  0.82953900  0.25000000  1
  Li  Li3  1  0.00000000  0.32953800  0.25000000  1
  Li  Li4  1  0.51720400  0.17290300  0.08262200  1
  Li  Li5  1  0.98279600  0.67290300  0.08262200  1
  Li  Li6  1  0.48279600  0.82709700  0.91737800  1
  Li  Li7  1  0.01720400  0.32709700  0.91737800  1
  Li  Li8  1  0.50000000  0.17046100  0.75000000  1
  Li  Li9  1  0.00000000  0.67046100  0.75000000  1
  Li  Li10  1  0.51720400  0.82709700  0.58262200  1
  Li  Li11  1  0.98279600  0.32709700  0.58262200  1
  Fe  Fe12  1  0.50000000  0.50000000  0.50000000  1
  Fe  Fe13  1  0.00000000  0.00000000  0.50000000  1
  Fe  Fe14  1  0.99294100  0.00135500  0.33310000  1
  Fe  Fe15  1  0.50705900  0.50135500  0.33310000  1
  Fe  Fe16  1  0.00705900  0.00135500  0.16690000  1
  Fe  Fe17  1  0.49294100  0.50135500  0.16690000  1
  Fe  Fe18  1  0.50000000  0.50000000  0.00000000  1
  Fe  Fe19  1  0.00000000  0.00000000  0.00000000  1
  Fe  Fe20  1  0.99294100  0.99864500  0.83310000  1
  Fe  Fe21  1  0.50705900  0.49864500  0.83310000  1
  Fe  Fe22  1  0.00705900  0.99864500  0.66690000  1
  Fe  Fe23  1  0.49294100  0.49864500  0.66690000  1
  Si  Si24  1  0.49973700  0.84729700  0.41729100  1
  Si  Si25  1  0.00026300  0.34729700  0.41729100  1
  Si  Si26  1  0.50000000  0.15392000  0.25000000  1
  Si  Si27  1  0.00000000  0.65392000  0.25000000  1
  Si  Si28  1  0.50026300  0.84729700  0.08270900  1
  Si  Si29  1  0.99973700  0.34729700  0.08270900  1
  Si  Si30  1  0.49973700  0.15270300  0.91729100  1
  Si  Si31  1  0.00026300  0.65270300  0.91729100  1
  Si  Si32  1  0.50000000  0.84608000  0.75000000  1
  Si  Si33  1  0.00000000  0.34608000  0.75000000  1
  Si  Si34  1  0.50026300  0.15270300  0.58270900  1
  Si  Si35  1  0.99973700  0.65270300  0.58270900  1
  O  O36  1  0.00099600  0.76353200  0.51134700  1
  O  O37  1  0.50099600  0.73646800  0.48865300  1
  O  O38  1  0.99900400  0.23646800  0.48865300  1
  O  O39  1  0.75610400  0.47350000  0.41668900  1
  O  O40  1  0.23833700  0.47180500  0.41688500  1
  O  O41  1  0.26166300  0.97180500  0.41688500  1
  O  O42  1  0.74389600  0.97350000  0.41668900  1
  O  O43  1  0.49281700  0.73469900  0.34624200  1
  O  O44  1  0.00718300  0.23469900  0.34624200  1
  O  O45  1  0.49208200  0.26495600  0.32171700  1
  O  O46  1  0.00791800  0.76495600  0.32171700  1
  O  O47  1  0.23328200  0.52763500  0.25007100  1
  O  O48  1  0.76671800  0.52763500  0.24992900  1
  O  O49  1  0.73328200  0.02763500  0.24992900  1
  O  O50  1  0.26671800  0.02763500  0.25007100  1
  O  O51  1  0.50791800  0.26495600  0.17828300  1
  O  O52  1  0.99208200  0.76495600  0.17828300  1
  O  O53  1  0.50718300  0.73469900  0.15375800  1
  O  O54  1  0.99281700  0.23469900  0.15375800  1
  O  O55  1  0.24389600  0.47350000  0.08331100  1
  O  O56  1  0.76166300  0.47180500  0.08311500  1
  O  O57  1  0.73833700  0.97180500  0.08311500  1
  O  O58  1  0.25610400  0.97350000  0.08331100  1
  O  O59  1  0.49900400  0.73646800  0.01134700  1
  O  O60  1  0.00099600  0.23646800  0.01134700  1
  O  O61  1  0.50099600  0.26353200  0.98865300  1
  O  O62  1  0.99900400  0.76353200  0.98865300  1
  O  O63  1  0.75610400  0.52650000  0.91668900  1
  O  O64  1  0.23833700  0.52819500  0.91688500  1
  O  O65  1  0.26166300  0.02819500  0.91688500  1
  O  O66  1  0.74389600  0.02650000  0.91668900  1
  O  O67  1  0.49281700  0.26530100  0.84624200  1
  O  O68  1  0.00718300  0.76530100  0.84624200  1
  O  O69  1  0.49208200  0.73504400  0.82171700  1
  O  O70  1  0.00791800  0.23504400  0.82171700  1
  O  O71  1  0.76671800  0.47236500  0.74992900  1
  O  O72  1  0.23328200  0.47236500  0.75007100  1
  O  O73  1  0.26671800  0.97236500  0.75007100  1
  O  O74  1  0.73328200  0.97236500  0.74992900  1
  O  O75  1  0.50791800  0.73504400  0.67828300  1
  O  O76  1  0.99208200  0.23504400  0.67828300  1
  O  O77  1  0.50718300  0.26530100  0.65375800  1
  O  O78  1  0.99281700  0.76530100  0.65375800  1
  O  O79  1  0.24389600  0.52650000  0.58331100  1
  O  O80  1  0.76166300  0.52819500  0.58311500  1
  O  O81  1  0.73833700  0.02819500  0.58311500  1
  O  O82  1  0.25610400  0.02650000  0.58331100  1
  O  O83  1  0.49900400  0.26353200  0.51134700  1
