# generated using pymatgen
data_Li5Mn3O8
_symmetry_space_group_name_H-M   'P 1'
_cell_length_a   5.74762293
_cell_length_b   9.06973460
_cell_length_c   5.82511589
_cell_angle_alpha   90.08083096
_cell_angle_beta   90.03288630
_cell_angle_gamma   71.50122678
_symmetry_Int_Tables_number   1
_chemical_formula_structural   Li5Mn3O8
_chemical_formula_sum   'Li10 Mn6 O16'
_cell_volume   287.96962219
_cell_formula_units_Z   2
loop_
 _symmetry_equiv_pos_site_id
 _symmetry_equiv_pos_as_xyz
  1  'x, y, z'
loop_
 _atom_site_type_symbol
 _atom_site_label
 _atom_site_symmetry_multiplicity
 _atom_site_fract_x
 _atom_site_fract_y
 _atom_site_fract_z
 _atom_site_occupancy
  Li  Li0  1  0.12491000  0.25000700  0.25007000  1
  Li  Li1  1  0.62506800  0.24999100  0.24987100  1
  Li  Li2  1  0.87495200  0.74999200  0.75000300  1
  Li  Li3  1  0.37499500  0.74997300  0.75011500  1
  Li  Li4  1  0.12488800  0.24995600  0.75006500  1
  Li  Li5  1  0.62508700  0.25004600  0.74989900  1
  Li  Li6  1  0.48333900  0.04061000  0.50647700  1
  Li  Li7  1  0.98362600  0.04032200  0.50666500  1
  Li  Li8  1  0.76622800  0.45969100  0.99332100  1
  Li  Li9  1  0.26654900  0.45938000  0.99349800  1
  Mn  Mn10  1  0.87506000  0.75002700  0.25001900  1
  Mn  Mn11  1  0.37502800  0.75000400  0.25005000  1
  Mn  Mn12  1  0.48948800  0.01748800  0.99864400  1
  Mn  Mn13  1  0.98907900  0.01756600  0.99864000  1
  Mn  Mn14  1  0.76097000  0.48240700  0.50130800  1
  Mn  Mn15  1  0.26050300  0.48254100  0.50137400  1
  O  O16  1  0.74452800  0.00748800  0.23036100  1
  O  O17  1  0.24485000  0.00676800  0.23038800  1
  O  O18  1  0.00549200  0.49253800  0.26962700  1
  O  O19  1  0.50515800  0.49324400  0.26961600  1
  O  O20  1  0.88451700  0.22808700  0.99772500  1
  O  O21  1  0.38429200  0.22796900  0.99776400  1
  O  O22  1  0.36569400  0.27204500  0.50215900  1
  O  O23  1  0.86549600  0.27189000  0.50221900  1
  O  O24  1  0.63690300  0.72797900  0.47873700  1
  O  O25  1  0.13724000  0.72811900  0.47887000  1
  O  O26  1  0.11324000  0.77202300  0.02124100  1
  O  O27  1  0.61276500  0.77190000  0.02128300  1
  O  O28  1  0.00187300  0.50019600  0.72475600  1
  O  O29  1  0.50183900  0.50024000  0.72455000  1
  O  O30  1  0.74815200  0.99977500  0.77524300  1
  O  O31  1  0.24819300  0.99974000  0.77544000  1
