# generated using pymatgen
data_Li4MnCo2O7
_symmetry_space_group_name_H-M   'P 1'
_cell_length_a   5.15601416
_cell_length_b   7.75801339
_cell_length_c   7.69016612
_cell_angle_alpha   64.43209884
_cell_angle_beta   83.26101742
_cell_angle_gamma   108.89337192
_symmetry_Int_Tables_number   1
_chemical_formula_structural   Li4MnCo2O7
_chemical_formula_sum   'Li8 Mn2 Co4 O14'
_cell_volume   250.34202137
_cell_formula_units_Z   2
loop_
 _symmetry_equiv_pos_site_id
 _symmetry_equiv_pos_as_xyz
  1  'x, y, z'
loop_
 _atom_site_type_symbol
 _atom_site_label
 _atom_site_symmetry_multiplicity
 _atom_site_fract_x
 _atom_site_fract_y
 _atom_site_fract_z
 _atom_site_occupancy
  Li  Li0  1  0.56686512  0.07174260  0.78394561  1
  Li  Li1  1  0.00448954  0.49966033  0.50182177  1
  Li  Li2  1  0.42926980  0.93850646  0.21591695  1
  Li  Li3  1  0.86557246  0.36087825  0.93241034  1
  Li  Li4  1  0.28576730  0.78572395  0.64285898  1
  Li  Li5  1  0.70580015  0.21048659  0.35328513  1
  Li  Li6  1  0.14212291  0.63292727  0.06978218  1
  Li  Li7  1  0.28574046  0.28575392  0.14286226  1
  Mn  Mn8  1  0.00262974  0.00044623  0.00019343  1
  Mn  Mn9  1  0.56882610  0.57098731  0.28549680  1
  Co  Co10  1  0.42166739  0.42762518  0.72587439  1
  Co  Co11  1  0.85773184  0.86332527  0.42766662  1
  Co  Co12  1  0.71373443  0.70811046  0.85802213  1
  Co  Co13  1  0.14977603  0.14382994  0.55984653  1
  O  O14  1  0.12387122  0.89951575  0.82962379  1
  O  O15  1  0.56407373  0.33965846  0.52541026  1
  O  O16  1  0.97544912  0.75503703  0.24174454  1
  O  O17  1  0.39151568  0.16482236  0.96159014  1
  O  O18  1  0.84489918  0.61364306  0.67137881  1
  O  O19  1  0.26873524  0.03402817  0.40795623  1
  O  O20  1  0.71126461  0.48340566  0.10411138  1
  O  O21  1  0.00735354  0.23175808  0.76030255  1
  O  O22  1  0.44760647  0.67191980  0.45608131  1
  O  O23  1  0.86014235  0.08799154  0.18159838  1
  O  O24  1  0.30259119  0.53739406  0.87777919  1
  O  O25  1  0.72653183  0.95773466  0.61435989  1
  O  O26  1  0.17992474  0.40667690  0.32413932  1
  O  O27  1  0.59604784  0.81641071  0.04394110  1
