# generated using pymatgen
data_LiAl2Ru
_symmetry_space_group_name_H-M   'P 1'
_cell_length_a   10.14192077
_cell_length_b   10.14192077
_cell_length_c   10.14192077
_cell_angle_alpha   119.49952601
_cell_angle_beta   119.06370534
_cell_angle_gamma   91.24925344
_symmetry_Int_Tables_number   1
_chemical_formula_structural   LiAl2Ru
_chemical_formula_sum   'Li1 Al2 Ru1'
_cell_volume   745.44669324
_cell_formula_units_Z   1
loop_
 _symmetry_equiv_pos_site_id
 _symmetry_equiv_pos_as_xyz
  1  'x, y, z'
loop_
 _atom_site_type_symbol
 _atom_site_label
 _atom_site_symmetry_multiplicity
 _atom_site_fract_x
 _atom_site_fract_y
 _atom_site_fract_z
 _atom_site_occupancy
  Li  Li0  1  0.00000000  0.00000000  0.00000000  1
  Al  Al1  1  0.72935900  0.00000000  0.72935900  1
  Al  Al2  1  0.27064100  0.00000000  0.27064100  1
  Ru  Ru3  1  0.50000000  0.00000000  0.50000000  1
