# generated using pymatgen
data_LiTi2BiO6
_symmetry_space_group_name_H-M   'P 1'
_cell_length_a   5.57415657
_cell_length_b   5.57415657
_cell_length_c   5.57415699
_cell_angle_alpha   58.15426316
_cell_angle_beta   58.15426316
_cell_angle_gamma   58.15425455
_symmetry_Int_Tables_number   1
_chemical_formula_structural   LiTi2BiO6
_chemical_formula_sum   'Li1 Ti2 Bi1 O6'
_cell_volume   117.28711672
_cell_formula_units_Z   1
loop_
 _symmetry_equiv_pos_site_id
 _symmetry_equiv_pos_as_xyz
  1  'x, y, z'
loop_
 _atom_site_type_symbol
 _atom_site_label
 _atom_site_symmetry_multiplicity
 _atom_site_fract_x
 _atom_site_fract_y
 _atom_site_fract_z
 _atom_site_occupancy
  Li  Li0  1  0.70253800  0.70253800  0.70253800  1
  Ti  Ti1  1  0.98636200  0.98636200  0.98636200  1
  Ti  Ti2  1  0.48596400  0.48596400  0.48596400  1
  Bi  Bi3  1  0.21608400  0.21608400  0.21608400  1
  O  O4  1  0.26334200  0.82248000  0.68330800  1
  O  O5  1  0.82248000  0.68330800  0.26334200  1
  O  O6  1  0.68330800  0.26334200  0.82248000  1
  O  O7  1  0.34508500  0.76630100  0.16273400  1
  O  O8  1  0.16273400  0.34508500  0.76630100  1
  O  O9  1  0.76630100  0.16273400  0.34508500  1
