# generated using pymatgen
data_Li2TiVO4
_symmetry_space_group_name_H-M   'P 1'
_cell_length_a   5.94885167
_cell_length_b   5.98959835
_cell_length_c   10.40435412
_cell_angle_alpha   72.90545077
_cell_angle_beta   73.38166109
_cell_angle_gamma   60.22124490
_symmetry_Int_Tables_number   1
_chemical_formula_structural   Li2TiVO4
_chemical_formula_sum   'Li8 Ti4 V4 O16'
_cell_volume   303.13976931
_cell_formula_units_Z   4
loop_
 _symmetry_equiv_pos_site_id
 _symmetry_equiv_pos_as_xyz
  1  'x, y, z'
loop_
 _atom_site_type_symbol
 _atom_site_label
 _atom_site_symmetry_multiplicity
 _atom_site_fract_x
 _atom_site_fract_y
 _atom_site_fract_z
 _atom_site_occupancy
  Li  Li0  1  0.25044000  0.75048300  0.24868000  1
  Li  Li1  1  0.75017900  0.24951800  0.75010500  1
  Li  Li2  1  0.50004600  0.49972200  0.00021200  1
  Li  Li3  1  0.99894800  0.00145000  0.50061400  1
  Li  Li4  1  0.75033200  0.25216200  0.24885300  1
  Li  Li5  1  0.24939400  0.74752500  0.75073900  1
  Li  Li6  1  0.24865000  0.25218300  0.24886500  1
  Li  Li7  1  0.75235000  0.74750300  0.75073900  1
  Ti  Ti8  1  0.50309200  0.99404200  0.00204800  1
  Ti  Ti9  1  0.99683000  0.50711100  0.49710300  1
  Ti  Ti10  1  0.00081300  0.99405700  0.00203700  1
  Ti  Ti11  1  0.49893600  0.50707900  0.49709600  1
  V  V12  1  0.25253300  0.24585100  0.74907800  1
  V  V13  1  0.49818100  0.00183500  0.50180300  1
  V  V14  1  0.74656500  0.75310600  0.25378900  1
  V  V15  1  0.00334300  0.49619200  0.99714200  1
  O  O16  1  0.37886200  0.85650200  0.38445100  1
  O  O17  1  0.89575900  0.34726700  0.87624500  1
  O  O18  1  0.88020900  0.85651800  0.38445300  1
  O  O19  1  0.38071900  0.34726200  0.87624800  1
  O  O20  1  0.62159600  0.64733200  0.11761500  1
  O  O21  1  0.12049800  0.15081600  0.62209600  1
  O  O22  1  0.11347700  0.64732800  0.11761000  1
  O  O23  1  0.60658000  0.15081700  0.62210700  1
  O  O24  1  0.13487600  0.11416500  0.11610000  1
  O  O25  1  0.63391600  0.61662000  0.61556000  1
  O  O26  1  0.86643100  0.38233300  0.38478000  1
  O  O27  1  0.36660500  0.88460100  0.88217400  1
  O  O28  1  0.63279100  0.11863600  0.11580500  1
  O  O29  1  0.13514200  0.61118900  0.61851800  1
  O  O30  1  0.36508700  0.38631700  0.38348000  1
  O  O31  1  0.86682100  0.88247700  0.88385300  1
