# generated using pymatgen
data_Li6MnV3(PO4)6
_symmetry_space_group_name_H-M   'P 1'
_cell_length_a   8.70498300
_cell_length_b   8.69679300
_cell_length_c   15.02092937
_cell_angle_alpha   55.55830724
_cell_angle_beta   90.00000000
_cell_angle_gamma   90.00000000
_symmetry_Int_Tables_number   1
_chemical_formula_structural   Li6MnV3(PO4)6
_chemical_formula_sum   'Li12 Mn2 V6 P12 O48'
_cell_volume   937.82326047
_cell_formula_units_Z   2
loop_
 _symmetry_equiv_pos_site_id
 _symmetry_equiv_pos_as_xyz
  1  'x, y, z'
loop_
 _atom_site_type_symbol
 _atom_site_label
 _atom_site_symmetry_multiplicity
 _atom_site_fract_x
 _atom_site_fract_y
 _atom_site_fract_z
 _atom_site_occupancy
  Li  Li0  1  0.34201500  0.61576300  0.30287000  1
  Li  Li1  1  0.95486200  0.67542500  0.24313500  1
  Li  Li2  1  0.02535700  0.96852000  0.82199000  1
  Li  Li3  1  0.52442800  0.03256300  0.67770800  1
  Li  Li4  1  0.45146500  0.32556400  0.25756800  1
  Li  Li5  1  0.84553800  0.38164600  0.19759100  1
  Li  Li6  1  0.65798500  0.61576300  0.80287000  1
  Li  Li7  1  0.04513800  0.67542500  0.74313500  1
  Li  Li8  1  0.97464300  0.96852000  0.32199000  1
  Li  Li9  1  0.47557200  0.03256300  0.17770800  1
  Li  Li10  1  0.54853500  0.32556400  0.75756800  1
  Li  Li11  1  0.15446200  0.38164600  0.69759100  1
  Mn  Mn12  1  0.28528400  0.64158900  0.10500500  1
  Mn  Mn13  1  0.71471600  0.64158900  0.60500500  1
  V  V14  1  0.78183700  0.36154100  0.39070700  1
  V  V15  1  0.70900600  0.86543600  0.88835600  1
  V  V16  1  0.20723400  0.13567500  0.61128400  1
  V  V17  1  0.29099400  0.86543600  0.38835600  1
  V  V18  1  0.21816300  0.36154100  0.89070700  1
  V  V19  1  0.79276600  0.13567500  0.11128400  1
  P  P20  1  0.49810300  0.45578400  0.50596300  1
  P  P21  1  0.63751000  0.74751100  0.14625800  1
  P  P22  1  0.34873300  0.04835300  0.84754700  1
  P  P23  1  0.13871300  0.24934700  0.35660000  1
  P  P24  1  0.84720100  0.95433600  0.64844500  1
  P  P25  1  0.00038600  0.54701800  0.99411700  1
  P  P26  1  0.50189700  0.45578400  0.00596300  1
  P  P27  1  0.65126700  0.04835300  0.34754700  1
  P  P28  1  0.36249000  0.74751100  0.64625800  1
  P  P29  1  0.15279900  0.95433600  0.14844500  1
  P  P30  1  0.86128700  0.24934700  0.85660000  1
  P  P31  1  0.99961400  0.54701800  0.49411700  1
  O  O32  1  0.11384400  0.38628200  0.56595000  1
  O  O33  1  0.92325000  0.52963700  0.40700300  1
  O  O34  1  0.84416200  0.09558900  0.83485100  1
  O  O35  1  0.14487700  0.77193900  0.15084600  1
  O  O36  1  0.60983900  0.45980300  0.42561600  1
  O  O37  1  0.66449400  0.82198800  0.02802800  1
  O  O38  1  0.46907100  0.67027000  0.17974400  1
  O  O39  1  0.22616600  0.09381100  0.75876300  1
  O  O40  1  0.51205700  0.03308300  0.81093900  1
  O  O41  1  0.41598600  0.26444900  0.56960400  1
  O  O42  1  0.29701000  0.87639900  0.95272700  1
  O  O43  1  0.75678700  0.58939100  0.21766300  1
  O  O44  1  0.26014500  0.40412800  0.29142800  1
  O  O45  1  0.79841400  0.12735600  0.54190000  1
  O  O46  1  0.91911200  0.73850200  0.93137400  1
  O  O47  1  0.01026000  0.96775000  0.68682100  1
  O  O48  1  0.97152100  0.32856000  0.32045700  1
  O  O49  1  0.72600000  0.91093500  0.73732000  1
  O  O50  1  0.15882500  0.16759500  0.47676000  1
  O  O51  1  0.11267500  0.53494600  0.07772200  1
  O  O52  1  0.64388300  0.22988900  0.34520700  1
  O  O53  1  0.34563600  0.90330700  0.66601100  1
  O  O54  1  0.42446300  0.47127900  0.09413100  1
  O  O55  1  0.61503700  0.61704300  0.93399100  1
  O  O56  1  0.88615600  0.38628200  0.06595000  1
  O  O57  1  0.07675000  0.52963700  0.90700300  1
  O  O58  1  0.15583800  0.09558900  0.33485100  1
  O  O59  1  0.85512300  0.77193900  0.65084600  1
  O  O60  1  0.39016100  0.45980300  0.92561600  1
  O  O61  1  0.33550600  0.82198800  0.52802800  1
  O  O62  1  0.77383400  0.09381100  0.25876300  1
  O  O63  1  0.53092900  0.67027000  0.67974400  1
  O  O64  1  0.48794300  0.03308300  0.31093900  1
  O  O65  1  0.58401400  0.26444900  0.06960400  1
  O  O66  1  0.70299000  0.87639900  0.45272700  1
  O  O67  1  0.24321300  0.58939100  0.71766300  1
  O  O68  1  0.73985500  0.40412800  0.79142800  1
  O  O69  1  0.20158600  0.12735600  0.04190000  1
  O  O70  1  0.08088800  0.73850200  0.43137400  1
  O  O71  1  0.98974000  0.96775000  0.18682100  1
  O  O72  1  0.27400000  0.91093500  0.23732000  1
  O  O73  1  0.02847900  0.32856000  0.82045700  1
  O  O74  1  0.84117500  0.16759500  0.97676000  1
  O  O75  1  0.88732500  0.53494600  0.57772200  1
  O  O76  1  0.35611700  0.22988900  0.84520700  1
  O  O77  1  0.65436400  0.90330700  0.16601100  1
  O  O78  1  0.57553700  0.47127900  0.59413100  1
  O  O79  1  0.38496300  0.61704300  0.43399100  1
