# generated using pymatgen
data_Li6Zn3(PS4)4
_symmetry_space_group_name_H-M   'P 1'
_cell_length_a   9.32777900
_cell_length_b   11.59993600
_cell_length_c   23.15356950
_cell_angle_alpha   89.92955807
_cell_angle_beta   90.00000000
_cell_angle_gamma   90.00000000
_symmetry_Int_Tables_number   1
_chemical_formula_structural   Li6Zn3(PS4)4
_chemical_formula_sum   'Li24 Zn12 P16 S64'
_cell_volume   2505.25228485
_cell_formula_units_Z   4
loop_
 _symmetry_equiv_pos_site_id
 _symmetry_equiv_pos_as_xyz
  1  'x, y, z'
loop_
 _atom_site_type_symbol
 _atom_site_label
 _atom_site_symmetry_multiplicity
 _atom_site_fract_x
 _atom_site_fract_y
 _atom_site_fract_z
 _atom_site_occupancy
  Li  Li0  1  0.25089600  0.36982600  0.18660700  1
  Li  Li1  1  0.25123400  0.37788100  0.93769600  1
  Li  Li2  1  0.75123400  0.62211900  0.06230400  1
  Li  Li3  1  0.75089600  0.63017400  0.81339300  1
  Li  Li4  1  0.49833000  0.87576100  0.56212600  1
  Li  Li5  1  0.49946000  0.37510900  0.56225900  1
  Li  Li6  1  0.50197800  0.87620700  0.31215800  1
  Li  Li7  1  0.50077200  0.37366600  0.31340600  1
  Li  Li8  1  0.99946000  0.62489100  0.43774100  1
  Li  Li9  1  0.99833000  0.12423900  0.43787400  1
  Li  Li10  1  0.49413000  0.87710900  0.06285000  1
  Li  Li11  1  0.50604900  0.37211600  0.06238000  1
  Li  Li12  1  0.99912300  0.62646200  0.18853200  1
  Li  Li13  1  0.99737900  0.12338600  0.18689300  1
  Li  Li14  1  0.49737900  0.87661400  0.81310700  1
  Li  Li15  1  0.49912300  0.37353800  0.81146800  1
  Li  Li16  1  0.00604900  0.62788400  0.93762000  1
  Li  Li17  1  0.99413000  0.12289100  0.93715000  1
  Li  Li18  1  0.00077200  0.62633400  0.68659400  1
  Li  Li19  1  0.00197800  0.12379300  0.68784200  1
  Li  Li20  1  0.50367900  0.12346900  0.18713500  1
  Li  Li21  1  0.49515700  0.62675800  0.93704100  1
  Li  Li22  1  0.99515700  0.37324200  0.06295900  1
  Li  Li23  1  0.00367900  0.87653100  0.81286500  1
  Zn  Zn24  1  0.49953600  0.12402700  0.68833300  1
  Zn  Zn25  1  0.49488100  0.62758800  0.68650700  1
  Zn  Zn26  1  0.49970600  0.12481200  0.43732000  1
  Zn  Zn27  1  0.50115000  0.62540800  0.43769900  1
  Zn  Zn28  1  0.99970600  0.87518800  0.56268000  1
  Zn  Zn29  1  0.00115000  0.37459200  0.56230100  1
  Zn  Zn30  1  0.50207200  0.62499900  0.18878700  1
  Zn  Zn31  1  0.99953600  0.87597300  0.31166700  1
  Zn  Zn32  1  0.99488100  0.37241200  0.31349300  1
  Zn  Zn33  1  0.50461300  0.12260800  0.93739200  1
  Zn  Zn34  1  0.00461300  0.87739200  0.06260800  1
  Zn  Zn35  1  0.00207200  0.37500100  0.81121300  1
  P  P36  1  0.25000100  0.12519500  0.56254100  1
  P  P37  1  0.24981100  0.62495000  0.56232300  1
  P  P38  1  0.24700500  0.12910900  0.31271900  1
  P  P39  1  0.25278200  0.62522300  0.31242400  1
  P  P40  1  0.75000100  0.87480500  0.43745900  1
  P  P41  1  0.74981100  0.37505000  0.43767700  1
  P  P42  1  0.25010400  0.12173900  0.06430000  1
  P  P43  1  0.24986900  0.62802600  0.06105700  1
  P  P44  1  0.75324900  0.87400900  0.18904100  1
  P  P45  1  0.74714900  0.38031700  0.18604400  1
  P  P46  1  0.25324900  0.12599100  0.81095900  1
  P  P47  1  0.24714900  0.61968300  0.81395600  1
  P  P48  1  0.75010400  0.87826100  0.93570000  1
  P  P49  1  0.74986900  0.37197400  0.93894300  1
  P  P50  1  0.74700500  0.87089100  0.68728100  1
  P  P51  1  0.75278200  0.37477700  0.68757600  1
  S  S52  1  0.13616200  0.01987100  0.76077900  1
  S  S53  1  0.13091900  0.51353000  0.75902000  1
  S  S54  1  0.13543400  0.01371900  0.51057100  1
  S  S55  1  0.13521100  0.51366700  0.51029700  1
  S  S56  1  0.63042900  0.76337000  0.63398900  1
  S  S57  1  0.63436700  0.26561700  0.63640500  1
  S  S58  1  0.13493700  0.01607400  0.26054500  1
  S  S59  1  0.13146600  0.51329600  0.26096400  1
  S  S60  1  0.63534600  0.76357700  0.38541800  1
  S  S61  1  0.63629400  0.26349200  0.38563200  1
  S  S62  1  0.13119900  0.01783800  0.01000200  1
  S  S63  1  0.13048100  0.51686100  0.01106600  1
  S  S64  1  0.63255000  0.76306800  0.13548800  1
  S  S65  1  0.63435200  0.27052800  0.13571900  1
  S  S66  1  0.63165700  0.76706600  0.88542300  1
  S  S67  1  0.62912300  0.26787000  0.88541600  1
  S  S68  1  0.36418700  0.72881700  0.50643500  1
  S  S69  1  0.36482900  0.22904300  0.50675200  1
  S  S70  1  0.36370300  0.72981200  0.25633200  1
  S  S71  1  0.36775800  0.23039000  0.25856900  1
  S  S72  1  0.86371100  0.47978800  0.38203200  1
  S  S73  1  0.86488300  0.97845800  0.38171700  1
  S  S74  1  0.37155800  0.72924300  0.01017700  1
  S  S75  1  0.36816900  0.22822600  0.00708400  1
  S  S76  1  0.87252300  0.48442900  0.13436100  1
  S  S77  1  0.86459900  0.97693400  0.13176400  1
  S  S78  1  0.36639800  0.72461300  0.75895600  1
  S  S79  1  0.36969700  0.23245500  0.75705400  1
  S  S80  1  0.86925100  0.47907100  0.88236600  1
  S  S81  1  0.86879900  0.97940600  0.88378000  1
  S  S82  1  0.86548800  0.47938000  0.63192100  1
  S  S83  1  0.86428800  0.97602700  0.63263100  1
  S  S84  1  0.13534600  0.23642300  0.61458200  1
  S  S85  1  0.13629400  0.73650800  0.61436800  1
  S  S86  1  0.13042900  0.23663000  0.36601100  1
  S  S87  1  0.13436700  0.73438300  0.36359500  1
  S  S88  1  0.63543400  0.98628100  0.48942900  1
  S  S89  1  0.63521100  0.48633300  0.48970300  1
  S  S90  1  0.13165700  0.23293400  0.11457700  1
  S  S91  1  0.12912300  0.73213000  0.11458400  1
  S  S92  1  0.63616200  0.98012900  0.23922100  1
  S  S93  1  0.63091900  0.48647000  0.24098000  1
  S  S94  1  0.13255000  0.23693200  0.86451200  1
  S  S95  1  0.13435200  0.72947200  0.86428100  1
  S  S96  1  0.63119900  0.98216200  0.98999800  1
  S  S97  1  0.63048100  0.48313900  0.98893400  1
  S  S98  1  0.63493700  0.98392600  0.73945500  1
  S  S99  1  0.63146600  0.48670400  0.73903600  1
  S  S100  1  0.36488300  0.02154200  0.61828300  1
  S  S101  1  0.36371100  0.52021200  0.61796800  1
  S  S102  1  0.36428800  0.02397300  0.36736900  1
  S  S103  1  0.36548800  0.52062000  0.36807900  1
  S  S104  1  0.86482900  0.77095700  0.49324800  1
  S  S105  1  0.86418700  0.27118300  0.49356500  1
  S  S106  1  0.36879900  0.02059400  0.11622000  1
  S  S107  1  0.36925100  0.52092900  0.11763400  1
  S  S108  1  0.86969700  0.76754500  0.24294600  1
  S  S109  1  0.86639800  0.27538700  0.24104400  1
  S  S110  1  0.36459900  0.02306600  0.86823600  1
  S  S111  1  0.37252300  0.51557100  0.86563900  1
  S  S112  1  0.86816900  0.77177400  0.99291600  1
  S  S113  1  0.87155800  0.27075700  0.98982300  1
  S  S114  1  0.86775800  0.76961000  0.74143100  1
  S  S115  1  0.86370300  0.27018800  0.74366800  1
