# generated using pymatgen
data_Li9Cr4P4(CO7)4
_symmetry_space_group_name_H-M   'P 1'
_cell_length_a   8.17899400
_cell_length_b   8.22918105
_cell_length_c   9.39038974
_cell_angle_alpha   106.55381064
_cell_angle_beta   105.85062973
_cell_angle_gamma   103.70892246
_symmetry_Int_Tables_number   1
_chemical_formula_structural   Li9Cr4P4(CO7)4
_chemical_formula_sum   'Li9 Cr4 P4 C4 O28'
_cell_volume   547.78539965
_cell_formula_units_Z   1
loop_
 _symmetry_equiv_pos_site_id
 _symmetry_equiv_pos_as_xyz
  1  'x, y, z'
loop_
 _atom_site_type_symbol
 _atom_site_label
 _atom_site_symmetry_multiplicity
 _atom_site_fract_x
 _atom_site_fract_y
 _atom_site_fract_z
 _atom_site_occupancy
  Li  Li0  1  0.43518000  0.67990800  0.89460500  1
  Li  Li1  1  0.93920200  0.17876200  0.89639300  1
  Li  Li2  1  0.49532500  0.96106300  0.71890300  1
  Li  Li3  1  0.00195100  0.46562300  0.71871400  1
  Li  Li4  1  0.79658400  0.73911600  0.28716900  1
  Li  Li5  1  0.27977600  0.25619900  0.27152700  1
  Li  Li6  1  0.51127700  0.03274200  0.27264300  1
  Li  Li7  1  0.55981600  0.30593900  0.09226900  1
  Li  Li8  1  0.05783000  0.80838900  0.10363700  1
  Cr  Cr9  1  0.06114400  0.81204200  0.67452600  1
  Cr  Cr10  1  0.56093500  0.31458500  0.67408000  1
  Cr  Cr11  1  0.93758800  0.19088600  0.32504700  1
  Cr  Cr12  1  0.43294800  0.68436500  0.32548200  1
  P  P13  1  0.79989400  0.05560100  0.58073700  1
  P  P14  1  0.30384000  0.55245300  0.58138100  1
  P  P15  1  0.69629500  0.44012200  0.41735600  1
  P  P16  1  0.19831200  0.95167600  0.41363600  1
  C  C17  1  0.75269100  0.51014300  0.95292400  1
  C  C18  1  0.26554100  0.00538500  0.97139000  1
  C  C19  1  0.73693000  0.99690400  0.04602600  1
  C  C20  1  0.24088000  0.49187400  0.04382900  1
  O  O21  1  0.12557100  0.87643600  0.95027400  1
  O  O22  1  0.60943800  0.36986500  0.91757400  1
  O  O23  1  0.62024700  0.90397100  0.90848800  1
  O  O24  1  0.79216800  0.52013600  0.82911900  1
  O  O25  1  0.12253000  0.40269600  0.90598600  1
  O  O26  1  0.29788100  0.02403100  0.84788200  1
  O  O27  1  0.91320400  0.98397700  0.68907900  1
  O  O28  1  0.42756600  0.48613600  0.69167400  1
  O  O29  1  0.70682700  0.14931500  0.68898500  1
  O  O30  1  0.21403200  0.64186900  0.69233100  1
  O  O31  1  0.84800300  0.56846900  0.57205500  1
  O  O32  1  0.91687400  0.19983700  0.53715400  1
  O  O33  1  0.41935700  0.69922600  0.53856500  1
  O  O34  1  0.34774600  0.08236800  0.57464500  1
  O  O35  1  0.65697700  0.90859500  0.42006300  1
  O  O36  1  0.55019000  0.30880900  0.45124700  1
  O  O37  1  0.04851300  0.82342100  0.43624700  1
  O  O38  1  0.16925300  0.40055800  0.42411800  1
  O  O39  1  0.60264500  0.53829000  0.31637300  1
  O  O40  1  0.76000700  0.32197300  0.29707700  1
  O  O41  1  0.28366300  0.84673100  0.30160600  1
  O  O42  1  0.11102400  0.05026600  0.30888400  1
  O  O43  1  0.72121900  0.96753400  0.17426700  1
  O  O44  1  0.84128700  0.62724500  0.09246900  1
  O  O45  1  0.23181400  0.45261600  0.16873000  1
  O  O46  1  0.37472900  0.11942600  0.11458800  1
  O  O47  1  0.38222100  0.63468300  0.07997800  1
  O  O48  1  0.88223200  0.13293700  0.07938000  1
