# generated using pymatgen
data_Li6V3P8O29
_symmetry_space_group_name_H-M   'P 1'
_cell_length_a   9.82938900
_cell_length_b   9.82940113
_cell_length_c   13.96112149
_cell_angle_alpha   89.53605295
_cell_angle_beta   89.30121500
_cell_angle_gamma   60.31782170
_symmetry_Int_Tables_number   1
_chemical_formula_structural   Li6V3P8O29
_chemical_formula_sum   'Li12 V6 P16 O58'
_cell_volume   1171.79859875
_cell_formula_units_Z   2
loop_
 _symmetry_equiv_pos_site_id
 _symmetry_equiv_pos_as_xyz
  1  'x, y, z'
loop_
 _atom_site_type_symbol
 _atom_site_label
 _atom_site_symmetry_multiplicity
 _atom_site_fract_x
 _atom_site_fract_y
 _atom_site_fract_z
 _atom_site_occupancy
  Li  Li0  1  0.90680700  0.32608500  0.55929900  1
  Li  Li1  1  0.66021700  0.66161800  0.38482000  1
  Li  Li2  1  0.66647300  0.65989700  0.88778000  1
  Li  Li3  1  0.31344100  0.91281200  0.06167100  1
  Li  Li4  1  0.91014600  0.77499700  0.06270000  1
  Li  Li5  1  0.23543500  0.10095500  0.43882200  1
  Li  Li6  1  0.76496200  0.91100200  0.56098100  1
  Li  Li7  1  0.08768000  0.22527500  0.93980800  1
  Li  Li8  1  0.68589000  0.09288800  0.94542500  1
  Li  Li9  1  0.10576200  0.66097100  0.43927500  1
  Li  Li10  1  0.22629800  0.68116500  0.94049000  1
  Li  Li11  1  0.99771600  0.00380900  0.49423300  1
  V  V12  1  0.43140000  0.00192600  0.24947500  1
  V  V13  1  0.56223300  0.00392800  0.74947800  1
  V  V14  1  0.99827700  0.43318600  0.74870600  1
  V  V15  1  0.00332900  0.56595300  0.24696300  1
  V  V16  1  0.56537600  0.42950900  0.25209200  1
  V  V17  1  0.43861100  0.56182800  0.74447700  1
  P  P18  1  0.76841300  0.31707900  0.84263200  1
  P  P19  1  0.90885300  0.31557000  0.34152900  1
  P  P20  1  0.30974600  0.77630000  0.34156500  1
  P  P21  1  0.66449300  0.66805800  0.12893500  1
  P  P22  1  0.66835200  0.66778700  0.62710100  1
  P  P23  1  0.31824900  0.90888900  0.84027200  1
  P  P24  1  0.22771200  0.08844600  0.65649000  1
  P  P25  1  0.90675800  0.77066800  0.84323100  1
  P  P26  1  0.08813400  0.23160800  0.15760400  1
  P  P27  1  0.77540700  0.90540000  0.34329900  1
  P  P28  1  0.68462900  0.08753100  0.16078200  1
  P  P29  1  0.32832000  0.33707600  0.37317200  1
  P  P30  1  0.33291700  0.33200800  0.87108500  1
  P  P31  1  0.69284700  0.22518400  0.65518600  1
  P  P32  1  0.08759600  0.68555500  0.65939700  1
  P  P33  1  0.23668900  0.67935100  0.15586600  1
  O  O34  1  0.79346300  0.21552400  0.57118900  1
  O  O35  1  0.74460400  0.33783700  0.34047500  1
  O  O36  1  0.00826100  0.24414700  0.06616300  1
  O  O37  1  0.91611000  0.33946500  0.83985300  1
  O  O38  1  0.62535200  0.48344300  0.82701000  1
  O  O39  1  0.66023100  0.52650200  0.17745200  1
  O  O40  1  0.47233000  0.62789100  0.33591900  1
  O  O41  1  0.24452300  0.75862700  0.06472300  1
  O  O42  1  0.33298400  0.74564700  0.84159100  1
  O  O43  1  0.81504000  0.51356100  0.66355500  1
  O  O44  1  0.89753200  0.47798100  0.33064300  1
  O  O45  1  0.52124400  0.66757000  0.67191100  1
  O  O46  1  0.66414200  0.66755700  0.02133100  1
  O  O47  1  0.67041600  0.66994000  0.51980900  1
  O  O48  1  0.51158900  0.81935300  0.16503000  1
  O  O49  1  0.88153900  0.62927900  0.82540600  1
  O  O50  1  0.81384200  0.67247700  0.16477400  1
  O  O51  1  0.33650800  0.92077500  0.34015700  1
  O  O52  1  0.21070200  0.99769500  0.74934700  1
  O  O53  1  0.22137800  0.01283800  0.56550100  1
  O  O54  1  0.24373700  0.00202800  0.92956400  1
  O  O55  1  0.48533400  0.88665200  0.82354300  1
  O  O56  1  0.67106800  0.81646800  0.66657800  1
  O  O57  1  0.25353400  0.08394700  0.16123900  1
  O  O58  1  0.62699100  0.89062100  0.33144000  1
  O  O59  1  0.92052700  0.73711000  0.33672500  1
  O  O60  1  0.99921200  0.21063600  0.24884600  1
  O  O61  1  0.00073900  0.22532600  0.42913700  1
  O  O62  1  0.99980700  0.76924800  0.57007400  1
  O  O63  1  0.08042500  0.25454000  0.66290800  1
  O  O64  1  0.37992600  0.09452300  0.67061700  1
  O  O65  1  0.74527000  0.92055100  0.84467100  1
  O  O66  1  0.32556500  0.18873600  0.33444800  1
  O  O67  1  0.52584400  0.09220600  0.18193600  1
  O  O68  1  0.75700900  0.99553500  0.07085500  1
  O  O69  1  0.78681500  0.98080900  0.43315900  1
  O  O70  1  0.79347200  0.99415600  0.25102000  1
  O  O71  1  0.66831800  0.08166900  0.65897600  1
  O  O72  1  0.18538100  0.33106500  0.83163700  1
  O  O73  1  0.09870900  0.38131200  0.17976400  1
  O  O74  1  0.48299100  0.18010800  0.82768400  1
  O  O75  1  0.34028000  0.32781500  0.97724200  1
  O  O76  1  0.32383400  0.34198300  0.47964700  1
  O  O77  1  0.47699500  0.33634000  0.32676900  1
  O  O78  1  0.08444000  0.53006800  0.67571700  1
  O  O79  1  0.18501500  0.48976800  0.33161400  1
  O  O80  1  0.66226100  0.25076800  0.16235500  1
  O  O81  1  0.79144900  0.21140300  0.75041000  1
  O  O82  1  0.76110000  0.23331800  0.92927000  1
  O  O83  1  0.53485100  0.37828800  0.66612600  1
  O  O84  1  0.33983600  0.47750100  0.82737100  1
  O  O85  1  0.38052500  0.52072400  0.17280600  1
  O  O86  1  0.08404900  0.66815800  0.15816100  1
  O  O87  1  0.00150500  0.75189500  0.93125100  1
  O  O88  1  0.99656600  0.79116500  0.75146200  1
  O  O89  1  0.25350800  0.65679100  0.66206300  1
  O  O90  1  0.20286900  0.79004200  0.42292400  1
  O  O91  1  0.21734100  0.79410200  0.24329100  1
