# generated using pymatgen
data_Li2Mg
_symmetry_space_group_name_H-M   'P 1'
_cell_length_a   5.83837013
_cell_length_b   5.83837013
_cell_length_c   7.51082844
_cell_angle_alpha   73.57832593
_cell_angle_beta   73.57832593
_cell_angle_gamma   30.17758267
_symmetry_Int_Tables_number   1
_chemical_formula_structural   Li2Mg
_chemical_formula_sum   'Li4 Mg2'
_cell_volume   123.05553466
_cell_formula_units_Z   2
loop_
 _symmetry_equiv_pos_site_id
 _symmetry_equiv_pos_as_xyz
  1  'x, y, z'
loop_
 _atom_site_type_symbol
 _atom_site_label
 _atom_site_symmetry_multiplicity
 _atom_site_fract_x
 _atom_site_fract_y
 _atom_site_fract_z
 _atom_site_occupancy
  Li  Li0  1  0.80446200  0.80446200  0.63946400  1
  Li  Li1  1  0.13976500  0.13976500  0.97034700  1
  Li  Li2  1  0.86023500  0.86023500  0.02965300  1
  Li  Li3  1  0.19553800  0.19553800  0.36053600  1
  Mg  Mg4  1  0.52716600  0.52716600  0.69629100  1
  Mg  Mg5  1  0.47283400  0.47283400  0.30370900  1
