# generated using pymatgen
data_Li2V(OF)2
_symmetry_space_group_name_H-M   'P 1'
_cell_length_a   5.91283377
_cell_length_b   5.97109159
_cell_length_c   10.12085480
_cell_angle_alpha   87.81114115
_cell_angle_beta   106.93296829
_cell_angle_gamma   119.67665438
_symmetry_Int_Tables_number   1
_chemical_formula_structural   Li2V(OF)2
_chemical_formula_sum   'Li8 V4 O8 F8'
_cell_volume   294.57312766
_cell_formula_units_Z   4
loop_
 _symmetry_equiv_pos_site_id
 _symmetry_equiv_pos_as_xyz
  1  'x, y, z'
loop_
 _atom_site_type_symbol
 _atom_site_label
 _atom_site_symmetry_multiplicity
 _atom_site_fract_x
 _atom_site_fract_y
 _atom_site_fract_z
 _atom_site_occupancy
  Li  Li0  1  0.11026100  0.80592900  0.93583500  1
  Li  Li1  1  0.13158800  0.30656600  0.43561800  1
  Li  Li2  1  0.87735400  0.69163400  0.56365100  1
  Li  Li3  1  0.87760400  0.19154200  0.06359600  1
  Li  Li4  1  0.99464900  0.25164300  0.75199400  1
  Li  Li5  1  0.00686400  0.75499800  0.25079800  1
  Li  Li6  1  0.49860000  0.25496500  0.75045400  1
  Li  Li7  1  0.50980100  0.75288900  0.25171800  1
  V  V8  1  0.47781100  0.74894700  0.75003800  1
  V  V9  1  0.51873000  0.99983100  0.49935400  1
  V  V10  1  0.52029900  0.24917500  0.25011800  1
  V  V11  1  0.48129700  0.49956900  0.99929200  1
  O  O12  1  0.28601700  0.87583000  0.63058500  1
  O  O13  1  0.28905700  0.38515900  0.12284900  1
  O  O14  1  0.71932600  0.88585900  0.62321300  1
  O  O15  1  0.72050900  0.37602000  0.13079900  1
  O  O16  1  0.69582300  0.62201200  0.87352800  1
  O  O17  1  0.72781500  0.11403900  0.37136800  1
  O  O18  1  0.25747600  0.61347100  0.87194500  1
  O  O19  1  0.30022400  0.12231600  0.37373900  1
  F  F20  1  0.73078500  0.34505100  0.61993900  1
  F  F21  1  0.73424200  0.84542400  0.12005800  1
  F  F22  1  0.72375800  0.10230300  0.86250500  1
  F  F23  1  0.74114300  0.60313100  0.36233900  1
  F  F24  1  0.26324500  0.39553700  0.63844200  1
  F  F25  1  0.27057500  0.89581800  0.13891400  1
  F  F26  1  0.26000000  0.15441900  0.87852300  1
  F  F27  1  0.27514500  0.65592300  0.37878800  1
