# generated using pymatgen
data_Li6Zn3(PS4)4
_symmetry_space_group_name_H-M   'P 1'
_cell_length_a   9.29458800
_cell_length_b   11.62648006
_cell_length_c   23.16018143
_cell_angle_alpha   89.94696230
_cell_angle_beta   89.98793236
_cell_angle_gamma   89.94148935
_symmetry_Int_Tables_number   1
_chemical_formula_structural   Li6Zn3(PS4)4
_chemical_formula_sum   'Li24 Zn12 P16 S64'
_cell_volume   2502.76417616
_cell_formula_units_Z   4
loop_
 _symmetry_equiv_pos_site_id
 _symmetry_equiv_pos_as_xyz
  1  'x, y, z'
loop_
 _atom_site_type_symbol
 _atom_site_label
 _atom_site_symmetry_multiplicity
 _atom_site_fract_x
 _atom_site_fract_y
 _atom_site_fract_z
 _atom_site_occupancy
  Li  Li0  1  0.74543200  0.50569500  0.12587200  1
  Li  Li1  1  0.75000500  0.99457900  0.12738400  1
  Li  Li2  1  0.24840100  0.24077100  0.24900200  1
  Li  Li3  1  0.24830200  0.25009400  0.00016100  1
  Li  Li4  1  0.50381800  0.50153200  0.75073900  1
  Li  Li5  1  0.50163000  0.99767000  0.74937300  1
  Li  Li6  1  0.50141300  0.49967500  0.50074100  1
  Li  Li7  1  0.50582600  0.99681500  0.50184500  1
  Li  Li8  1  0.00349300  0.24961100  0.62555200  1
  Li  Li9  1  0.00621700  0.75201800  0.62419700  1
  Li  Li10  1  0.49248600  0.50316500  0.25164700  1
  Li  Li11  1  0.50020700  0.99663900  0.24983900  1
  Li  Li12  1  0.99769300  0.24830800  0.37809500  1
  Li  Li13  1  0.00386000  0.74938300  0.37609200  1
  Li  Li14  1  0.50057500  0.50496800  0.99965500  1
  Li  Li15  1  0.50406000  0.99856500  0.99579100  1
  Li  Li16  1  0.99093500  0.24889100  0.12441500  1
  Li  Li17  1  0.01745500  0.74898200  0.12721900  1
  Li  Li18  1  0.98684600  0.25163100  0.87134000  1
  Li  Li19  1  0.00481600  0.75332700  0.87365700  1
  Li  Li20  1  0.49926000  0.74790700  0.87503000  1
  Li  Li21  1  0.48229600  0.75089600  0.12417800  1
  Li  Li22  1  0.50301700  0.25057000  0.12545800  1
  Li  Li23  1  0.99894800  0.99968600  0.25263300  1
  Zn  Zn24  1  0.50340900  0.25050100  0.87223100  1
  Zn  Zn25  1  0.50055700  0.75097600  0.62594000  1
  Zn  Zn26  1  0.49725500  0.25015100  0.62505600  1
  Zn  Zn27  1  0.99891500  0.50132600  0.74839700  1
  Zn  Zn28  1  0.99738900  0.99980200  0.75025900  1
  Zn  Zn29  1  0.50031300  0.75171500  0.37419100  1
  Zn  Zn30  1  0.50700300  0.24878700  0.37767700  1
  Zn  Zn31  1  0.99863300  0.50118600  0.50105200  1
  Zn  Zn32  1  0.00014200  0.00028700  0.50077400  1
  Zn  Zn33  1  0.99914100  0.50082900  0.25110200  1
  Zn  Zn34  1  0.99905400  0.50045300  0.99734000  1
  Zn  Zn35  1  0.00141000  0.99690300  0.99984100  1
  P  P36  1  0.75170500  0.74611300  0.74880000  1
  P  P37  1  0.74904700  0.25056500  0.74879400  1
  P  P38  1  0.75008300  0.74916700  0.49969800  1
  P  P39  1  0.75104100  0.24995800  0.50072600  1
  P  P40  1  0.25108900  0.49975800  0.62473400  1
  P  P41  1  0.25020100  0.00003200  0.62510600  1
  P  P42  1  0.74952500  0.75270400  0.25198900  1
  P  P43  1  0.74860400  0.25681700  0.24813200  1
  P  P44  1  0.24796900  0.49897500  0.37485800  1
  P  P45  1  0.25464800  0.00546200  0.37637700  1
  P  P46  1  0.75185200  0.74936100  0.00155400  1
  P  P47  1  0.74791500  0.24484300  0.00007200  1
  P  P48  1  0.24860900  0.49352900  0.12441500  1
  P  P49  1  0.25100300  0.00252700  0.12454200  1
  P  P50  1  0.25143700  0.49649000  0.87656300  1
  P  P51  1  0.24647400  0.00380900  0.87307900  1
  S  S52  1  0.87275700  0.64366100  0.94852200  1
  S  S53  1  0.87122500  0.14092700  0.94833500  1
  S  S54  1  0.87265000  0.64084800  0.69523300  1
  S  S55  1  0.86446400  0.13964800  0.69709500  1
  S  S56  1  0.36286000  0.38628900  0.82264100  1
  S  S57  1  0.36573700  0.89778900  0.82422700  1
  S  S58  1  0.86463600  0.63763300  0.44758700  1
  S  S59  1  0.86198900  0.13713600  0.44835800  1
  S  S60  1  0.36387000  0.38806900  0.57212900  1
  S  S61  1  0.36336800  0.88791900  0.57292500  1
  S  S62  1  0.86973200  0.64005000  0.19814500  1
  S  S63  1  0.86676600  0.14516800  0.19812500  1
  S  S64  1  0.36831400  0.38577600  0.32367300  1
  S  S65  1  0.36441300  0.89246200  0.32336700  1
  S  S66  1  0.36774100  0.38790200  0.07171800  1
  S  S67  1  0.37197500  0.90363900  0.07186600  1
  S  S68  1  0.63212200  0.35386000  0.69369900  1
  S  S69  1  0.63961500  0.85377800  0.69287900  1
  S  S70  1  0.64041100  0.35645900  0.44451000  1
  S  S71  1  0.63611200  0.85333700  0.44373500  1
  S  S72  1  0.13603400  0.10455900  0.56922100  1
  S  S73  1  0.13797800  0.60432800  0.56851800  1
  S  S74  1  0.62703600  0.36251200  0.19634700  1
  S  S75  1  0.62981200  0.85063300  0.19571100  1
  S  S76  1  0.13317700  0.10806700  0.32295300  1
  S  S77  1  0.13905300  0.60401100  0.31817700  1
  S  S78  1  0.63159100  0.35068100  0.94620600  1
  S  S79  1  0.63995100  0.85095900  0.94764100  1
  S  S80  1  0.12597300  0.11023300  0.06955600  1
  S  S81  1  0.12355400  0.59594700  0.07180000  1
  S  S82  1  0.12684100  0.10912300  0.81989300  1
  S  S83  1  0.13106300  0.59773100  0.82163000  1
  S  S84  1  0.86522000  0.85976400  0.80097300  1
  S  S85  1  0.85954000  0.36461400  0.80035600  1
  S  S86  1  0.86451800  0.86053300  0.55165800  1
  S  S87  1  0.86674500  0.36025900  0.55263100  1
  S  S88  1  0.36546600  0.61028800  0.67688000  1
  S  S89  1  0.36475500  0.11110600  0.67703800  1
  S  S90  1  0.86966200  0.85356200  0.30308200  1
  S  S91  1  0.87071000  0.35881900  0.30230100  1
  S  S92  1  0.36700100  0.60809300  0.42559700  1
  S  S93  1  0.37406300  0.11098300  0.42955400  1
  S  S94  1  0.87779000  0.85657100  0.05531600  1
  S  S95  1  0.86580800  0.35988100  0.05165100  1
  S  S96  1  0.36175900  0.60002900  0.17570400  1
  S  S97  1  0.37002200  0.11063300  0.17720100  1
  S  S98  1  0.35970500  0.60439200  0.92844100  1
  S  S99  1  0.36669000  0.11585500  0.92644000  1
  S  S100  1  0.63865200  0.64527400  0.80312200  1
  S  S101  1  0.63871900  0.14451400  0.80515200  1
  S  S102  1  0.63452000  0.64634100  0.55532900  1
  S  S103  1  0.63521800  0.14706500  0.55611700  1
  S  S104  1  0.13726800  0.39558800  0.68045200  1
  S  S105  1  0.13570500  0.89717700  0.68097500  1
  S  S106  1  0.62911500  0.64527300  0.30407200  1
  S  S107  1  0.62980300  0.15188700  0.30231700  1
  S  S108  1  0.13346600  0.39628200  0.43047100  1
  S  S109  1  0.13759600  0.90035900  0.43067700  1
  S  S110  1  0.63377000  0.64670600  0.05642200  1
  S  S111  1  0.63058900  0.14233700  0.05411800  1
  S  S112  1  0.12370900  0.38886700  0.17970100  1
  S  S113  1  0.12648000  0.90449200  0.17649900  1
  S  S114  1  0.12436200  0.38809900  0.92954000  1
  S  S115  1  0.13733700  0.89880400  0.93058000  1
