# generated using pymatgen
data_Sr2LiO12
_symmetry_space_group_name_H-M   'P 1'
_cell_length_a   4.98675212
_cell_length_b   6.03470296
_cell_length_c   8.08158804
_cell_angle_alpha   101.62138199
_cell_angle_beta   72.08957698
_cell_angle_gamma   110.41503769
_symmetry_Int_Tables_number   1
_chemical_formula_structural   Sr2LiO12
_chemical_formula_sum   'Sr2 Li1 O12'
_cell_volume   215.66988050
_cell_formula_units_Z   1
loop_
 _symmetry_equiv_pos_site_id
 _symmetry_equiv_pos_as_xyz
  1  'x, y, z'
loop_
 _atom_site_type_symbol
 _atom_site_label
 _atom_site_symmetry_multiplicity
 _atom_site_fract_x
 _atom_site_fract_y
 _atom_site_fract_z
 _atom_site_occupancy
  Sr  Sr0  1  0.85672200  0.84086300  0.75258600  1
  Sr  Sr1  1  0.14327800  0.15913700  0.24741400  1
  Li  Li2  1  0.00000000  0.50000000  0.00000000  1
  O  O3  1  0.16438900  0.86285400  0.96178400  1
  O  O4  1  0.99365800  0.23428900  0.60404200  1
  O  O5  1  0.83561100  0.13714600  0.03821600  1
  O  O6  1  0.00634200  0.76571100  0.39595800  1
  O  O7  1  0.37009600  0.94602800  0.81327900  1
  O  O8  1  0.02160800  0.43472500  0.70589900  1
  O  O9  1  0.62990400  0.05397200  0.18672100  1
  O  O10  1  0.97839200  0.56527500  0.29410100  1
  O  O11  1  0.49646100  0.59311800  0.55177500  1
  O  O12  1  0.44292900  0.52621400  0.94476600  1
  O  O13  1  0.50353900  0.40688200  0.44822500  1
  O  O14  1  0.55707100  0.47378600  0.05523400  1
