# generated using pymatgen
data_Li7Mn4(P2O7)4
_symmetry_space_group_name_H-M   'P 1'
_cell_length_a   9.86777300
_cell_length_b   9.89260006
_cell_length_c   11.36929925
_cell_angle_alpha   102.54337788
_cell_angle_beta   90.18497580
_cell_angle_gamma   90.14587197
_symmetry_Int_Tables_number   1
_chemical_formula_structural   Li7Mn4(P2O7)4
_chemical_formula_sum   'Li14 Mn8 P16 O56'
_cell_volume   1083.34584842
_cell_formula_units_Z   2
loop_
 _symmetry_equiv_pos_site_id
 _symmetry_equiv_pos_as_xyz
  1  'x, y, z'
loop_
 _atom_site_type_symbol
 _atom_site_label
 _atom_site_symmetry_multiplicity
 _atom_site_fract_x
 _atom_site_fract_y
 _atom_site_fract_z
 _atom_site_occupancy
  Li  Li0  1  0.27996300  0.11376400  0.44877600  1
  Li  Li1  1  0.59179600  0.18632300  0.55541500  1
  Li  Li2  1  0.89298400  0.08550900  0.02851900  1
  Li  Li3  1  0.08965300  0.34634500  0.95651300  1
  Li  Li4  1  0.59119900  0.15546400  0.04129500  1
  Li  Li5  1  0.39275700  0.41306900  0.97050100  1
  Li  Li6  1  0.05857500  0.35694600  0.47439500  1
  Li  Li7  1  0.94142500  0.64305400  0.52560500  1
  Li  Li8  1  0.60724300  0.58693100  0.02949900  1
  Li  Li9  1  0.40880100  0.84453600  0.95870500  1
  Li  Li10  1  0.91034700  0.65365500  0.04348700  1
  Li  Li11  1  0.10701600  0.91449100  0.97148100  1
  Li  Li12  1  0.40820400  0.81367700  0.44458500  1
  Li  Li13  1  0.72003700  0.88623600  0.55122400  1
  Mn  Mn14  1  0.07683300  0.20133000  0.67232700  1
  Mn  Mn15  1  0.78621300  0.25336000  0.82086700  1
  Mn  Mn16  1  0.28458000  0.24904800  0.17905600  1
  Mn  Mn17  1  0.57968700  0.30116100  0.32961000  1
  Mn  Mn18  1  0.42031300  0.69883900  0.67039000  1
  Mn  Mn19  1  0.71542000  0.75095200  0.82094400  1
  Mn  Mn20  1  0.21378700  0.74664000  0.17913300  1
  Mn  Mn21  1  0.92316700  0.79867000  0.32767300  1
  P  P22  1  0.54361100  0.02205300  0.75693300  1
  P  P23  1  0.29641000  0.11794800  0.89189500  1
  P  P24  1  0.06853200  0.06105300  0.24334300  1
  P  P25  1  0.84798600  0.12359600  0.42193900  1
  P  P26  1  0.35043300  0.37899800  0.57783700  1
  P  P27  1  0.56441200  0.43914300  0.75742800  1
  P  P28  1  0.95480300  0.52293600  0.75782800  1
  P  P29  1  0.79476300  0.38074000  0.10772300  1
  P  P30  1  0.20523700  0.61926000  0.89227700  1
  P  P31  1  0.04519700  0.47706400  0.24217200  1
  P  P32  1  0.43558800  0.56085700  0.24257200  1
  P  P33  1  0.64956700  0.62100200  0.42216300  1
  P  P34  1  0.15201400  0.87640400  0.57806100  1
  P  P35  1  0.93146800  0.93894700  0.75665700  1
  P  P36  1  0.70359000  0.88205200  0.10810500  1
  P  P37  1  0.45638900  0.97794700  0.24306700  1
  O  O38  1  0.58554200  0.02557600  0.62970500  1
  O  O39  1  0.16984100  0.02510300  0.56117600  1
  O  O40  1  0.91320900  0.08452100  0.73013300  1
  O  O41  1  0.63655900  0.10258100  0.85649600  1
  O  O42  1  0.39765000  0.09519400  0.77573600  1
  O  O43  1  0.17117700  0.18343200  0.84816900  1
  O  O44  1  0.36889400  0.22070500  0.99764100  1
  O  O45  1  0.72276800  0.02136000  0.07731900  1
  O  O46  1  0.91954400  0.11447100  0.29195900  1
  O  O47  1  0.06579600  0.06421400  0.11071700  1
  O  O48  1  0.47348300  0.13151500  0.22465800  1
  O  O49  1  0.70538100  0.18385400  0.40843400  1
  O  O50  1  0.17579100  0.16306100  0.31120000  1
  O  O51  1  0.93905900  0.21435400  0.51481100  1
  O  O52  1  0.43672400  0.27926000  0.48547900  1
  O  O53  1  0.66814800  0.33404400  0.69289900  1
  O  O54  1  0.20790000  0.31838900  0.58065700  1
  O  O55  1  0.96928000  0.37596000  0.78713100  1
  O  O56  1  0.41604600  0.38068100  0.70891400  1
  O  O57  1  0.56256300  0.44367600  0.89103200  1
  O  O58  1  0.22435400  0.48059800  0.92542300  1
  O  O59  1  0.86289600  0.27578800  0.00181700  1
  O  O60  1  0.66889000  0.31756100  0.15338900  1
  O  O61  1  0.89746900  0.40279000  0.22089900  1
  O  O62  1  0.42209600  0.41433600  0.27317900  1
  O  O63  1  0.13836100  0.38981100  0.14601400  1
  O  O64  1  0.92318800  0.52032000  0.62829700  1
  O  O65  1  0.65186200  0.46987900  0.43501700  1
  O  O66  1  0.34813800  0.53012100  0.56498300  1
  O  O67  1  0.07681200  0.47968000  0.37170300  1
  O  O68  1  0.86163900  0.61018900  0.85398600  1
  O  O69  1  0.57790400  0.58566400  0.72682100  1
  O  O70  1  0.10253100  0.59721000  0.77910100  1
  O  O71  1  0.33111000  0.68243900  0.84661100  1
  O  O72  1  0.13710400  0.72421200  0.99818300  1
  O  O73  1  0.77564600  0.51940200  0.07457700  1
  O  O74  1  0.43743700  0.55632400  0.10896800  1
  O  O75  1  0.58395400  0.61931900  0.29108600  1
  O  O76  1  0.03072000  0.62404000  0.21286900  1
  O  O77  1  0.79210000  0.68161100  0.41934300  1
  O  O78  1  0.33185200  0.66595600  0.30710100  1
  O  O79  1  0.56327600  0.72074000  0.51452100  1
  O  O80  1  0.06094100  0.78564600  0.48518900  1
  O  O81  1  0.82420900  0.83693900  0.68880000  1
  O  O82  1  0.29461900  0.81614600  0.59156500  1
  O  O83  1  0.52651700  0.86848500  0.77534200  1
  O  O84  1  0.93420400  0.93578600  0.88928300  1
  O  O85  1  0.08045600  0.88552900  0.70804100  1
  O  O86  1  0.27723200  0.97864000  0.92268100  1
  O  O87  1  0.63110600  0.77929500  0.00235900  1
  O  O88  1  0.82882300  0.81656800  0.15183100  1
  O  O89  1  0.60235000  0.90480600  0.22426400  1
  O  O90  1  0.36344100  0.89741900  0.14350400  1
  O  O91  1  0.08679100  0.91547900  0.26986700  1
  O  O92  1  0.83015900  0.97489700  0.43882400  1
  O  O93  1  0.41445800  0.97442400  0.37029500  1
