# generated using pymatgen
data_LiGa2Ag
_symmetry_space_group_name_H-M   'P 1'
_cell_length_a   10.60932152
_cell_length_b   10.60932152
_cell_length_c   10.60932152
_cell_angle_alpha   120.29908633
_cell_angle_beta   119.79427769
_cell_angle_gamma   89.91972013
_symmetry_Int_Tables_number   1
_chemical_formula_structural   LiGa2Ag
_chemical_formula_sum   'Li1 Ga2 Ag1'
_cell_volume   843.78203400
_cell_formula_units_Z   1
loop_
 _symmetry_equiv_pos_site_id
 _symmetry_equiv_pos_as_xyz
  1  'x, y, z'
loop_
 _atom_site_type_symbol
 _atom_site_label
 _atom_site_symmetry_multiplicity
 _atom_site_fract_x
 _atom_site_fract_y
 _atom_site_fract_z
 _atom_site_occupancy
  Li  Li0  1  0.00000000  0.00000000  0.00000000  1
  Ga  Ga1  1  0.00000000  0.25755700  0.25755700  1
  Ga  Ga2  1  0.00000000  0.74244300  0.74244300  1
  Ag  Ag3  1  0.00000000  0.50000000  0.50000000  1
