# generated using pymatgen
data_LiC2S2NO5F6
_symmetry_space_group_name_H-M   'P 1'
_cell_length_a   9.54899700
_cell_length_b   11.59879260
_cell_length_c   18.49541260
_cell_angle_alpha   100.38451480
_cell_angle_beta   90.07918694
_cell_angle_gamma   99.87000991
_symmetry_Int_Tables_number   1
_chemical_formula_structural   LiC2S2NO5F6
_chemical_formula_sum   'Li8 C16 S16 N8 O40 F48'
_cell_volume   1984.01512471
_cell_formula_units_Z   8
loop_
 _symmetry_equiv_pos_site_id
 _symmetry_equiv_pos_as_xyz
  1  'x, y, z'
loop_
 _atom_site_type_symbol
 _atom_site_label
 _atom_site_symmetry_multiplicity
 _atom_site_fract_x
 _atom_site_fract_y
 _atom_site_fract_z
 _atom_site_occupancy
  Li  Li0  1  0.00000000  0.00000000  0.00000000  1
  Li  Li1  1  0.50000000  0.00000000  0.00000000  1
  Li  Li2  1  0.53901500  0.00820000  0.79883700  1
  Li  Li3  1  0.46098500  0.99180000  0.20116300  1
  Li  Li4  1  0.50000000  0.00000000  0.50000000  1
  Li  Li5  1  0.00000000  0.00000000  0.50000000  1
  Li  Li6  1  0.03919800  0.01036600  0.70148100  1
  Li  Li7  1  0.96080200  0.98963400  0.29851900  1
  C  C8  1  0.19665000  0.65148300  0.94670200  1
  C  C9  1  0.80335000  0.34851700  0.05329800  1
  C  C10  1  0.18326200  0.69306700  0.71778000  1
  C  C11  1  0.81673800  0.30693300  0.28222000  1
  C  C12  1  0.43139300  0.33331000  0.75863400  1
  C  C13  1  0.56860700  0.66669000  0.24136600  1
  C  C14  1  0.34186100  0.30770300  0.98334700  1
  C  C15  1  0.65813900  0.69229700  0.01665300  1
  C  C16  1  0.68487400  0.68933900  0.71116100  1
  C  C17  1  0.31512600  0.31066100  0.28883900  1
  C  C18  1  0.70440500  0.65045500  0.47157600  1
  C  C19  1  0.29559500  0.34954500  0.52842400  1
  C  C20  1  0.92830900  0.33331500  0.81614900  1
  C  C21  1  0.07169100  0.66668500  0.18385100  1
  C  C22  1  0.83652500  0.30721100  0.58351700  1
  C  C23  1  0.16347500  0.69278900  0.41648300  1
  S  S24  1  0.20062000  0.81049600  0.93743800  1
  S  S25  1  0.79938000  0.18950400  0.06256200  1
  S  S26  1  0.22556100  0.83427000  0.78788800  1
  S  S27  1  0.77443900  0.16573000  0.21211200  1
  S  S28  1  0.33137300  0.18180500  0.76537500  1
  S  S29  1  0.66862700  0.81819500  0.23462500  1
  S  S30  1  0.30461500  0.16050900  0.91800200  1
  S  S31  1  0.69538500  0.83949100  0.08199800  1
  S  S32  1  0.72559100  0.83076100  0.67296300  1
  S  S33  1  0.27440900  0.16923900  0.32703700  1
  S  S34  1  0.70229800  0.80835200  0.51816000  1
  S  S35  1  0.29770200  0.19164800  0.48184000  1
  S  S36  1  0.82898300  0.18212200  0.77402100  1
  S  S37  1  0.17101700  0.81787800  0.22597900  1
  S  S38  1  0.80389200  0.16059700  0.61683000  1
  S  S39  1  0.19610800  0.83940300  0.38317000  1
  N  N40  1  0.14100700  0.80047500  0.85658500  1
  N  N41  1  0.85899300  0.19952500  0.14341500  1
  N  N42  1  0.27030100  0.20163000  0.84495000  1
  N  N43  1  0.72969900  0.79837000  0.15505000  1
  N  N44  1  0.64230800  0.79473800  0.59611600  1
  N  N45  1  0.35769200  0.20526200  0.40388400  1
  N  N46  1  0.76753800  0.20208500  0.69886000  1
  N  N47  1  0.23246200  0.79791500  0.30114000  1
  O  O48  1  0.34856500  0.86580800  0.95300800  1
  O  O49  1  0.65143500  0.13419200  0.04699200  1
  O  O50  1  0.09641000  0.85184900  0.98830300  1
  O  O51  1  0.90359000  0.14815100  0.01169700  1
  O  O52  1  0.15858100  0.91757900  0.75622900  1
  O  O53  1  0.84141900  0.08242100  0.24377100  1
  O  O54  1  0.37941900  0.85947300  0.79742300  1
  O  O55  1  0.62058100  0.14052700  0.20257700  1
  O  O56  1  0.21677600  0.15988600  0.71071000  1
  O  O57  1  0.78322400  0.84011400  0.28929000  1
  O  O58  1  0.43596500  0.10412000  0.75297200  1
  O  O59  1  0.56403500  0.89588000  0.24702800  1
  O  O60  1  0.43342700  0.10829600  0.92022000  1
  O  O61  1  0.56657300  0.89170400  0.07978000  1
  O  O62  1  0.17797700  0.09683800  0.94593300  1
  O  O63  1  0.82202300  0.90316200  0.05406700  1
  O  O64  1  0.65633900  0.91304400  0.72288700  1
  O  O65  1  0.34366100  0.08695600  0.27711300  1
  O  O66  1  0.87937600  0.85855100  0.66997200  1
  O  O67  1  0.12062400  0.14144900  0.33002800  1
  O  O68  1  0.84938500  0.86657300  0.51641300  1
  O  O69  1  0.15061500  0.13342700  0.48358700  1
  O  O70  1  0.59697200  0.84902600  0.47685300  1
  O  O71  1  0.40302800  0.15097400  0.52314700  1
  O  O72  1  0.71466200  0.15873800  0.82348000  1
  O  O73  1  0.28533800  0.84126200  0.17652000  1
  O  O74  1  0.93459400  0.10528900  0.76864300  1
  O  O75  1  0.06540600  0.89471100  0.23135700  1
  O  O76  1  0.67880200  0.09411100  0.57405200  1
  O  O77  1  0.32119800  0.90588900  0.42594800  1
  O  O78  1  0.93440300  0.11057400  0.60395400  1
  O  O79  1  0.06559700  0.88942600  0.39604600  1
  O  O80  1  0.80100800  0.93118800  0.89930500  1
  O  O81  1  0.19899200  0.06881200  0.10069500  1
  O  O82  1  0.68104100  0.95572400  0.89776900  1
  O  O83  1  0.31895900  0.04427600  0.10223100  1
  O  O84  1  0.30437100  0.93264600  0.58729100  1
  O  O85  1  0.69562900  0.06735400  0.41270900  1
  O  O86  1  0.18250300  0.95352600  0.59089600  1
  O  O87  1  0.81749700  0.04647400  0.40910400  1
  F  F88  1  0.06217500  0.59156200  0.93638800  1
  F  F89  1  0.93782500  0.40843800  0.06361200  1
  F  F90  1  0.27974000  0.60082400  0.89582600  1
  F  F91  1  0.72026000  0.39917600  0.10417400  1
  F  F92  1  0.24657000  0.64726000  0.01410000  1
  F  F93  1  0.75343000  0.35274000  0.98590000  1
  F  F94  1  0.23909600  0.60480600  0.73837200  1
  F  F95  1  0.76090400  0.39519400  0.26162800  1
  F  F96  1  0.04146400  0.65930900  0.70812000  1
  F  F97  1  0.95853600  0.34069100  0.29188000  1
  F  F98  1  0.23987900  0.71540800  0.65358100  1
  F  F99  1  0.76012100  0.28459200  0.34641900  1
  F  F100  1  0.48277400  0.33116700  0.69067400  1
  F  F101  1  0.51722600  0.66883300  0.30932600  1
  F  F102  1  0.34361200  0.41353400  0.77156600  1
  F  F103  1  0.65638800  0.58646600  0.22843400  1
  F  F104  1  0.54075000  0.36506200  0.80839600  1
  F  F105  1  0.45925000  0.63493800  0.19160400  1
  F  F106  1  0.44630500  0.38223200  0.95814700  1
  F  F107  1  0.55369500  0.61776800  0.04185300  1
  F  F108  1  0.22394900  0.35730100  0.99113600  1
  F  F109  1  0.77605100  0.64269900  0.00886400  1
  F  F110  1  0.38324200  0.28901600  0.04973300  1
  F  F111  1  0.61675800  0.71098400  0.95026700  1
  F  F112  1  0.54315000  0.65405800  0.71237100  1
  F  F113  1  0.45685000  0.34594200  0.28762900  1
  F  F114  1  0.74025400  0.71251100  0.78070700  1
  F  F115  1  0.25974600  0.28748900  0.21929300  1
  F  F116  1  0.74257000  0.60157400  0.67115800  1
  F  F117  1  0.25743000  0.39842600  0.32884200  1
  F  F118  1  0.76187500  0.64955700  0.40504900  1
  F  F119  1  0.23812500  0.35044300  0.59495100  1
  F  F120  1  0.57115400  0.58817100  0.46371200  1
  F  F121  1  0.42884600  0.41182900  0.53628800  1
  F  F122  1  0.78425500  0.59951400  0.51282700  1
  F  F123  1  0.21574500  0.40048600  0.48717300  1
  F  F124  1  0.98289600  0.32751800  0.88233700  1
  F  F125  1  0.01710400  0.67248200  0.11766300  1
  F  F126  1  0.03521600  0.36711800  0.77281400  1
  F  F127  1  0.96478400  0.63288200  0.22718600  1
  F  F128  1  0.84043100  0.41386000  0.82444100  1
  F  F129  1  0.15956900  0.58614000  0.17555900  1
  F  F130  1  0.88342700  0.28849500  0.51394900  1
  F  F131  1  0.11657300  0.71150500  0.48605100  1
  F  F132  1  0.71480400  0.35070100  0.58332100  1
  F  F133  1  0.28519600  0.64929900  0.41667900  1
  F  F134  1  0.93499900  0.38681100  0.62675900  1
  F  F135  1  0.06500100  0.61318900  0.37324100  1
