# generated using pymatgen
data_Li4CrTe(WO6)2
_symmetry_space_group_name_H-M   'P 1'
_cell_length_a   7.55439726
_cell_length_b   7.56218095
_cell_length_c   7.55320391
_cell_angle_alpha   86.65510705
_cell_angle_beta   93.26888384
_cell_angle_gamma   93.42188691
_symmetry_Int_Tables_number   1
_chemical_formula_structural   Li4CrTe(WO6)2
_chemical_formula_sum   'Li8 Cr2 Te2 W4 O24'
_cell_volume   429.37316513
_cell_formula_units_Z   2
loop_
 _symmetry_equiv_pos_site_id
 _symmetry_equiv_pos_as_xyz
  1  'x, y, z'
loop_
 _atom_site_type_symbol
 _atom_site_label
 _atom_site_symmetry_multiplicity
 _atom_site_fract_x
 _atom_site_fract_y
 _atom_site_fract_z
 _atom_site_occupancy
  Li  Li0  1  0.20048100  0.79155000  0.26595100  1
  Li  Li1  1  0.70264600  0.29398000  0.26941200  1
  Li  Li2  1  0.72059400  0.78171000  0.81043200  1
  Li  Li3  1  0.23019300  0.27583000  0.79768500  1
  Li  Li4  1  0.70832600  0.29667700  0.80960400  1
  Li  Li5  1  0.20788700  0.79906100  0.80482900  1
  Li  Li6  1  0.28313800  0.21674000  0.19889700  1
  Li  Li7  1  0.74595700  0.74342500  0.23618900  1
  Cr  Cr8  1  0.99613100  0.00059500  0.99880500  1
  Cr  Cr9  1  0.49461700  0.50132900  0.99786800  1
  Te  Te10  1  0.99992500  0.50146200  0.50423600  1
  Te  Te11  1  0.49427800  0.01172900  0.51737200  1
  W  W12  1  0.99703600  0.01090400  0.49783700  1
  W  W13  1  0.49849500  0.50746700  0.50312800  1
  W  W14  1  0.49660400  0.99270000  0.00725900  1
  W  W15  1  0.99888800  0.49594100  0.00385300  1
  O  O16  1  0.94534900  0.74595700  0.42843900  1
  O  O17  1  0.44022700  0.25398400  0.42696900  1
  O  O18  1  0.93900300  0.94306500  0.73489800  1
  O  O19  1  0.44617600  0.42853800  0.73972300  1
  O  O20  1  0.74295100  0.93446700  0.05180200  1
  O  O21  1  0.24094400  0.43700100  0.04580400  1
  O  O22  1  0.77642200  0.08089600  0.41816900  1
  O  O23  1  0.24791200  0.57053600  0.43909100  1
  O  O24  1  0.44892400  0.75624300  0.92166300  1
  O  O25  1  0.94245500  0.25625800  0.94515500  1
  O  O26  1  0.56975700  0.07642400  0.75927900  1
  O  O27  1  0.06506100  0.56141200  0.74595500  1
  O  O28  1  0.42694900  0.92312900  0.23535700  1
  O  O29  1  0.93905400  0.43964500  0.25736500  1
  O  O30  1  0.54624500  0.24195600  0.06128900  1
  O  O31  1  0.05710100  0.74147800  0.04384100  1
  O  O32  1  0.24397700  0.94254700  0.57455900  1
  O  O33  1  0.75654100  0.41884800  0.55536500  1
  O  O34  1  0.25164200  0.05237000  0.93731600  1
  O  O35  1  0.75452500  0.54593300  0.94584400  1
  O  O36  1  0.07650900  0.03915200  0.25752100  1
  O  O37  1  0.55595400  0.55147500  0.25744400  1
  O  O38  1  0.07635100  0.25829500  0.56279100  1
  O  O39  1  0.59237000  0.72169200  0.57340900  1
