# generated using pymatgen
data_LiMo3P3O16
_symmetry_space_group_name_H-M   'P 1'
_cell_length_a   6.46572400
_cell_length_b   7.93133907
_cell_length_c   12.70976072
_cell_angle_alpha   79.64448454
_cell_angle_beta   77.88179171
_cell_angle_gamma   81.01570860
_symmetry_Int_Tables_number   1
_chemical_formula_structural   LiMo3P3O16
_chemical_formula_sum   'Li2 Mo6 P6 O32'
_cell_volume   622.10570768
_cell_formula_units_Z   2
loop_
 _symmetry_equiv_pos_site_id
 _symmetry_equiv_pos_as_xyz
  1  'x, y, z'
loop_
 _atom_site_type_symbol
 _atom_site_label
 _atom_site_symmetry_multiplicity
 _atom_site_fract_x
 _atom_site_fract_y
 _atom_site_fract_z
 _atom_site_occupancy
  Li  Li0  1  0.58067900  0.35006000  0.31894800  1
  Li  Li1  1  0.41932100  0.64994000  0.68105200  1
  Mo  Mo2  1  0.96196100  0.79867700  0.84787800  1
  Mo  Mo3  1  0.03803900  0.20132300  0.15212200  1
  Mo  Mo4  1  0.60196200  0.24972400  0.83448000  1
  Mo  Mo5  1  0.39803800  0.75027600  0.16552000  1
  Mo  Mo6  1  0.79294900  0.78770300  0.47293300  1
  Mo  Mo7  1  0.20705100  0.21229700  0.52706700  1
  P  P8  1  0.94558800  0.50932900  0.68745200  1
  P  P9  1  0.05441200  0.49067100  0.31254800  1
  P  P10  1  0.69266600  0.15990700  0.56685300  1
  P  P11  1  0.30733400  0.84009300  0.43314700  1
  P  P12  1  0.43994900  0.84448700  0.88950900  1
  P  P13  1  0.56005100  0.15551300  0.11049100  1
  O  O14  1  0.62487800  0.21415500  0.67975700  1
  O  O15  1  0.37512200  0.78584500  0.32024300  1
  O  O16  1  0.85732500  0.38282800  0.78879800  1
  O  O17  1  0.14267500  0.61717200  0.21120200  1
  O  O18  1  0.43426900  0.04036800  0.88259700  1
  O  O19  1  0.56573100  0.95963200  0.11740300  1
  O  O20  1  0.62847600  0.24172200  0.99285000  1
  O  O21  1  0.37152400  0.75827800  0.00715000  1
  O  O22  1  0.40928700  0.42314600  0.82580400  1
  O  O23  1  0.59071300  0.57685400  0.17419600  1
  O  O24  1  0.66413500  0.76098100  0.83771500  1
  O  O25  1  0.33586500  0.23901900  0.16228500  1
  O  O26  1  0.20706600  0.05286500  0.63668400  1
  O  O27  1  0.79293400  0.94713500  0.36331600  1
  O  O28  1  0.90399500  0.22598800  0.50714400  1
  O  O29  1  0.09600500  0.77401200  0.49285600  1
  O  O30  1  0.52853400  0.24894600  0.49358700  1
  O  O31  1  0.47146600  0.75105400  0.50641300  1
  O  O32  1  0.29222600  0.03850100  0.41715800  1
  O  O33  1  0.70777400  0.96149900  0.58284200  1
  O  O34  1  0.13206000  0.41869900  0.61219800  1
  O  O35  1  0.86794000  0.58130100  0.38780200  1
  O  O36  1  0.23508200  0.39798500  0.37218900  1
  O  O37  1  0.76491800  0.60201500  0.62781100  1
  O  O38  1  0.06071500  0.28575200  0.01812900  1
  O  O39  1  0.93928500  0.71424800  0.98187100  1
  O  O40  1  0.94910100  0.35597600  0.26891500  1
  O  O41  1  0.05089900  0.64402400  0.73108500  1
  O  O42  1  0.71589700  0.19564600  0.17982700  1
  O  O43  1  0.28410300  0.80435400  0.82017300  1
  O  O44  1  0.12244600  0.97828600  0.15809100  1
  O  O45  1  0.87755400  0.02171400  0.84190900  1
