# generated using pymatgen
data_Li9Mn7O16
_symmetry_space_group_name_H-M   'P 1'
_cell_length_a   11.32866852
_cell_length_b   11.32866852
_cell_length_c   9.78860729
_cell_angle_alpha   71.48932117
_cell_angle_beta   71.48932117
_cell_angle_gamma   14.60392790
_symmetry_Int_Tables_number   1
_chemical_formula_structural   Li9Mn7O16
_chemical_formula_sum   'Li9 Mn7 O16'
_cell_volume   300.08373163
_cell_formula_units_Z   1
loop_
 _symmetry_equiv_pos_site_id
 _symmetry_equiv_pos_as_xyz
  1  'x, y, z'
loop_
 _atom_site_type_symbol
 _atom_site_label
 _atom_site_symmetry_multiplicity
 _atom_site_fract_x
 _atom_site_fract_y
 _atom_site_fract_z
 _atom_site_occupancy
  Li  Li0  1  0.93800100  0.93800100  0.80348600  1
  Li  Li1  1  0.06199900  0.06199900  0.19651400  1
  Li  Li2  1  0.18227800  0.18227800  0.56105600  1
  Li  Li3  1  0.55882800  0.55882800  0.68340000  1
  Li  Li4  1  0.68616400  0.68616400  0.06108200  1
  Li  Li5  1  0.81772200  0.81772200  0.43894400  1
  Li  Li6  1  0.31383600  0.31383600  0.93891800  1
  Li  Li7  1  0.44117200  0.44117200  0.31660000  1
  Li  Li8  1  0.00000000  0.00000000  0.50000000  1
  Mn  Mn9  1  0.38270100  0.38270100  0.62376400  1
  Mn  Mn10  1  0.61729900  0.61729900  0.37623600  1
  Mn  Mn11  1  0.50000000  0.50000000  0.00000000  1
  Mn  Mn12  1  0.75388700  0.75388700  0.74760900  1
  Mn  Mn13  1  0.87387700  0.87387700  0.12972700  1
  Mn  Mn14  1  0.12612300  0.12612300  0.87027300  1
  Mn  Mn15  1  0.24611300  0.24611300  0.25239100  1
  O  O16  1  0.84970400  0.84970400  0.76411700  1
  O  O17  1  0.97428500  0.97428500  0.14484900  1
  O  O18  1  0.09645300  0.09645300  0.51696400  1
  O  O19  1  0.45859100  0.45859100  0.65336000  1
  O  O20  1  0.60011100  0.60011100  0.01222300  1
  O  O21  1  0.71337200  0.71337200  0.39468500  1
  O  O22  1  0.22546700  0.22546700  0.89009500  1
  O  O23  1  0.34588100  0.34588100  0.27377200  1
  O  O24  1  0.02571500  0.02571500  0.85515100  1
  O  O25  1  0.15029600  0.15029600  0.23588300  1
  O  O26  1  0.28662800  0.28662800  0.60531500  1
  O  O27  1  0.65411900  0.65411900  0.72622800  1
  O  O28  1  0.77453300  0.77453300  0.10990500  1
  O  O29  1  0.90354700  0.90354700  0.48303600  1
  O  O30  1  0.39988900  0.39988900  0.98777700  1
  O  O31  1  0.54140900  0.54140900  0.34664000  1
