# generated using pymatgen
data_NaLi9Fe10(SiO3)20
_symmetry_space_group_name_H-M   'P 1'
_cell_length_a   9.49639061
_cell_length_b   9.49639061
_cell_length_c   15.72150392
_cell_angle_alpha   71.62624402
_cell_angle_beta   71.62624402
_cell_angle_gamma   55.06976946
_symmetry_Int_Tables_number   1
_chemical_formula_structural   NaLi9Fe10(SiO3)20
_chemical_formula_sum   'Na1 Li9 Fe10 Si20 O60'
_cell_volume   1086.45157000
_cell_formula_units_Z   1
loop_
 _symmetry_equiv_pos_site_id
 _symmetry_equiv_pos_as_xyz
  1  'x, y, z'
loop_
 _atom_site_type_symbol
 _atom_site_label
 _atom_site_symmetry_multiplicity
 _atom_site_fract_x
 _atom_site_fract_y
 _atom_site_fract_z
 _atom_site_occupancy
  Na  Na0  1  0.13896800  0.86103200  0.50000000  1
  Li  Li1  1  0.68632500  0.51354000  0.60004800  1
  Li  Li2  1  0.48646000  0.31367500  0.39995200  1
  Li  Li3  1  0.08624600  0.91375400  0.00000000  1
  Li  Li4  1  0.51376900  0.28625500  0.89999900  1
  Li  Li5  1  0.88622300  0.71387000  0.80004500  1
  Li  Li6  1  0.31360100  0.08608500  0.70006300  1
  Li  Li7  1  0.91391500  0.68639900  0.29993700  1
  Li  Li8  1  0.28613000  0.11377700  0.19995500  1
  Li  Li9  1  0.71374500  0.48623100  0.10000100  1
  Fe  Fe10  1  0.05007400  0.15018500  0.60052400  1
  Fe  Fe11  1  0.74882900  0.25117100  0.50000000  1
  Fe  Fe12  1  0.84981500  0.94992600  0.39947600  1
  Fe  Fe13  1  0.45133400  0.54866600  0.00000000  1
  Fe  Fe14  1  0.14859700  0.65118700  0.90039100  1
  Fe  Fe15  1  0.25126800  0.34845300  0.80031000  1
  Fe  Fe16  1  0.94877000  0.45153300  0.70010800  1
  Fe  Fe17  1  0.54846700  0.05123000  0.29989200  1
  Fe  Fe18  1  0.65154700  0.74873200  0.19969000  1
  Fe  Fe19  1  0.34881300  0.85140300  0.09960900  1
  Si  Si20  1  0.03454500  0.51525800  0.47923800  1
  Si  Si21  1  0.48474200  0.96545500  0.52076200  1
  Si  Si22  1  0.11355500  0.23741800  0.37901900  1
  Si  Si23  1  0.56590100  0.68539400  0.42006000  1
  Si  Si24  1  0.51534200  0.63418200  0.77956800  1
  Si  Si25  1  0.96550300  0.08541100  0.82065500  1
  Si  Si26  1  0.23467500  0.71406200  0.68155900  1
  Si  Si27  1  0.68535100  0.16523600  0.72093700  1
  Si  Si28  1  0.31460600  0.43409900  0.57994000  1
  Si  Si29  1  0.76258200  0.88644500  0.62098100  1
  Si  Si30  1  0.63465600  0.11460300  0.07928100  1
  Si  Si31  1  0.08539600  0.56540800  0.12070100  1
  Si  Si32  1  0.71456800  0.83464600  0.97925800  1
  Si  Si33  1  0.16535400  0.28543200  0.02074200  1
  Si  Si34  1  0.43459200  0.91460400  0.87929900  1
  Si  Si35  1  0.88539700  0.36534400  0.92071900  1
  Si  Si36  1  0.83476400  0.31464900  0.27906300  1
  Si  Si37  1  0.28593800  0.76532500  0.31844100  1
  Si  Si38  1  0.91458900  0.03449700  0.17934500  1
  Si  Si39  1  0.36581800  0.48465800  0.22043200  1
  O  O40  1  0.57313400  0.04649000  0.42618500  1
  O  O41  1  0.89761000  0.71312500  0.43807400  1
  O  O42  1  0.10257800  0.40568100  0.39695600  1
  O  O43  1  0.28687500  0.10239000  0.56192600  1
  O  O44  1  0.95351000  0.42686600  0.57381500  1
  O  O45  1  0.49690000  0.79725200  0.50156300  1
  O  O46  1  0.70114500  0.48831900  0.46228400  1
  O  O47  1  0.02105700  0.16296300  0.47425200  1
  O  O48  1  0.39754300  0.69854300  0.40005600  1
  O  O49  1  0.08618600  0.90303500  0.35605700  1
  O  O50  1  0.04627900  0.17496800  0.72647300  1
  O  O51  1  0.75321900  0.22680100  0.37358000  1
  O  O52  1  0.71306000  0.49778900  0.73795100  1
  O  O53  1  0.40524600  0.69969300  0.69817300  1
  O  O54  1  0.77319900  0.24678100  0.62642000  1
  O  O55  1  0.09696500  0.91381400  0.64394300  1
  O  O56  1  0.30145700  0.60245700  0.59994400  1
  O  O57  1  0.89884300  0.19644000  0.90206100  1
  O  O58  1  0.83703700  0.97894300  0.52574800  1
  O  O59  1  0.51168100  0.29885500  0.53771600  1
  O  O60  1  0.10215300  0.88744500  0.86220600  1
  O  O61  1  0.42648800  0.55322100  0.87391500  1
  O  O62  1  0.20274800  0.50310000  0.49843700  1
  O  O63  1  0.79619800  0.09910600  0.80225300  1
  O  O64  1  0.48732700  0.30206300  0.76221600  1
  O  O65  1  0.15351900  0.62454800  0.77497300  1
  O  O66  1  0.69822900  0.99634900  0.70250100  1
  O  O67  1  0.80356000  0.10115700  0.09793900  1
  O  O68  1  0.90205700  0.68861000  0.66150600  1
  O  O69  1  0.17373200  0.64666500  0.02619600  1
  O  O70  1  0.22599600  0.35302100  0.67410900  1
  O  O71  1  0.49788800  0.31251200  0.03785200  1
  O  O72  1  0.59431900  0.89742200  0.60304400  1
  O  O73  1  0.70113400  0.00348500  0.99801900  1
  O  O74  1  0.24685800  0.37347000  0.92628700  1
  O  O75  1  0.91244600  0.69801000  0.93787900  1
  O  O76  1  0.60346300  0.90116400  0.89799900  1
  O  O77  1  0.19644000  0.49876900  0.20197400  1
  O  O78  1  0.97348400  0.44690600  0.82617800  1
  O  O79  1  0.29789500  0.11242700  0.83788700  1
  O  O80  1  0.88757300  0.70210500  0.16211300  1
  O  O81  1  0.55309400  0.02651600  0.17382200  1
  O  O82  1  0.50123100  0.80356000  0.79802600  1
  O  O83  1  0.09883600  0.39653700  0.10200100  1
  O  O84  1  0.30199000  0.08755400  0.06212100  1
  O  O85  1  0.62653000  0.75314200  0.07371300  1
  O  O86  1  0.99651500  0.29886600  0.00198100  1
  O  O87  1  0.68748800  0.50211200  0.96214700  1
  O  O88  1  0.64697900  0.77400400  0.32589100  1
  O  O89  1  0.35333500  0.82626800  0.97380400  1
  O  O90  1  0.31139000  0.09794300  0.33849400  1
  O  O91  1  0.00365100  0.30177100  0.29749900  1
  O  O92  1  0.37545200  0.84648100  0.22502700  1
  O  O93  1  0.69793700  0.51267300  0.23778400  1
  O  O94  1  0.90089400  0.20380200  0.19774700  1
  O  O95  1  0.44677900  0.57351200  0.12608500  1
  O  O96  1  0.11255500  0.89784700  0.13779400  1
  O  O97  1  0.30030700  0.59475400  0.30182700  1
  O  O98  1  0.50221100  0.28694000  0.26204900  1
  O  O99  1  0.82503200  0.95372100  0.27352700  1
