# generated using pymatgen
data_Li3V3O8
_symmetry_space_group_name_H-M   'P 1'
_cell_length_a   5.92106725
_cell_length_b   5.90887860
_cell_length_c   10.22788283
_cell_angle_alpha   106.19732479
_cell_angle_beta   90.00004282
_cell_angle_gamma   120.06822018
_symmetry_Int_Tables_number   1
_chemical_formula_structural   Li3V3O8
_chemical_formula_sum   'Li6 V6 O16'
_cell_volume   293.15873530
_cell_formula_units_Z   2
loop_
 _symmetry_equiv_pos_site_id
 _symmetry_equiv_pos_as_xyz
  1  'x, y, z'
loop_
 _atom_site_type_symbol
 _atom_site_label
 _atom_site_symmetry_multiplicity
 _atom_site_fract_x
 _atom_site_fract_y
 _atom_site_fract_z
 _atom_site_occupancy
  Li  Li0  1  0.43586600  0.87173400  0.31409200  1
  Li  Li1  1  0.93587200  0.87174700  0.81408500  1
  Li  Li2  1  0.00240400  0.50296800  0.99853100  1
  Li  Li3  1  0.50241000  0.50298800  0.49852600  1
  Li  Li4  1  0.50056400  0.50296900  0.99853100  1
  Li  Li5  1  0.00057800  0.50298800  0.49852600  1
  V  V6  1  0.56244300  0.12488500  0.68757200  1
  V  V7  1  0.47993200  0.95986900  0.00358700  1
  V  V8  1  0.97996800  0.95994100  0.50359300  1
  V  V9  1  0.06240700  0.12481200  0.18753200  1
  V  V10  1  0.24645100  0.49289800  0.77006600  1
  V  V11  1  0.74644500  0.49288400  0.27012300  1
  O  O12  1  0.11794400  0.23588600  0.36527600  1
  O  O13  1  0.61795400  0.23590700  0.86529700  1
  O  O14  1  0.38469500  0.76939000  0.63207800  1
  O  O15  1  0.88465500  0.76931100  0.13205800  1
  O  O16  1  0.36914400  0.24843800  0.62577800  1
  O  O17  1  0.86914700  0.24842300  0.12577000  1
  O  O18  1  0.87929500  0.24843800  0.62577800  1
  O  O19  1  0.37927800  0.24842400  0.12577000  1
  O  O20  1  0.13817300  0.27634600  0.86649500  1
  O  O21  1  0.63814600  0.27629100  0.36650700  1
  O  O22  1  0.38347200  0.76694300  0.11182400  1
  O  O23  1  0.88346700  0.76693400  0.61181100  1
  O  O24  1  0.59390700  0.74964000  0.87519700  1
  O  O25  1  0.09391800  0.74965100  0.37519700  1
  O  O26  1  0.15573200  0.74964100  0.87519700  1
  O  O27  1  0.65573300  0.74965100  0.37519600  1
