# generated using pymatgen
data_Li4V3Cr3(FeO8)2
_symmetry_space_group_name_H-M   'P 1'
_cell_length_a   5.87859800
_cell_length_b   5.91286538
_cell_length_c   9.59104913
_cell_angle_alpha   90.57032068
_cell_angle_beta   89.80619501
_cell_angle_gamma   119.61809167
_symmetry_Int_Tables_number   1
_chemical_formula_structural   Li4V3Cr3(FeO8)2
_chemical_formula_sum   'Li4 V3 Cr3 Fe2 O16'
_cell_volume   289.80428216
_cell_formula_units_Z   1
loop_
 _symmetry_equiv_pos_site_id
 _symmetry_equiv_pos_as_xyz
  1  'x, y, z'
loop_
 _atom_site_type_symbol
 _atom_site_label
 _atom_site_symmetry_multiplicity
 _atom_site_fract_x
 _atom_site_fract_y
 _atom_site_fract_z
 _atom_site_occupancy
  Li  Li0  1  0.32786400  0.66665200  0.10921600  1
  Li  Li1  1  0.00173500  0.00195800  0.00281700  1
  Li  Li2  1  0.99975400  0.99773500  0.50427700  1
  Li  Li3  1  0.66142900  0.33791200  0.60745300  1
  V  V4  1  0.82275400  0.65839000  0.28442100  1
  V  V5  1  0.17346900  0.82936000  0.78481000  1
  V  V6  1  0.33932200  0.16248100  0.28630300  1
  Cr  Cr7  1  0.66159400  0.83181400  0.78607600  1
  Cr  Cr8  1  0.16870600  0.33875900  0.78617300  1
  Cr  Cr9  1  0.83171800  0.16999200  0.28639400  1
  Fe  Fe10  1  0.33987300  0.66154400  0.50859000  1
  Fe  Fe11  1  0.68001200  0.33452400  0.00786100  1
  O  O12  1  0.67444000  0.83567600  0.40035900  1
  O  O13  1  0.47724000  0.52186900  0.65986300  1
  O  O14  1  0.32352200  0.67815900  0.89616000  1
  O  O15  1  0.00580000  0.99356200  0.69126700  1
  O  O16  1  0.00042700  0.99419700  0.18910900  1
  O  O17  1  0.17527400  0.32048900  0.39705200  1
  O  O18  1  0.46587400  0.96397000  0.66463300  1
  O  O19  1  0.03627900  0.53379600  0.66474700  1
  O  O20  1  0.83853600  0.16212600  0.90256300  1
  O  O21  1  0.15625300  0.82727400  0.39413500  1
  O  O22  1  0.96019000  0.47945800  0.16154200  1
  O  O23  1  0.50552500  0.04057000  0.16411700  1
  O  O24  1  0.66692800  0.33895900  0.39714800  1
  O  O25  1  0.85029100  0.67526000  0.89491900  1
  O  O26  1  0.52782400  0.49254200  0.16483600  1
  O  O27  1  0.32766300  0.15127300  0.89531700  1
