# generated using pymatgen
data_Li4V3P8O29
_symmetry_space_group_name_H-M   'P 1'
_cell_length_a   9.77016100
_cell_length_b   9.77491024
_cell_length_c   14.18947616
_cell_angle_alpha   89.92762067
_cell_angle_beta   90.41976434
_cell_angle_gamma   119.97987232
_symmetry_Int_Tables_number   1
_chemical_formula_structural   Li4V3P8O29
_chemical_formula_sum   'Li8 V6 P16 O58'
_cell_volume   1173.77869273
_cell_formula_units_Z   2
loop_
 _symmetry_equiv_pos_site_id
 _symmetry_equiv_pos_as_xyz
  1  'x, y, z'
loop_
 _atom_site_type_symbol
 _atom_site_label
 _atom_site_symmetry_multiplicity
 _atom_site_fract_x
 _atom_site_fract_y
 _atom_site_fract_z
 _atom_site_occupancy
  Li  Li0  1  0.23323900  0.90753900  0.44069500  1
  Li  Li1  1  0.09523200  0.33233800  0.44000000  1
  Li  Li2  1  0.23284500  0.32027100  0.94109300  1
  Li  Li3  1  0.68231600  0.90621500  0.94360700  1
  Li  Li4  1  0.66419100  0.76571300  0.43904000  1
  Li  Li5  1  0.30794600  0.08083200  0.06191700  1
  Li  Li6  1  0.90589500  0.22352400  0.06268100  1
  Li  Li7  1  0.99472300  0.99783700  0.49211400  1
  V  V8  1  0.43891100  0.43507100  0.74502500  1
  V  V9  1  0.56894500  0.56848200  0.24982400  1
  V  V10  1  0.43030700  0.99531900  0.25463500  1
  V  V11  1  0.56547700  0.00303900  0.74678900  1
  V  V12  1  0.99951800  0.56750900  0.75255800  1
  V  V13  1  0.00188400  0.43916600  0.25030200  1
  P  P14  1  0.08266600  0.77094200  0.15502400  1
  P  P15  1  0.22165400  0.91231900  0.66055400  1
  P  P16  1  0.08516500  0.31210700  0.65846100  1
  P  P17  1  0.33638100  0.66554900  0.86838600  1
  P  P18  1  0.33679200  0.66493900  0.37243000  1
  P  P19  1  0.23162200  0.31917700  0.15706700  1
  P  P20  1  0.30729300  0.22489400  0.34019000  1
  P  P21  1  0.67771600  0.90997800  0.15831200  1
  P  P22  1  0.31921400  0.09158500  0.84202500  1
  P  P23  1  0.68879400  0.77551800  0.65580600  1
  P  P24  1  0.77607200  0.68837800  0.83793700  1
  P  P25  1  0.66891200  0.33434300  0.63225500  1
  P  P26  1  0.66023400  0.32837900  0.13290800  1
  P  P27  1  0.91783800  0.69668700  0.34011400  1
  P  P28  1  0.77882000  0.08583500  0.33876100  1
  P  P29  1  0.91216100  0.22697700  0.84044800  1
  O  O30  1  0.00468400  0.80457300  0.42129400  1
  O  O31  1  0.08340500  0.74091500  0.67034000  1
  O  O32  1  0.24819100  0.01309000  0.93199100  1
  O  O33  1  0.25367200  0.91610800  0.16576000  1
  O  O34  1  0.09405300  0.61920900  0.17940000  1
  O  O35  1  0.18468300  0.65869900  0.82270000  1
  O  O36  1  0.08223300  0.46710900  0.67298400  1
  O  O37  1  0.00118900  0.23578600  0.92904200  1
  O  O38  1  0.08219600  0.33484000  0.15905100  1
  O  O39  1  0.32032100  0.80857700  0.33594700  1
  O  O40  1  0.38097500  0.91219900  0.67468500  1
  O  O41  1  0.19190000  0.50955900  0.33457400  1
  O  O42  1  0.33506800  0.65947800  0.97282900  1
  O  O43  1  0.35376700  0.66772700  0.47747600  1
  O  O44  1  0.33892600  0.51817500  0.82518000  1
  O  O45  1  0.51722000  0.89580500  0.17792200  1
  O  O46  1  0.48249600  0.81930800  0.82858800  1
  O  O47  1  0.25769800  0.34466300  0.67023400  1
  O  O48  1  0.21389300  0.20162100  0.24084400  1
  O  O49  1  0.20015500  0.21105500  0.41904300  1
  O  O50  1  0.24651900  0.24854100  0.06627900  1
  O  O51  1  0.38084500  0.48057100  0.17870900  1
  O  O52  1  0.49156100  0.67804700  0.32675700  1
  O  O53  1  0.34219900  0.26101300  0.83649600  1
  O  O54  1  0.53075400  0.61740400  0.67079000  1
  O  O55  1  0.65567200  0.91370700  0.67180100  1
  O  O56  1  0.20746200  0.00294100  0.75134600  1
  O  O57  1  0.21377800  0.98562000  0.57039100  1
  O  O58  1  0.79624000  0.99476400  0.41830600  1
  O  O59  1  0.34029400  0.08534800  0.34285500  1
  O  O60  1  0.46206800  0.38521700  0.33072100  1
  O  O61  1  0.66173400  0.74403000  0.16712300  1
  O  O62  1  0.51710100  0.32934400  0.67638200  1
  O  O63  1  0.62144000  0.52807000  0.82003900  1
  O  O64  1  0.76953500  0.77726900  0.91968800  1
  O  O65  1  0.76530600  0.78753800  0.56390700  1
  O  O66  1  0.80239600  0.78920500  0.74123800  1
  O  O67  1  0.74249000  0.66231100  0.33897600  1
  O  O68  1  0.51044800  0.18246100  0.17425300  1
  O  O69  1  0.47835300  0.09796900  0.82021600  1
  O  O70  1  0.65988300  0.47560900  0.18327000  1
  O  O71  1  0.65276000  0.33479400  0.02842400  1
  O  O72  1  0.66423800  0.32981600  0.52834500  1
  O  O73  1  0.81324100  0.48176800  0.67795000  1
  O  O74  1  0.61915400  0.08134200  0.33140000  1
  O  O75  1  0.67024600  0.18526100  0.67702000  1
  O  O76  1  0.91691800  0.65724400  0.83559900  1
  O  O77  1  0.99124300  0.79138400  0.24388600  1
  O  O78  1  0.00466100  0.76532800  0.06513100  1
  O  O79  1  0.91966800  0.54127900  0.33360600  1
  O  O80  1  0.81238800  0.32851700  0.16937400  1
  O  O81  1  0.90450300  0.37913200  0.82373300  1
  O  O82  1  0.74338800  0.08097500  0.84020900  1
  O  O83  1  0.75065500  0.99249200  0.06728700  1
  O  O84  1  0.79939600  0.01349500  0.24057700  1
  O  O85  1  0.91751100  0.25924000  0.33776000  1
  O  O86  1  0.01436400  0.22760100  0.56843900  1
  O  O87  1  0.99584300  0.20288100  0.74918800  1
