# generated using pymatgen
data_Li2ZnHg
_symmetry_space_group_name_H-M   'P 1'
_cell_length_a   11.12774868
_cell_length_b   11.12774868
_cell_length_c   11.12774868
_cell_angle_alpha   120.20623979
_cell_angle_beta   119.37512563
_cell_angle_gamma   90.36442961
_symmetry_Int_Tables_number   1
_chemical_formula_structural   Li2ZnHg
_chemical_formula_sum   'Li2 Zn1 Hg1'
_cell_volume   977.32935518
_cell_formula_units_Z   1
loop_
 _symmetry_equiv_pos_site_id
 _symmetry_equiv_pos_as_xyz
  1  'x, y, z'
loop_
 _atom_site_type_symbol
 _atom_site_label
 _atom_site_symmetry_multiplicity
 _atom_site_fract_x
 _atom_site_fract_y
 _atom_site_fract_z
 _atom_site_occupancy
  Li  Li0  1  0.24874300  0.00000000  0.24874300  1
  Li  Li1  1  0.75125700  0.00000000  0.75125700  1
  Zn  Zn2  1  0.00000000  0.00000000  0.00000000  1
  Hg  Hg3  1  0.50000000  0.00000000  0.50000000  1
