# generated using pymatgen
data_Li9Mn2Co5O16
_symmetry_space_group_name_H-M   'P 1'
_cell_length_a   5.11030600
_cell_length_b   7.67986025
_cell_length_c   7.75382416
_cell_angle_alpha   82.65485286
_cell_angle_beta   83.54105010
_cell_angle_gamma   71.88067930
_symmetry_Int_Tables_number   1
_chemical_formula_structural   Li9Mn2Co5O16
_chemical_formula_sum   'Li9 Mn2 Co5 O16'
_cell_volume   285.99101905
_cell_formula_units_Z   1
loop_
 _symmetry_equiv_pos_site_id
 _symmetry_equiv_pos_as_xyz
  1  'x, y, z'
loop_
 _atom_site_type_symbol
 _atom_site_label
 _atom_site_symmetry_multiplicity
 _atom_site_fract_x
 _atom_site_fract_y
 _atom_site_fract_z
 _atom_site_occupancy
  Li  Li0  1  0.50130500  0.93813100  0.18420900  1
  Li  Li1  1  0.50516700  0.56241300  0.30406300  1
  Li  Li2  1  0.50021600  0.81241900  0.56575400  1
  Li  Li3  1  0.49791700  0.44109600  0.68482100  1
  Li  Li4  1  0.49715800  0.68019100  0.94535400  1
  Li  Li5  1  0.49118200  0.31955000  0.06243600  1
  Li  Li6  1  0.49722400  0.18847500  0.43637600  1
  Li  Li7  1  0.50696000  0.05732000  0.81490700  1
  Li  Li8  1  0.00005900  0.62418000  0.12424600  1
  Mn  Mn9  1  0.01090000  0.99593400  0.99983400  1
  Mn  Mn10  1  0.99403600  0.50104400  0.49808300  1
  Co  Co11  1  0.99226400  0.26215100  0.24669300  1
  Co  Co12  1  0.00020100  0.87342400  0.37101400  1
  Co  Co13  1  0.00071600  0.12366900  0.62370800  1
  Co  Co14  1  0.99710300  0.74931200  0.75777800  1
  Co  Co15  1  0.00070100  0.38375000  0.88005500  1
  O  O16  1  0.22813000  0.15771900  0.03017500  1
  O  O17  1  0.23170600  0.80204200  0.15220100  1
  O  O18  1  0.21916600  0.03317700  0.41583800  1
  O  O19  1  0.21953700  0.65429900  0.53609000  1
  O  O20  1  0.24123200  0.90392400  0.79646400  1
  O  O21  1  0.23916700  0.52199000  0.89661100  1
  O  O22  1  0.22337600  0.40330800  0.29504400  1
  O  O23  1  0.21148600  0.28927200  0.64537300  1
  O  O24  1  0.77510300  0.71464700  0.36025300  1
  O  O25  1  0.76073800  0.35504000  0.46436700  1
  O  O26  1  0.77053400  0.58595400  0.71137600  1
  O  O27  1  0.79417900  0.20277300  0.84185800  1
  O  O28  1  0.75736800  0.45575400  0.09058500  1
  O  O29  1  0.77616800  0.08728300  0.20780600  1
  O  O30  1  0.77765900  0.97167000  0.59684200  1
  O  O31  1  0.78134300  0.84809100  0.95978700  1
