# generated using pymatgen
data_Li4MnCo2O7
_symmetry_space_group_name_H-M   'P 1'
_cell_length_a   6.55497100
_cell_length_b   6.59421481
_cell_length_c   6.61785890
_cell_angle_alpha   71.94302611
_cell_angle_beta   71.56732113
_cell_angle_gamma   72.19244843
_symmetry_Int_Tables_number   1
_chemical_formula_structural   Li4MnCo2O7
_chemical_formula_sum   'Li8 Mn2 Co4 O14'
_cell_volume   251.07292401
_cell_formula_units_Z   2
loop_
 _symmetry_equiv_pos_site_id
 _symmetry_equiv_pos_as_xyz
  1  'x, y, z'
loop_
 _atom_site_type_symbol
 _atom_site_label
 _atom_site_symmetry_multiplicity
 _atom_site_fract_x
 _atom_site_fract_y
 _atom_site_fract_z
 _atom_site_occupancy
  Li  Li0  1  0.92397100  0.22131200  0.34704000  1
  Li  Li1  1  0.21550200  0.35880600  0.93325800  1
  Li  Li2  1  0.50502600  0.49786300  0.49270000  1
  Li  Li3  1  0.64198200  0.07284700  0.78624800  1
  Li  Li4  1  0.36050800  0.93003200  0.21601500  1
  Li  Li5  1  0.07031200  0.78231600  0.64642500  1
  Li  Li6  1  0.78053200  0.63613800  0.07782800  1
  Li  Li7  1  0.57078500  0.28550600  0.14743200  1
  Mn  Mn8  1  0.99645000  0.00192800  0.00246000  1
  Mn  Mn9  1  0.28906800  0.14315500  0.56509600  1
  Co  Co10  1  0.85220200  0.42946600  0.72107400  1
  Co  Co11  1  0.15286000  0.56718700  0.28208800  1
  Co  Co12  1  0.43346700  0.70228500  0.86050800  1
  Co  Co13  1  0.71218100  0.86365700  0.42428900  1
  O  O14  1  0.90360500  0.29969900  0.02432900  1
  O  O15  1  0.17353400  0.44479100  0.60618400  1
  O  O16  1  0.44634400  0.61391000  0.17549100  1
  O  O17  1  0.58352000  0.17019700  0.47570800  1
  O  O18  1  0.30867000  0.02566900  0.87796600  1
  O  O19  1  0.02934100  0.89929800  0.29851600  1
  O  O20  1  0.74879800  0.74868900  0.73267900  1
  O  O21  1  0.97585100  0.10527700  0.69591800  1
  O  O22  1  0.24725800  0.24755400  0.27622700  1
  O  O23  1  0.54315000  0.41435400  0.81495700  1
  O  O24  1  0.70173500  0.95970300  0.11319400  1
  O  O25  1  0.38924500  0.84310700  0.53780500  1
  O  O26  1  0.10790500  0.69240000  0.97021500  1
  O  O27  1  0.83619700  0.54285300  0.39835100  1
