# generated using pymatgen
data_Li9Mn7O16
_symmetry_space_group_name_H-M   'P 1'
_cell_length_a   5.30210247
_cell_length_b   10.41891856
_cell_length_c   6.08637885
_cell_angle_alpha   103.55333358
_cell_angle_beta   69.32597458
_cell_angle_gamma   84.30094451
_symmetry_Int_Tables_number   1
_chemical_formula_structural   Li9Mn7O16
_chemical_formula_sum   'Li9 Mn7 O16'
_cell_volume   299.62547681
_cell_formula_units_Z   1
loop_
 _symmetry_equiv_pos_site_id
 _symmetry_equiv_pos_as_xyz
  1  'x, y, z'
loop_
 _atom_site_type_symbol
 _atom_site_label
 _atom_site_symmetry_multiplicity
 _atom_site_fract_x
 _atom_site_fract_y
 _atom_site_fract_z
 _atom_site_occupancy
  Li  Li0  1  0.50633686  0.11984298  0.92640781  1
  Li  Li1  1  0.50143463  0.37684620  0.31471785  1
  Li  Li2  1  0.49856537  0.62315380  0.68528215  1
  Li  Li3  1  0.49366314  0.88015702  0.07359219  1
  Li  Li4  1  0.50472460  0.12176596  0.44426420  1
  Li  Li5  1  0.50281322  0.37221019  0.81031372  1
  Li  Li6  1  0.49718678  0.62778981  0.18968628  1
  Li  Li7  1  0.49527540  0.87823404  0.55573580  1
  Li  Li8  1  -0.00000000  0.00000000  0.50000000  1
  Mn  Mn9  1  -0.00000000  0.00000000  0.00000000  1
  Mn  Mn10  1  0.00337308  0.75377949  0.62788359  1
  Mn  Mn11  1  0.99662692  0.24622051  0.37211641  1
  Mn  Mn12  1  0.00233214  0.49882797  0.74953643  1
  Mn  Mn13  1  0.00497085  0.75446753  0.13508184  1
  Mn  Mn14  1  0.99502915  0.24553247  0.86491816  1
  Mn  Mn15  1  0.99766786  0.50117203  0.25046357  1
  O  O16  1  0.23150982  0.06830288  0.73975642  1
  O  O17  1  0.21729286  0.31671622  0.10432140  1
  O  O18  1  0.23311510  0.56684622  0.49142763  1
  O  O19  1  0.23860650  0.82274576  0.87041895  1
  O  O20  1  0.20830532  0.06472345  0.20015093  1
  O  O21  1  0.23689796  0.31576302  0.61126155  1
  O  O22  1  0.23107119  0.57162178  0.99301288  1
  O  O23  1  0.22504986  0.80694151  0.35118138  1
  O  O24  1  0.76139350  0.17725424  0.12958105  1
  O  O25  1  0.76688490  0.43315378  0.50857237  1
  O  O26  1  0.78270714  0.68328378  0.89567860  1
  O  O27  1  0.76849018  0.93169712  0.26024358  1
  O  O28  1  0.77495014  0.19305849  0.64881862  1
  O  O29  1  0.76892881  0.42837822  0.00698612  1
  O  O30  1  0.76310204  0.68423698  0.38873845  1
  O  O31  1  0.79169468  0.93527655  0.79985007  1
