# generated using pymatgen
data_Li2Si4NiO10
_symmetry_space_group_name_H-M   'P 1'
_cell_length_a   6.92944224
_cell_length_b   10.09992398
_cell_length_c   14.16108805
_cell_angle_alpha   90.00000000
_cell_angle_beta   88.49257752
_cell_angle_gamma   90.00000000
_symmetry_Int_Tables_number   1
_chemical_formula_structural   Li2Si4NiO10
_chemical_formula_sum   'Li8 Si16 Ni4 O40'
_cell_volume   990.74681064
_cell_formula_units_Z   4
loop_
 _symmetry_equiv_pos_site_id
 _symmetry_equiv_pos_as_xyz
  1  'x, y, z'
loop_
 _atom_site_type_symbol
 _atom_site_label
 _atom_site_symmetry_multiplicity
 _atom_site_fract_x
 _atom_site_fract_y
 _atom_site_fract_z
 _atom_site_occupancy
  Li  Li0  1  0.15855352  0.68467090  0.94897668  1
  Li  Li1  1  0.19587701  0.40038839  0.24759206  1
  Li  Li2  1  0.30412299  0.90038839  0.25240794  1
  Li  Li3  1  0.34144648  0.18467090  0.55102332  1
  Li  Li4  1  0.65855352  0.81532910  0.44897668  1
  Li  Li5  1  0.69587701  0.09961161  0.74759206  1
  Li  Li6  1  0.80412299  0.59961161  0.75240794  1
  Li  Li7  1  0.84144648  0.31532910  0.05102332  1
  Si  Si8  1  0.00683693  0.76523710  0.36590366  1
  Si  Si9  1  0.98598728  0.04462608  0.34003279  1
  Si  Si10  1  0.22542549  0.47804696  0.67068204  1
  Si  Si11  1  0.24115487  0.23688603  0.95395757  1
  Si  Si12  1  0.25884513  0.73688603  0.54604243  1
  Si  Si13  1  0.27457451  0.97804696  0.82931796  1
  Si  Si14  1  0.50683693  0.73476290  0.86590366  1
  Si  Si15  1  0.48598728  0.45537392  0.84003279  1
  Si  Si16  1  0.51401272  0.54462608  0.15996721  1
  Si  Si17  1  0.49316307  0.26523710  0.13409634  1
  Si  Si18  1  0.72542549  0.02195304  0.17068204  1
  Si  Si19  1  0.74115487  0.26311397  0.45395757  1
  Si  Si20  1  0.75884513  0.76311397  0.04604243  1
  Si  Si21  1  0.77457451  0.52195304  0.32931796  1
  Si  Si22  1  0.01401272  0.95537392  0.65996721  1
  Si  Si23  1  0.99316307  0.23476290  0.63409634  1
  Ni  Ni24  1  0.05092083  0.62901136  0.16958230  1
  Ni  Ni25  1  0.44907917  0.12901136  0.33041770  1
  Ni  Ni26  1  0.55092083  0.87098864  0.66958230  1
  Ni  Ni27  1  0.94907917  0.37098864  0.83041770  1
  O  O28  1  0.07535829  0.95370060  0.77152111  1
  O  O29  1  0.10490480  0.82227615  0.61168622  1
  O  O30  1  0.02938375  0.30519524  0.95541863  1
  O  O31  1  0.04535319  0.51285422  0.74070735  1
  O  O32  1  0.10640453  0.09158551  0.60690346  1
  O  O33  1  0.09899375  0.76967926  0.26066680  1
  O  O34  1  0.18291072  0.33378917  0.61617263  1
  O  O35  1  0.23435087  0.08639121  0.91226942  1
  O  O36  1  0.17379881  0.72793862  0.43992982  1
  O  O37  1  0.26564913  0.58639121  0.58773058  1
  O  O38  1  0.31708928  0.83378917  0.88382737  1
  O  O39  1  0.28584737  0.52914416  0.15164120  1
  O  O40  1  0.21415263  0.02914416  0.34835880  1
  O  O41  1  0.32620119  0.22793862  0.06007018  1
  O  O42  1  0.39359547  0.59158651  0.89309654  1
  O  O43  1  0.45464581  0.01285422  0.75929265  1
  O  O44  1  0.47061625  0.80519524  0.54458137  1
  O  O45  1  0.39509520  0.32227615  0.88831378  1
  O  O46  1  0.42464171  0.45370060  0.72847889  1
  O  O47  1  0.40100625  0.26967926  0.23933320  1
  O  O48  1  0.59899375  0.73032074  0.76066680  1
  O  O49  1  0.57535829  0.54629940  0.27152111  1
  O  O50  1  0.60490480  0.67772385  0.11168622  1
  O  O51  1  0.52938375  0.19480476  0.45541863  1
  O  O52  1  0.54535319  0.98714578  0.24070735  1
  O  O53  1  0.60640453  0.40841349  0.10690346  1
  O  O54  1  0.67379881  0.77206138  0.93992982  1
  O  O55  1  0.78584737  0.97085584  0.65164120  1
  O  O56  1  0.71415263  0.47085584  0.84835880  1
  O  O57  1  0.68291072  0.16621083  0.11617263  1
  O  O58  1  0.73435087  0.41360879  0.41226942  1
  O  O59  1  0.82620119  0.27206138  0.56007018  1
  O  O60  1  0.76564913  0.91360879  0.08773058  1
  O  O61  1  0.81708928  0.66621083  0.38382737  1
  O  O62  1  0.90100625  0.23032074  0.73933320  1
  O  O63  1  0.89359547  0.90841349  0.39309654  1
  O  O64  1  0.95464681  0.48714578  0.25929265  1
  O  O65  1  0.97061625  0.69480476  0.04458137  1
  O  O66  1  0.89509520  0.17772385  0.38831378  1
  O  O67  1  0.92464171  0.04629940  0.22847889  1
