# generated using pymatgen
data_Li9Mn2Co5O16
_symmetry_space_group_name_H-M   'P 1'
_cell_length_a   2.90687500
_cell_length_b   10.14779203
_cell_length_c   10.22707124
_cell_angle_alpha   108.93043115
_cell_angle_beta   90.66000673
_cell_angle_gamma   90.77529977
_symmetry_Int_Tables_number   1
_chemical_formula_structural   Li9Mn2Co5O16
_chemical_formula_sum   'Li9 Mn2 Co5 O16'
_cell_volume   285.29835767
_cell_formula_units_Z   1
loop_
 _symmetry_equiv_pos_site_id
 _symmetry_equiv_pos_as_xyz
  1  'x, y, z'
loop_
 _atom_site_type_symbol
 _atom_site_label
 _atom_site_symmetry_multiplicity
 _atom_site_fract_x
 _atom_site_fract_y
 _atom_site_fract_z
 _atom_site_occupancy
  Li  Li0  1  0.99882400  0.00303400  0.25145100  1
  Li  Li1  1  0.49388500  0.25821200  0.75528000  1
  Li  Li2  1  0.99653800  0.50684300  0.24203700  1
  Li  Li3  1  0.50239400  0.24938900  0.24984600  1
  Li  Li4  1  0.00346200  0.49315700  0.75796300  1
  Li  Li5  1  0.50611500  0.74178800  0.24472000  1
  Li  Li6  1  0.49760600  0.75061100  0.75015400  1
  Li  Li7  1  0.00117600  0.99696600  0.74854900  1
  Li  Li8  1  0.50000000  0.50000000  0.00000000  1
  Mn  Mn9  1  0.99990900  0.74610300  0.00237200  1
  Mn  Mn10  1  0.00009100  0.25389700  0.99762800  1
  Co  Co11  1  0.50000000  0.00000000  0.50000000  1
  Co  Co12  1  0.50000000  0.50000000  0.50000000  1
  Co  Co13  1  0.99714400  0.24990600  0.50001700  1
  Co  Co14  1  0.00285600  0.75009400  0.49998300  1
  Co  Co15  1  0.50000000  0.00000000  0.00000000  1
  O  O16  1  0.50481700  0.87187100  0.10613200  1
  O  O17  1  0.97882500  0.11864900  0.61420700  1
  O  O18  1  0.50549500  0.35712200  0.11135200  1
  O  O19  1  0.00744000  0.11486100  0.10563800  1
  O  O20  1  0.48647800  0.37058200  0.61610800  1
  O  O21  1  0.00047600  0.64080000  0.11666300  1
  O  O22  1  0.98622300  0.62059000  0.61569300  1
  O  O23  1  0.49079600  0.86975500  0.61793600  1
  O  O24  1  0.50920400  0.13024500  0.38206400  1
  O  O25  1  0.99952400  0.35920000  0.88333700  1
  O  O26  1  0.51352200  0.62941800  0.38389200  1
  O  O27  1  0.01377700  0.37941000  0.38430700  1
  O  O28  1  0.49450500  0.64287800  0.88864800  1
  O  O29  1  0.02117500  0.88135100  0.38579300  1
  O  O30  1  0.99256000  0.88513900  0.89436200  1
  O  O31  1  0.49518300  0.12812900  0.89386800  1
