# generated using pymatgen
data_Li9Mn2Co5O16
_symmetry_space_group_name_H-M   'P 1'
_cell_length_a   2.98331500
_cell_length_b   5.10664671
_cell_length_c   19.68697294
_cell_angle_alpha   91.59612363
_cell_angle_beta   93.21970930
_cell_angle_gamma   104.77258830
_symmetry_Int_Tables_number   1
_chemical_formula_structural   Li9Mn2Co5O16
_chemical_formula_sum   'Li9 Mn2 Co5 O16'
_cell_volume   289.27771359
_cell_formula_units_Z   1
loop_
 _symmetry_equiv_pos_site_id
 _symmetry_equiv_pos_as_xyz
  1  'x, y, z'
loop_
 _atom_site_type_symbol
 _atom_site_label
 _atom_site_symmetry_multiplicity
 _atom_site_fract_x
 _atom_site_fract_y
 _atom_site_fract_z
 _atom_site_occupancy
  Li  Li0  1  0.32905800  0.57352100  0.06395900  1
  Li  Li1  1  0.93663200  0.68699400  0.18718300  1
  Li  Li2  1  0.56217600  0.81209300  0.31395800  1
  Li  Li3  1  0.18978600  0.93604900  0.43884300  1
  Li  Li4  1  0.81287500  0.06567200  0.56333200  1
  Li  Li5  1  0.44282300  0.18344400  0.68869100  1
  Li  Li6  1  0.05966100  0.30197800  0.81281400  1
  Li  Li7  1  0.65643500  0.42738500  0.93036100  1
  Li  Li8  1  0.39376100  0.89173900  0.87355900  1
  Mn  Mn9  1  0.00103500  0.00183700  0.99498700  1
  Mn  Mn10  1  0.24965100  0.25268000  0.25071400  1
  Co  Co11  1  0.61311600  0.11580800  0.12514700  1
  Co  Co12  1  0.87781400  0.37729700  0.37781600  1
  Co  Co13  1  0.50246600  0.50160000  0.50149300  1
  Co  Co14  1  0.13037900  0.62206100  0.62650900  1
  Co  Co15  1  0.75740200  0.75341600  0.75426800  1
  O  O16  1  0.62464400  0.24490300  0.03064100  1
  O  O17  1  0.25478700  0.38492400  0.15710000  1
  O  O18  1  0.94003600  0.52024500  0.28511800  1
  O  O19  1  0.51780800  0.63702300  0.41094400  1
  O  O20  1  0.18303600  0.76106300  0.53446300  1
  O  O21  1  0.76878900  0.88217800  0.66147900  1
  O  O22  1  0.42285500  0.00512700  0.77738700  1
  O  O23  1  0.03716200  0.15879100  0.91246900  1
  O  O24  1  0.97576700  0.86174800  0.09051400  1
  O  O25  1  0.55502000  0.97997500  0.21566200  1
  O  O26  1  0.23158900  0.11252100  0.34232100  1
  O  O27  1  0.81655300  0.23898100  0.46788200  1
  O  O28  1  0.48481100  0.36083000  0.59052500  1
  O  O29  1  0.06937600  0.48824900  0.71552900  1
  O  O30  1  0.71685100  0.60012300  0.83230000  1
  O  O31  1  0.38584300  0.75974400  0.97203700  1
