# generated using pymatgen
data_Li4MnCo2O7
_symmetry_space_group_name_H-M   'P 1'
_cell_length_a   17.04331373
_cell_length_b   17.04331373
_cell_length_c   5.21094973
_cell_angle_alpha   85.49867831
_cell_angle_beta   85.49867831
_cell_angle_gamma   9.81505927
_symmetry_Int_Tables_number   1
_chemical_formula_structural   Li4MnCo2O7
_chemical_formula_sum   'Li8 Mn2 Co4 O14'
_cell_volume   257.22757068
_cell_formula_units_Z   2
loop_
 _symmetry_equiv_pos_site_id
 _symmetry_equiv_pos_as_xyz
  1  'x, y, z'
loop_
 _atom_site_type_symbol
 _atom_site_label
 _atom_site_symmetry_multiplicity
 _atom_site_fract_x
 _atom_site_fract_y
 _atom_site_fract_z
 _atom_site_occupancy
  Li  Li0  1  0.71185400  0.71185400  0.42960000  1
  Li  Li1  1  0.13970500  0.13970500  0.28693700  1
  Li  Li2  1  0.56921700  0.56921700  0.14027600  1
  Li  Li3  1  0.00000000  0.00000000  0.00000000  1
  Li  Li4  1  0.43078300  0.43078300  0.85972400  1
  Li  Li5  1  0.28814600  0.28814600  0.57040000  1
  Li  Li6  1  0.86029500  0.86029500  0.71306300  1
  Li  Li7  1  0.50000000  0.50000000  0.50000000  1
  Mn  Mn8  1  0.21279000  0.21279000  0.92324500  1
  Mn  Mn9  1  0.78721000  0.78721000  0.07675500  1
  Co  Co10  1  0.63948500  0.63948500  0.77986300  1
  Co  Co11  1  0.06613100  0.06613100  0.62746400  1
  Co  Co12  1  0.93386900  0.93386900  0.37253600  1
  Co  Co13  1  0.36051500  0.36051500  0.22013700  1
  O  O14  1  0.74686600  0.74686600  0.77564200  1
  O  O15  1  0.17794100  0.17794100  0.62401700  1
  O  O16  1  0.60638400  0.60638400  0.48439700  1
  O  O17  1  0.03748600  0.03748600  0.34069500  1
  O  O18  1  0.46090300  0.46090300  0.18531300  1
  O  O19  1  0.31800600  0.31800600  0.90865800  1
  O  O20  1  0.88898600  0.88898600  0.04965100  1
  O  O21  1  0.68199400  0.68199400  0.09134200  1
  O  O22  1  0.11101400  0.11101400  0.95034900  1
  O  O23  1  0.53909700  0.53909700  0.81468700  1
  O  O24  1  0.96251400  0.96251400  0.65930500  1
  O  O25  1  0.39361600  0.39361600  0.51560300  1
  O  O26  1  0.25313400  0.25313400  0.22435800  1
  O  O27  1  0.82205900  0.82205900  0.37598300  1
