# generated using pymatgen
data_LiMg2
_symmetry_space_group_name_H-M   'P 1'
_cell_length_a   5.89351599
_cell_length_b   5.89351599
_cell_length_c   5.89351632
_cell_angle_alpha   55.72565871
_cell_angle_beta   55.72565871
_cell_angle_gamma   55.72565311
_symmetry_Int_Tables_number   1
_chemical_formula_structural   LiMg2
_chemical_formula_sum   'Li2 Mg4'
_cell_volume   130.39569057
_cell_formula_units_Z   2
loop_
 _symmetry_equiv_pos_site_id
 _symmetry_equiv_pos_as_xyz
  1  'x, y, z'
loop_
 _atom_site_type_symbol
 _atom_site_label
 _atom_site_symmetry_multiplicity
 _atom_site_fract_x
 _atom_site_fract_y
 _atom_site_fract_z
 _atom_site_occupancy
  Li  Li0  1  0.16630100  0.16630100  0.16630100  1
  Li  Li1  1  0.83369900  0.83369900  0.83369900  1
  Mg  Mg2  1  0.33149200  0.00000000  0.66850800  1
  Mg  Mg3  1  0.66850800  0.33149200  0.00000000  1
  Mg  Mg4  1  0.50000000  0.50000000  0.50000000  1
  Mg  Mg5  1  0.00000000  0.66850800  0.33149200  1
