# generated using pymatgen
data_Li6MnV3(PO4)6
_symmetry_space_group_name_H-M   'P 1'
_cell_length_a   8.57650300
_cell_length_b   8.77145911
_cell_length_c   12.05987664
_cell_angle_alpha   90.24406618
_cell_angle_beta   91.11118206
_cell_angle_gamma   90.52348732
_symmetry_Int_Tables_number   1
_chemical_formula_structural   Li6MnV3(PO4)6
_chemical_formula_sum   'Li12 Mn2 V6 P12 O48'
_cell_volume   907.02836794
_cell_formula_units_Z   2
loop_
 _symmetry_equiv_pos_site_id
 _symmetry_equiv_pos_as_xyz
  1  'x, y, z'
loop_
 _atom_site_type_symbol
 _atom_site_label
 _atom_site_symmetry_multiplicity
 _atom_site_fract_x
 _atom_site_fract_y
 _atom_site_fract_z
 _atom_site_occupancy
  Li  Li0  1  0.06534200  0.48662700  0.34748600  1
  Li  Li1  1  0.07922900  0.91350000  0.68999200  1
  Li  Li2  1  0.18058600  0.22015700  0.17807700  1
  Li  Li3  1  0.32006000  0.72081600  0.32221100  1
  Li  Li4  1  0.41953300  0.41302400  0.80927300  1
  Li  Li5  1  0.43454700  0.98854900  0.15419000  1
  Li  Li6  1  0.56483200  0.01437200  0.84655500  1
  Li  Li7  1  0.58055300  0.58599100  0.19132000  1
  Li  Li8  1  0.68026300  0.27806200  0.67760000  1
  Li  Li9  1  0.82024100  0.78024700  0.82165000  1
  Li  Li10  1  0.92087300  0.08575000  0.30964100  1
  Li  Li11  1  0.93473300  0.51299700  0.65257400  1
  Mn  Mn12  1  0.74701800  0.96454600  0.60869600  1
  Mn  Mn13  1  0.75239500  0.02856400  0.10660400  1
  V  V14  1  0.24409900  0.97223500  0.89490500  1
  V  V15  1  0.24503300  0.53520900  0.10871300  1
  V  V16  1  0.25501600  0.47170800  0.60492300  1
  V  V17  1  0.25547200  0.03411000  0.39183700  1
  V  V18  1  0.74535800  0.52780000  0.39513400  1
  V  V19  1  0.75550900  0.46468300  0.89012300  1
  P  P20  1  0.04210200  0.74998300  0.49036600  1
  P  P21  1  0.11360600  0.61711800  0.84753500  1
  P  P22  1  0.11436500  0.88830300  0.14629700  1
  P  P23  1  0.38582100  0.11813700  0.65367600  1
  P  P24  1  0.38519200  0.38980000  0.35267900  1
  P  P25  1  0.45902100  0.25249400  0.00955300  1
  P  P26  1  0.54242400  0.75051800  0.98964900  1
  P  P27  1  0.61431200  0.61094200  0.64694600  1
  P  P28  1  0.61478600  0.88277500  0.35087200  1
  P  P29  1  0.88310100  0.11028800  0.85108100  1
  P  P30  1  0.88518400  0.38092400  0.15162600  1
  P  P31  1  0.95949200  0.24873700  0.50913100  1
  O  O32  1  0.05074200  0.10858200  0.89507000  1
  O  O33  1  0.05032400  0.12843300  0.44495900  1
  O  O34  1  0.05531600  0.33470200  0.60028500  1
  O  O35  1  0.05752700  0.41937000  0.18954000  1
  O  O36  1  0.09973300  0.63811700  0.58181300  1
  O  O37  1  0.12223600  0.79375800  0.83011900  1
  O  O38  1  0.13882500  0.57946600  0.97004900  1
  O  O39  1  0.12873300  0.00615400  0.24517300  1
  O  O40  1  0.17428600  0.73090300  0.18704800  1
  O  O41  1  0.18676000  0.82115300  0.43281200  1
  O  O42  1  0.22966000  0.52872900  0.77603500  1
  O  O43  1  0.23626300  0.94941800  0.06098300  1
  O  O44  1  0.26478800  0.45032900  0.43756700  1
  O  O45  1  0.26855800  0.02843800  0.72527600  1
  O  O46  1  0.31357700  0.32440200  0.06490900  1
  O  O47  1  0.32758500  0.23061400  0.31237900  1
  O  O48  1  0.36127300  0.07866500  0.53116200  1
  O  O49  1  0.37254000  0.50667200  0.25376300  1
  O  O50  1  0.37396700  0.29496000  0.66985200  1
  O  O51  1  0.40137400  0.14028600  0.91739800  1
  O  O52  1  0.44614200  0.83507100  0.90030900  1
  O  O53  1  0.44311500  0.92136100  0.31307300  1
  O  O54  1  0.44713400  0.60953700  0.60255800  1
  O  O55  1  0.45077200  0.63178500  0.05611100  1
  O  O56  1  0.55067700  0.37403400  0.94559200  1
  O  O57  1  0.55266100  0.39046900  0.39715000  1
  O  O58  1  0.55632200  0.08230000  0.69251200  1
  O  O59  1  0.55199500  0.16954800  0.10180700  1
  O  O60  1  0.60197200  0.86316300  0.08373100  1
  O  O61  1  0.62450200  0.70622100  0.33137600  1
  O  O62  1  0.62770600  0.49351000  0.74564600  1
  O  O63  1  0.63615600  0.91857900  0.47477400  1
  O  O64  1  0.67228500  0.76967000  0.68857100  1
  O  O65  1  0.68574500  0.67794700  0.93402400  1
  O  O66  1  0.73119600  0.97256200  0.28019400  1
  O  O67  1  0.73499700  0.55074200  0.56187100  1
  O  O68  1  0.76176700  0.04846700  0.93408400  1
  O  O69  1  0.76996900  0.46914100  0.22411000  1
  O  O70  1  0.81305500  0.17849400  0.56494300  1
  O  O71  1  0.82906200  0.26988300  0.81141900  1
  O  O72  1  0.87154600  0.99339300  0.74976000  1
  O  O73  1  0.86064400  0.42043600  0.02961200  1
  O  O74  1  0.87690200  0.20234500  0.16703400  1
  O  O75  1  0.90178500  0.36077500  0.41760400  1
  O  O76  1  0.94099700  0.57748900  0.81048600  1
  O  O77  1  0.94534800  0.66447600  0.39940500  1
  O  O78  1  0.95348900  0.87098900  0.55443200  1
  O  O79  1  0.94789400  0.88549200  0.10070500  1
