# generated using pymatgen
data_LiCoPO4
_symmetry_space_group_name_H-M   'P 1'
_cell_length_a   4.98038280
_cell_length_b   7.29215766
_cell_length_c   9.59047500
_cell_angle_alpha   90.00069843
_cell_angle_beta   90.00228614
_cell_angle_gamma   89.97169577
_symmetry_Int_Tables_number   1
_chemical_formula_structural   LiCoPO4
_chemical_formula_sum   'Li4 Co4 P4 O16'
_cell_volume   348.30430222
_cell_formula_units_Z   4
loop_
 _symmetry_equiv_pos_site_id
 _symmetry_equiv_pos_as_xyz
  1  'x, y, z'
loop_
 _atom_site_type_symbol
 _atom_site_label
 _atom_site_symmetry_multiplicity
 _atom_site_fract_x
 _atom_site_fract_y
 _atom_site_fract_z
 _atom_site_occupancy
  Li  Li0  1  0.10100100  0.23347900  0.43557500  1
  Li  Li1  1  0.89900000  0.76652000  0.93558200  1
  Li  Li2  1  0.59852800  0.26524000  0.65253500  1
  Li  Li3  1  0.40147600  0.73475600  0.15253600  1
  Co  Co4  1  0.79567200  0.41596400  0.07299300  1
  Co  Co5  1  0.20433100  0.58403900  0.57299100  1
  Co  Co6  1  0.29415300  0.08502400  0.02354500  1
  Co  Co7  1  0.70584300  0.91498200  0.52354500  1
  P  P8  1  0.86817700  0.00443000  0.19793000  1
  P  P9  1  0.13183900  0.99557000  0.69793500  1
  P  P10  1  0.36604100  0.49353200  0.89682600  1
  P  P11  1  0.63395000  0.50647400  0.39681200  1
  O  O12  1  0.90092700  0.01142900  0.35803300  1
  O  O13  1  0.09908000  0.98857200  0.85803100  1
  O  O14  1  0.57057600  0.98282100  0.15592700  1
  O  O15  1  0.42943000  0.01717900  0.65593300  1
  O  O16  1  0.95840400  0.14628400  0.62851900  1
  O  O17  1  0.04159400  0.85371700  0.12851900  1
  O  O18  1  0.98854100  0.19172000  0.14103000  1
  O  O19  1  0.01146100  0.80828000  0.64102600  1
  O  O20  1  0.48767900  0.30972600  0.95893400  1
  O  O21  1  0.51231800  0.69027100  0.45893700  1
  O  O22  1  0.60433500  0.52091700  0.23674200  1
  O  O23  1  0.39566100  0.47908400  0.73673800  1
  O  O24  1  0.06852800  0.51660200  0.93899000  1
  O  O25  1  0.93146200  0.48339400  0.43899100  1
  O  O26  1  0.46127900  0.35190500  0.46133800  1
  O  O27  1  0.53871400  0.64808800  0.96134400  1
