# generated using pymatgen
data_Li4V3P8O29
_symmetry_space_group_name_H-M   'P 1'
_cell_length_a   9.79087500
_cell_length_b   9.81991080
_cell_length_c   14.19782044
_cell_angle_alpha   90.25146294
_cell_angle_beta   89.90568550
_cell_angle_gamma   119.80728232
_symmetry_Int_Tables_number   1
_chemical_formula_structural   Li4V3P8O29
_chemical_formula_sum   'Li8 V6 P16 O58'
_cell_volume   1184.45128093
_cell_formula_units_Z   2
loop_
 _symmetry_equiv_pos_site_id
 _symmetry_equiv_pos_as_xyz
  1  'x, y, z'
loop_
 _atom_site_type_symbol
 _atom_site_label
 _atom_site_symmetry_multiplicity
 _atom_site_fract_x
 _atom_site_fract_y
 _atom_site_fract_z
 _atom_site_occupancy
  Li  Li0  1  0.90105500  0.66622000  0.44434500  1
  Li  Li1  1  0.31129700  0.08382900  0.93909900  1
  Li  Li2  1  0.90672000  0.22666500  0.93859900  1
  Li  Li3  1  0.76327200  0.09014000  0.44198600  1
  Li  Li4  1  0.68639400  0.90699000  0.05330300  1
  Li  Li5  1  0.10102200  0.33332300  0.56093100  1
  Li  Li6  1  0.23117100  0.32010100  0.05982000  1
  Li  Li7  1  0.04169600  0.98861900  0.50983400  1
  V  V8  1  0.42971200  0.99563900  0.74297800  1
  V  V9  1  0.56227300  0.99774800  0.25101400  1
  V  V10  1  0.00121800  0.57107800  0.24438800  1
  V  V11  1  0.00015900  0.43758500  0.75424600  1
  V  V12  1  0.56743200  0.56868900  0.74918700  1
  V  V13  1  0.44044500  0.43346700  0.25732300  1
  P  P14  1  0.76797500  0.68423700  0.15665900  1
  P  P15  1  0.91258800  0.68598200  0.65875300  1
  P  P16  1  0.30835100  0.22551000  0.66130000  1
  P  P17  1  0.65786600  0.32627400  0.86768200  1
  P  P18  1  0.67613400  0.33818400  0.37074800  1
  P  P19  1  0.31940200  0.08980700  0.15918000  1
  P  P20  1  0.21985600  0.91393900  0.34014700  1
  P  P21  1  0.91070800  0.23001700  0.15853200  1
  P  P22  1  0.08647300  0.77520200  0.84074600  1
  P  P23  1  0.77567000  0.09108100  0.65834800  1
  P  P24  1  0.68119000  0.91169500  0.83739200  1
  P  P25  1  0.33500200  0.66281500  0.63004300  1
  P  P26  1  0.33492600  0.66015000  0.13200900  1
  P  P27  1  0.69249800  0.77577000  0.34121700  1
  P  P28  1  0.08732600  0.31861100  0.33907800  1
  P  P29  1  0.23348400  0.32046100  0.84439400  1
  O  O30  1  0.78708300  0.78081200  0.42423900  1
  O  O31  1  0.74155100  0.65655500  0.67225400  1
  O  O32  1  0.00477400  0.77438700  0.92764300  1
  O  O33  1  0.90970500  0.65460200  0.16407200  1
  O  O34  1  0.61585900  0.52583400  0.17835600  1
  O  O35  1  0.65331400  0.46882400  0.81947600  1
  O  O36  1  0.46125200  0.38442100  0.66841500  1
  O  O37  1  0.24808100  0.24706600  0.93390100  1
  O  O38  1  0.34160900  0.25822900  0.16810500  1
  O  O39  1  0.81875400  0.49021900  0.32707300  1
  O  O40  1  0.91226000  0.53135600  0.67034000  1
  O  O41  1  0.52399100  0.33449400  0.32490500  1
  O  O42  1  0.64665000  0.32373900  0.97227700  1
  O  O43  1  0.67796500  0.35355900  0.47507700  1
  O  O44  1  0.51080100  0.17634100  0.82426900  1
  O  O45  1  0.90071400  0.38020100  0.17799300  1
  O  O46  1  0.81112600  0.32692500  0.83306700  1
  O  O47  1  0.34426300  0.08804300  0.66449900  1
  O  O48  1  0.20289100  0.99351500  0.24353300  1
  O  O49  1  0.19260600  0.98910100  0.42283700  1
  O  O50  1  0.25577400  0.01818400  0.06627200  1
  O  O51  1  0.47944500  0.09784700  0.18203600  1
  O  O52  1  0.67908500  0.18983100  0.33464600  1
  O  O53  1  0.25886700  0.91733300  0.83381500  1
  O  O54  1  0.61825900  0.09059500  0.67331900  1
  O  O55  1  0.91708200  0.26037800  0.66666800  1
  O  O56  1  0.00843600  0.79841600  0.74540800  1
  O  O57  1  0.97868000  0.77038800  0.56792100  1
  O  O58  1  0.00572100  0.23397900  0.42799000  1
  O  O59  1  0.07966700  0.73969100  0.33211900  1
  O  O60  1  0.37774700  0.91694000  0.33210600  1
  O  O61  1  0.74595800  0.08272300  0.15841300  1
  O  O62  1  0.33384900  0.81295000  0.67420800  1
  O  O63  1  0.52376200  0.90748600  0.81942200  1
  O  O64  1  0.75773500  0.99964500  0.92665400  1
  O  O65  1  0.78225400  0.01824700  0.56731300  1
  O  O66  1  0.79357700  0.00096400  0.74837100  1
  O  O67  1  0.65866000  0.91441300  0.33840100  1
  O  O68  1  0.18400700  0.65887000  0.17771400  1
  O  O69  1  0.09333100  0.62063700  0.82201600  1
  O  O70  1  0.48279700  0.81197300  0.17007900  1
  O  O71  1  0.32382100  0.65130500  0.02761800  1
  O  O72  1  0.34381200  0.67065800  0.52559000  1
  O  O73  1  0.48350500  0.66819600  0.67727200  1
  O  O74  1  0.08523400  0.47260200  0.32529300  1
  O  O75  1  0.18785700  0.51282700  0.66762500  1
  O  O76  1  0.65626700  0.74420300  0.83463200  1
  O  O77  1  0.79113700  0.79519200  0.24672300  1
  O  O78  1  0.75918800  0.76265900  0.07041000  1
  O  O79  1  0.53371600  0.61850100  0.32851200  1
  O  O80  1  0.33413000  0.51262700  0.17486700  1
  O  O81  1  0.38118600  0.47836300  0.82304400  1
  O  O82  1  0.08427200  0.33683900  0.84364800  1
  O  O83  1  0.00134600  0.24610800  0.06965800  1
  O  O84  1  0.00031400  0.20903000  0.24834400  1
  O  O85  1  0.25812800  0.34808200  0.33374900  1
  O  O86  1  0.20169200  0.20615400  0.58043500  1
  O  O87  1  0.21199800  0.20451300  0.75818700  1
