# generated using pymatgen
data_Li4Zn(PS4)2
_symmetry_space_group_name_H-M   'P 1'
_cell_length_a   6.37707700
_cell_length_b   8.00441581
_cell_length_c   18.42789303
_cell_angle_alpha   90.01674693
_cell_angle_beta   90.21699695
_cell_angle_gamma   90.22878529
_symmetry_Int_Tables_number   1
_chemical_formula_structural   Li4Zn(PS4)2
_chemical_formula_sum   'Li12 Zn3 P6 S24'
_cell_volume   940.63338200
_cell_formula_units_Z   3
loop_
 _symmetry_equiv_pos_site_id
 _symmetry_equiv_pos_as_xyz
  1  'x, y, z'
loop_
 _atom_site_type_symbol
 _atom_site_label
 _atom_site_symmetry_multiplicity
 _atom_site_fract_x
 _atom_site_fract_y
 _atom_site_fract_z
 _atom_site_occupancy
  Li  Li0  1  0.69280100  0.23805400  0.66884600  1
  Li  Li1  1  0.68850200  0.23959100  0.33512600  1
  Li  Li2  1  0.29772900  0.27364300  0.83241700  1
  Li  Li3  1  0.30896500  0.26151600  0.16556200  1
  Li  Li4  1  0.68426100  0.75669700  0.33211800  1
  Li  Li5  1  0.69118300  0.75302000  0.00232200  1
  Li  Li6  1  0.30209000  0.74327900  0.83156500  1
  Li  Li7  1  0.30899800  0.73769700  0.50486600  1
  Li  Li8  1  0.30484200  0.74516100  0.16589500  1
  Li  Li9  1  0.85076500  0.99544700  0.84018400  1
  Li  Li10  1  0.85402500  0.00164800  0.17118200  1
  Li  Li11  1  0.13950600  0.50860100  0.34111700  1
  Zn  Zn12  1  0.69273200  0.26059400  0.99893300  1
  Zn  Zn13  1  0.30208100  0.24343300  0.50211900  1
  Zn  Zn14  1  0.69703300  0.74166600  0.66670900  1
  P  P15  1  0.19814200  0.99678800  0.66536700  1
  P  P16  1  0.17080300  0.99612500  0.33566500  1
  P  P17  1  0.19968500  0.01068600  0.99740100  1
  P  P18  1  0.82408200  0.51154100  0.83580600  1
  P  P19  1  0.80846800  0.48848700  0.50158700  1
  P  P20  1  0.82035800  0.49592600  0.16674500  1
  S  S21  1  0.32207700  0.21182300  0.70194400  1
  S  S22  1  0.31973200  0.21621000  0.37317400  1
  S  S23  1  0.33399800  0.23103800  0.03383800  1
  S  S24  1  0.67046500  0.29038900  0.86996700  1
  S  S25  1  0.66356700  0.27343100  0.53724000  1
  S  S26  1  0.67248800  0.28324800  0.20289700  1
  S  S27  1  0.33381700  0.77525300  0.69864400  1
  S  S28  1  0.32448000  0.78706700  0.37302400  1
  S  S29  1  0.32098900  0.79698300  0.03582100  1
  S  S30  1  0.66527000  0.71957700  0.87025800  1
  S  S31  1  0.68669200  0.71128800  0.53850800  1
  S  S32  1  0.67325700  0.71135900  0.20008600  1
  S  S33  1  0.20817600  0.01013700  0.88572300  1
  S  S34  1  0.17819300  0.99445900  0.55338400  1
  S  S35  1  0.20604600  0.00350600  0.22403000  1
  S  S36  1  0.81788300  0.49738500  0.72310700  1
  S  S37  1  0.78436800  0.49867500  0.39025300  1
  S  S38  1  0.83702600  0.49888700  0.05416800  1
  S  S39  1  0.88617800  0.98389800  0.70497700  1
  S  S40  1  0.87374600  0.99650500  0.37193700  1
  S  S41  1  0.88392400  0.01645200  0.03316500  1
  S  S42  1  0.11357400  0.50996500  0.87896500  1
  S  S43  1  0.11455700  0.48224100  0.53946600  1
  S  S44  1  0.12109800  0.50062200  0.20738200  1
