# generated using pymatgen
data_Li9Mn2Co5O16
_symmetry_space_group_name_H-M   'P 1'
_cell_length_a   5.07178200
_cell_length_b   5.12657466
_cell_length_c   11.58060910
_cell_angle_alpha   90.57541330
_cell_angle_beta   90.75040331
_cell_angle_gamma   109.46062075
_symmetry_Int_Tables_number   1
_chemical_formula_structural   Li9Mn2Co5O16
_chemical_formula_sum   'Li9 Mn2 Co5 O16'
_cell_volume   283.84643830
_cell_formula_units_Z   1
loop_
 _symmetry_equiv_pos_site_id
 _symmetry_equiv_pos_as_xyz
  1  'x, y, z'
loop_
 _atom_site_type_symbol
 _atom_site_label
 _atom_site_symmetry_multiplicity
 _atom_site_fract_x
 _atom_site_fract_y
 _atom_site_fract_z
 _atom_site_occupancy
  Li  Li0  1  0.00735600  0.50661100  0.12152900  1
  Li  Li1  1  0.49849000  0.49715100  0.24278900  1
  Li  Li2  1  0.00159600  0.50148800  0.37063700  1
  Li  Li3  1  0.50217000  0.50021200  0.50101500  1
  Li  Li4  1  0.00014800  0.49943300  0.62756000  1
  Li  Li5  1  0.50008600  0.50091100  0.75128900  1
  Li  Li6  1  0.99427500  0.49710500  0.87710700  1
  Li  Li7  1  0.49696100  0.50192400  0.00511400  1
  Li  Li8  1  0.49976100  0.00013100  0.12594700  1
  Mn  Mn9  1  0.99733300  0.99414100  0.00603400  1
  Mn  Mn10  1  0.50361100  0.00387800  0.36741700  1
  Co  Co11  1  0.00004100  0.99980000  0.24862600  1
  Co  Co12  1  0.00389100  0.00589500  0.49950100  1
  Co  Co13  1  0.50421400  0.00413200  0.62779700  1
  Co  Co14  1  0.99911400  0.99510400  0.75096800  1
  Co  Co15  1  0.49772000  0.99665000  0.88298700  1
  O  O16  1  0.23379500  0.76980800  0.99710500  1
  O  O17  1  0.77789400  0.77107800  0.12480400  1
  O  O18  1  0.24935200  0.77739200  0.25741300  1
  O  O19  1  0.75741300  0.78566900  0.37030600  1
  O  O20  1  0.27191800  0.78083300  0.49762700  1
  O  O21  1  0.76353300  0.76729300  0.62552500  1
  O  O22  1  0.26008300  0.77092600  0.75085400  1
  O  O23  1  0.75778300  0.76496300  0.88036200  1
  O  O24  1  0.75152100  0.22148300  0.25711600  1
  O  O25  1  0.25722000  0.22338800  0.37042900  1
  O  O26  1  0.74272200  0.22797200  0.49421800  1
  O  O27  1  0.23849400  0.23448600  0.62393600  1
  O  O28  1  0.73776600  0.23074900  0.74527000  1
  O  O29  1  0.22734600  0.22302800  0.87946100  1
  O  O30  1  0.75079700  0.22148500  0.99291800  1
  O  O31  1  0.21559600  0.22488100  0.12633700  1
