# generated using pymatgen
data_Li7Mn2(CoO4)3
_symmetry_space_group_name_H-M   'P 1'
_cell_length_a   5.90126210
_cell_length_b   11.78653592
_cell_length_c   6.49429611
_cell_angle_alpha   103.06229872
_cell_angle_beta   103.77199484
_cell_angle_gamma   89.74897425
_symmetry_Int_Tables_number   1
_chemical_formula_structural   Li7Mn2(CoO4)3
_chemical_formula_sum   'Li14 Mn4 Co6 O24'
_cell_volume   426.79158137
_cell_formula_units_Z   2
loop_
 _symmetry_equiv_pos_site_id
 _symmetry_equiv_pos_as_xyz
  1  'x, y, z'
loop_
 _atom_site_type_symbol
 _atom_site_label
 _atom_site_symmetry_multiplicity
 _atom_site_fract_x
 _atom_site_fract_y
 _atom_site_fract_z
 _atom_site_occupancy
  Li  Li0  1  0.16668700  0.08331700  0.66666300  1
  Li  Li1  1  0.16665100  0.58335100  0.66667500  1
  Li  Li2  1  0.16666700  0.33333400  0.66666800  1
  Li  Li3  1  0.16667000  0.83333300  0.66666800  1
  Li  Li4  1  0.66661800  0.08332200  0.66664500  1
  Li  Li5  1  0.66671500  0.58334600  0.66668900  1
  Li  Li6  1  0.82880900  0.16568100  0.33507700  1
  Li  Li7  1  0.82887200  0.66569800  0.33509700  1
  Li  Li8  1  0.50446100  0.00096900  0.99823800  1
  Li  Li9  1  0.50452300  0.50098800  0.99825800  1
  Li  Li10  1  0.50278400  0.24598500  0.99091500  1
  Li  Li11  1  0.50280300  0.74598500  0.99093700  1
  Li  Li12  1  0.83055100  0.42068100  0.34242000  1
  Li  Li13  1  0.83053200  0.92068200  0.34239300  1
  Mn  Mn14  1  0.99445600  0.50150600  0.99626800  1
  Mn  Mn15  1  0.33888200  0.16516100  0.33708200  1
  Mn  Mn16  1  0.99445900  0.00147700  0.99622600  1
  Mn  Mn17  1  0.33888600  0.66519000  0.33708700  1
  Co  Co18  1  0.66666200  0.83333100  0.66666400  1
  Co  Co19  1  0.99195700  0.24773600  0.99363500  1
  Co  Co20  1  0.34138100  0.41892900  0.33970500  1
  Co  Co21  1  0.66666700  0.33333400  0.66666300  1
  Co  Co22  1  0.99200600  0.74772900  0.99368700  1
  Co  Co23  1  0.34132100  0.91893500  0.33964600  1
  O  O24  1  0.91877600  0.45826700  0.68871800  1
  O  O25  1  0.91871500  0.95827900  0.68867800  1
  O  O26  1  0.41455600  0.20839900  0.64462300  1
  O  O27  1  0.41461900  0.70838700  0.64464400  1
  O  O28  1  0.55887100  0.04736200  0.33248400  1
  O  O29  1  0.55896500  0.54734300  0.33248600  1
  O  O30  1  0.77436600  0.11932500  0.00084200  1
  O  O31  1  0.77446600  0.61930300  0.00085500  1
  O  O32  1  0.23488800  0.11996900  0.00987800  1
  O  O33  1  0.23496000  0.61995200  0.00991000  1
  O  O34  1  0.09836600  0.04671200  0.32342200  1
  O  O35  1  0.09844500  0.54669800  0.32345700  1
  O  O36  1  0.90591200  0.22119000  0.68882300  1
  O  O37  1  0.90594600  0.72120100  0.68880200  1
  O  O38  1  0.42742100  0.44547800  0.64451300  1
  O  O39  1  0.42738700  0.94546900  0.64453000  1
  O  O40  1  0.56454200  0.28179300  0.32862500  1
  O  O41  1  0.56457800  0.78180000  0.32866700  1
  O  O42  1  0.76878400  0.38487100  0.00471300  1
  O  O43  1  0.76875200  0.88487000  0.00466200  1
  O  O44  1  0.23396900  0.38277400  0.01664200  1
  O  O45  1  0.23392700  0.88280200  0.01664700  1
  O  O46  1  0.09936600  0.28389300  0.31669300  1
  O  O47  1  0.09940700  0.78386800  0.31668200  1
