# generated using pymatgen
data_Li4MnCo2O7
_symmetry_space_group_name_H-M   'P 1'
_cell_length_a   6.59123740
_cell_length_b   6.59123740
_cell_length_c   14.47169114
_cell_angle_alpha   69.26648416
_cell_angle_beta   69.26648416
_cell_angle_gamma   25.42495912
_symmetry_Int_Tables_number   1
_chemical_formula_structural   Li4MnCo2O7
_chemical_formula_sum   'Li8 Mn2 Co4 O14'
_cell_volume   251.52171580
_cell_formula_units_Z   2
loop_
 _symmetry_equiv_pos_site_id
 _symmetry_equiv_pos_as_xyz
  1  'x, y, z'
loop_
 _atom_site_type_symbol
 _atom_site_label
 _atom_site_symmetry_multiplicity
 _atom_site_fract_x
 _atom_site_fract_y
 _atom_site_fract_z
 _atom_site_occupancy
  Li  Li0  1  0.27955200  0.27955200  0.07412400  1
  Li  Li1  1  0.86240300  0.86240300  0.21132000  1
  Li  Li2  1  0.43110000  0.43110000  0.35340500  1
  Li  Li3  1  0.71045100  0.71045100  0.93505300  1
  Li  Li4  1  0.14512300  0.14512300  0.78458700  1
  Li  Li5  1  0.99996800  0.99996800  0.49693400  1
  Li  Li6  1  0.56844900  0.56844900  0.64861100  1
  Li  Li7  1  0.57356300  0.57356300  0.13964100  1
  Mn  Mn8  1  0.00461500  0.00461500  0.00355300  1
  Mn  Mn9  1  0.71463000  0.71463000  0.42663300  1
  Co  Co10  1  0.13251200  0.13251200  0.27543400  1
  Co  Co11  1  0.28521300  0.28521300  0.57422000  1
  Co  Co12  1  0.85726800  0.85726800  0.71417700  1
  Co  Co13  1  0.42764900  0.42764900  0.85849100  1
  O  O14  1  0.43632800  0.43632800  0.09379100  1
  O  O15  1  0.00370000  0.00370000  0.25485100  1
  O  O16  1  0.58699800  0.58699800  0.38863500  1
  O  O17  1  0.87006900  0.87006900  0.95825500  1
  O  O18  1  0.29399900  0.29399900  0.81550700  1
  O  O19  1  0.15177600  0.15177600  0.52279900  1
  O  O20  1  0.71802000  0.71802000  0.67579200  1
  O  O21  1  0.13239500  0.13239500  0.03155700  1
  O  O22  1  0.71270900  0.71270900  0.18732100  1
  O  O23  1  0.27802600  0.27802600  0.33494100  1
  O  O24  1  0.56191700  0.56191700  0.90411000  1
  O  O25  1  0.99363200  0.99363200  0.75700600  1
  O  O26  1  0.84427900  0.84427900  0.46862900  1
  O  O27  1  0.42365700  0.42365700  0.61062400  1
