# generated using pymatgen
data_Li2V3WO8
_symmetry_space_group_name_H-M   'P 1'
_cell_length_a   6.04694564
_cell_length_b   10.51920242
_cell_length_c   6.11783097
_cell_angle_alpha   106.84877225
_cell_angle_beta   60.38309458
_cell_angle_gamma   90.00017597
_symmetry_Int_Tables_number   1
_chemical_formula_structural   Li2V3WO8
_chemical_formula_sum   'Li4 V6 W2 O16'
_cell_volume   318.95006980
_cell_formula_units_Z   2
loop_
 _symmetry_equiv_pos_site_id
 _symmetry_equiv_pos_as_xyz
  1  'x, y, z'
loop_
 _atom_site_type_symbol
 _atom_site_label
 _atom_site_symmetry_multiplicity
 _atom_site_fract_x
 _atom_site_fract_y
 _atom_site_fract_z
 _atom_site_occupancy
  Li  Li0  1  0.30490400  0.56383600  0.38864800  1
  Li  Li1  1  0.80627900  0.06373000  0.38890300  1
  Li  Li2  1  0.19520300  0.93627400  0.61107300  1
  Li  Li3  1  0.69355400  0.43617000  0.61136900  1
  V  V4  1  0.25008300  0.74948800  0.99911800  1
  V  V5  1  0.24920800  0.25051500  0.00088100  1
  V  V6  1  0.00880700  0.49999500  0.00001400  1
  V  V7  1  0.74966700  0.25001600  0.99956300  1
  V  V8  1  0.74923900  0.74998100  0.00044100  1
  V  V9  1  0.49167500  0.00000100  0.99998700  1
  W  W10  1  0.75000600  0.74972000  0.50008700  1
  W  W11  1  0.25009700  0.25028000  0.49990300  1
  O  O12  1  0.10238700  0.63124500  0.79504500  1
  O  O13  1  0.60250100  0.13165300  0.79578800  1
  O  O14  1  0.39831400  0.86834900  0.20420100  1
  O  O15  1  0.89744500  0.36874600  0.20497000  1
  O  O16  1  0.87461200  0.85829000  0.24351900  1
  O  O17  1  0.38167700  0.35875500  0.24387900  1
  O  O18  1  0.10831700  0.63208700  0.24500900  1
  O  O19  1  0.59246200  0.13461300  0.25670900  1
  O  O20  1  0.65084600  0.63410900  0.25633500  1
  O  O21  1  0.14692700  0.13158300  0.24552400  1
  O  O22  1  0.84919200  0.86539800  0.74327100  1
  O  O23  1  0.35332800  0.36791000  0.75501200  1
  O  O24  1  0.39246100  0.86841400  0.75445300  1
  O  O25  1  0.90716500  0.36588300  0.74369100  1
  O  O26  1  0.62552300  0.64124700  0.75615500  1
  O  O27  1  0.11812200  0.14170900  0.75644800  1
