# generated using pymatgen
data_Li9Mn7O16
_symmetry_space_group_name_H-M   'P 1'
_cell_length_a   10.55112150
_cell_length_b   10.55112150
_cell_length_c   10.71501935
_cell_angle_alpha   68.54386283
_cell_angle_beta   68.54386283
_cell_angle_gamma   15.68784888
_symmetry_Int_Tables_number   1
_chemical_formula_structural   Li9Mn7O16
_chemical_formula_sum   'Li9 Mn7 O16'
_cell_volume   299.75200305
_cell_formula_units_Z   1
loop_
 _symmetry_equiv_pos_site_id
 _symmetry_equiv_pos_as_xyz
  1  'x, y, z'
loop_
 _atom_site_type_symbol
 _atom_site_label
 _atom_site_symmetry_multiplicity
 _atom_site_fract_x
 _atom_site_fract_y
 _atom_site_fract_z
 _atom_site_occupancy
  Li  Li0  1  0.62344400  0.62344400  0.56766200  1
  Li  Li1  1  0.87788900  0.87788900  0.18133700  1
  Li  Li2  1  0.12211100  0.12211100  0.81866300  1
  Li  Li3  1  0.12707600  0.12707600  0.30614900  1
  Li  Li4  1  0.37912300  0.37912300  0.93666800  1
  Li  Li5  1  0.62087700  0.62087700  0.06333200  1
  Li  Li6  1  0.87292400  0.87292400  0.69385100  1
  Li  Li7  1  0.37655600  0.37655600  0.43233800  1
  Li  Li8  1  0.50000000  0.50000000  0.00000000  1
  Mn  Mn9  1  0.99661800  0.99661800  0.76452800  1
  Mn  Mn10  1  0.00338200  0.00338200  0.23547200  1
  Mn  Mn11  1  0.24996200  0.24996200  0.37495300  1
  Mn  Mn12  1  0.75003800  0.75003800  0.62504700  1
  Mn  Mn13  1  0.24809400  0.24809400  0.87682400  1
  Mn  Mn14  1  0.50000000  0.50000000  0.50000000  1
  Mn  Mn15  1  0.75190600  0.75190600  0.12317600  1
  O  O16  1  0.55622600  0.55622600  0.77669000  1
  O  O17  1  0.80831600  0.80831600  0.39794400  1
  O  O18  1  0.05572300  0.05572300  0.05678100  1
  O  O19  1  0.05304100  0.05304100  0.54228400  1
  O  O20  1  0.31012200  0.31012200  0.14788200  1
  O  O21  1  0.55670500  0.55670500  0.27674400  1
  O  O22  1  0.80694100  0.80694100  0.89727100  1
  O  O23  1  0.30922200  0.30922200  0.64717400  1
  O  O24  1  0.69077800  0.69077800  0.35282600  1
  O  O25  1  0.94427700  0.94427700  0.94321900  1
  O  O26  1  0.19168400  0.19168400  0.60205600  1
  O  O27  1  0.19305900  0.19305900  0.10272900  1
  O  O28  1  0.44329500  0.44329500  0.72325600  1
  O  O29  1  0.68987800  0.68987800  0.85211800  1
  O  O30  1  0.94695900  0.94695900  0.45771600  1
  O  O31  1  0.44377400  0.44377400  0.22331000  1
