# generated using pymatgen
data_Li7Ni(O2F)2
_symmetry_space_group_name_H-M   'P 1'
_cell_length_a   5.30445560
_cell_length_b   5.96389767
_cell_length_c   10.27395346
_cell_angle_alpha   82.12422818
_cell_angle_beta   79.99761696
_cell_angle_gamma   119.22966657
_symmetry_Int_Tables_number   1
_chemical_formula_structural   Li7Ni(O2F)2
_chemical_formula_sum   'Li14 Ni2 O8 F4'
_cell_volume   269.85657507
_cell_formula_units_Z   2
loop_
 _symmetry_equiv_pos_site_id
 _symmetry_equiv_pos_as_xyz
  1  'x, y, z'
loop_
 _atom_site_type_symbol
 _atom_site_label
 _atom_site_symmetry_multiplicity
 _atom_site_fract_x
 _atom_site_fract_y
 _atom_site_fract_z
 _atom_site_occupancy
  Li  Li0  1  0.11636700  0.06646800  0.21665600  1
  Li  Li1  1  0.10272300  0.62729800  0.74431600  1
  Li  Li2  1  0.51059500  0.96553500  0.38459300  1
  Li  Li3  1  0.58325800  0.66859100  0.14539900  1
  Li  Li4  1  0.26566600  0.21249600  0.43461500  1
  Li  Li5  1  0.21623700  0.71385200  0.97048400  1
  Li  Li6  1  0.31729700  0.34429300  0.66641700  1
  Li  Li7  1  0.71102900  0.22175600  0.07567100  1
  Li  Li8  1  0.76121900  0.76878100  0.51892400  1
  Li  Li9  1  0.47938400  0.48583000  0.91732700  1
  Li  Li10  1  0.53194500  0.03450100  0.61309200  1
  Li  Li11  1  0.95941200  0.54297800  0.28321500  1
  Li  Li12  1  0.86481900  0.89156500  0.74453900  1
  Li  Li13  1  0.62409700  0.14690200  0.85499300  1
  Ni  Ni14  1  0.05175400  0.05722000  0.93282200  1
  Ni  Ni15  1  0.01714700  0.49400600  0.50443100  1
  O  O16  1  0.09942100  0.82536600  0.38955300  1
  O  O17  1  0.24460800  0.97448200  0.78667600  1
  O  O18  1  0.34005900  0.13117100  0.02616900  1
  O  O19  1  0.35500700  0.68250600  0.56383500  1
  O  O20  1  0.06308600  0.37547000  0.89190400  1
  O  O21  1  0.65889500  0.31471200  0.45893000  1
  O  O22  1  0.64582600  0.82451700  0.94609000  1
  O  O23  1  0.95495200  0.16163600  0.59595600  1
  F  F24  1  0.23378900  0.39312500  0.27262200  1
  F  F25  1  0.86361100  0.55310300  0.12154300  1
  F  F26  1  0.72223200  0.97743600  0.21250100  1
  F  F27  1  0.70556200  0.54440300  0.72673200  1
