# generated using pymatgen
data_Li4MnCo2O7
_symmetry_space_group_name_H-M   'P 1'
_cell_length_a   5.02167000
_cell_length_b   5.11718843
_cell_length_c   10.17036880
_cell_angle_alpha   100.67757204
_cell_angle_beta   98.72846660
_cell_angle_gamma   99.72537834
_symmetry_Int_Tables_number   1
_chemical_formula_structural   Li4MnCo2O7
_chemical_formula_sum   'Li8 Mn2 Co4 O14'
_cell_volume   248.56853991
_cell_formula_units_Z   2
loop_
 _symmetry_equiv_pos_site_id
 _symmetry_equiv_pos_as_xyz
  1  'x, y, z'
loop_
 _atom_site_type_symbol
 _atom_site_label
 _atom_site_symmetry_multiplicity
 _atom_site_fract_x
 _atom_site_fract_y
 _atom_site_fract_z
 _atom_site_occupancy
  Li  Li0  1  0.29917600  0.57686000  0.06239700  1
  Li  Li1  1  0.42631700  0.86039300  0.35924500  1
  Li  Li2  1  0.84302700  0.71377900  0.20986900  1
  Li  Li3  1  0.00453000  0.00224200  0.50727000  1
  Li  Li4  1  0.58923900  0.13362800  0.65550100  1
  Li  Li5  1  0.15762700  0.28566800  0.78915800  1
  Li  Li6  1  0.70279100  0.42182700  0.92300100  1
  Li  Li7  1  0.43572800  0.85867500  0.86215700  1
  Mn  Mn8  1  0.99908500  0.99838400  0.99669200  1
  Mn  Mn9  1  0.13703700  0.28987700  0.28242800  1
  Co  Co10  1  0.28398000  0.57770700  0.58116800  1
  Co  Co11  1  0.56697800  0.14504600  0.14002000  1
  Co  Co12  1  0.71011100  0.43759500  0.43286100  1
  Co  Co13  1  0.85542100  0.70596500  0.72166400  1
  O  O14  1  0.06050400  0.66710600  0.90020700  1
  O  O15  1  0.21653700  0.96149200  0.17321300  1
  O  O16  1  0.66175200  0.82245900  0.04215700  1
  O  O17  1  0.78491100  0.10238700  0.31130400  1
  O  O18  1  0.33752200  0.23104300  0.44875700  1
  O  O19  1  0.92721300  0.36082900  0.60039800  1
  O  O20  1  0.51415400  0.49874300  0.74126800  1
  O  O21  1  0.47940800  0.47387300  0.24714000  1
  O  O22  1  0.64736800  0.76612600  0.53335200  1
  O  O23  1  0.06724400  0.61641200  0.38411000  1
  O  O24  1  0.20861100  0.89736300  0.67213700  1
  O  O25  1  0.81466200  0.06301400  0.83268000  1
  O  O26  1  0.34940300  0.20107200  0.97789800  1
  O  O27  1  0.91966400  0.33043500  0.11194800  1
