# generated using pymatgen
data_Li9Mn2Co5O16
_symmetry_space_group_name_H-M   'P 1'
_cell_length_a   2.89371634
_cell_length_b   19.45355558
_cell_length_c   5.17141053
_cell_angle_alpha   91.78683082
_cell_angle_beta   88.49182292
_cell_angle_gamma   87.06058099
_symmetry_Int_Tables_number   1
_chemical_formula_structural   Li9Mn2Co5O16
_chemical_formula_sum   'Li9 Mn2 Co5 O16'
_cell_volume   290.47651992
_cell_formula_units_Z   1
loop_
 _symmetry_equiv_pos_site_id
 _symmetry_equiv_pos_as_xyz
  1  'x, y, z'
loop_
 _atom_site_type_symbol
 _atom_site_label
 _atom_site_symmetry_multiplicity
 _atom_site_fract_x
 _atom_site_fract_y
 _atom_site_fract_z
 _atom_site_occupancy
  Li  Li0  1  0.91428700  0.14098000  0.72031100  1
  Li  Li1  1  0.32534800  0.37212900  0.55030800  1
  Li  Li2  1  0.68902400  0.62258800  0.43981500  1
  Li  Li3  1  0.06334700  0.87230200  0.31364800  1
  Li  Li4  1  0.42677900  0.13020900  0.19692800  1
  Li  Li5  1  0.81698300  0.36921900  0.03827100  1
  Li  Li6  1  0.18654900  0.62208300  0.93892400  1
  Li  Li7  1  0.55944800  0.87374400  0.81155200  1
  Li  Li8  1  0.37541300  0.25140600  0.87737200  1
  Mn  Mn9  1  0.99903200  0.99987400  0.99977900  1
  Mn  Mn10  1  0.87742600  0.24990800  0.37425700  1
  Co  Co11  1  0.75207200  0.49880700  0.74740500  1
  Co  Co12  1  0.12522500  0.74981000  0.62590800  1
  Co  Co13  1  0.49756200  0.00069300  0.50117700  1
  Co  Co14  1  0.25242500  0.49918800  0.24715200  1
  Co  Co15  1  0.62447600  0.74949700  0.12538600  1
  O  O16  1  0.48530900  0.05605600  0.86748100  1
  O  O17  1  0.84727500  0.30741800  0.68128800  1
  O  O18  1  0.20708100  0.55790900  0.59806400  1
  O  O19  1  0.58092100  0.80905500  0.47556200  1
  O  O20  1  0.97655200  0.05181800  0.32276500  1
  O  O21  1  0.36379200  0.30496000  0.23141100  1
  O  O22  1  0.70635000  0.55806100  0.09579200  1
  O  O23  1  0.07754600  0.80818700  0.97628900  1
  O  O24  1  0.39291700  0.19326400  0.51935700  1
  O  O25  1  0.79663900  0.44331900  0.39834100  1
  O  O26  1  0.17074300  0.69282900  0.27772500  1
  O  O27  1  0.51459600  0.94268800  0.13250900  1
  O  O28  1  0.90791400  0.19174200  0.06473300  1
  O  O29  1  0.29807200  0.44156900  0.89973900  1
  O  O30  1  0.66634800  0.69329000  0.77636200  1
  O  O31  1  0.02254900  0.94540000  0.67438700  1
