# generated using pymatgen
data_Li3Fe5(PO4)6
_symmetry_space_group_name_H-M   'P 1'
_cell_length_a   6.37265796
_cell_length_b   15.86144426
_cell_length_c   10.92357233
_cell_angle_alpha   89.76097769
_cell_angle_beta   91.18992767
_cell_angle_gamma   101.58872447
_symmetry_Int_Tables_number   1
_chemical_formula_structural   Li3Fe5(PO4)6
_chemical_formula_sum   'Li6 Fe10 P12 O48'
_cell_volume   1081.40830411
_cell_formula_units_Z   2
loop_
 _symmetry_equiv_pos_site_id
 _symmetry_equiv_pos_as_xyz
  1  'x, y, z'
loop_
 _atom_site_type_symbol
 _atom_site_label
 _atom_site_symmetry_multiplicity
 _atom_site_fract_x
 _atom_site_fract_y
 _atom_site_fract_z
 _atom_site_occupancy
  Li  Li0  1  0.20790917  0.72769302  0.43427500  1
  Li  Li1  1  0.03003144  0.06006187  0.25000000  1
  Li  Li2  1  0.51978286  0.72769302  0.06572500  1
  Li  Li3  1  0.48021714  0.27230698  0.93427500  1
  Li  Li4  1  0.96996856  0.93993813  0.75000000  1
  Li  Li5  1  0.79209083  0.27230698  0.56572500  1
  Fe  Fe6  1  0.19642759  0.89907953  0.07691571  1
  Fe  Fe7  1  0.00000000  0.50000000  0.00000000  1
  Fe  Fe8  1  0.19172147  0.38344295  0.75000000  1
  Fe  Fe9  1  0.18630472  0.37261045  0.25000000  1
  Fe  Fe10  1  0.29734807  0.10092047  0.57691571  1
  Fe  Fe11  1  0.50000000  0.50000000  0.50000000  1
  Fe  Fe12  1  0.70265193  0.89907953  0.42308429  1
  Fe  Fe13  1  0.81369528  0.62738955  0.75000000  1
  Fe  Fe14  1  0.80827853  0.61655705  0.25000000  1
  Fe  Fe15  1  0.80357241  0.10092047  0.92308429  1
  P  P16  1  0.21359163  0.94406222  0.37059737  1
  P  P17  1  0.00493387  0.29660100  0.99614286  1
  P  P18  1  0.28147005  0.56294009  0.75000000  1
  P  P19  1  0.27941857  0.55883714  0.25000000  1
  P  P20  1  0.29166714  0.29660100  0.50385714  1
  P  P21  1  0.26952940  0.05593778  0.87059737  1
  P  P22  1  0.73047060  0.94406222  0.12940263  1
  P  P23  1  0.70833286  0.70339900  0.49614286  1
  P  P24  1  0.72058143  0.44116286  0.75000000  1
  P  P25  1  0.71852995  0.43705991  0.25000000  1
  P  P26  1  0.99506613  0.70339900  0.00385714  1
  P  P27  1  0.78640837  0.05593778  0.62940263  1
  O  O28  1  0.00536602  0.88681362  0.41677588  1
  O  O29  1  0.20419731  0.96539056  0.23048208  1
  O  O30  1  0.21107391  0.96390172  0.92664997  1
  O  O31  1  0.18520202  0.77980054  0.03144192  1
  O  O32  1  0.10079718  0.62396415  0.00318755  1
  O  O33  1  0.11674896  0.61878190  0.72342533  1
  O  O34  1  0.12320133  0.61893584  0.27578494  1
  O  O35  1  0.39174384  0.89482529  0.40134931  1
  O  O36  1  0.21380990  0.49544192  0.85791797  1
  O  O37  1  0.21064618  0.49261758  0.14184112  1
  O  O38  1  0.11850347  0.28528528  0.11942735  1
  O  O39  1  0.17532376  0.30400853  0.89406717  1
  O  O40  1  0.12868478  0.30400853  0.60593283  1
  O  O41  1  0.16678181  0.28528528  0.38057265  1
  O  O42  1  0.28163202  0.49544192  0.64208203  1
  O  O43  1  0.28197140  0.49261758  0.35815888  1
  O  O44  1  0.50308145  0.89482529  0.09865069  1
  O  O45  1  0.11855340  0.11318638  0.91677588  1
  O  O46  1  0.50203294  0.61878190  0.77657467  1
  O  O47  1  0.49573450  0.61893584  0.22421506  1
  O  O48  1  0.52316697  0.62396415  0.49681245  1
  O  O49  1  0.23880675  0.03460944  0.73048208  1
  O  O50  1  0.59459852  0.77980054  0.46855808  1
  O  O51  1  0.24717219  0.03609928  0.42664997  1
  O  O52  1  0.75282781  0.96390172  0.57335003  1
  O  O53  1  0.40540148  0.22019946  0.53144192  1
  O  O54  1  0.76119325  0.96539056  0.26951792  1
  O  O55  1  0.47683303  0.37603585  0.50318755  1
  O  O56  1  0.50426550  0.38106416  0.77578494  1
  O  O57  1  0.49796706  0.38121810  0.22342533  1
  O  O58  1  0.88144660  0.88681362  0.08322412  1
  O  O59  1  0.49691855  0.10517471  0.90134931  1
  O  O60  1  0.71802860  0.50738242  0.64184112  1
  O  O61  1  0.71836798  0.50455808  0.35791797  1
  O  O62  1  0.83321819  0.71471472  0.61942735  1
  O  O63  1  0.87131522  0.69599147  0.39406717  1
  O  O64  1  0.82467624  0.69599147  0.10593283  1
  O  O65  1  0.88149653  0.71471472  0.88057265  1
  O  O66  1  0.78935382  0.50738242  0.85815888  1
  O  O67  1  0.78619010  0.50455808  0.14208203  1
  O  O68  1  0.60825616  0.10517471  0.59865069  1
  O  O69  1  0.87679867  0.38106416  0.72421506  1
  O  O70  1  0.88325104  0.38121810  0.27657467  1
  O  O71  1  0.89920282  0.37603585  0.99681245  1
  O  O72  1  0.81479798  0.22019946  0.96855808  1
  O  O73  1  0.78892609  0.03609928  0.07335003  1
  O  O74  1  0.79580269  0.03460944  0.76951792  1
  O  O75  1  0.99463398  0.11318638  0.58322412  1
