# generated using pymatgen
data_Li4Mn3O7
_symmetry_space_group_name_H-M   'P 1'
_cell_length_a   2.99282100
_cell_length_b   8.18466985
_cell_length_c   10.73444166
_cell_angle_alpha   78.81828842
_cell_angle_beta   85.91355540
_cell_angle_gamma   88.97884986
_symmetry_Int_Tables_number   1
_chemical_formula_structural   Li4Mn3O7
_chemical_formula_sum   'Li8 Mn6 O14'
_cell_volume   257.29348483
_cell_formula_units_Z   2
loop_
 _symmetry_equiv_pos_site_id
 _symmetry_equiv_pos_as_xyz
  1  'x, y, z'
loop_
 _atom_site_type_symbol
 _atom_site_label
 _atom_site_symmetry_multiplicity
 _atom_site_fract_x
 _atom_site_fract_y
 _atom_site_fract_z
 _atom_site_occupancy
  Li  Li0  1  0.71890200  0.85624800  0.56836200  1
  Li  Li1  1  0.42223400  0.70028800  0.14200100  1
  Li  Li2  1  0.13196500  0.56836300  0.72348800  1
  Li  Li3  1  0.28109800  0.14375200  0.43163800  1
  Li  Li4  1  0.00000000  0.00000000  0.00000000  1
  Li  Li5  1  0.86803500  0.43163700  0.27651200  1
  Li  Li6  1  0.57776600  0.29971200  0.85799900  1
  Li  Li7  1  0.00000000  0.50000000  0.00000000  1
  Mn  Mn8  1  0.56441900  0.77484100  0.86199900  1
  Mn  Mn9  1  0.43558100  0.22515900  0.13800100  1
  Mn  Mn10  1  0.28633900  0.64258700  0.42734600  1
  Mn  Mn11  1  0.71366100  0.35741300  0.57265400  1
  Mn  Mn12  1  0.13375300  0.06994500  0.71836400  1
  Mn  Mn13  1  0.86624700  0.93005500  0.28163600  1
  O  O14  1  0.11143800  0.82523500  0.73115600  1
  O  O15  1  0.88789500  0.68811000  0.28721200  1
  O  O16  1  0.58033800  0.55431800  0.85387300  1
  O  O17  1  0.74135500  0.11380500  0.57571000  1
  O  O18  1  0.46147000  0.97544200  0.14764700  1
  O  O19  1  0.31679800  0.39996000  0.43432100  1
  O  O20  1  0.96789400  0.24538600  0.01917700  1
  O  O21  1  0.25864500  0.88619500  0.42429000  1
  O  O22  1  0.03210600  0.75461400  0.98082300  1
  O  O23  1  0.68320200  0.60004000  0.56567900  1
  O  O24  1  0.88856200  0.17476500  0.26884400  1
  O  O25  1  0.53853000  0.02455800  0.85235300  1
  O  O26  1  0.41966200  0.44568200  0.14612700  1
  O  O27  1  0.11210500  0.31189000  0.71278800  1
