# generated using pymatgen
data_Li4Mn3O7
_symmetry_space_group_name_H-M   'P 1'
_cell_length_a   7.82022692
_cell_length_b   7.82022692
_cell_length_c   13.56112338
_cell_angle_alpha   60.60784581
_cell_angle_beta   60.60784581
_cell_angle_gamma   21.24412360
_symmetry_Int_Tables_number   1
_chemical_formula_structural   Li4Mn3O7
_chemical_formula_sum   'Li8 Mn6 O14'
_cell_volume   260.36034193
_cell_formula_units_Z   2
loop_
 _symmetry_equiv_pos_site_id
 _symmetry_equiv_pos_as_xyz
  1  'x, y, z'
loop_
 _atom_site_type_symbol
 _atom_site_label
 _atom_site_symmetry_multiplicity
 _atom_site_fract_x
 _atom_site_fract_y
 _atom_site_fract_z
 _atom_site_occupancy
  Li  Li0  1  0.06985500  0.06985500  0.64958100  1
  Li  Li1  1  0.36193800  0.36193800  0.20462300  1
  Li  Li2  1  0.63806200  0.63806200  0.79537700  1
  Li  Li3  1  0.50000000  0.50000000  0.50000000  1
  Li  Li4  1  0.79444300  0.79444300  0.06356300  1
  Li  Li5  1  0.93014500  0.93014500  0.35041900  1
  Li  Li6  1  0.20555700  0.20555700  0.93643700  1
  Li  Li7  1  0.00000000  0.00000000  0.00000000  1
  Mn  Mn8  1  0.42950600  0.42950600  0.86890800  1
  Mn  Mn9  1  0.57049400  0.57049400  0.13109200  1
  Mn  Mn10  1  0.71359300  0.71359300  0.42698400  1
  Mn  Mn11  1  0.28640700  0.28640700  0.57301600  1
  Mn  Mn12  1  0.85530200  0.85530200  0.72397700  1
  Mn  Mn13  1  0.14469800  0.14469800  0.27602300  1
  O  O14  1  0.02696400  0.02696400  0.82445600  1
  O  O15  1  0.31143400  0.31143400  0.39046100  1
  O  O16  1  0.60366500  0.60366500  0.98219600  1
  O  O17  1  0.45332300  0.45332300  0.69557400  1
  O  O18  1  0.74130500  0.74130500  0.24460900  1
  O  O19  1  0.88574200  0.88574200  0.53560000  1
  O  O20  1  0.16494400  0.16494400  0.10694200  1
  O  O21  1  0.11425800  0.11425800  0.46440000  1
  O  O22  1  0.39633500  0.39633500  0.01780400  1
  O  O23  1  0.68856600  0.68856600  0.60953900  1
  O  O24  1  0.54667700  0.54667700  0.30442600  1
  O  O25  1  0.83505600  0.83505600  0.89305800  1
  O  O26  1  0.97303600  0.97303600  0.17554400  1
  O  O27  1  0.25869500  0.25869500  0.75539100  1
