# generated using pymatgen
data_LiAlGeO4
_symmetry_space_group_name_H-M   'P 1'
_cell_length_a   8.63487424
_cell_length_b   8.63487424
_cell_length_c   8.63487430
_cell_angle_alpha   107.82906755
_cell_angle_beta   107.82906755
_cell_angle_gamma   107.82905956
_symmetry_Int_Tables_number   1
_chemical_formula_structural   LiAlGeO4
_chemical_formula_sum   'Li6 Al6 Ge6 O24'
_cell_volume   523.58445848
_cell_formula_units_Z   6
loop_
 _symmetry_equiv_pos_site_id
 _symmetry_equiv_pos_as_xyz
  1  'x, y, z'
loop_
 _atom_site_type_symbol
 _atom_site_label
 _atom_site_symmetry_multiplicity
 _atom_site_fract_x
 _atom_site_fract_y
 _atom_site_fract_z
 _atom_site_occupancy
  Li  Li0  1  0.23958300  0.46848800  0.07128000  1
  Li  Li1  1  0.46848800  0.07128000  0.23958300  1
  Li  Li2  1  0.07128000  0.23958300  0.46848800  1
  Li  Li3  1  0.76041700  0.53151200  0.92872000  1
  Li  Li4  1  0.53151200  0.92872000  0.76041700  1
  Li  Li5  1  0.92872000  0.76041700  0.53151200  1
  Al  Al6  1  0.56811000  0.78909300  0.38440400  1
  Al  Al7  1  0.38440400  0.56811000  0.78909300  1
  Al  Al8  1  0.43189000  0.21090700  0.61559600  1
  Al  Al9  1  0.21090700  0.61559600  0.43189000  1
  Al  Al10  1  0.61559600  0.43189000  0.21090700  1
  Al  Al11  1  0.78909300  0.38440400  0.56811000  1
  Ge  Ge12  1  0.13322100  0.72045600  0.89352500  1
  Ge  Ge13  1  0.72045600  0.89352500  0.13322100  1
  Ge  Ge14  1  0.10647500  0.86677900  0.27954400  1
  Ge  Ge15  1  0.86677900  0.27954400  0.10647500  1
  Ge  Ge16  1  0.27954400  0.10647500  0.86677900  1
  Ge  Ge17  1  0.89352500  0.13322100  0.72045600  1
  O  O18  1  0.34484000  0.68491100  0.65967900  1
  O  O19  1  0.37928700  0.32278000  0.04814500  1
  O  O20  1  0.04814500  0.37928700  0.32278000  1
  O  O21  1  0.32278000  0.04814500  0.37928700  1
  O  O22  1  0.62071300  0.67722000  0.95185500  1
  O  O23  1  0.95185500  0.62071300  0.67722000  1
  O  O24  1  0.67722000  0.95185500  0.62071300  1
  O  O25  1  0.68491100  0.65967900  0.34484000  1
  O  O26  1  0.73979200  0.40108100  0.07910600  1
  O  O27  1  0.65967900  0.34484000  0.68491100  1
  O  O28  1  0.31508900  0.34032100  0.65516000  1
  O  O29  1  0.65516000  0.31508900  0.34032100  1
  O  O30  1  0.26020800  0.59891900  0.92089400  1
  O  O31  1  0.59891900  0.92089400  0.26020800  1
  O  O32  1  0.92089400  0.26020800  0.59891900  1
  O  O33  1  0.97312400  0.27972900  0.95504900  1
  O  O34  1  0.40108100  0.07910600  0.73979200  1
  O  O35  1  0.07910600  0.73979200  0.40108100  1
  O  O36  1  0.04495100  0.02687600  0.72027100  1
  O  O37  1  0.27972900  0.95504900  0.97312400  1
  O  O38  1  0.95504900  0.97312400  0.27972900  1
  O  O39  1  0.02687600  0.72027100  0.04495100  1
  O  O40  1  0.72027100  0.04495100  0.02687600  1
  O  O41  1  0.34032100  0.65516000  0.31508900  1
