# generated using pymatgen
data_NaLi3Fe4(SiO3)8
_symmetry_space_group_name_H-M   'P 1'
_cell_length_a   5.36065200
_cell_length_b   6.58642575
_cell_length_c   12.92520906
_cell_angle_alpha   90.43662251
_cell_angle_beta   99.26644175
_cell_angle_gamma   104.40846518
_symmetry_Int_Tables_number   1
_chemical_formula_structural   NaLi3Fe4(SiO3)8
_chemical_formula_sum   'Na1 Li3 Fe4 Si8 O24'
_cell_volume   435.69195160
_cell_formula_units_Z   1
loop_
 _symmetry_equiv_pos_site_id
 _symmetry_equiv_pos_as_xyz
  1  'x, y, z'
loop_
 _atom_site_type_symbol
 _atom_site_label
 _atom_site_symmetry_multiplicity
 _atom_site_fract_x
 _atom_site_fract_y
 _atom_site_fract_z
 _atom_site_occupancy
  Na  Na0  1  0.10429400  0.70829200  0.85428600  1
  Li  Li1  1  0.61474800  0.72963000  0.36436300  1
  Li  Li2  1  0.38533800  0.27023700  0.63528600  1
  Li  Li3  1  0.88520500  0.27089700  0.13529900  1
  Fe  Fe4  1  0.80110000  0.10061600  0.54987400  1
  Fe  Fe5  1  0.30004600  0.10167100  0.05135900  1
  Fe  Fe6  1  0.70018400  0.90084300  0.95109600  1
  Fe  Fe7  1  0.20009900  0.89968100  0.44916800  1
  Si  Si8  1  0.84523000  0.61512200  0.60083200  1
  Si  Si9  1  0.34593800  0.61673600  0.10408400  1
  Si  Si10  1  0.06196000  0.20443700  0.80790600  1
  Si  Si11  1  0.56770600  0.20534500  0.30805200  1
  Si  Si12  1  0.64971700  0.38236500  0.89835200  1
  Si  Si13  1  0.15737800  0.38483600  0.39779000  1
  Si  Si14  1  0.43905100  0.79735800  0.69063600  1
  Si  Si15  1  0.93353100  0.79493000  0.19297700  1
  O  O16  1  0.63504800  0.64582800  0.67650100  1
  O  O17  1  0.13127100  0.64564400  0.17781100  1
  O  O18  1  0.36402300  0.35443900  0.82233400  1
  O  O19  1  0.86962200  0.35406500  0.32333800  1
  O  O20  1  0.86066500  0.35243900  0.82223900  1
  O  O21  1  0.36952900  0.35413200  0.32333100  1
  O  O22  1  0.13620600  0.64689000  0.67430300  1
  O  O23  1  0.63237000  0.64449900  0.17924800  1
  O  O24  1  0.86640300  0.79865100  0.51399600  1
  O  O25  1  0.37446200  0.80448000  0.01944800  1
  O  O26  1  0.04650900  0.03726700  0.90249800  1
  O  O27  1  0.54750200  0.02959600  0.39909100  1
  O  O28  1  0.63118000  0.19990800  0.98551600  1
  O  O29  1  0.13352600  0.20202600  0.48550000  1
  O  O30  1  0.45390200  0.97144500  0.59928900  1
  O  O31  1  0.95341400  0.97054200  0.10169100  1
  O  O32  1  0.73157200  0.37586500  0.55462800  1
  O  O33  1  0.23191300  0.37875900  0.05520600  1
  O  O34  1  0.01102800  0.10845300  0.68875300  1
  O  O35  1  0.51292200  0.11116800  0.18852000  1
  O  O36  1  0.75287600  0.61922500  0.94869400  1
  O  O37  1  0.26905200  0.62391400  0.44511800  1
  O  O38  1  0.50478600  0.89677500  0.80944400  1
  O  O39  1  0.98869400  0.89099400  0.31214500  1
