# generated using pymatgen
data_Li7Mn5O12
_symmetry_space_group_name_H-M   'P 1'
_cell_length_a   6.52035426
_cell_length_b   9.00732733
_cell_length_c   7.80859045
_cell_angle_alpha   83.08616764
_cell_angle_beta   87.06745593
_cell_angle_gamma   76.56762362
_symmetry_Int_Tables_number   1
_chemical_formula_structural   Li7Mn5O12
_chemical_formula_sum   'Li14 Mn10 O24'
_cell_volume   442.68935642
_cell_formula_units_Z   2
loop_
 _symmetry_equiv_pos_site_id
 _symmetry_equiv_pos_as_xyz
  1  'x, y, z'
loop_
 _atom_site_type_symbol
 _atom_site_label
 _atom_site_symmetry_multiplicity
 _atom_site_fract_x
 _atom_site_fract_y
 _atom_site_fract_z
 _atom_site_occupancy
  Li  Li0  1  0.25169000  0.41630200  0.24598300  1
  Li  Li1  1  0.74843300  0.91699600  0.75393000  1
  Li  Li2  1  0.62867800  0.55003200  0.11662200  1
  Li  Li3  1  0.12661000  0.05097800  0.61934600  1
  Li  Li4  1  0.37130000  0.78328700  0.88335300  1
  Li  Li5  1  0.87341500  0.28236500  0.38052800  1
  Li  Li6  1  0.61321900  0.20741400  0.13007200  1
  Li  Li7  1  0.11373600  0.71617100  0.62718300  1
  Li  Li8  1  0.88634200  0.61709300  0.37283800  1
  Li  Li9  1  0.38685500  0.12585900  0.86993200  1
  Li  Li10  1  0.62239000  0.87979300  0.11358900  1
  Li  Li11  1  0.12214200  0.36848000  0.61984800  1
  Li  Li12  1  0.37761200  0.45362800  0.88637000  1
  Li  Li13  1  0.87783700  0.96488900  0.38005200  1
  Mn  Mn14  1  0.49993500  0.16669900  0.50008200  1
  Mn  Mn15  1  0.99997500  0.66662700  0.00008200  1
  Mn  Mn16  1  0.99227000  0.99701000  0.00362900  1
  Mn  Mn17  1  0.49953000  0.49706300  0.49985200  1
  Mn  Mn18  1  0.00779500  0.33631700  0.99628500  1
  Mn  Mn19  1  0.50051700  0.83628400  0.50009200  1
  Mn  Mn20  1  0.24890300  0.74427200  0.25599800  1
  Mn  Mn21  1  0.74904800  0.24136200  0.75328600  1
  Mn  Mn22  1  0.75108700  0.58908000  0.74400300  1
  Mn  Mn23  1  0.25091100  0.09202700  0.24672400  1
  O  O24  1  0.55730300  0.34157300  0.34130600  1
  O  O25  1  0.05429400  0.84122100  0.84425100  1
  O  O26  1  0.94568300  0.49197900  0.15585700  1
  O  O27  1  0.44264800  0.99172800  0.65876300  1
  O  O28  1  0.04667800  0.54134900  0.80889000  1
  O  O29  1  0.54815000  0.03645100  0.31653300  1
  O  O30  1  0.95329100  0.79198600  0.19121800  1
  O  O31  1  0.45172000  0.29700400  0.68360600  1
  O  O32  1  0.04516000  0.19521900  0.81263000  1
  O  O33  1  0.54165900  0.70111500  0.31114100  1
  O  O34  1  0.45834600  0.63222200  0.68880400  1
  O  O35  1  0.95485600  0.13812500  0.18729600  1
  O  O36  1  0.29426200  0.61638200  0.06944000  1
  O  O37  1  0.79454700  0.11091100  0.56568300  1
  O  O38  1  0.70572000  0.71690300  0.93063600  1
  O  O39  1  0.20535100  0.22247800  0.43438000  1
  O  O40  1  0.29833500  0.27395000  0.05236800  1
  O  O41  1  0.78944300  0.75637300  0.57563200  1
  O  O42  1  0.70169500  0.05935400  0.94759500  1
  O  O43  1  0.21058600  0.57694600  0.42433200  1
  O  O44  1  0.80076400  0.45121000  0.56513300  1
  O  O45  1  0.29136300  0.92723600  0.08752500  1
  O  O46  1  0.70865000  0.40609700  0.91245600  1
  O  O47  1  0.19926900  0.88216000  0.43484900  1
