# generated using pymatgen
data_LiCrP2O7
_symmetry_space_group_name_H-M   'P 1'
_cell_length_a   6.44941208
_cell_length_b   6.44938831
_cell_length_c   6.69420726
_cell_angle_alpha   70.40320934
_cell_angle_beta   70.40644084
_cell_angle_gamma   80.04206837
_symmetry_Int_Tables_number   1
_chemical_formula_structural   LiCrP2O7
_chemical_formula_sum   'Li2 Cr2 P4 O14'
_cell_volume   246.55221392
_cell_formula_units_Z   2
loop_
 _symmetry_equiv_pos_site_id
 _symmetry_equiv_pos_as_xyz
  1  'x, y, z'
loop_
 _atom_site_type_symbol
 _atom_site_label
 _atom_site_symmetry_multiplicity
 _atom_site_fract_x
 _atom_site_fract_y
 _atom_site_fract_z
 _atom_site_occupancy
  Li  Li0  1  0.32385600  0.17612100  0.00001400  1
  Li  Li1  1  0.67604800  0.82393800  0.00000500  1
  Cr  Cr2  1  0.18343800  0.31657900  0.50000700  1
  Cr  Cr3  1  0.81669500  0.68339500  0.49993500  1
  P  P4  1  0.80586300  0.30588300  0.94152400  1
  P  P5  1  0.19410200  0.69412900  0.05849000  1
  P  P6  1  0.72132300  0.22131100  0.44640900  1
  P  P7  1  0.27872000  0.77865600  0.55358400  1
  O  O8  1  0.35401600  0.85404300  0.02946200  1
  O  O9  1  0.64591700  0.14599200  0.97055100  1
  O  O10  1  0.80530100  0.30538300  0.18372100  1
  O  O11  1  0.19465000  0.69465800  0.81626800  1
  O  O12  1  0.14050200  0.64039400  0.49600100  1
  O  O13  1  0.85957800  0.35954000  0.50398700  1
  O  O14  1  0.25889400  0.44701900  0.16483400  1
  O  O15  1  0.05295700  0.24109800  0.83517800  1
  O  O16  1  0.74109200  0.55298900  0.83516800  1
  O  O17  1  0.94700600  0.75890500  0.16484200  1
  O  O18  1  0.52180900  0.71758900  0.46330600  1
  O  O19  1  0.47824500  0.28242200  0.53673200  1
  O  O20  1  0.78242000  0.97822400  0.53670800  1
  O  O21  1  0.21756800  0.02173200  0.46327600  1
