# generated using pymatgen
data_Li4V3P8O29
_symmetry_space_group_name_H-M   'P 1'
_cell_length_a   9.73801100
_cell_length_b   9.74914850
_cell_length_c   14.30397176
_cell_angle_alpha   91.03195313
_cell_angle_beta   89.70885678
_cell_angle_gamma   119.60357151
_symmetry_Int_Tables_number   1
_chemical_formula_structural   Li4V3P8O29
_chemical_formula_sum   'Li8 V6 P16 O58'
_cell_volume   1180.51262484
_cell_formula_units_Z   2
loop_
 _symmetry_equiv_pos_site_id
 _symmetry_equiv_pos_as_xyz
  1  'x, y, z'
loop_
 _atom_site_type_symbol
 _atom_site_label
 _atom_site_symmetry_multiplicity
 _atom_site_fract_x
 _atom_site_fract_y
 _atom_site_fract_z
 _atom_site_occupancy
  Li  Li0  1  0.90508500  0.66593500  0.43603800  1
  Li  Li1  1  0.76314500  0.66022000  0.93936200  1
  Li  Li2  1  0.32321100  0.09095600  0.93719500  1
  Li  Li3  1  0.32582200  0.23488200  0.44316400  1
  Li  Li4  1  0.23093900  0.32510500  0.06051100  1
  Li  Li5  1  0.09527900  0.32932500  0.56394900  1
  Li  Li6  1  0.93968900  0.98447800  0.01218700  1
  Li  Li7  1  0.94426300  0.95835300  0.50104900  1
  V  V8  1  0.56726300  0.57177400  0.74699300  1
  V  V9  1  0.43727600  0.43551600  0.25185300  1
  V  V10  1  0.56589400  0.00200000  0.25185300  1
  V  V11  1  0.43913800  0.99828600  0.74971200  1
  V  V12  1  0.99560200  0.43278400  0.75446100  1
  V  V13  1  0.00454100  0.56512300  0.24622200  1
  P  P14  1  0.91572400  0.21408300  0.16803800  1
  P  P15  1  0.78174900  0.08144000  0.65896500  1
  P  P16  1  0.91389700  0.68534700  0.65353500  1
  P  P17  1  0.66498600  0.34027600  0.86857600  1
  P  P18  1  0.66980400  0.33667500  0.36777100  1
  P  P19  1  0.77304600  0.68157300  0.15383500  1
  P  P20  1  0.69502200  0.78183600  0.33320600  1
  P  P21  1  0.31375400  0.08601300  0.15377100  1
  P  P22  1  0.69804000  0.92015400  0.84285100  1
  P  P23  1  0.31705100  0.22481300  0.66252800  1
  P  P24  1  0.22863500  0.31994400  0.84098600  1
  P  P25  1  0.32493000  0.65759000  0.63430300  1
  P  P26  1  0.33486300  0.66593700  0.13323200  1
  P  P27  1  0.09059000  0.31875100  0.34881900  1
  P  P28  1  0.21874500  0.91880000  0.33466100  1
  P  P29  1  0.08467800  0.78362600  0.83428500  1
  O  O30  1  0.01918300  0.24605600  0.43987900  1
  O  O31  1  0.92115900  0.25794800  0.66811000  1
  O  O32  1  0.79027400  0.99718800  0.92855100  1
  O  O33  1  0.74199900  0.08054900  0.16885300  1
  O  O34  1  0.92165500  0.37704100  0.17430900  1
  O  O35  1  0.81072300  0.33557100  0.82004100  1
  O  O36  1  0.91578700  0.53000700  0.67007000  1
  O  O37  1  0.98570300  0.79058500  0.91179100  1
  O  O38  1  0.91526200  0.65241500  0.17071500  1
  O  O39  1  0.66989200  0.18803200  0.32162300  1
  O  O40  1  0.62410300  0.07908500  0.66911600  1
  O  O41  1  0.81690000  0.48547100  0.32583600  1
  O  O42  1  0.68026100  0.35992600  0.97203800  1
  O  O43  1  0.67368200  0.34201500  0.47180800  1
  O  O44  1  0.67031700  0.49119200  0.82611300  1
  O  O45  1  0.47116500  0.08811000  0.17367000  1
  O  O46  1  0.51315400  0.19062800  0.83349000  1
  O  O47  1  0.74333600  0.65701600  0.67078300  1
  O  O48  1  0.78933900  0.80347200  0.23638600  1
  O  O49  1  0.79978700  0.79174000  0.41200800  1
  O  O50  1  0.79111500  0.76201200  0.06293000  1
  O  O51  1  0.61945100  0.52760900  0.16811100  1
  O  O52  1  0.51387000  0.32663700  0.32977500  1
  O  O53  1  0.65796900  0.74306100  0.83639600  1
  O  O54  1  0.47488100  0.38078200  0.67781000  1
  O  O55  1  0.34679600  0.08469200  0.66799900  1
  O  O56  1  0.80242200  0.99932700  0.75153300  1
  O  O57  1  0.80906100  0.00655100  0.57539000  1
  O  O58  1  0.20471600  0.01201600  0.41426700  1
  O  O59  1  0.65725600  0.91847000  0.33424900  1
  O  O60  1  0.53864000  0.62300700  0.32518400  1
  O  O61  1  0.33887400  0.25618400  0.16582000  1
  O  O62  1  0.47878000  0.66132500  0.67730200  1
  O  O63  1  0.38344100  0.47562900  0.82565500  1
  O  O64  1  0.23015800  0.23834200  0.92896900  1
  O  O65  1  0.23451800  0.22705300  0.57451700  1
  O  O66  1  0.20612800  0.20706400  0.75137400  1
  O  O67  1  0.26054500  0.34416100  0.34049300  1
  O  O68  1  0.47845400  0.81311200  0.18086200  1
  O  O69  1  0.54118200  0.92335900  0.82881000  1
  O  O70  1  0.32654000  0.51301700  0.17065400  1
  O  O71  1  0.32744000  0.66796300  0.02984100  1
  O  O72  1  0.31563900  0.63353800  0.53132300  1
  O  O73  1  0.18239300  0.50713300  0.68016000  1
  O  O74  1  0.38044600  0.92380000  0.32638600  1
  O  O75  1  0.32652300  0.80384200  0.67737500  1
  O  O76  1  0.08470500  0.34675900  0.83738400  1
  O  O77  1  0.99129400  0.19812100  0.26440400  1
  O  O78  1  0.00540600  0.19621500  0.08783500  1
  O  O79  1  0.09014700  0.47392000  0.32706000  1
  O  O80  1  0.18585300  0.66757100  0.18052000  1
  O  O81  1  0.08120500  0.62191800  0.82431100  1
  O  O82  1  0.25671500  0.92011600  0.83888900  1
  O  O83  1  0.23987300  0.01878800  0.06102700  1
  O  O84  1  0.19531300  0.98500100  0.23625000  1
  O  O85  1  0.08254600  0.74448500  0.33661800  1
  O  O86  1  0.97171600  0.75902400  0.56071400  1
  O  O87  1  0.01904600  0.80655800  0.73490700  1
