# generated using pymatgen
data_LiMn4(PO4)3
_symmetry_space_group_name_H-M   'P 1'
_cell_length_a   6.85078350
_cell_length_b   6.84781207
_cell_length_c   10.86446938
_cell_angle_alpha   71.64364516
_cell_angle_beta   71.68834446
_cell_angle_gamma   89.99566469
_symmetry_Int_Tables_number   1
_chemical_formula_structural   LiMn4(PO4)3
_chemical_formula_sum   'Li2 Mn8 P6 O24'
_cell_volume   456.47955187
_cell_formula_units_Z   2
loop_
 _symmetry_equiv_pos_site_id
 _symmetry_equiv_pos_as_xyz
  1  'x, y, z'
loop_
 _atom_site_type_symbol
 _atom_site_label
 _atom_site_symmetry_multiplicity
 _atom_site_fract_x
 _atom_site_fract_y
 _atom_site_fract_z
 _atom_site_occupancy
  Li  Li0  1  0.49769748  0.49758192  0.00405622  1
  Li  Li1  1  0.24815128  0.74344824  0.50264593  1
  Mn  Mn2  1  0.63660520  0.12540166  0.25069079  1
  Mn  Mn3  1  0.37477684  0.36438667  0.75079171  1
  Mn  Mn4  1  0.98140001  0.47997981  0.04037202  1
  Mn  Mn5  1  0.23016721  0.23059295  0.53907655  1
  Mn  Mn6  1  0.51979167  0.01986898  0.96150163  1
  Mn  Mn7  1  0.76727044  0.76975610  0.46288353  1
  Mn  Mn8  1  0.11021106  0.62604472  0.25117926  1
  Mn  Mn9  1  0.87475572  0.88958944  0.75063506  1
  P  P10  1  0.74917180  0.25183042  0.50070302  1
  P  P11  1  0.87440042  0.47543099  0.75165669  1
  P  P12  1  0.37425105  0.77980831  0.74990027  1
  P  P13  1  0.52449770  0.62574703  0.25050525  1
  P  P14  1  0.22197198  0.12511232  0.25070910  1
  P  P15  1  0.00032744  0.00093496  0.00060452  1
  O  O16  1  0.46808069  0.70056346  0.62339202  1
  O  O17  1  0.62494995  0.79069429  0.28884049  1
  O  O18  1  0.08286041  0.92080360  0.29147333  1
  O  O19  1  0.32086345  0.53120191  0.37809944  1
  O  O20  1  0.21086398  0.91947878  0.70956061  1
  O  O21  1  0.90428737  0.68046628  0.62515475  1
  O  O22  1  0.30176616  0.09427211  0.37671947  1
  O  O23  1  0.27901354  0.57597058  0.87677384  1
  O  O24  1  0.42545325  0.15664467  0.12338158  1
  O  O25  1  0.22872210  0.09569043  0.91795689  1
  O  O26  1  0.84488180  0.55286041  0.87835107  1
  O  O27  1  0.01183816  0.77173147  0.08242860  1
  O  O28  1  0.52057969  0.26366874  0.58299268  1
  O  O29  1  0.84258130  0.48045798  0.41805368  1
  O  O30  1  0.66263271  0.46120421  0.21061356  1
  O  O31  1  0.53952308  0.87937681  0.78853222  1
  O  O32  1  0.89552275  0.15832713  0.58343596  1
  O  O33  1  0.67046355  0.33727824  0.79162970  1
  O  O34  1  0.73816904  0.10497295  0.41803261  1
  O  O35  1  0.44522913  0.72002968  0.12413462  1
  O  O36  1  0.07916291  0.37805668  0.71011520  1
  O  O37  1  0.90619978  0.14571970  0.08435113  1
  O  O38  1  0.12286940  0.32890513  0.21167324  1
  O  O39  1  0.85412150  0.99122225  0.91753375  1
