# generated using pymatgen
data_LiO8
_symmetry_space_group_name_H-M   'P 1'
_cell_length_a   4.34335802
_cell_length_b   5.09148757
_cell_length_c   5.09148805
_cell_angle_alpha   71.42876833
_cell_angle_beta   71.74299047
_cell_angle_gamma   71.74298954
_symmetry_Int_Tables_number   1
_chemical_formula_structural   LiO8
_chemical_formula_sum   'Li1 O8'
_cell_volume   98.46624344
_cell_formula_units_Z   1
loop_
 _symmetry_equiv_pos_site_id
 _symmetry_equiv_pos_as_xyz
  1  'x, y, z'
loop_
 _atom_site_type_symbol
 _atom_site_label
 _atom_site_symmetry_multiplicity
 _atom_site_fract_x
 _atom_site_fract_y
 _atom_site_fract_z
 _atom_site_occupancy
  Li  Li0  1  0.50000000  0.50000000  0.50000000  1
  O  O1  1  0.84299400  0.29580400  0.76633800  1
  O  O2  1  0.15700600  0.23366200  0.70419600  1
  O  O3  1  0.15700600  0.70419600  0.23366200  1
  O  O4  1  0.84299400  0.76633800  0.29580400  1
  O  O5  1  0.83993200  0.22437200  0.22437200  1
  O  O6  1  0.16006800  0.77562800  0.77562800  1
  O  O7  1  0.15046000  0.16299100  0.16299100  1
  O  O8  1  0.84954000  0.83700900  0.83700900  1
