# generated using pymatgen
data_Li4MnCo2O7
_symmetry_space_group_name_H-M   'P 1'
_cell_length_a   2.98189300
_cell_length_b   7.79588402
_cell_length_c   11.19753956
_cell_angle_alpha   79.89137218
_cell_angle_beta   82.81326920
_cell_angle_gamma   81.51667525
_symmetry_Int_Tables_number   1
_chemical_formula_structural   Li4MnCo2O7
_chemical_formula_sum   'Li8 Mn2 Co4 O14'
_cell_volume   252.13985445
_cell_formula_units_Z   2
loop_
 _symmetry_equiv_pos_site_id
 _symmetry_equiv_pos_as_xyz
  1  'x, y, z'
loop_
 _atom_site_type_symbol
 _atom_site_label
 _atom_site_symmetry_multiplicity
 _atom_site_fract_x
 _atom_site_fract_y
 _atom_site_fract_z
 _atom_site_occupancy
  Li  Li0  1  0.77627600  0.35731700  0.08136300  1
  Li  Li1  1  0.95117100  0.78109800  0.35129600  1
  Li  Li2  1  0.07452800  0.21338700  0.64537900  1
  Li  Li3  1  0.21973300  0.64136000  0.93121800  1
  Li  Li4  1  0.34162700  0.08342500  0.21507800  1
  Li  Li5  1  0.49192700  0.50337900  0.49432700  1
  Li  Li6  1  0.64433000  0.92867000  0.78305600  1
  Li  Li7  1  0.16365300  0.41971200  0.28084400  1
  Mn  Mn8  1  0.99228100  0.99712500  0.00231800  1
  Mn  Mn9  1  0.70169800  0.15065700  0.42573300  1
  Co  Co10  1  0.27949100  0.85968200  0.57272700  1
  Co  Co11  1  0.42030400  0.28783800  0.85674100  1
  Co  Co12  1  0.58741500  0.70093900  0.14955900  1
  Co  Co13  1  0.86443300  0.57279400  0.71216500  1
  O  O14  1  0.34980100  0.18119800  0.02821800  1
  O  O15  1  0.53804800  0.62218800  0.30651900  1
  O  O16  1  0.64845400  0.02857400  0.59875000  1
  O  O17  1  0.83139200  0.46361600  0.88126100  1
  O  O18  1  0.94475000  0.88528700  0.17141400  1
  O  O19  1  0.12630700  0.30018200  0.46077700  1
  O  O20  1  0.27588600  0.74646000  0.73856700  1
  O  O21  1  0.21245400  0.54953400  0.11008600  1
  O  O22  1  0.27795100  0.98220400  0.40618400  1
  O  O23  1  0.45802000  0.39518700  0.68481800  1
  O  O24  1  0.63281700  0.81660700  0.97843100  1
  O  O25  1  0.75152400  0.23797400  0.26243500  1
  O  O26  1  0.93010800  0.68456900  0.54014400  1
  O  O27  1  0.01362100  0.10903900  0.83059500  1
