# generated using pymatgen
data_Cs2Li5(BO2)7
_symmetry_space_group_name_H-M   'P 1'
_cell_length_a   7.26799524
_cell_length_b   7.26799524
_cell_length_c   21.61578600
_cell_angle_alpha   90.00000000
_cell_angle_beta   90.00000000
_cell_angle_gamma   144.16151624
_symmetry_Int_Tables_number   1
_chemical_formula_structural   Cs2Li5(BO2)7
_chemical_formula_sum   'Cs4 Li10 B14 O28'
_cell_volume   668.54233305
_cell_formula_units_Z   2
loop_
 _symmetry_equiv_pos_site_id
 _symmetry_equiv_pos_as_xyz
  1  'x, y, z'
loop_
 _atom_site_type_symbol
 _atom_site_label
 _atom_site_symmetry_multiplicity
 _atom_site_fract_x
 _atom_site_fract_y
 _atom_site_fract_z
 _atom_site_occupancy
  Cs  Cs0  1  0.83028100  0.26530500  0.84711100  1
  Cs  Cs1  1  0.26530500  0.83028100  0.15288900  1
  Cs  Cs2  1  0.83028100  0.26530500  0.65288900  1
  Cs  Cs3  1  0.26530500  0.83028100  0.34711100  1
  Li  Li4  1  0.18662100  0.91702900  0.75000000  1
  Li  Li5  1  0.91702900  0.18662100  0.25000000  1
  Li  Li6  1  0.58647200  0.56491100  0.93811500  1
  Li  Li7  1  0.56491100  0.58647200  0.06188500  1
  Li  Li8  1  0.58647200  0.56491100  0.56188500  1
  Li  Li9  1  0.56491100  0.58647200  0.43811500  1
  Li  Li10  1  0.99173000  0.16138900  0.99331100  1
  Li  Li11  1  0.16138900  0.99173000  0.00668900  1
  Li  Li12  1  0.99173000  0.16138900  0.50668900  1
  Li  Li13  1  0.16138900  0.99173000  0.49331100  1
  B  B14  1  0.09574100  0.00312600  0.87168300  1
  B  B15  1  0.00312600  0.09574100  0.12831700  1
  B  B16  1  0.09574100  0.00312600  0.62831700  1
  B  B17  1  0.00312600  0.09574100  0.37168300  1
  B  B18  1  0.58424500  0.51613500  0.80841500  1
  B  B19  1  0.51613500  0.58424500  0.19158500  1
  B  B20  1  0.58424500  0.51613500  0.69158500  1
  B  B21  1  0.51613500  0.58424500  0.30841500  1
  B  B22  1  0.35444100  0.75387800  0.99562500  1
  B  B23  1  0.75387800  0.35444100  0.00437500  1
  B  B24  1  0.35444100  0.75387800  0.50437500  1
  B  B25  1  0.75387800  0.35444100  0.49562500  1
  B  B26  1  0.42511900  0.67473400  0.75000000  1
  B  B27  1  0.67473400  0.42511900  0.25000000  1
  O  O28  1  0.32964900  0.77508600  0.75000000  1
  O  O29  1  0.77508600  0.32964900  0.25000000  1
  O  O30  1  0.47609300  0.62276000  0.80591500  1
  O  O31  1  0.62276000  0.47609300  0.19408500  1
  O  O32  1  0.47609300  0.62276000  0.69408500  1
  O  O33  1  0.62276000  0.47609300  0.30591500  1
  O  O34  1  0.45820900  0.02146000  0.00343900  1
  O  O35  1  0.02146000  0.45820900  0.99656100  1
  O  O36  1  0.45820900  0.02146000  0.49656100  1
  O  O37  1  0.02146000  0.45820900  0.50343900  1
  O  O38  1  0.72645000  0.57081000  0.75000000  1
  O  O39  1  0.57081000  0.72645000  0.25000000  1
  O  O40  1  0.53646100  0.75582600  0.98835100  1
  O  O41  1  0.75582600  0.53646100  0.01164900  1
  O  O42  1  0.53646100  0.75582600  0.51164900  1
  O  O43  1  0.75582600  0.53646100  0.48835100  1
  O  O44  1  0.15532400  0.12726700  0.92805300  1
  O  O45  1  0.12726700  0.15532400  0.07194700  1
  O  O46  1  0.15532400  0.12726700  0.57194700  1
  O  O47  1  0.12726700  0.15532400  0.42805300  1
  O  O48  1  0.30665900  0.16906800  0.82234200  1
  O  O49  1  0.16906800  0.30665900  0.17765800  1
  O  O50  1  0.30665900  0.16906800  0.67765800  1
  O  O51  1  0.16906800  0.30665900  0.32234200  1
  O  O52  1  0.80538000  0.67935500  0.86219300  1
  O  O53  1  0.67935500  0.80538000  0.13780700  1
  O  O54  1  0.80538000  0.67935500  0.63780700  1
  O  O55  1  0.67935500  0.80538000  0.36219300  1
