# generated using pymatgen
data_Li2V3WO8
_symmetry_space_group_name_H-M   'P 1'
_cell_length_a   8.51250000
_cell_length_b   8.63673067
_cell_length_c   8.68108075
_cell_angle_alpha   90.05997253
_cell_angle_beta   90.11317815
_cell_angle_gamma   90.17146175
_symmetry_Int_Tables_number   1
_chemical_formula_structural   Li2V3WO8
_chemical_formula_sum   'Li8 V12 W4 O32'
_cell_volume   638.23007435
_cell_formula_units_Z   4
loop_
 _symmetry_equiv_pos_site_id
 _symmetry_equiv_pos_as_xyz
  1  'x, y, z'
loop_
 _atom_site_type_symbol
 _atom_site_label
 _atom_site_symmetry_multiplicity
 _atom_site_fract_x
 _atom_site_fract_y
 _atom_site_fract_z
 _atom_site_occupancy
  Li  Li0  1  0.00142000  0.99810400  0.99871000  1
  Li  Li1  1  0.75070400  0.74915900  0.75041900  1
  Li  Li2  1  0.24863900  0.24919900  0.74703700  1
  Li  Li3  1  0.49808400  0.00208300  0.50272600  1
  Li  Li4  1  0.00176400  0.50305500  0.50389100  1
  Li  Li5  1  0.25187900  0.75036200  0.25186400  1
  Li  Li6  1  0.75043700  0.24786700  0.24559300  1
  Li  Li7  1  0.49848300  0.49697000  0.99930600  1
  V  V8  1  0.37324800  0.87023600  0.88128800  1
  V  V9  1  0.13053300  0.62208000  0.87691700  1
  V  V10  1  0.88251700  0.37273200  0.86869300  1
  V  V11  1  0.37781600  0.62594400  0.63255100  1
  V  V12  1  0.62786700  0.37922800  0.62485800  1
  V  V13  1  0.87543900  0.13220500  0.61963100  1
  V  V14  1  0.62734500  0.63031800  0.38308000  1
  V  V15  1  0.87364300  0.88230200  0.37756100  1
  V  V16  1  0.12002500  0.12526000  0.36849700  1
  V  V17  1  0.62153200  0.87845900  0.12950400  1
  V  V18  1  0.36755700  0.11852800  0.12424600  1
  V  V19  1  0.12557600  0.36816900  0.11763800  1
  W  W20  1  0.62361600  0.12456800  0.87328100  1
  W  W21  1  0.12297000  0.87404400  0.62433900  1
  W  W22  1  0.37482500  0.37533200  0.37462100  1
  W  W23  1  0.87686000  0.62389300  0.12637300  1
  O  O24  1  0.62308000  0.89606200  0.88986400  1
  O  O25  1  0.38525600  0.11013100  0.88450400  1
  O  O26  1  0.11672000  0.38629800  0.88789600  1
  O  O27  1  0.13270300  0.85497800  0.86708600  1
  O  O28  1  0.88631300  0.61402000  0.89241900  1
  O  O29  1  0.36738100  0.63575000  0.86515800  1
  O  O30  1  0.63600700  0.35341600  0.86804100  1
  O  O31  1  0.86365800  0.13078500  0.85527200  1
  O  O32  1  0.36342500  0.86788800  0.64496900  1
  O  O33  1  0.13697000  0.63714800  0.63708500  1
  O  O34  1  0.86420300  0.36466600  0.63561200  1
  O  O35  1  0.38757300  0.38467300  0.60909200  1
  O  O36  1  0.63098800  0.14143500  0.63926700  1
  O  O37  1  0.61714500  0.61259400  0.61267700  1
  O  O38  1  0.87951600  0.88993000  0.60739900  1
  O  O39  1  0.11841200  0.11210100  0.60270100  1
  O  O40  1  0.38484300  0.61312800  0.39239100  1
  O  O41  1  0.60695000  0.38837800  0.37945200  1
  O  O42  1  0.88186300  0.11150600  0.38557800  1
  O  O43  1  0.86905100  0.64422100  0.36382400  1
  O  O44  1  0.09808200  0.88370900  0.37501300  1
  O  O45  1  0.64666400  0.86605100  0.36359700  1
  O  O46  1  0.36180700  0.13916700  0.36424100  1
  O  O47  1  0.14407300  0.37096000  0.36166400  1
  O  O48  1  0.64526700  0.63267100  0.13944000  1
  O  O49  1  0.86367900  0.86179500  0.14156100  1
  O  O50  1  0.13103800  0.13780300  0.13631300  1
  O  O51  1  0.60984900  0.11668900  0.10944200  1
  O  O52  1  0.36854800  0.35729300  0.13835800  1
  O  O53  1  0.38788100  0.88403700  0.11612600  1
  O  O54  1  0.10676200  0.61206300  0.12389200  1
  O  O55  1  0.88137000  0.38841600  0.10744000  1
