# generated using pymatgen
data_Li9Mn7O16
_symmetry_space_group_name_H-M   'P 1'
_cell_length_a   5.34161800
_cell_length_b   5.74368500
_cell_length_c   9.90417321
_cell_angle_alpha   98.33694608
_cell_angle_beta   99.05048001
_cell_angle_gamma   90.00157612
_symmetry_Int_Tables_number   1
_chemical_formula_structural   Li9Mn7O16
_chemical_formula_sum   'Li9 Mn7 O16'
_cell_volume   296.83038431
_cell_formula_units_Z   1
loop_
 _symmetry_equiv_pos_site_id
 _symmetry_equiv_pos_as_xyz
  1  'x, y, z'
loop_
 _atom_site_type_symbol
 _atom_site_label
 _atom_site_symmetry_multiplicity
 _atom_site_fract_x
 _atom_site_fract_y
 _atom_site_fract_z
 _atom_site_occupancy
  Li  Li0  1  0.12657500  0.19168100  0.74990400  1
  Li  Li1  1  0.37797600  0.06098900  0.24420800  1
  Li  Li2  1  0.62202400  0.93901100  0.75579200  1
  Li  Li3  1  0.63306500  0.44017400  0.76096700  1
  Li  Li4  1  0.87343500  0.31673500  0.25006900  1
  Li  Li5  1  0.12656500  0.68326500  0.74993100  1
  Li  Li6  1  0.36693500  0.55982600  0.23903300  1
  Li  Li7  1  0.87342500  0.80831900  0.25009600  1
  Li  Li8  1  0.00000000  0.50000000  0.00000000  1
  Mn  Mn9  1  0.00000000  0.00000000  0.00000000  1
  Mn  Mn10  1  0.50001000  0.74869800  0.00000400  1
  Mn  Mn11  1  0.24934600  0.87422800  0.49730100  1
  Mn  Mn12  1  0.74982400  0.62563400  0.50281100  1
  Mn  Mn13  1  0.25017600  0.37436600  0.49718900  1
  Mn  Mn14  1  0.49999000  0.25130200  0.99999600  1
  Mn  Mn15  1  0.75065400  0.12577200  0.50269900  1
  O  O16  1  0.78656100  0.21512100  0.89694500  1
  O  O17  1  0.08613100  0.09497200  0.37944100  1
  O  O18  1  0.33163600  0.97086800  0.88349900  1
  O  O19  1  0.34032200  0.47104700  0.88417200  1
  O  O20  1  0.58977900  0.34607600  0.38412000  1
  O  O21  1  0.78652100  0.73336600  0.89693000  1
  O  O22  1  0.08646400  0.59441300  0.37834300  1
  O  O23  1  0.58946700  0.84595400  0.38395900  1
  O  O24  1  0.41053300  0.15404600  0.61604100  1
  O  O25  1  0.66836400  0.02913200  0.11650100  1
  O  O26  1  0.91386900  0.90502800  0.62055900  1
  O  O27  1  0.91353600  0.40558700  0.62165700  1
  O  O28  1  0.21347900  0.26663400  0.10307000  1
  O  O29  1  0.41022100  0.65392400  0.61588000  1
  O  O30  1  0.65967800  0.52895300  0.11582800  1
  O  O31  1  0.21343900  0.78487900  0.10305500  1
