# generated using pymatgen
data_Li4MnCo2O7
_symmetry_space_group_name_H-M   'P 1'
_cell_length_a   2.97088700
_cell_length_b   5.08463892
_cell_length_c   16.78204030
_cell_angle_alpha   88.88476216
_cell_angle_beta   87.71728363
_cell_angle_gamma   88.70738156
_symmetry_Int_Tables_number   1
_chemical_formula_structural   Li4MnCo2O7
_chemical_formula_sum   'Li8 Mn2 Co4 O14'
_cell_volume   253.19824996
_cell_formula_units_Z   2
loop_
 _symmetry_equiv_pos_site_id
 _symmetry_equiv_pos_as_xyz
  1  'x, y, z'
loop_
 _atom_site_type_symbol
 _atom_site_label
 _atom_site_symmetry_multiplicity
 _atom_site_fract_x
 _atom_site_fract_y
 _atom_site_fract_z
 _atom_site_occupancy
  Li  Li0  1  0.91803600  0.62491600  0.14391800  1
  Li  Li1  1  0.36484200  0.78844500  0.28581700  1
  Li  Li2  1  0.78760700  0.93102100  0.42767600  1
  Li  Li3  1  0.21642200  0.07265800  0.57084700  1
  Li  Li4  1  0.64521400  0.21510500  0.71281600  1
  Li  Li5  1  0.07398400  0.36138900  0.85549100  1
  Li  Li6  1  0.48966400  0.49234800  0.00539900  1
  Li  Li7  1  0.44265800  0.15877300  0.14164900  1
  Mn  Mn8  1  0.99670300  0.01192900  0.00583200  1
  Mn  Mn9  1  0.14275000  0.70804300  0.71310900  1
  Co  Co10  1  0.86844300  0.28250600  0.28072100  1
  Co  Co11  1  0.28410600  0.42692800  0.42715500  1
  Co  Co12  1  0.71435600  0.56870300  0.56739900  1
  Co  Co13  1  0.56094000  0.85088800  0.85864700  1
  O  O14  1  0.48664800  0.84576800  0.06344200  1
  O  O15  1  0.88860200  0.99887700  0.22509200  1
  O  O16  1  0.29877700  0.13530000  0.35739500  1
  O  O17  1  0.71391200  0.26702100  0.49916400  1
  O  O18  1  0.19092200  0.41095600  0.64068100  1
  O  O19  1  0.56827200  0.54191700  0.78528800  1
  O  O20  1  0.01808700  0.70750300  0.92664000  1
  O  O21  1  0.42603200  0.45888600  0.22104200  1
  O  O22  1  0.85135400  0.57046000  0.35624400  1
  O  O23  1  0.23791300  0.72579900  0.49654700  1
  O  O24  1  0.71815600  0.87332200  0.63976300  1
  O  O25  1  0.11182500  0.01148700  0.78821100  1
  O  O26  1  0.51037200  0.15452300  0.93712900  1
  O  O27  1  0.97340400  0.30453000  0.06688600  1
