# generated using pymatgen
data_Li5MnO3F
_symmetry_space_group_name_H-M   'P 1'
_cell_length_a   4.75454461
_cell_length_b   9.44097209
_cell_length_c   9.59978500
_cell_angle_alpha   90.00013577
_cell_angle_beta   89.99980485
_cell_angle_gamma   102.62569582
_symmetry_Int_Tables_number   1
_chemical_formula_structural   Li5MnO3F
_chemical_formula_sum   'Li20 Mn4 O12 F4'
_cell_volume   420.49064858
_cell_formula_units_Z   4
loop_
 _symmetry_equiv_pos_site_id
 _symmetry_equiv_pos_as_xyz
  1  'x, y, z'
loop_
 _atom_site_type_symbol
 _atom_site_label
 _atom_site_symmetry_multiplicity
 _atom_site_fract_x
 _atom_site_fract_y
 _atom_site_fract_z
 _atom_site_occupancy
  Li  Li0  1  0.97371800  0.48335800  0.00000300  1
  Li  Li1  1  0.48977200  0.98013300  0.49999700  1
  Li  Li2  1  0.51022600  0.76985300  0.00000100  1
  Li  Li3  1  0.02623100  0.26665100  0.49999900  1
  Li  Li4  1  0.00450700  0.75552700  0.78700600  1
  Li  Li5  1  0.48866300  0.25246800  0.28059100  1
  Li  Li6  1  0.51131800  0.49754600  0.78059900  1
  Li  Li7  1  0.99551700  0.99445000  0.28701500  1
  Li  Li8  1  0.51131900  0.49754300  0.21940300  1
  Li  Li9  1  0.99551400  0.99445300  0.71298900  1
  Li  Li10  1  0.00450300  0.75552800  0.21298700  1
  Li  Li11  1  0.48866200  0.25246600  0.71941200  1
  Li  Li12  1  0.99679800  0.49589200  0.71434000  1
  Li  Li13  1  0.48112000  0.99198000  0.21164600  1
  Li  Li14  1  0.99679900  0.49589000  0.28566000  1
  Li  Li15  1  0.48110700  0.99197600  0.78835100  1
  Li  Li16  1  0.00317400  0.25410000  0.78565400  1
  Li  Li17  1  0.51889500  0.75801300  0.28835800  1
  Li  Li18  1  0.00317800  0.25410100  0.21434800  1
  Li  Li19  1  0.51890700  0.75801800  0.71164100  1
  Mn  Mn20  1  0.01617200  0.75044000  0.49999400  1
  Mn  Mn21  1  0.98381600  0.99953500  0.00000000  1
  Mn  Mn22  1  0.53419300  0.23726600  0.99999100  1
  Mn  Mn23  1  0.46591100  0.51271700  0.50001800  1
  O  O24  1  0.77105300  0.63376000  0.64569000  1
  O  O25  1  0.22895900  0.11622700  0.14569100  1
  O  O26  1  0.77104400  0.63376000  0.35430500  1
  O  O27  1  0.22895300  0.11622800  0.85431100  1
  O  O28  1  0.75223700  0.37579000  0.15176700  1
  O  O29  1  0.24635800  0.86876200  0.64396200  1
  O  O30  1  0.75223800  0.37579400  0.84823100  1
  O  O31  1  0.24636400  0.86876400  0.35602500  1
  O  O32  1  0.24773600  0.37423000  0.65178000  1
  O  O33  1  0.75367800  0.88120400  0.14397400  1
  O  O34  1  0.24774100  0.37423300  0.34822700  1
  O  O35  1  0.75368300  0.88120700  0.85603300  1
  F  F36  1  0.26254600  0.62693900  0.85517900  1
  F  F37  1  0.73742100  0.12313200  0.35520700  1
  F  F38  1  0.26254700  0.62693500  0.14481900  1
  F  F39  1  0.73742100  0.12313300  0.64479600  1
