# generated using pymatgen
data_Li2MnV3O8
_symmetry_space_group_name_H-M   'P 1'
_cell_length_a   8.47789639
_cell_length_b   8.47789639
_cell_length_c   8.47789687
_cell_angle_alpha   89.90581838
_cell_angle_beta   89.90581838
_cell_angle_gamma   89.90581925
_symmetry_Int_Tables_number   1
_chemical_formula_structural   Li2MnV3O8
_chemical_formula_sum   'Li8 Mn4 V12 O32'
_cell_volume   609.34405719
_cell_formula_units_Z   4
loop_
 _symmetry_equiv_pos_site_id
 _symmetry_equiv_pos_as_xyz
  1  'x, y, z'
loop_
 _atom_site_type_symbol
 _atom_site_label
 _atom_site_symmetry_multiplicity
 _atom_site_fract_x
 _atom_site_fract_y
 _atom_site_fract_z
 _atom_site_occupancy
  Li  Li0  1  0.87343800  0.12307000  0.37173300  1
  Li  Li1  1  0.75127900  0.24749000  0.75159500  1
  Li  Li2  1  0.24909800  0.24909800  0.24909800  1
  Li  Li3  1  0.12307000  0.37173300  0.87343800  1
  Li  Li4  1  0.62878700  0.62878700  0.62878700  1
  Li  Li5  1  0.75159500  0.75127900  0.24749000  1
  Li  Li6  1  0.24749000  0.75159500  0.75127900  1
  Li  Li7  1  0.37173300  0.87343800  0.12307000  1
  Mn  Mn8  1  0.50069600  0.99562600  0.49879800  1
  Mn  Mn9  1  0.49879800  0.50069600  0.99562600  1
  Mn  Mn10  1  0.99562600  0.49879800  0.50069600  1
  Mn  Mn11  1  0.00153800  0.00153800  0.00153800  1
  V  V12  1  0.62081800  0.12240300  0.12534800  1
  V  V13  1  0.37731200  0.12334400  0.87485000  1
  V  V14  1  0.12240300  0.12534800  0.62081800  1
  V  V15  1  0.87485000  0.37731200  0.12334400  1
  V  V16  1  0.62278700  0.37129900  0.38537400  1
  V  V17  1  0.37129900  0.38537400  0.62278700  1
  V  V18  1  0.87802600  0.62332000  0.87832600  1
  V  V19  1  0.12534800  0.62081800  0.12240300  1
  V  V20  1  0.38537400  0.62278700  0.37129900  1
  V  V21  1  0.62332000  0.87832600  0.87802600  1
  V  V22  1  0.87832600  0.87802600  0.62332000  1
  V  V23  1  0.12334400  0.87485000  0.37731200  1
  O  O24  1  0.12951600  0.10516300  0.39941100  1
  O  O25  1  0.89230700  0.09979500  0.62937000  1
  O  O26  1  0.61340200  0.11449400  0.88572400  1
  O  O27  1  0.39941100  0.12951600  0.10516300  1
  O  O28  1  0.14525400  0.12080300  0.85114700  1
  O  O29  1  0.36360800  0.14554700  0.63290100  1
  O  O30  1  0.62849200  0.13843500  0.35478800  1
  O  O31  1  0.85114700  0.14525400  0.12080300  1
  O  O32  1  0.13843500  0.35478800  0.62849200  1
  O  O33  1  0.37263300  0.35241400  0.85469000  1
  O  O34  1  0.63290100  0.36360800  0.14554700  1
  O  O35  1  0.85469000  0.37263300  0.35241400  1
  O  O36  1  0.61204000  0.37112500  0.59858600  1
  O  O37  1  0.38495600  0.38495600  0.38495600  1
  O  O38  1  0.10516300  0.39941100  0.12951600  1
  O  O39  1  0.86519400  0.39305500  0.90190900  1
  O  O40  1  0.37112500  0.59858600  0.61204000  1
  O  O41  1  0.59858600  0.61204000  0.37112500  1
  O  O42  1  0.88572400  0.61340200  0.11449400  1
  O  O43  1  0.09979500  0.62937000  0.89230700  1
  O  O44  1  0.35478800  0.62849200  0.13843500  1
  O  O45  1  0.14554700  0.63290100  0.36360800  1
  O  O46  1  0.87463400  0.64764400  0.64545800  1
  O  O47  1  0.64764400  0.64545800  0.87463400  1
  O  O48  1  0.35241400  0.85469000  0.37263300  1
  O  O49  1  0.12080300  0.85114700  0.14525400  1
  O  O50  1  0.86238300  0.86238300  0.86238300  1
  O  O51  1  0.64545800  0.87463400  0.64764400  1
  O  O52  1  0.90190900  0.86519400  0.39305500  1
  O  O53  1  0.11449400  0.88572400  0.61340200  1
  O  O54  1  0.39305500  0.90190900  0.86519400  1
  O  O55  1  0.62937000  0.89230700  0.09979500  1
