# generated using pymatgen
data_Li6Mn3Sb(PO4)6
_symmetry_space_group_name_H-M   'P 1'
_cell_length_a   8.76731800
_cell_length_b   8.79725965
_cell_length_c   8.80498945
_cell_angle_alpha   60.59827456
_cell_angle_beta   60.76349742
_cell_angle_gamma   60.21339603
_symmetry_Int_Tables_number   1
_chemical_formula_structural   Li6Mn3Sb(PO4)6
_chemical_formula_sum   'Li6 Mn3 Sb1 P6 O24'
_cell_volume   485.88060274
_cell_formula_units_Z   1
loop_
 _symmetry_equiv_pos_site_id
 _symmetry_equiv_pos_as_xyz
  1  'x, y, z'
loop_
 _atom_site_type_symbol
 _atom_site_label
 _atom_site_symmetry_multiplicity
 _atom_site_fract_x
 _atom_site_fract_y
 _atom_site_fract_z
 _atom_site_occupancy
  Li  Li0  1  0.96642700  0.99247600  0.97967400  1
  Li  Li1  1  0.27569400  0.64209200  0.84092600  1
  Li  Li2  1  0.52443500  0.50775800  0.49940800  1
  Li  Li3  1  0.69206600  0.36124900  0.15560400  1
  Li  Li4  1  0.35835800  0.16631700  0.68722800  1
  Li  Li5  1  0.15636000  0.69190400  0.35932800  1
  Mn  Mn6  1  0.85747300  0.85822700  0.85160200  1
  Mn  Mn7  1  0.65260900  0.64777000  0.63745400  1
  Mn  Mn8  1  0.34635700  0.34536300  0.34373500  1
  Sb  Sb9  1  0.14799700  0.14797000  0.15048200  1
  P  P10  1  0.94355900  0.56233900  0.24520600  1
  P  P11  1  0.55493100  0.24680400  0.94943700  1
  P  P12  1  0.24759800  0.95017900  0.55790800  1
  P  P13  1  0.75814700  0.04546400  0.46121900  1
  P  P14  1  0.45376700  0.75259600  0.03863900  1
  P  P15  1  0.04637100  0.46585600  0.75863900  1
  O  O16  1  0.86504600  0.48271500  0.76139200  1
  O  O17  1  0.74215000  0.88036300  0.46484100  1
  O  O18  1  0.92591400  0.74443500  0.07794300  1
  O  O19  1  0.43412600  0.72648600  0.89028200  1
  O  O20  1  0.76173900  0.55658900  0.40073200  1
  O  O21  1  0.01368800  0.39739100  0.17244100  1
  O  O22  1  0.74132700  0.08994900  0.91174900  1
  O  O23  1  0.52379300  0.41657400  0.77881600  1
  O  O24  1  0.39817500  0.75945800  0.56256600  1
  O  O25  1  0.83317900  0.00107900  0.60708700  1
  O  O26  1  0.90001000  0.11662600  0.25231000  1
  O  O27  1  0.61366600  0.81893100  0.96838800  1
  O  O28  1  0.39627000  0.16554400  0.02377200  1
  O  O29  1  0.08933400  0.92430900  0.74629800  1
  O  O30  1  0.17718300  0.01364400  0.39517000  1
  O  O31  1  0.58199800  0.22217700  0.46211800  1
  O  O32  1  0.46001700  0.58174700  0.21750800  1
  O  O33  1  0.25031900  0.90198700  0.11299300  1
  O  O34  1  0.03076400  0.61596000  0.81290400  1
  O  O35  1  0.21406000  0.45660600  0.57921400  1
  O  O36  1  0.54244600  0.29665800  0.10047500  1
  O  O37  1  0.11744100  0.25709800  0.90026900  1
  O  O38  1  0.30893800  0.09704700  0.53511300  1
  O  O39  1  0.09627200  0.54126300  0.30012800  1
