# generated using pymatgen
data_Li7Mn4CoO12
_symmetry_space_group_name_H-M   'P 1'
_cell_length_a   5.93702277
_cell_length_b   9.75564771
_cell_length_c   7.80875416
_cell_angle_alpha   94.49643020
_cell_angle_beta   76.08535802
_cell_angle_gamma   96.11275522
_symmetry_Int_Tables_number   1
_chemical_formula_structural   Li7Mn4CoO12
_chemical_formula_sum   'Li14 Mn8 Co2 O24'
_cell_volume   435.85752212
_cell_formula_units_Z   2
loop_
 _symmetry_equiv_pos_site_id
 _symmetry_equiv_pos_as_xyz
  1  'x, y, z'
loop_
 _atom_site_type_symbol
 _atom_site_label
 _atom_site_symmetry_multiplicity
 _atom_site_fract_x
 _atom_site_fract_y
 _atom_site_fract_z
 _atom_site_occupancy
  Li  Li0  1  0.16666600  0.00000400  0.33334100  1
  Li  Li1  1  0.66666300  0.00000100  0.33334200  1
  Li  Li2  1  0.00137300  0.24138200  0.26711500  1
  Li  Li3  1  0.50146900  0.24146000  0.26682000  1
  Li  Li4  1  0.83187300  0.75854000  0.39986300  1
  Li  Li5  1  0.33194500  0.75861100  0.39954500  1
  Li  Li6  1  0.16156200  0.24272300  0.57408000  1
  Li  Li7  1  0.66130000  0.24262800  0.57399400  1
  Li  Li8  1  0.17178400  0.75727800  0.09260100  1
  Li  Li9  1  0.67201700  0.75738700  0.09268400  1
  Li  Li10  1  0.99988600  0.74338900  0.74891000  1
  Li  Li11  1  0.50111400  0.74340300  0.74860700  1
  Li  Li12  1  0.83222600  0.25659900  0.91806400  1
  Li  Li13  1  0.33343500  0.25660600  0.91774100  1
  Mn  Mn14  1  0.49169300  0.99683400  0.00835200  1
  Mn  Mn15  1  0.99209300  0.99693500  0.00827500  1
  Mn  Mn16  1  0.84165500  0.00317400  0.65832900  1
  Mn  Mn17  1  0.34124100  0.00306200  0.65841800  1
  Mn  Mn18  1  0.33303700  0.49827100  0.16340800  1
  Mn  Mn19  1  0.83299100  0.49872200  0.16364700  1
  Mn  Mn20  1  0.00036200  0.50162000  0.50323200  1
  Mn  Mn21  1  0.50029200  0.50133500  0.50300100  1
  Co  Co22  1  0.66666800  0.49999500  0.83331700  1
  Co  Co23  1  0.16666400  0.50001500  0.83332900  1
  O  O24  1  0.23225600  0.10856100  0.10237600  1
  O  O25  1  0.73230000  0.10849100  0.10230900  1
  O  O26  1  0.10107000  0.89145100  0.56431000  1
  O  O27  1  0.60103700  0.89151800  0.56438200  1
  O  O28  1  0.09761700  0.61893800  0.29850100  1
  O  O29  1  0.59707100  0.61899300  0.29888900  1
  O  O30  1  0.23576200  0.38098400  0.36813700  1
  O  O31  1  0.73622400  0.38105100  0.36775200  1
  O  O32  1  0.91576000  0.11824000  0.47677700  1
  O  O33  1  0.41556600  0.11808600  0.47686700  1
  O  O34  1  0.91776600  0.88191900  0.18982500  1
  O  O35  1  0.41757200  0.88177700  0.18990400  1
  O  O36  1  0.76378400  0.61864400  0.63433800  1
  O  O37  1  0.26296800  0.61846700  0.63498800  1
  O  O38  1  0.07033700  0.38156200  0.03167100  1
  O  O39  1  0.56958800  0.38131100  0.03228000  1
  O  O40  1  0.07280300  0.10577500  0.78469500  1
  O  O41  1  0.57279100  0.10568800  0.78472000  1
  O  O42  1  0.76053900  0.89432400  0.88196600  1
  O  O43  1  0.26053100  0.89423400  0.88199500  1
  O  O44  1  0.92860900  0.61277200  0.95916300  1
  O  O45  1  0.42999100  0.61225800  0.95892100  1
  O  O46  1  0.90333800  0.38771900  0.70774500  1
  O  O47  1  0.40471300  0.38726000  0.70747700  1
