# generated using pymatgen
data_LiTmSn2
_symmetry_space_group_name_H-M   'P 1'
_cell_length_a   9.85019578
_cell_length_b   9.85019578
_cell_length_c   4.48389900
_cell_angle_alpha   90.00000000
_cell_angle_beta   90.00000000
_cell_angle_gamma   154.73075662
_symmetry_Int_Tables_number   1
_chemical_formula_structural   LiTmSn2
_chemical_formula_sum   'Li2 Tm2 Sn4'
_cell_volume   185.71360052
_cell_formula_units_Z   2
loop_
 _symmetry_equiv_pos_site_id
 _symmetry_equiv_pos_as_xyz
  1  'x, y, z'
loop_
 _atom_site_type_symbol
 _atom_site_label
 _atom_site_symmetry_multiplicity
 _atom_site_fract_x
 _atom_site_fract_y
 _atom_site_fract_z
 _atom_site_occupancy
  Li  Li0  1  0.67265900  0.32734100  0.75000000  1
  Li  Li1  1  0.32734100  0.67265900  0.25000000  1
  Tm  Tm2  1  0.89452700  0.10547300  0.75000000  1
  Tm  Tm3  1  0.10547300  0.89452700  0.25000000  1
  Sn  Sn4  1  0.54508400  0.45491600  0.75000000  1
  Sn  Sn5  1  0.45491600  0.54508400  0.25000000  1
  Sn  Sn6  1  0.25188300  0.74811700  0.75000000  1
  Sn  Sn7  1  0.74811700  0.25188300  0.25000000  1
