# generated using pymatgen
data_Li7Fe4(P2O7)4
_symmetry_space_group_name_H-M   'P 1'
_cell_length_a   9.88811300
_cell_length_b   9.89522210
_cell_length_c   11.15011036
_cell_angle_alpha   102.33765101
_cell_angle_beta   90.13890634
_cell_angle_gamma   89.99204420
_symmetry_Int_Tables_number   1
_chemical_formula_structural   Li7Fe4(P2O7)4
_chemical_formula_sum   'Li14 Fe8 P16 O56'
_cell_volume   1065.78431003
_cell_formula_units_Z   2
loop_
 _symmetry_equiv_pos_site_id
 _symmetry_equiv_pos_as_xyz
  1  'x, y, z'
loop_
 _atom_site_type_symbol
 _atom_site_label
 _atom_site_symmetry_multiplicity
 _atom_site_fract_x
 _atom_site_fract_y
 _atom_site_fract_z
 _atom_site_occupancy
  Li  Li0  1  0.27611500  0.88820100  0.55147200  1
  Li  Li1  1  0.59006900  0.81862100  0.44759700  1
  Li  Li2  1  0.89265600  0.91463300  0.97060400  1
  Li  Li3  1  0.09325000  0.65115300  0.04538100  1
  Li  Li4  1  0.59305900  0.84656700  0.95754100  1
  Li  Li5  1  0.39320900  0.58821500  0.02990100  1
  Li  Li6  1  0.06414500  0.65089300  0.53056100  1
  Li  Li7  1  0.93585500  0.34910700  0.46943900  1
  Li  Li8  1  0.60679100  0.41178500  0.97009900  1
  Li  Li9  1  0.40694100  0.15343300  0.04245900  1
  Li  Li10  1  0.90675000  0.34884700  0.95461900  1
  Li  Li11  1  0.10734400  0.08536700  0.02939600  1
  Li  Li12  1  0.40993100  0.18137900  0.55240300  1
  Li  Li13  1  0.72388500  0.11179900  0.44852800  1
  Fe  Fe14  1  0.07287000  0.80064300  0.32803700  1
  Fe  Fe15  1  0.78738000  0.74610000  0.17980000  1
  Fe  Fe16  1  0.28602300  0.75003000  0.81950900  1
  Fe  Fe17  1  0.57854100  0.69911600  0.67058800  1
  Fe  Fe18  1  0.42145900  0.30088400  0.32941200  1
  Fe  Fe19  1  0.71397700  0.24997000  0.18049100  1
  Fe  Fe20  1  0.21262000  0.25390000  0.82020000  1
  Fe  Fe21  1  0.92713000  0.19935700  0.67196300  1
  P  P22  1  0.54411100  0.97725800  0.24206700  1
  P  P23  1  0.29477000  0.88062600  0.10938600  1
  P  P24  1  0.07043500  0.93935200  0.75835300  1
  P  P25  1  0.84876100  0.87571300  0.57647800  1
  P  P26  1  0.35482700  0.62163700  0.42667200  1
  P  P27  1  0.56880500  0.56187900  0.24338500  1
  P  P28  1  0.95178900  0.47589300  0.24080200  1
  P  P29  1  0.79342200  0.61973800  0.88586100  1
  P  P30  1  0.20657800  0.38026200  0.11413900  1
  P  P31  1  0.04821100  0.52410700  0.75919800  1
  P  P32  1  0.43119500  0.43812100  0.75661500  1
  P  P33  1  0.64517300  0.37836300  0.57332800  1
  P  P34  1  0.15123900  0.12428700  0.42352200  1
  P  P35  1  0.92956500  0.06064800  0.24164700  1
  P  P36  1  0.70523000  0.11937400  0.89061400  1
  P  P37  1  0.45588900  0.02274200  0.75793300  1
  O  O38  1  0.58581600  0.97717200  0.37310000  1
  O  O39  1  0.16873200  0.97634500  0.44162800  1
  O  O40  1  0.91085500  0.91535000  0.26901100  1
  O  O41  1  0.39764900  0.90360100  0.22607100  1
  O  O42  1  0.63414500  0.89235200  0.14238200  1
  O  O43  1  0.17090900  0.81463300  0.15550200  1
  O  O44  1  0.36480800  0.77807300  0.00050200  1
  O  O45  1  0.72458900  0.97973700  0.92202500  1
  O  O46  1  0.92261000  0.88451800  0.70788000  1
  O  O47  1  0.06640300  0.93548200  0.89306900  1
  O  O48  1  0.47411000  0.87060400  0.77857700  1
  O  O49  1  0.70819500  0.81275200  0.59363600  1
  O  O50  1  0.17706700  0.83544800  0.69095500  1
  O  O51  1  0.93846900  0.78454200  0.48144400  1
  O  O52  1  0.44428300  0.71718000  0.52417100  1
  O  O53  1  0.67395900  0.66761400  0.30676400  1
  O  O54  1  0.21583400  0.68731200  0.42364400  1
  O  O55  1  0.96850500  0.62202200  0.20967600  1
  O  O56  1  0.42351800  0.62458900  0.29581900  1
  O  O57  1  0.56271900  0.55636200  0.10722200  1
  O  O58  1  0.23028600  0.51808600  0.08041800  1
  O  O59  1  0.85305500  0.72653100  0.99663300  1
  O  O60  1  0.66955800  0.68398600  0.83270300  1
  O  O61  1  0.89895300  0.59770500  0.77515200  1
  O  O62  1  0.41997400  0.58484200  0.72643200  1
  O  O63  1  0.13645900  0.61571800  0.85878800  1
  O  O64  1  0.64831400  0.52990500  0.56446400  1
  O  O65  1  0.91676900  0.47797400  0.37175700  1
  O  O66  1  0.08323100  0.52202600  0.62824300  1
  O  O67  1  0.35168600  0.47009500  0.43553600  1
  O  O68  1  0.86354100  0.38428200  0.14121200  1
  O  O69  1  0.58002600  0.41515800  0.27356800  1
  O  O70  1  0.10104700  0.40229500  0.22484800  1
  O  O71  1  0.33044200  0.31601400  0.16729700  1
  O  O72  1  0.14694500  0.27346900  0.00336700  1
  O  O73  1  0.76971400  0.48191400  0.91958200  1
  O  O74  1  0.43728100  0.44363800  0.89277800  1
  O  O75  1  0.57648200  0.37541100  0.70418100  1
  O  O76  1  0.03149500  0.37797800  0.79032400  1
  O  O77  1  0.78416600  0.31268800  0.57635600  1
  O  O78  1  0.32604100  0.33238600  0.69323600  1
  O  O79  1  0.55571700  0.28282000  0.47582900  1
  O  O80  1  0.06153100  0.21545800  0.51855600  1
  O  O81  1  0.82293300  0.16455200  0.30904500  1
  O  O82  1  0.29180500  0.18724800  0.40636400  1
  O  O83  1  0.52589000  0.12939600  0.22142300  1
  O  O84  1  0.93359700  0.06451800  0.10693100  1
  O  O85  1  0.07739000  0.11548200  0.29212000  1
  O  O86  1  0.27541100  0.02026300  0.07797500  1
  O  O87  1  0.63519200  0.22192700  0.99949800  1
  O  O88  1  0.82909100  0.18536700  0.84449800  1
  O  O89  1  0.36585500  0.10764800  0.85761800  1
  O  O90  1  0.60235100  0.09639900  0.77392900  1
  O  O91  1  0.08914500  0.08465000  0.73098900  1
  O  O92  1  0.83126800  0.02365500  0.55837200  1
  O  O93  1  0.41418400  0.02282800  0.62690000  1
