# generated using pymatgen
data_Li4V3O8
_symmetry_space_group_name_H-M   'P 1'
_cell_length_a   5.85506012
_cell_length_b   6.15067351
_cell_length_c   8.49500419
_cell_angle_alpha   85.99002551
_cell_angle_beta   89.91213922
_cell_angle_gamma   90.62722536
_symmetry_Int_Tables_number   1
_chemical_formula_structural   Li4V3O8
_chemical_formula_sum   'Li8 V6 O16'
_cell_volume   305.15883658
_cell_formula_units_Z   2
loop_
 _symmetry_equiv_pos_site_id
 _symmetry_equiv_pos_as_xyz
  1  'x, y, z'
loop_
 _atom_site_type_symbol
 _atom_site_label
 _atom_site_symmetry_multiplicity
 _atom_site_fract_x
 _atom_site_fract_y
 _atom_site_fract_z
 _atom_site_occupancy
  Li  Li0  1  0.99999200  0.00010800  0.99998600  1
  Li  Li1  1  0.50000700  0.49991400  0.49999800  1
  Li  Li2  1  0.50005200  0.49998000  0.00001400  1
  Li  Li3  1  0.99993600  0.00001800  0.49999900  1
  Li  Li4  1  0.49419000  0.21627400  0.85792500  1
  Li  Li5  1  0.99412200  0.71627000  0.35661800  1
  Li  Li6  1  0.50582800  0.78367200  0.14203900  1
  Li  Li7  1  0.00585200  0.28376500  0.64345100  1
  V  V8  1  0.49991000  0.99999600  0.49988700  1
  V  V9  1  0.74594000  0.75168600  0.75533300  1
  V  V10  1  0.25401100  0.24820600  0.24464200  1
  V  V11  1  0.00015000  0.50012900  0.00003200  1
  V  V12  1  0.75344400  0.25134600  0.25434600  1
  V  V13  1  0.24654100  0.74873100  0.74561600  1
  O  O14  1  0.00596700  0.47234700  0.23500500  1
  O  O15  1  0.49711900  0.97083400  0.73689700  1
  O  O16  1  0.99406700  0.52767400  0.76512200  1
  O  O17  1  0.50285400  0.02911300  0.26298500  1
  O  O18  1  0.49069300  0.46234900  0.24530800  1
  O  O19  1  0.98828600  0.96166200  0.74331700  1
  O  O20  1  0.76064600  0.72537600  0.98646100  1
  O  O21  1  0.27279700  0.21483000  0.48846100  1
  O  O22  1  0.23674100  0.72215500  0.97575100  1
  O  O23  1  0.74743500  0.23540000  0.47475000  1
  O  O24  1  0.50928900  0.53760200  0.75472900  1
  O  O25  1  0.01173300  0.03832400  0.25667900  1
  O  O26  1  0.23938600  0.27471200  0.01355900  1
  O  O27  1  0.72716500  0.78508700  0.51154300  1
  O  O28  1  0.76336800  0.27796800  0.02431400  1
  O  O29  1  0.25247800  0.76447200  0.52523000  1
