# generated using pymatgen
data_Li7Mn4(P2O7)4
_symmetry_space_group_name_H-M   'P 1'
_cell_length_a   9.90031500
_cell_length_b   9.90395328
_cell_length_c   11.32547272
_cell_angle_alpha   102.66467253
_cell_angle_beta   90.21139158
_cell_angle_gamma   90.34185187
_symmetry_Int_Tables_number   1
_chemical_formula_structural   Li7Mn4(P2O7)4
_chemical_formula_sum   'Li14 Mn8 P16 O56'
_cell_volume   1083.43639027
_cell_formula_units_Z   2
loop_
 _symmetry_equiv_pos_site_id
 _symmetry_equiv_pos_as_xyz
  1  'x, y, z'
loop_
 _atom_site_type_symbol
 _atom_site_label
 _atom_site_symmetry_multiplicity
 _atom_site_fract_x
 _atom_site_fract_y
 _atom_site_fract_z
 _atom_site_occupancy
  Li  Li0  1  0.28708000  0.11349900  0.44976100  1
  Li  Li1  1  0.89307800  0.08599500  0.02832700  1
  Li  Li2  1  0.08961800  0.34454300  0.95738700  1
  Li  Li3  1  0.59092300  0.15497800  0.04352100  1
  Li  Li4  1  0.39209400  0.41458700  0.97044600  1
  Li  Li5  1  0.07966300  0.33588800  0.45761200  1
  Li  Li6  1  0.77577300  0.38236900  0.55209800  1
  Li  Li7  1  0.93025500  0.66327700  0.54108700  1
  Li  Li8  1  0.60788400  0.58425600  0.02936900  1
  Li  Li9  1  0.40917800  0.84563200  0.95499800  1
  Li  Li10  1  0.90894100  0.65483500  0.04317400  1
  Li  Li11  1  0.10701000  0.91477700  0.97164900  1
  Li  Li12  1  0.41906600  0.82871400  0.45478400  1
  Li  Li13  1  0.71951000  0.89482300  0.55285700  1
  Mn  Mn14  1  0.08054400  0.20107600  0.67329000  1
  Mn  Mn15  1  0.78422400  0.25244900  0.82004100  1
  Mn  Mn16  1  0.28399200  0.24781000  0.17820700  1
  Mn  Mn17  1  0.57390800  0.29594400  0.33297000  1
  Mn  Mn18  1  0.41971000  0.69971600  0.67046300  1
  Mn  Mn19  1  0.71465800  0.75517100  0.82267000  1
  Mn  Mn20  1  0.21575900  0.74267700  0.17929200  1
  Mn  Mn21  1  0.92357300  0.79909300  0.32841500  1
  P  P22  1  0.54345000  0.02301600  0.75724500  1
  P  P23  1  0.29637800  0.11865600  0.89169900  1
  P  P24  1  0.06894800  0.05904500  0.24385700  1
  P  P25  1  0.84851100  0.12462000  0.42420100  1
  P  P26  1  0.35261500  0.37788200  0.57395400  1
  P  P27  1  0.56724100  0.44117300  0.75654100  1
  P  P28  1  0.95288600  0.52474000  0.76045600  1
  P  P29  1  0.79478500  0.38090200  0.10752000  1
  P  P30  1  0.20377300  0.61853700  0.89151500  1
  P  P31  1  0.04599500  0.47529900  0.24243100  1
  P  P32  1  0.43276600  0.55960000  0.24333800  1
  P  P33  1  0.64957800  0.62269500  0.42606700  1
  P  P34  1  0.15129300  0.87572800  0.57421400  1
  P  P35  1  0.93296400  0.93986800  0.75553000  1
  P  P36  1  0.70391500  0.88108400  0.10883500  1
  P  P37  1  0.45409600  0.97309100  0.23996700  1
  O  O38  1  0.58451600  0.01868600  0.62984900  1
  O  O39  1  0.16499000  0.02361100  0.55464000  1
  O  O40  1  0.91415200  0.08556100  0.73026900  1
  O  O41  1  0.63492400  0.10893000  0.85708600  1
  O  O42  1  0.39685700  0.09473600  0.77594600  1
  O  O43  1  0.17103700  0.18243800  0.84727600  1
  O  O44  1  0.36723200  0.22323100  0.99755200  1
  O  O45  1  0.72347000  0.01949200  0.07592700  1
  O  O46  1  0.92227300  0.11223300  0.29421300  1
  O  O47  1  0.06577700  0.06373900  0.11114100  1
  O  O48  1  0.46848400  0.12280500  0.21527600  1
  O  O49  1  0.71311900  0.19200500  0.41106000  1
  O  O50  1  0.17461100  0.16279600  0.31338700  1
  O  O51  1  0.93638200  0.22327600  0.51795500  1
  O  O52  1  0.42890300  0.28120300  0.47409200  1
  O  O53  1  0.68049500  0.34760200  0.69400300  1
  O  O54  1  0.21070200  0.31764500  0.58388700  1
  O  O55  1  0.96672300  0.37729200  0.78674700  1
  O  O56  1  0.42348300  0.37914000  0.70326900  1
  O  O57  1  0.56157300  0.44076200  0.88961000  1
  O  O58  1  0.22272800  0.48031100  0.92429900  1
  O  O59  1  0.86466800  0.27665200  0.00159100  1
  O  O60  1  0.66959100  0.31719600  0.15309000  1
  O  O61  1  0.89696700  0.40526400  0.22210200  1
  O  O62  1  0.41618900  0.41351200  0.27099800  1
  O  O63  1  0.13614200  0.38797500  0.14380700  1
  O  O64  1  0.91334900  0.52258600  0.63066600  1
  O  O65  1  0.65786200  0.47429300  0.44518400  1
  O  O66  1  0.34860100  0.53065900  0.56424500  1
  O  O67  1  0.07942300  0.47467800  0.37099500  1
  O  O68  1  0.86340200  0.61544300  0.85691300  1
  O  O69  1  0.57849500  0.58947900  0.72875900  1
  O  O70  1  0.10126300  0.59604400  0.77654000  1
  O  O71  1  0.32884600  0.68258200  0.84559300  1
  O  O72  1  0.13532400  0.72295600  0.99833700  1
  O  O73  1  0.77671600  0.51945300  0.07441900  1
  O  O74  1  0.43778200  0.55880600  0.10974300  1
  O  O75  1  0.58143600  0.61382400  0.29518600  1
  O  O76  1  0.03446100  0.62466500  0.21534800  1
  O  O77  1  0.79032900  0.68593100  0.41879700  1
  O  O78  1  0.33052000  0.66704600  0.30786500  1
  O  O79  1  0.56385200  0.72316500  0.51840000  1
  O  O80  1  0.05949900  0.78229100  0.48325900  1
  O  O81  1  0.82709800  0.83569800  0.68641100  1
  O  O82  1  0.29348200  0.81770000  0.58958000  1
  O  O83  1  0.52553900  0.87154300  0.78379900  1
  O  O84  1  0.93513000  0.93598500  0.88850600  1
  O  O85  1  0.08080100  0.88678700  0.70586100  1
  O  O86  1  0.27654000  0.98030600  0.92499000  1
  O  O87  1  0.63272900  0.77668700  0.00313100  1
  O  O88  1  0.82881300  0.81755400  0.15417900  1
  O  O89  1  0.60179400  0.90421400  0.22433100  1
  O  O90  1  0.36250600  0.88505200  0.14113900  1
  O  O91  1  0.08739400  0.91248900  0.26799700  1
  O  O92  1  0.83713700  0.97643500  0.44278700  1
  O  O93  1  0.41139500  0.97261600  0.36737300  1
