# generated using pymatgen
data_Li4Mn3NbO8
_symmetry_space_group_name_H-M   'P 1'
_cell_length_a   6.07363060
_cell_length_b   10.74536290
_cell_length_c   6.07612256
_cell_angle_alpha   72.78014381
_cell_angle_beta   62.08884976
_cell_angle_gamma   90.28211469
_symmetry_Int_Tables_number   1
_chemical_formula_structural   Li4Mn3NbO8
_chemical_formula_sum   'Li8 Mn6 Nb2 O16'
_cell_volume   329.83960359
_cell_formula_units_Z   2
loop_
 _symmetry_equiv_pos_site_id
 _symmetry_equiv_pos_as_xyz
  1  'x, y, z'
loop_
 _atom_site_type_symbol
 _atom_site_label
 _atom_site_symmetry_multiplicity
 _atom_site_fract_x
 _atom_site_fract_y
 _atom_site_fract_z
 _atom_site_occupancy
  Li  Li0  1  0.25617000  0.74997000  0.49387100  1
  Li  Li1  1  0.74414200  0.24997500  0.50641800  1
  Li  Li2  1  0.75148200  0.74984200  0.99831600  1
  Li  Li3  1  0.24823800  0.24988100  0.00160100  1
  Li  Li4  1  0.48912000  0.01182300  0.01539600  1
  Li  Li5  1  0.00748100  0.48943600  0.98750500  1
  Li  Li6  1  0.97709300  0.98941600  0.51785500  1
  Li  Li7  1  0.52630400  0.51136900  0.47810700  1
  Mn  Mn8  1  0.99557200  0.50052500  0.50588400  1
  Mn  Mn9  1  0.74821300  0.24915500  0.00384700  1
  Mn  Mn10  1  0.25286200  0.75098700  0.99582800  1
  Mn  Mn11  1  0.50638900  0.00022400  0.49532500  1
  Mn  Mn12  1  0.75279400  0.74916700  0.49893300  1
  Mn  Mn13  1  0.24686300  0.25093100  0.50144800  1
  Nb  Nb14  1  0.01086900  0.99972000  0.98804400  1
  Nb  Nb15  1  0.48772300  0.49961600  0.01110300  1
  O  O16  1  0.41533200  0.14019500  0.23193300  1
  O  O17  1  0.87189900  0.64038400  0.27510900  1
  O  O18  1  0.63191700  0.85881100  0.72142500  1
  O  O19  1  0.08052600  0.35897200  0.77254300  1
  O  O20  1  0.37176000  0.61035200  0.76518900  1
  O  O21  1  0.87534800  0.11034900  0.76166900  1
  O  O22  1  0.62191300  0.38959600  0.24050500  1
  O  O23  1  0.13031700  0.88966100  0.23203400  1
  O  O24  1  0.11370800  0.88564900  0.76085700  1
  O  O25  1  0.61543200  0.37437800  0.78568400  1
  O  O26  1  0.65979700  0.87438600  0.24143900  1
  O  O27  1  0.14624200  0.38556500  0.22840000  1
  O  O28  1  0.88508800  0.12499500  0.21521200  1
  O  O29  1  0.38534500  0.61472500  0.23873900  1
  O  O30  1  0.35363600  0.11488800  0.77016200  1
  O  O31  1  0.84042600  0.62505400  0.75962000  1
