# generated using pymatgen
data_LiLa2In
_symmetry_space_group_name_H-M   'P 1'
_cell_length_a   12.46746728
_cell_length_b   12.46746728
_cell_length_c   12.46746728
_cell_angle_alpha   122.30876227
_cell_angle_beta   120.03528171
_cell_angle_gamma   87.99338972
_symmetry_Int_Tables_number   1
_chemical_formula_structural   LiLa2In
_chemical_formula_sum   'Li1 La2 In1'
_cell_volume   1344.45022343
_cell_formula_units_Z   1
loop_
 _symmetry_equiv_pos_site_id
 _symmetry_equiv_pos_as_xyz
  1  'x, y, z'
loop_
 _atom_site_type_symbol
 _atom_site_label
 _atom_site_symmetry_multiplicity
 _atom_site_fract_x
 _atom_site_fract_y
 _atom_site_fract_z
 _atom_site_occupancy
  Li  Li0  1  0.00000000  0.00000000  0.00000000  1
  La  La1  1  0.00000000  0.25667800  0.25667800  1
  La  La2  1  0.00000000  0.74332200  0.74332200  1
  In  In3  1  0.00000000  0.50000000  0.50000000  1
