# generated using pymatgen
data_LiV(SiO3)2
_symmetry_space_group_name_H-M   'P 1'
_cell_length_a   6.62470558
_cell_length_b   6.62470558
_cell_length_c   5.36607803
_cell_angle_alpha   74.41922341
_cell_angle_beta   74.41922341
_cell_angle_gamma   83.73454912
_symmetry_Int_Tables_number   1
_chemical_formula_structural   LiV(SiO3)2
_chemical_formula_sum   'Li2 V2 Si4 O12'
_cell_volume   218.33594957
_cell_formula_units_Z   2
loop_
 _symmetry_equiv_pos_site_id
 _symmetry_equiv_pos_as_xyz
  1  'x, y, z'
loop_
 _atom_site_type_symbol
 _atom_site_label
 _atom_site_symmetry_multiplicity
 _atom_site_fract_x
 _atom_site_fract_y
 _atom_site_fract_z
 _atom_site_occupancy
  Li  Li0  1  0.74362800  0.25637200  0.75000000  1
  Li  Li1  1  0.25637200  0.74362800  0.25000000  1
  V  V2  1  0.09785900  0.90214100  0.75000000  1
  V  V3  1  0.90214100  0.09785900  0.25000000  1
  Si  Si4  1  0.20840500  0.38713900  0.73081900  1
  Si  Si5  1  0.79159500  0.61286100  0.26918100  1
  Si  Si6  1  0.38713900  0.20840500  0.23081900  1
  Si  Si7  1  0.61286100  0.79159500  0.76918100  1
  O  O8  1  0.20269300  0.03200900  0.35088700  1
  O  O9  1  0.64115500  0.64968500  0.06606700  1
  O  O10  1  0.35031500  0.35884500  0.43393300  1
  O  O11  1  0.35884500  0.35031500  0.93393300  1
  O  O12  1  0.64968500  0.64115500  0.56606700  1
  O  O13  1  0.88486200  0.37427300  0.33313000  1
  O  O14  1  0.79730700  0.96799100  0.64911300  1
  O  O15  1  0.03200900  0.20269300  0.85088700  1
  O  O16  1  0.62572700  0.11513800  0.16687000  1
  O  O17  1  0.11513800  0.62572700  0.66687000  1
  O  O18  1  0.37427300  0.88486200  0.83313000  1
  O  O19  1  0.96799100  0.79730700  0.14911300  1
