# generated using pymatgen
data_Li3CoPCO7
_symmetry_space_group_name_H-M   'P 1'
_cell_length_a   4.90990239
_cell_length_b   12.75828442
_cell_length_c   8.60821852
_cell_angle_alpha   90.05705957
_cell_angle_beta   84.84199029
_cell_angle_gamma   89.83294499
_symmetry_Int_Tables_number   1
_chemical_formula_structural   Li3CoPCO7
_chemical_formula_sum   'Li12 Co4 P4 C4 O28'
_cell_volume   537.04911506
_cell_formula_units_Z   4
loop_
 _symmetry_equiv_pos_site_id
 _symmetry_equiv_pos_as_xyz
  1  'x, y, z'
loop_
 _atom_site_type_symbol
 _atom_site_label
 _atom_site_symmetry_multiplicity
 _atom_site_fract_x
 _atom_site_fract_y
 _atom_site_fract_z
 _atom_site_occupancy
  Li  Li0  1  0.77904300  0.13157200  0.10953100  1
  Li  Li1  1  0.77921300  0.63263700  0.10882300  1
  Li  Li2  1  0.22076600  0.38368600  0.88964500  1
  Li  Li3  1  0.22235500  0.88454000  0.89084900  1
  Li  Li4  1  0.24417700  0.23859900  0.28340600  1
  Li  Li5  1  0.24329600  0.73888500  0.28325000  1
  Li  Li6  1  0.75185200  0.49507500  0.71607400  1
  Li  Li7  1  0.75196600  0.99488800  0.71637700  1
  Li  Li8  1  0.78153300  0.37042800  0.35945900  1
  Li  Li9  1  0.78180100  0.87077200  0.35902000  1
  Li  Li10  1  0.22013500  0.12100700  0.64284600  1
  Li  Li11  1  0.21991500  0.62076100  0.64233600  1
  Co  Co12  1  0.25640300  0.49747700  0.26770900  1
  Co  Co13  1  0.74364200  0.74884300  0.73578100  1
  Co  Co14  1  0.25803100  0.99732300  0.26931500  1
  Co  Co15  1  0.73999600  0.25105400  0.74057100  1
  P  P16  1  0.72561900  0.12479500  0.40857300  1
  P  P17  1  0.72393500  0.62455600  0.40816800  1
  P  P18  1  0.27402300  0.37247600  0.59102200  1
  P  P19  1  0.27454300  0.87300800  0.59143600  1
  C  C20  1  0.70397800  0.38159100  0.04181400  1
  C  C21  1  0.70352200  0.88173600  0.04081300  1
  C  C22  1  0.29821200  0.12984100  0.95766200  1
  C  C23  1  0.29869900  0.62980300  0.95830800  1
  O  O24  1  0.95673600  0.38226200  0.06375800  1
  O  O25  1  0.95591700  0.88060500  0.06448600  1
  O  O26  1  0.04464300  0.13176700  0.93528100  1
  O  O27  1  0.04568800  0.63073100  0.93536000  1
  O  O28  1  0.37636400  0.12220400  0.10024200  1
  O  O29  1  0.37625800  0.62163800  0.10104500  1
  O  O30  1  0.62476100  0.37031700  0.89901400  1
  O  O31  1  0.62586000  0.87140800  0.89817800  1
  O  O32  1  0.51533900  0.38995500  0.15691900  1
  O  O33  1  0.51415300  0.89079900  0.15599700  1
  O  O34  1  0.48618600  0.13328100  0.84032500  1
  O  O35  1  0.48750700  0.63466300  0.84172900  1
  O  O36  1  0.85205400  0.02783000  0.31730400  1
  O  O37  1  0.85133100  0.52752000  0.31803600  1
  O  O38  1  0.15167400  0.27679100  0.68544100  1
  O  O39  1  0.15123100  0.77686500  0.68489600  1
  O  O40  1  0.82468000  0.22025000  0.30903700  1
  O  O41  1  0.82357800  0.72003900  0.30923400  1
  O  O42  1  0.17105800  0.46935600  0.68710100  1
  O  O43  1  0.17093400  0.96963900  0.68722900  1
  O  O44  1  0.19154200  0.37246600  0.42124300  1
  O  O45  1  0.19162800  0.87209700  0.42167300  1
  O  O46  1  0.80875500  0.12704100  0.57763100  1
  O  O47  1  0.80686300  0.62626600  0.57756900  1
  O  O48  1  0.40628100  0.11513000  0.41410300  1
  O  O49  1  0.40482800  0.61491800  0.41464800  1
  O  O50  1  0.59359000  0.36420700  0.58465900  1
  O  O51  1  0.59390700  0.86459700  0.58507600  1
