# generated using pymatgen
data_Li7Mn4CoO12
_symmetry_space_group_name_H-M   'P 1'
_cell_length_a   5.93104966
_cell_length_b   10.36919930
_cell_length_c   8.02117205
_cell_angle_alpha   110.16928693
_cell_angle_beta   75.24939312
_cell_angle_gamma   82.80205719
_symmetry_Int_Tables_number   1
_chemical_formula_structural   Li7Mn4CoO12
_chemical_formula_sum   'Li14 Mn8 Co2 O24'
_cell_volume   435.28030848
_cell_formula_units_Z   2
loop_
 _symmetry_equiv_pos_site_id
 _symmetry_equiv_pos_as_xyz
  1  'x, y, z'
loop_
 _atom_site_type_symbol
 _atom_site_label
 _atom_site_symmetry_multiplicity
 _atom_site_fract_x
 _atom_site_fract_y
 _atom_site_fract_z
 _atom_site_occupancy
  Li  Li0  1  0.75088600  0.16575700  0.83254200  1
  Li  Li1  1  0.24917400  0.16753800  0.83407700  1
  Li  Li2  1  0.88953200  0.08966500  0.44179400  1
  Li  Li3  1  0.38993500  0.08858200  0.44123000  1
  Li  Li4  1  0.61004300  0.24480600  0.22545700  1
  Li  Li5  1  0.11050100  0.24369600  0.22488600  1
  Li  Li6  1  0.87781400  0.40833000  0.08249200  1
  Li  Li7  1  0.38666600  0.40545000  0.08390000  1
  Li  Li8  1  0.61338400  0.92786000  0.58273300  1
  Li  Li9  1  0.12223100  0.92499600  0.58413900  1
  Li  Li10  1  0.88490000  0.75216100  0.75842000  1
  Li  Li11  1  0.37174100  0.75186200  0.75249500  1
  Li  Li12  1  0.62825800  0.58154300  0.91419400  1
  Li  Li13  1  0.11512800  0.58124000  0.90826000  1
  Mn  Mn14  1  0.74373400  0.83023600  0.16569400  1
  Mn  Mn15  1  0.24699200  0.83135800  0.16790300  1
  Mn  Mn16  1  0.25624300  0.50309200  0.50097800  1
  Mn  Mn17  1  0.75294600  0.50194400  0.49878900  1
  Mn  Mn18  1  0.98976200  0.00511000  0.99566900  1
  Mn  Mn19  1  0.48947200  0.00494300  0.99488100  1
  Mn  Mn20  1  0.01020500  0.32827800  0.67102200  1
  Mn  Mn21  1  0.51050100  0.32837400  0.67179800  1
  Co  Co22  1  0.50000600  0.66664900  0.33332800  1
  Co  Co23  1  0.99999700  0.66664300  0.33333300  1
  O  O24  1  0.17368700  0.02941300  0.17934200  1
  O  O25  1  0.67488400  0.02842200  0.17912300  1
  O  O26  1  0.82630100  0.30390600  0.48732200  1
  O  O27  1  0.32510300  0.30490700  0.48754900  1
  O  O28  1  0.69212600  0.36913200  0.84795700  1
  O  O29  1  0.19133800  0.37054300  0.84803100  1
  O  O30  1  0.30785400  0.96420700  0.81871500  1
  O  O31  1  0.80865800  0.96280200  0.81864000  1
  O  O32  1  0.68437000  0.69705900  0.51081200  1
  O  O33  1  0.20166500  0.69935700  0.53120300  1
  O  O34  1  0.79832900  0.63396200  0.13546800  1
  O  O35  1  0.31562000  0.63625200  0.15585500  1
  O  O36  1  0.45407200  0.86647000  0.36992500  1
  O  O37  1  0.95711200  0.86250600  0.37002400  1
  O  O38  1  0.54592400  0.46684400  0.29673500  1
  O  O39  1  0.04287800  0.47081300  0.29663500  1
  O  O40  1  0.93289500  0.19428600  0.04386700  1
  O  O41  1  0.43325600  0.19435200  0.04374200  1
  O  O42  1  0.06712300  0.13909800  0.62280800  1
  O  O43  1  0.56679100  0.13890900  0.62289700  1
  O  O44  1  0.96043400  0.53285100  0.69869700  1
  O  O45  1  0.46381500  0.53163600  0.70082400  1
  O  O46  1  0.53616400  0.80166200  0.96584500  1
  O  O47  1  0.03955000  0.80049700  0.96797000  1
