# generated using pymatgen
data_LiLa2TiO6
_symmetry_space_group_name_H-M   'P 1'
_cell_length_a   5.68031900
_cell_length_b   5.60349400
_cell_length_c   9.62973666
_cell_angle_alpha   54.86913140
_cell_angle_beta   90.00000000
_cell_angle_gamma   90.00000000
_symmetry_Int_Tables_number   1
_chemical_formula_structural   LiLa2TiO6
_chemical_formula_sum   'Li2 La4 Ti2 O12'
_cell_volume   250.67688814
_cell_formula_units_Z   2
loop_
 _symmetry_equiv_pos_site_id
 _symmetry_equiv_pos_as_xyz
  1  'x, y, z'
loop_
 _atom_site_type_symbol
 _atom_site_label
 _atom_site_symmetry_multiplicity
 _atom_site_fract_x
 _atom_site_fract_y
 _atom_site_fract_z
 _atom_site_occupancy
  Li  Li0  1  0.00000000  0.00000000  0.00000000  1
  Li  Li1  1  0.50000000  0.00000000  0.50000000  1
  La  La2  1  0.45257300  0.23660500  0.75204300  1
  La  La3  1  0.54742700  0.76339500  0.24795700  1
  La  La4  1  0.95257300  0.76339500  0.74795700  1
  La  La5  1  0.04742700  0.23660500  0.25204300  1
  Ti  Ti6  1  0.00000000  0.50000000  0.50000000  1
  Ti  Ti7  1  0.50000000  0.50000000  0.00000000  1
  O  O8  1  0.69676900  0.82722000  0.95348100  1
  O  O9  1  0.30323100  0.17278000  0.04651900  1
  O  O10  1  0.19676900  0.17278000  0.54651900  1
  O  O11  1  0.80323100  0.82722000  0.45348100  1
  O  O12  1  0.21796900  0.74277800  0.95104800  1
  O  O13  1  0.78203100  0.25722200  0.04895200  1
  O  O14  1  0.71796900  0.25722200  0.54895200  1
  O  O15  1  0.28203100  0.74277800  0.45104800  1
  O  O16  1  0.02477300  0.34980000  0.74022900  1
  O  O17  1  0.97522700  0.65020000  0.25977100  1
  O  O18  1  0.52477300  0.65020000  0.75977100  1
  O  O19  1  0.47522700  0.34980000  0.24022900  1
