# generated using pymatgen
data_Li10Zn(PS4)4
_symmetry_space_group_name_H-M   'P 1'
_cell_length_a   6.52868000
_cell_length_b   7.77066540
_cell_length_c   12.36669918
_cell_angle_alpha   89.79717405
_cell_angle_beta   89.91277780
_cell_angle_gamma   89.44664414
_symmetry_Int_Tables_number   1
_chemical_formula_structural   Li10Zn(PS4)4
_chemical_formula_sum   'Li10 Zn1 P4 S16'
_cell_volume   627.35581999
_cell_formula_units_Z   1
loop_
 _symmetry_equiv_pos_site_id
 _symmetry_equiv_pos_as_xyz
  1  'x, y, z'
loop_
 _atom_site_type_symbol
 _atom_site_label
 _atom_site_symmetry_multiplicity
 _atom_site_fract_x
 _atom_site_fract_y
 _atom_site_fract_z
 _atom_site_occupancy
  Li  Li0  1  0.31369400  0.23563400  0.99854100  1
  Li  Li1  1  0.68845900  0.25293100  0.74944400  1
  Li  Li2  1  0.67809500  0.26003900  0.24820300  1
  Li  Li3  1  0.68619700  0.74382200  0.74810800  1
  Li  Li4  1  0.67204600  0.74913900  0.25503400  1
  Li  Li5  1  0.31497800  0.74944000  0.00270900  1
  Li  Li6  1  0.15190000  0.98659700  0.75204900  1
  Li  Li7  1  0.14808300  0.97859500  0.26074100  1
  Li  Li8  1  0.86034900  0.53545200  0.50325000  1
  Li  Li9  1  0.85765000  0.49925500  0.00543600  1
  Zn  Zn10  1  0.30647800  0.25336300  0.50170200  1
  P  P11  1  0.81531100  0.01131700  0.49843100  1
  P  P12  1  0.81938900  0.99718200  0.00158400  1
  P  P13  1  0.18734400  0.49126600  0.74883400  1
  P  P14  1  0.17733400  0.50133500  0.25457500  1
  S  S15  1  0.11811700  0.00698200  0.55128500  1
  S  S16  1  0.11513300  0.99470700  0.05873200  1
  S  S17  1  0.81384100  0.99510500  0.83483100  1
  S  S18  1  0.80703100  0.00795400  0.33225000  1
  S  S19  1  0.66740300  0.23837500  0.55102500  1
  S  S20  1  0.67201200  0.21791300  0.05300100  1
  S  S21  1  0.32948500  0.26959900  0.80177700  1
  S  S22  1  0.31810700  0.27077700  0.30869400  1
  S  S23  1  0.20921900  0.51620500  0.58122700  1
  S  S24  1  0.19697700  0.49212200  0.08795300  1
  S  S25  1  0.88910800  0.49591200  0.80248500  1
  S  S26  1  0.87729800  0.50099900  0.30492400  1
  S  S27  1  0.33202800  0.70555200  0.80793800  1
  S  S28  1  0.32243400  0.70325800  0.31972200  1
  S  S29  1  0.66588100  0.80426400  0.55528700  1
  S  S30  1  0.67252800  0.78113000  0.05752300  1
