# generated using pymatgen
data_Li4V3P8O29
_symmetry_space_group_name_H-M   'P 1'
_cell_length_a   9.75564400
_cell_length_b   9.78288712
_cell_length_c   14.26311501
_cell_angle_alpha   90.15815058
_cell_angle_beta   90.02934060
_cell_angle_gamma   119.82874794
_symmetry_Int_Tables_number   1
_chemical_formula_structural   Li4V3P8O29
_chemical_formula_sum   'Li8 V6 P16 O58'
_cell_volume   1180.89743350
_cell_formula_units_Z   2
loop_
 _symmetry_equiv_pos_site_id
 _symmetry_equiv_pos_as_xyz
  1  'x, y, z'
loop_
 _atom_site_type_symbol
 _atom_site_label
 _atom_site_symmetry_multiplicity
 _atom_site_fract_x
 _atom_site_fract_y
 _atom_site_fract_z
 _atom_site_occupancy
  Li  Li0  1  0.77462200  0.08197400  0.43959700  1
  Li  Li1  1  0.91174400  0.23249400  0.94383700  1
  Li  Li2  1  0.76955000  0.66795800  0.94356700  1
  Li  Li3  1  0.08840900  0.31485400  0.55090800  1
  Li  Li4  1  0.90665800  0.67697800  0.44052400  1
  Li  Li5  1  0.22345700  0.91384700  0.56132800  1
  Li  Li6  1  0.67215700  0.90502700  0.06065600  1
  Li  Li7  1  0.07467600  0.02302100  0.99535300  1
  V  V8  1  0.99742700  0.43429900  0.75364700  1
  V  V9  1  0.00320100  0.57009800  0.24216000  1
  V  V10  1  0.42998700  0.43102900  0.25086700  1
  V  V11  1  0.56329500  0.56427300  0.74985700  1
  V  V12  1  0.43297300  0.00419500  0.75158700  1
  V  V13  1  0.56263300  0.99830100  0.25244000  1
  P  P14  1  0.30795700  0.08455900  0.16321000  1
  P  P15  1  0.31173200  0.22968100  0.65916700  1
  P  P16  1  0.77073500  0.08969300  0.65894800  1
  P  P17  1  0.66716100  0.33613600  0.86965100  1
  P  P18  1  0.67275200  0.33921600  0.36690600  1
  P  P19  1  0.90991800  0.22494000  0.15764400  1
  P  P20  1  0.08830100  0.31952100  0.33718500  1
  P  P21  1  0.76819600  0.68481200  0.15775800  1
  P  P22  1  0.22510700  0.30873200  0.84373100  1
  P  P23  1  0.90765500  0.67912200  0.65872800  1
  P  P24  1  0.08495300  0.77880500  0.83852400  1
  P  P25  1  0.32853200  0.66405600  0.63358600  1
  P  P26  1  0.33652900  0.66372900  0.12993600  1
  P  P27  1  0.22725500  0.90869200  0.34327700  1
  P  P28  1  0.68600700  0.77099300  0.34010000  1
  P  P29  1  0.68490300  0.91270700  0.83924100  1
  O  O30  1  0.23094400  0.97831200  0.43636000  1
  O  O31  1  0.33441800  0.08444600  0.65979900  1
  O  O32  1  0.20707300  0.21400700  0.92794300  1
  O  O33  1  0.34260700  0.25847100  0.17162900  1
  O  O34  1  0.46433100  0.08366200  0.17183900  1
  O  O35  1  0.51836700  0.19537000  0.82783800  1
  O  O36  1  0.61871500  0.09750800  0.67893800  1
  O  O37  1  0.77373800  0.99800700  0.92672700  1
  O  O38  1  0.74046000  0.08158900  0.16394300  1
  O  O39  1  0.52621100  0.34143600  0.32234900  1
  O  O40  1  0.47530100  0.38108500  0.68041000  1
  O  O41  1  0.67139300  0.18631000  0.33086000  1
  O  O42  1  0.68912900  0.34980700  0.97306700  1
  O  O43  1  0.68200900  0.35248400  0.47110800  1
  O  O44  1  0.81570700  0.32706700  0.82661900  1
  O  O45  1  0.61434100  0.52778200  0.17168000  1
  O  O46  1  0.67698000  0.49193700  0.82874800  1
  O  O47  1  0.91975700  0.25884400  0.66622600  1
  O  O48  1  0.99953800  0.20763900  0.24800300  1
  O  O49  1  0.99978400  0.24260500  0.42544200  1
  O  O50  1  0.98581800  0.21926900  0.06791500  1
  O  O51  1  0.90793500  0.38148000  0.17234900  1
  O  O52  1  0.82149900  0.48624400  0.32189500  1
  O  O53  1  0.08430200  0.34386600  0.83788700  1
  O  O54  1  0.89986500  0.51954700  0.68011500  1
  O  O55  1  0.73992600  0.65667200  0.66707100  1
  O  O56  1  0.20509900  0.20749300  0.75052600  1
  O  O57  1  0.23260700  0.24441000  0.57458500  1
  O  O58  1  0.77674400  0.76551600  0.42186100  1
  O  O59  1  0.25600300  0.34159800  0.33581900  1
  O  O60  1  0.09521800  0.47822500  0.31854800  1
  O  O61  1  0.91261900  0.65868500  0.16378800  1
  O  O62  1  0.17940300  0.51735600  0.68037200  1
  O  O63  1  0.08068600  0.61816000  0.82856600  1
  O  O64  1  0.99642500  0.79168800  0.92013600  1
  O  O65  1  0.99092500  0.74861700  0.56844700  1
  O  O66  1  0.00609900  0.79672500  0.74246100  1
  O  O67  1  0.07876500  0.74051700  0.33349200  1
  O  O68  1  0.33020100  0.51603100  0.17883900  1
  O  O69  1  0.38446200  0.46484200  0.83080400  1
  O  O70  1  0.18627200  0.66693700  0.17348900  1
  O  O71  1  0.33014500  0.65339700  0.02604700  1
  O  O72  1  0.32142200  0.64118600  0.53044900  1
  O  O73  1  0.32906800  0.81592100  0.66616800  1
  O  O74  1  0.52587000  0.61940200  0.32287900  1
  O  O75  1  0.47350800  0.66038200  0.68280900  1
  O  O76  1  0.25674900  0.91413200  0.83273100  1
  O  O77  1  0.20985400  0.00706500  0.25966600  1
  O  O78  1  0.20726800  0.00275600  0.08152400  1
  O  O79  1  0.37742100  0.89638900  0.32221800  1
  O  O80  1  0.48836600  0.81141600  0.16730200  1
  O  O81  1  0.52629300  0.90523600  0.82637300  1
  O  O82  1  0.66313700  0.74323100  0.83743100  1
  O  O83  1  0.77025900  0.76646000  0.06756100  1
  O  O84  1  0.78822800  0.79788300  0.24393100  1
  O  O85  1  0.66278400  0.91677500  0.34125200  1
  O  O86  1  0.77030700  0.01641600  0.56785600  1
  O  O87  1  0.79175200  0.99789900  0.74750100  1
