# generated using pymatgen
data_LiAlAs2
_symmetry_space_group_name_H-M   'P 1'
_cell_length_a   9.92715047
_cell_length_b   9.92715047
_cell_length_c   9.92715047
_cell_angle_alpha   133.05233262
_cell_angle_beta   110.45458248
_cell_angle_gamma   88.15872031
_symmetry_Int_Tables_number   1
_chemical_formula_structural   LiAlAs2
_chemical_formula_sum   'Li8 Al8 As16'
_cell_volume   638.63078582
_cell_formula_units_Z   8
loop_
 _symmetry_equiv_pos_site_id
 _symmetry_equiv_pos_as_xyz
  1  'x, y, z'
loop_
 _atom_site_type_symbol
 _atom_site_label
 _atom_site_symmetry_multiplicity
 _atom_site_fract_x
 _atom_site_fract_y
 _atom_site_fract_z
 _atom_site_occupancy
  Li  Li0  1  0.76531800  0.14888300  0.11205000  1
  Li  Li1  1  0.73468200  0.84673300  0.38356600  1
  Li  Li2  1  0.96316700  0.35111700  0.11643400  1
  Li  Li3  1  0.53683300  0.65326700  0.38795000  1
  Li  Li4  1  0.23468200  0.85111700  0.88795000  1
  Li  Li5  1  0.26531800  0.15326700  0.61643400  1
  Li  Li6  1  0.03683300  0.64888300  0.88356600  1
  Li  Li7  1  0.46316700  0.34673300  0.61205000  1
  Al  Al8  1  0.44869100  0.97957600  0.72454700  1
  Al  Al9  1  0.05130900  0.77585700  0.53088500  1
  Al  Al10  1  0.74497200  0.52042400  0.96911500  1
  Al  Al11  1  0.75502800  0.72414300  0.77545300  1
  Al  Al12  1  0.55130900  0.02042400  0.27545300  1
  Al  Al13  1  0.94869100  0.22414300  0.46911500  1
  Al  Al14  1  0.25502800  0.47957600  0.03088500  1
  Al  Al15  1  0.24497200  0.27585700  0.22454700  1
  As  As16  1  0.50000000  0.00000000  0.50000000  1
  As  As17  1  0.00000000  0.50000000  0.50000000  1
  As  As18  1  0.50000000  0.50000000  0.00000000  1
  As  As19  1  0.00000000  0.00000000  0.00000000  1
  As  As20  1  0.25000000  0.09834800  0.84834800  1
  As  As21  1  0.75000000  0.40165200  0.65165200  1
  As  As22  1  0.75000000  0.90165200  0.15165200  1
  As  As23  1  0.25000000  0.59834800  0.34834800  1
  As  As24  1  0.67355400  0.25000000  0.92355400  1
  As  As25  1  0.82644600  0.75000000  0.57644600  1
  As  As26  1  0.32644600  0.75000000  0.07644600  1
  As  As27  1  0.17355400  0.25000000  0.42355400  1
  As  As28  1  0.50216300  0.75216300  0.75000000  1
  As  As29  1  0.99783700  0.74783700  0.25000000  1
  As  As30  1  0.49783700  0.24783700  0.25000000  1
  As  As31  1  0.00216300  0.25216300  0.75000000  1
