# generated using pymatgen
data_Li8V3P8O29
_symmetry_space_group_name_H-M   'P 1'
_cell_length_a   9.87846300
_cell_length_b   9.89413048
_cell_length_c   13.82235481
_cell_angle_alpha   89.69043057
_cell_angle_beta   89.65672951
_cell_angle_gamma   60.11365796
_symmetry_Int_Tables_number   1
_chemical_formula_structural   Li8V3P8O29
_chemical_formula_sum   'Li16 V6 P16 O58'
_cell_volume   1171.29543992
_cell_formula_units_Z   2
loop_
 _symmetry_equiv_pos_site_id
 _symmetry_equiv_pos_as_xyz
  1  'x, y, z'
loop_
 _atom_site_type_symbol
 _atom_site_label
 _atom_site_symmetry_multiplicity
 _atom_site_fract_x
 _atom_site_fract_y
 _atom_site_fract_z
 _atom_site_occupancy
  Li  Li0  1  0.22343300  0.09059600  0.93879000  1
  Li  Li1  1  0.09636000  0.23235200  0.43368200  1
  Li  Li2  1  0.66979900  0.09604700  0.43430200  1
  Li  Li3  1  0.33104500  0.33067300  0.61754100  1
  Li  Li4  1  0.33004700  0.33213500  0.11967900  1
  Li  Li5  1  0.68381300  0.22428100  0.94037900  1
  Li  Li6  1  0.09132600  0.68232500  0.93898600  1
  Li  Li7  1  0.76519900  0.33766700  0.55929300  1
  Li  Li8  1  0.23369500  0.67031100  0.43506300  1
  Li  Li9  1  0.90701300  0.31806200  0.06403700  1
  Li  Li10  1  0.31336000  0.77754700  0.06156600  1
  Li  Li11  1  0.66836500  0.66934400  0.88266700  1
  Li  Li12  1  0.33758200  0.89811000  0.56090200  1
  Li  Li13  1  0.89991900  0.76579300  0.56120200  1
  Li  Li14  1  0.77658500  0.90805900  0.06365300  1
  Li  Li15  1  0.00225100  0.99847400  0.49581400  1
  V  V16  1  0.56728000  0.43447800  0.74994300  1
  V  V17  1  0.43673400  0.56593500  0.25038500  1
  V  V18  1  0.00024800  0.43386000  0.25112600  1
  V  V19  1  0.99964400  0.56688400  0.75005600  1
  V  V20  1  0.43356600  0.99917900  0.75058300  1
  V  V21  1  0.56736500  0.99957300  0.25085700  1
  P  P22  1  0.23045900  0.09027100  0.15694200  1
  P  P23  1  0.08905800  0.22700500  0.65534500  1
  P  P24  1  0.68340500  0.09138600  0.65637000  1
  P  P25  1  0.33362700  0.33464800  0.87523800  1
  P  P26  1  0.33593600  0.33528600  0.37605800  1
  P  P27  1  0.67924400  0.23168500  0.15727700  1
  P  P28  1  0.77096700  0.31422900  0.34303800  1
  P  P29  1  0.09265700  0.67894200  0.15744000  1
  P  P30  1  0.90830900  0.32175700  0.84348500  1
  P  P31  1  0.22931700  0.68349800  0.65650200  1
  P  P32  1  0.32068100  0.76667600  0.84360300  1
  P  P33  1  0.66478100  0.66700200  0.62438200  1
  P  P34  1  0.66748400  0.66378200  0.12438500  1
  P  P35  1  0.31372600  0.91247300  0.34315000  1
  P  P36  1  0.91388500  0.77167100  0.34372100  1
  P  P37  1  0.76845000  0.91062900  0.84434100  1
  O  O38  1  0.21669100  0.99929100  0.43219900  1
  O  O39  1  0.24921000  0.07733500  0.65598400  1
  O  O40  1  0.00084000  0.24074500  0.93232100  1
  O  O41  1  0.07923300  0.24887000  0.15563100  1
  O  O42  1  0.36961900  0.11723300  0.17405500  1
  O  O43  1  0.33070500  0.18800800  0.83734600  1
  O  O44  1  0.51907100  0.11100700  0.66508400  1
  O  O45  1  0.75146200  0.00537700  0.93302400  1
  O  O46  1  0.66817400  0.08266500  0.15431300  1
  O  O47  1  0.19189800  0.32557700  0.34034900  1
  O  O48  1  0.10996100  0.37061500  0.66565700  1
  O  O49  1  0.48981200  0.19220200  0.34053200  1
  O  O50  1  0.34336700  0.33361400  0.98374900  1
  O  O51  1  0.33382900  0.34861700  0.48517800  1
  O  O52  1  0.48480700  0.33438800  0.83091300  1
  O  O53  1  0.11842300  0.51308900  0.17182400  1
  O  O54  1  0.18906900  0.48533900  0.83675900  1
  O  O55  1  0.67095500  0.25325400  0.65729900  1
  O  O56  1  0.78806200  0.21044800  0.24901600  1
  O  O57  1  0.77023500  0.22447400  0.43299300  1
  O  O58  1  0.75345900  0.25255300  0.06730600  1
  O  O59  1  0.51352900  0.37377300  0.17542000  1
  O  O60  1  0.32803200  0.48930900  0.33264200  1
  O  O61  1  0.74769200  0.33036700  0.84306600  1
  O  O62  1  0.37676700  0.52054700  0.66902000  1
  O  O63  1  0.08281700  0.66750600  0.65457800  1
  O  O64  1  0.99806900  0.21775500  0.75007000  1
  O  O65  1  0.99608800  0.22980000  0.56716900  1
  O  O66  1  0.00307800  0.77592100  0.43296400  1
  O  O67  1  0.91677000  0.33077400  0.34371400  1
  O  O68  1  0.61935800  0.47054200  0.33103200  1
  O  O69  1  0.25382400  0.66884800  0.15670200  1
  O  O70  1  0.66898400  0.51337300  0.67043400  1
  O  O71  1  0.48650300  0.62518200  0.82539600  1
  O  O72  1  0.24644300  0.74533600  0.93304000  1
  O  O73  1  0.23491000  0.77099000  0.56741400  1
  O  O74  1  0.21392500  0.78462800  0.75083500  1
  O  O75  1  0.33130500  0.74855800  0.34130800  1
  O  O76  1  0.81254300  0.51285900  0.16100600  1
  O  O77  1  0.88230900  0.48782000  0.82922000  1
  O  O78  1  0.51605300  0.66429700  0.16961300  1
  O  O79  1  0.65304300  0.66266700  0.01577300  1
  O  O80  1  0.66503100  0.65343700  0.51689800  1
  O  O81  1  0.51255800  0.80975500  0.66398400  1
  O  O82  1  0.90540400  0.62343400  0.33296300  1
  O  O83  1  0.81006700  0.67303200  0.66300300  1
  O  O84  1  0.33033700  0.91644300  0.84591700  1
  O  O85  1  0.21092000  0.99980200  0.24878800  1
  O  O86  1  0.24911500  0.99533800  0.06755400  1
  O  O87  1  0.46891400  0.90808700  0.33446800  1
  O  O88  1  0.66881900  0.81169400  0.15943700  1
  O  O89  1  0.62912500  0.88325500  0.82870400  1
  O  O90  1  0.92085000  0.75284100  0.84413300  1
  O  O91  1  0.99936900  0.75884400  0.06804800  1
  O  O92  1  0.00413800  0.78629800  0.24945500  1
  O  O93  1  0.75288000  0.92018100  0.34194100  1
  O  O94  1  0.77639100  0.00019400  0.56819600  1
  O  O95  1  0.78185000  0.00286200  0.75094200  1
