# generated using pymatgen
data_Li7Mn5O12
_symmetry_space_group_name_H-M   'P 1'
_cell_length_a   5.83705870
_cell_length_b   8.62528997
_cell_length_c   9.19924938
_cell_angle_alpha   72.07702456
_cell_angle_beta   90.34983002
_cell_angle_gamma   89.88675385
_symmetry_Int_Tables_number   1
_chemical_formula_structural   Li7Mn5O12
_chemical_formula_sum   'Li14 Mn10 O24'
_cell_volume   440.66046458
_cell_formula_units_Z   2
loop_
 _symmetry_equiv_pos_site_id
 _symmetry_equiv_pos_as_xyz
  1  'x, y, z'
loop_
 _atom_site_type_symbol
 _atom_site_label
 _atom_site_symmetry_multiplicity
 _atom_site_fract_x
 _atom_site_fract_y
 _atom_site_fract_z
 _atom_site_occupancy
  Li  Li0  1  0.50013700  0.33333100  0.99999700  1
  Li  Li1  1  0.99987500  0.83331600  0.49999400  1
  Li  Li2  1  0.74408000  0.58051900  0.75159900  1
  Li  Li3  1  0.25587300  0.08619200  0.24836100  1
  Li  Li4  1  0.25609300  0.57951000  0.75378600  1
  Li  Li5  1  0.74388100  0.08716200  0.24625700  1
  Li  Li6  1  0.25324500  0.41771400  0.24359300  1
  Li  Li7  1  0.74724600  0.91875200  0.74710600  1
  Li  Li8  1  0.74688100  0.24898200  0.75636500  1
  Li  Li9  1  0.25272700  0.74788800  0.25285700  1
  Li  Li10  1  0.49426300  0.66161200  0.00322400  1
  Li  Li11  1  0.99684000  0.17385800  0.47839300  1
  Li  Li12  1  0.00315600  0.49285200  0.52152700  1
  Li  Li13  1  0.50569100  0.00498000  0.99689300  1
  Mn  Mn14  1  0.49983500  0.83329700  0.49997400  1
  Mn  Mn15  1  0.00011200  0.33339700  0.99997400  1
  Mn  Mn16  1  0.49893200  0.49776900  0.50931200  1
  Mn  Mn17  1  0.99853600  0.99748200  0.00792200  1
  Mn  Mn18  1  0.00144200  0.66930700  0.99208400  1
  Mn  Mn19  1  0.50101500  0.16870700  0.49069500  1
  Mn  Mn20  1  0.25554000  0.25059200  0.75620400  1
  Mn  Mn21  1  0.74674700  0.75270800  0.24998100  1
  Mn  Mn22  1  0.74457500  0.41602900  0.24381200  1
  Mn  Mn23  1  0.25327100  0.91382900  0.75026600  1
  O  O24  1  0.98641500  0.26907400  0.22351300  1
  O  O25  1  0.48970500  0.76690700  0.72357200  1
  O  O26  1  0.01372700  0.39765000  0.77648600  1
  O  O27  1  0.51017300  0.89973200  0.27641000  1
  O  O28  1  0.22737700  0.82892700  0.00728200  1
  O  O29  1  0.73450400  0.33504400  0.50173100  1
  O  O30  1  0.77270800  0.83782400  0.99272600  1
  O  O31  1  0.26550100  0.33156400  0.49821800  1
  O  O32  1  0.22192300  0.50253700  0.00087300  1
  O  O33  1  0.72721000  0.99976400  0.50097900  1
  O  O34  1  0.77821200  0.16423900  0.99910600  1
  O  O35  1  0.27266500  0.66685000  0.49897200  1
  O  O36  1  0.97662300  0.59365400  0.22148000  1
  O  O37  1  0.47844800  0.07962000  0.75448400  1
  O  O38  1  0.52159000  0.58701900  0.24544900  1
  O  O39  1  0.02348100  0.07307400  0.77851200  1
  O  O40  1  0.22412200  0.16046400  0.01460900  1
  O  O41  1  0.73336400  0.66818700  0.50795900  1
  O  O42  1  0.77605100  0.50628300  0.98538100  1
  O  O43  1  0.26626700  0.99843300  0.49203900  1
  O  O44  1  0.48837300  0.40369900  0.75571100  1
  O  O45  1  0.98484700  0.91573700  0.22676300  1
  O  O46  1  0.01504500  0.75096800  0.77323400  1
  O  O47  1  0.51167800  0.26296400  0.24433300  1
