# generated using pymatgen
data_Li4Co2OF7
_symmetry_space_group_name_H-M   'P 1'
_cell_length_a   6.02747861
_cell_length_b   5.90064707
_cell_length_c   8.49804293
_cell_angle_alpha   89.45995571
_cell_angle_beta   89.99946860
_cell_angle_gamma   90.00024602
_symmetry_Int_Tables_number   1
_chemical_formula_structural   Li4Co2OF7
_chemical_formula_sum   'Li8 Co4 O2 F14'
_cell_volume   302.22817348
_cell_formula_units_Z   2
loop_
 _symmetry_equiv_pos_site_id
 _symmetry_equiv_pos_as_xyz
  1  'x, y, z'
loop_
 _atom_site_type_symbol
 _atom_site_label
 _atom_site_symmetry_multiplicity
 _atom_site_fract_x
 _atom_site_fract_y
 _atom_site_fract_z
 _atom_site_occupancy
  Li  Li0  1  0.50232500  0.50973000  0.49081300  1
  Li  Li1  1  0.99766700  0.00973300  0.99081400  1
  Li  Li2  1  0.49943100  0.99179900  0.25947200  1
  Li  Li3  1  0.00056300  0.49179400  0.75947200  1
  Li  Li4  1  0.99892900  0.24948200  0.37383300  1
  Li  Li5  1  0.50106200  0.74948700  0.87384000  1
  Li  Li6  1  0.00075900  0.74539500  0.37801200  1
  Li  Li7  1  0.49923700  0.24540100  0.87800600  1
  Co  Co8  1  0.76984100  0.02206100  0.62563000  1
  Co  Co9  1  0.73025600  0.52206000  0.12562000  1
  Co  Co10  1  0.25583800  0.50856400  0.12408100  1
  Co  Co11  1  0.24414900  0.00858100  0.62408300  1
  O  O12  1  0.51152000  0.71634800  0.12383700  1
  O  O13  1  0.98847600  0.21631500  0.62385800  1
  F  F14  1  0.50788400  0.25156600  0.11838900  1
  F  F15  1  0.99208300  0.75155800  0.61839600  1
  F  F16  1  0.99442200  0.74199900  0.13069300  1
  F  F17  1  0.50560000  0.24202200  0.63068900  1
  F  F18  1  0.98668400  0.28366700  0.12638300  1
  F  F19  1  0.51330300  0.78367100  0.62638700  1
  F  F20  1  0.76598000  0.49393000  0.36007900  1
  F  F21  1  0.26478300  0.99668600  0.86284400  1
  F  F22  1  0.23521600  0.49668100  0.36283500  1
  F  F23  1  0.73401300  0.99393800  0.86008000  1
  F  F24  1  0.76020800  0.99310000  0.38990600  1
  F  F25  1  0.26742500  0.49566300  0.88602800  1
  F  F26  1  0.23256100  0.99566200  0.38602500  1
  F  F27  1  0.73979000  0.49310200  0.88989800  1
