# generated using pymatgen
data_Li4MnCo2O7
_symmetry_space_group_name_H-M   'P 1'
_cell_length_a   5.07686900
_cell_length_b   5.91712671
_cell_length_c   8.75904247
_cell_angle_alpha   90.83656444
_cell_angle_beta   95.02088219
_cell_angle_gamma   106.20660752
_symmetry_Int_Tables_number   1
_chemical_formula_structural   Li4MnCo2O7
_chemical_formula_sum   'Li8 Mn2 Co4 O14'
_cell_volume   251.49049726
_cell_formula_units_Z   2
loop_
 _symmetry_equiv_pos_site_id
 _symmetry_equiv_pos_as_xyz
  1  'x, y, z'
loop_
 _atom_site_type_symbol
 _atom_site_label
 _atom_site_symmetry_multiplicity
 _atom_site_fract_x
 _atom_site_fract_y
 _atom_site_fract_z
 _atom_site_occupancy
  Li  Li0  1  0.57816700  0.64824800  0.14631300  1
  Li  Li1  1  0.14892600  0.78796500  0.28082400  1
  Li  Li2  1  0.99350000  0.49222000  0.00441700  1
  Li  Li3  1  0.43075200  0.35251500  0.86344700  1
  Li  Li4  1  0.70343600  0.93024100  0.41743100  1
  Li  Li5  1  0.28417100  0.07397500  0.57071800  1
  Li  Li6  1  0.86385900  0.21901200  0.71643400  1
  Li  Li7  1  0.57218200  0.14391600  0.14193300  1
  Mn  Mn8  1  0.00002800  0.00580500  0.00210500  1
  Mn  Mn9  1  0.28471700  0.57096500  0.57208500  1
  Co  Co10  1  0.14778000  0.27340300  0.28311200  1
  Co  Co11  1  0.71553800  0.42291200  0.41691000  1
  Co  Co12  1  0.85689100  0.71545100  0.71366800  1
  Co  Co13  1  0.42922600  0.86254500  0.86698700  1
  O  O14  1  0.87384800  0.97078200  0.20230700  1
  O  O15  1  0.42018800  0.12476400  0.35804700  1
  O  O16  1  0.27322500  0.82878100  0.05458800  1
  O  O17  1  0.73364900  0.69930400  0.92410700  1
  O  O18  1  0.01130500  0.27301700  0.50382500  1
  O  O19  1  0.56349300  0.41459700  0.63448800  1
  O  O20  1  0.15241800  0.54992100  0.77169400  1
  O  O21  1  0.25817200  0.29984700  0.06909600  1
  O  O22  1  0.86228400  0.45718100  0.23063300  1
  O  O23  1  0.72687900  0.15740700  0.92682300  1
  O  O24  1  0.13379300  0.02424600  0.79642700  1
  O  O25  1  0.42029700  0.59890100  0.36921200  1
  O  O26  1  0.00857500  0.73443000  0.51461400  1
  O  O27  1  0.55270000  0.86764900  0.64775300  1
