# generated using pymatgen
data_Li9Mn2Co5O16
_symmetry_space_group_name_H-M   'P 1'
_cell_length_a   2.94197400
_cell_length_b   9.72768629
_cell_length_c   10.12281920
_cell_angle_alpha   85.60808327
_cell_angle_beta   87.53026548
_cell_angle_gamma   83.49603025
_symmetry_Int_Tables_number   1
_chemical_formula_structural   Li9Mn2Co5O16
_chemical_formula_sum   'Li9 Mn2 Co5 O16'
_cell_volume   286.81793346
_cell_formula_units_Z   1
loop_
 _symmetry_equiv_pos_site_id
 _symmetry_equiv_pos_as_xyz
  1  'x, y, z'
loop_
 _atom_site_type_symbol
 _atom_site_label
 _atom_site_symmetry_multiplicity
 _atom_site_fract_x
 _atom_site_fract_y
 _atom_site_fract_z
 _atom_site_occupancy
  Li  Li0  1  0.86790000  0.24717400  0.80812600  1
  Li  Li1  1  0.11862500  0.75955200  0.69086200  1
  Li  Li2  1  0.38233800  0.24784700  0.56075800  1
  Li  Li3  1  0.62298800  0.75392000  0.43869000  1
  Li  Li4  1  0.87957500  0.24643600  0.31311000  1
  Li  Li5  1  0.13023600  0.74666500  0.18959400  1
  Li  Li6  1  0.37876700  0.24929400  0.06468300  1
  Li  Li7  1  0.61217600  0.75557800  0.92987700  1
  Li  Li8  1  0.51424600  0.99139400  0.75144900  1
  Mn  Mn9  1  0.99608300  0.99905600  0.99441100  1
  Mn  Mn10  1  0.25003700  0.50162700  0.37491400  1
  Co  Co11  1  0.24939300  0.49896400  0.87489700  1
  Co  Co12  1  0.75257300  0.49704100  0.62550400  1
  Co  Co13  1  0.00357000  0.00171000  0.50887300  1
  Co  Co14  1  0.48975100  0.00250400  0.25138300  1
  Co  Co15  1  0.74701100  0.50248200  0.12397500  1
  O  O16  1  0.46440400  0.10923800  0.91836800  1
  O  O17  1  0.67893000  0.61366200  0.78374100  1
  O  O18  1  0.94166100  0.11431400  0.63660000  1
  O  O19  1  0.18750100  0.61357300  0.53242000  1
  O  O20  1  0.42367200  0.11065000  0.40365100  1
  O  O21  1  0.65366900  0.62221300  0.28085700  1
  O  O22  1  0.90602300  0.11240700  0.15531400  1
  O  O23  1  0.18077400  0.61421100  0.03561600  1
  O  O24  1  0.31782100  0.38089200  0.71673500  1
  O  O25  1  0.59028400  0.88490700  0.58383400  1
  O  O26  1  0.84669000  0.38242200  0.46873300  1
  O  O27  1  0.08133700  0.89320200  0.34918200  1
  O  O28  1  0.32028500  0.38609300  0.21822400  1
  O  O29  1  0.52569300  0.89554500  0.09178000  1
  O  O30  1  0.82156400  0.38362200  0.96489100  1
  O  O31  1  0.06442200  0.88180400  0.85894500  1
