# generated using pymatgen
data_Li2FeTeO6
_symmetry_space_group_name_H-M   'P 1'
_cell_length_a   5.38068598
_cell_length_b   7.56420038
_cell_length_c   10.18520722
_cell_angle_alpha   91.02318251
_cell_angle_beta   89.85973849
_cell_angle_gamma   85.97387583
_symmetry_Int_Tables_number   1
_chemical_formula_structural   Li2FeTeO6
_chemical_formula_sum   'Li8 Fe4 Te4 O24'
_cell_volume   413.45209325
_cell_formula_units_Z   4
loop_
 _symmetry_equiv_pos_site_id
 _symmetry_equiv_pos_as_xyz
  1  'x, y, z'
loop_
 _atom_site_type_symbol
 _atom_site_label
 _atom_site_symmetry_multiplicity
 _atom_site_fract_x
 _atom_site_fract_y
 _atom_site_fract_z
 _atom_site_occupancy
  Li  Li0  1  0.92663500  0.21636800  0.24883300  1
  Li  Li1  1  0.42539100  0.71615800  0.49839900  1
  Li  Li2  1  0.92669000  0.21603400  0.74871600  1
  Li  Li3  1  0.42535200  0.71611600  0.99841000  1
  Li  Li4  1  0.41297100  0.20567600  0.50171000  1
  Li  Li5  1  0.91445400  0.70604100  0.75139400  1
  Li  Li6  1  0.41313300  0.20568700  0.00171800  1
  Li  Li7  1  0.91425400  0.70572100  0.25118300  1
  Fe  Fe8  1  0.49503500  0.49538100  0.24937300  1
  Fe  Fe9  1  0.99483700  0.99569600  0.99868600  1
  Fe  Fe10  1  0.99492700  0.99583100  0.49861600  1
  Fe  Fe11  1  0.49521400  0.49529100  0.74935700  1
  Te  Te12  1  0.99811400  0.49819300  0.50019300  1
  Te  Te13  1  0.49781200  0.99864200  0.74986100  1
  Te  Te14  1  0.99804100  0.49810000  0.00010200  1
  Te  Te15  1  0.49776300  0.99861300  0.24987300  1
  O  O16  1  0.52007400  0.24323700  0.31182000  1
  O  O17  1  0.02023100  0.74309100  0.56162700  1
  O  O18  1  0.52009100  0.24327500  0.81190100  1
  O  O19  1  0.02022800  0.74307900  0.06150900  1
  O  O20  1  0.70001600  0.07880000  0.10138800  1
  O  O21  1  0.20074000  0.57716600  0.35121400  1
  O  O22  1  0.70011600  0.07894400  0.60141800  1
  O  O23  1  0.20096000  0.57718200  0.85112700  1
  O  O24  1  0.32283200  0.44564700  0.58745400  1
  O  O25  1  0.82249700  0.94571600  0.83716400  1
  O  O26  1  0.32280500  0.44573900  0.08746700  1
  O  O27  1  0.82237800  0.94551200  0.33720100  1
  O  O28  1  0.19969700  0.07365300  0.15389800  1
  O  O29  1  0.70006600  0.57428100  0.40392300  1
  O  O30  1  0.19988800  0.07368900  0.65384400  1
  O  O31  1  0.70020900  0.57443300  0.90381600  1
  O  O32  1  0.82985000  0.44867700  0.66232600  1
  O  O33  1  0.32977500  0.94858300  0.91181400  1
  O  O34  1  0.82979000  0.44883800  0.16226000  1
  O  O35  1  0.32969700  0.94854400  0.41178700  1
  O  O36  1  0.02303100  0.25885000  0.43489300  1
  O  O37  1  0.52332600  0.75918200  0.68441400  1
  O  O38  1  0.02313500  0.25883300  0.93483600  1
  O  O39  1  0.52314200  0.75910600  0.18446800  1
