# generated using pymatgen
data_LiCaPb2
_symmetry_space_group_name_H-M   'P 1'
_cell_length_a   12.83176511
_cell_length_b   12.83176511
_cell_length_c   12.83176511
_cell_angle_alpha   125.98304548
_cell_angle_beta   118.07803444
_cell_angle_gamma   86.66238147
_symmetry_Int_Tables_number   1
_chemical_formula_structural   LiCaPb2
_chemical_formula_sum   'Li1 Ca1 Pb2'
_cell_volume   1436.18927964
_cell_formula_units_Z   1
loop_
 _symmetry_equiv_pos_site_id
 _symmetry_equiv_pos_as_xyz
  1  'x, y, z'
loop_
 _atom_site_type_symbol
 _atom_site_label
 _atom_site_symmetry_multiplicity
 _atom_site_fract_x
 _atom_site_fract_y
 _atom_site_fract_z
 _atom_site_occupancy
  Li  Li0  1  0.00000000  0.00000000  0.00000000  1
  Ca  Ca1  1  0.00000000  0.50000000  0.50000000  1
  Pb  Pb2  1  0.00000000  0.23921700  0.23921700  1
  Pb  Pb3  1  0.00000000  0.76078300  0.76078300  1
