# generated using pymatgen
data_Li3V4O8
_symmetry_space_group_name_H-M   'P 1'
_cell_length_a   5.91341840
_cell_length_b   10.29679887
_cell_length_c   6.10938202
_cell_angle_alpha   73.86781464
_cell_angle_beta   119.03594559
_cell_angle_gamma   89.94773472
_symmetry_Int_Tables_number   1
_chemical_formula_structural   Li3V4O8
_chemical_formula_sum   'Li6 V8 O16'
_cell_volume   308.32545023
_cell_formula_units_Z   2
loop_
 _symmetry_equiv_pos_site_id
 _symmetry_equiv_pos_as_xyz
  1  'x, y, z'
loop_
 _atom_site_type_symbol
 _atom_site_label
 _atom_site_symmetry_multiplicity
 _atom_site_fract_x
 _atom_site_fract_y
 _atom_site_fract_z
 _atom_site_occupancy
  Li  Li0  1  0.49996200  0.99953400  0.50044600  1
  Li  Li1  1  0.99880700  0.50006700  0.49992300  1
  Li  Li2  1  0.28545700  0.07326400  0.06759500  1
  Li  Li3  1  0.78142100  0.57319900  0.06864100  1
  Li  Li4  1  0.21367500  0.42654900  0.93195300  1
  Li  Li5  1  0.71911300  0.92589500  0.93209400  1
  V  V6  1  0.25075200  0.74901700  0.50055300  1
  V  V7  1  0.25031100  0.24951200  0.49884900  1
  V  V8  1  0.49246500  0.50010100  0.49944700  1
  V  V9  1  0.75032500  0.25004700  0.99983100  1
  V  V10  1  0.24909500  0.74992700  0.00013800  1
  V  V11  1  0.75041300  0.25043100  0.50047300  1
  V  V12  1  0.75070200  0.75081200  0.50004000  1
  V  V13  1  0.00530500  0.00086500  0.49896600  1
  O  O14  1  0.11715700  0.13802900  0.70068300  1
  O  O15  1  0.58743100  0.63914300  0.70104500  1
  O  O16  1  0.38300800  0.36224700  0.29827900  1
  O  O17  1  0.91363700  0.86185600  0.30046400  1
  O  O18  1  0.65181000  0.12718100  0.26462700  1
  O  O19  1  0.14180900  0.62806300  0.27081800  1
  O  O20  1  0.88796700  0.36325500  0.26769000  1
  O  O21  1  0.37449300  0.86288500  0.26341500  1
  O  O22  1  0.12486900  0.13144600  0.26441100  1
  O  O23  1  0.61370600  0.62700700  0.26538400  1
  O  O24  1  0.61213000  0.13646400  0.73229000  1
  O  O25  1  0.12590400  0.63660600  0.73669100  1
  O  O26  1  0.37641000  0.37112700  0.73265100  1
  O  O27  1  0.88735300  0.87103500  0.73838200  1
  O  O28  1  0.84988000  0.37209800  0.73647900  1
  O  O29  1  0.35463100  0.87233800  0.72774200  1
