# generated using pymatgen
data_Li3La5Ti8O24
_symmetry_space_group_name_H-M   'P 1'
_cell_length_a   8.74536121
_cell_length_b   8.74536121
_cell_length_c   8.76594600
_cell_angle_alpha   66.48948220
_cell_angle_beta   66.48948220
_cell_angle_gamma   53.14392585
_symmetry_Int_Tables_number   1
_chemical_formula_structural   Li3La5Ti8O24
_chemical_formula_sum   'Li3 La5 Ti8 O24'
_cell_volume   480.12529942
_cell_formula_units_Z   1
loop_
 _symmetry_equiv_pos_site_id
 _symmetry_equiv_pos_as_xyz
  1  'x, y, z'
loop_
 _atom_site_type_symbol
 _atom_site_label
 _atom_site_symmetry_multiplicity
 _atom_site_fract_x
 _atom_site_fract_y
 _atom_site_fract_z
 _atom_site_occupancy
  Li  Li0  1  0.50000000  0.50000000  0.00000000  1
  Li  Li1  1  0.74999400  0.74999400  0.00015300  1
  Li  Li2  1  0.25000600  0.25000600  0.99984700  1
  La  La3  1  0.37469600  0.37469600  0.49969900  1
  La  La4  1  0.62530400  0.62530400  0.50030100  1
  La  La5  1  0.12511000  0.12511000  0.49797600  1
  La  La6  1  0.00000000  0.00000000  0.00000000  1
  La  La7  1  0.87489000  0.87489000  0.50202400  1
  Ti  Ti8  1  0.81259200  0.31784400  0.24378000  1
  Ti  Ti9  1  0.93464700  0.43966000  0.75614600  1
  Ti  Ti10  1  0.43966000  0.93464700  0.75614600  1
  Ti  Ti11  1  0.06535300  0.56034000  0.24385400  1
  Ti  Ti12  1  0.18740800  0.68215600  0.75622000  1
  Ti  Ti13  1  0.31784400  0.81259200  0.24378000  1
  Ti  Ti14  1  0.68215600  0.18740800  0.75622000  1
  Ti  Ti15  1  0.56034000  0.06535300  0.24385400  1
  O  O16  1  0.93321200  0.43441400  0.26469600  1
  O  O17  1  0.87829100  0.36485100  0.00002000  1
  O  O18  1  0.82066700  0.30922300  0.74025300  1
  O  O19  1  0.30913700  0.30913700  0.26522400  1
  O  O20  1  0.55783300  0.55783300  0.26621200  1
  O  O21  1  0.69086300  0.69086300  0.73477600  1
  O  O22  1  0.44216700  0.44216700  0.73378800  1
  O  O23  1  0.17933300  0.69077700  0.25974700  1
  O  O24  1  0.43441400  0.93321200  0.26469600  1
  O  O25  1  0.06678800  0.56558600  0.73530400  1
  O  O26  1  0.12170900  0.63514900  0.99998000  1
  O  O27  1  0.30922300  0.82066700  0.74025300  1
  O  O28  1  0.36485100  0.87829100  0.00002000  1
  O  O29  1  0.24872800  0.75127200  0.50000000  1
  O  O30  1  0.00000000  0.50000000  0.50000000  1
  O  O31  1  0.81284300  0.81284300  0.26031600  1
  O  O32  1  0.94269300  0.94269300  0.74052200  1
  O  O33  1  0.18715700  0.18715700  0.73968400  1
  O  O34  1  0.05730700  0.05730700  0.25947800  1
  O  O35  1  0.50000000  0.00000000  0.50000000  1
  O  O36  1  0.69077700  0.17933300  0.25974700  1
  O  O37  1  0.75127200  0.24872800  0.50000000  1
  O  O38  1  0.63514900  0.12170900  0.99998000  1
  O  O39  1  0.56558600  0.06678800  0.73530400  1
