# generated using pymatgen
data_Li4MnCo2O7
_symmetry_space_group_name_H-M   'P 1'
_cell_length_a   4.98437500
_cell_length_b   6.57104664
_cell_length_c   7.81833090
_cell_angle_alpha   85.77012608
_cell_angle_beta   79.20805071
_cell_angle_gamma   82.17996310
_symmetry_Int_Tables_number   1
_chemical_formula_structural   Li4MnCo2O7
_chemical_formula_sum   'Li8 Mn2 Co4 O14'
_cell_volume   248.89525346
_cell_formula_units_Z   2
loop_
 _symmetry_equiv_pos_site_id
 _symmetry_equiv_pos_as_xyz
  1  'x, y, z'
loop_
 _atom_site_type_symbol
 _atom_site_label
 _atom_site_symmetry_multiplicity
 _atom_site_fract_x
 _atom_site_fract_y
 _atom_site_fract_z
 _atom_site_occupancy
  Li  Li0  1  0.65619800  0.71484700  0.20867600  1
  Li  Li1  1  0.34380200  0.28515300  0.79132400  1
  Li  Li2  1  0.07215600  0.85685600  0.35092200  1
  Li  Li3  1  0.50000000  0.00000000  0.50000000  1
  Li  Li4  1  0.20311300  0.57593200  0.06778700  1
  Li  Li5  1  0.92784400  0.14314400  0.64907800  1
  Li  Li6  1  0.79688700  0.42406800  0.93221300  1
  Li  Li7  1  0.00000000  0.00000000  0.00000000  1
  Mn  Mn8  1  0.56891600  0.85913700  0.86259100  1
  Mn  Mn9  1  0.43108400  0.14086300  0.13740900  1
  Co  Co10  1  0.29171500  0.42653400  0.42790900  1
  Co  Co11  1  0.70828500  0.57346600  0.57209100  1
  Co  Co12  1  0.13594600  0.71943300  0.72342800  1
  Co  Co13  1  0.86405400  0.28056700  0.27657200  1
  O  O14  1  0.87434200  0.71915100  0.95611600  1
  O  O15  1  0.59366800  0.29771500  0.53308300  1
  O  O16  1  0.34638100  0.87155700  0.09330600  1
  O  O17  1  0.73996700  0.02228800  0.25037700  1
  O  O18  1  0.45615300  0.59668000  0.81619600  1
  O  O19  1  0.18333800  0.14780100  0.36663900  1
  O  O20  1  0.02973700  0.44968600  0.66928900  1
  O  O21  1  0.40633200  0.70228500  0.46691700  1
  O  O22  1  0.12565800  0.28084900  0.04388400  1
  O  O23  1  0.81666200  0.85219900  0.63336100  1
  O  O24  1  0.26003300  0.97771200  0.74962300  1
  O  O25  1  0.97026300  0.55031400  0.33071100  1
  O  O26  1  0.65361900  0.12844300  0.90669400  1
  O  O27  1  0.54384700  0.40332000  0.18380400  1
