# generated using pymatgen
data_Li4V3P8O29
_symmetry_space_group_name_H-M   'P 1'
_cell_length_a   9.78295881
_cell_length_b   9.78295881
_cell_length_c   14.25410848
_cell_angle_alpha   89.66653146
_cell_angle_beta   89.66653146
_cell_angle_gamma   60.17943670
_symmetry_Int_Tables_number   1
_chemical_formula_structural   Li4V3P8O29
_chemical_formula_sum   'Li8 V6 P16 O58'
_cell_volume   1183.54217325
_cell_formula_units_Z   2
loop_
 _symmetry_equiv_pos_site_id
 _symmetry_equiv_pos_as_xyz
  1  'x, y, z'
loop_
 _atom_site_type_symbol
 _atom_site_label
 _atom_site_symmetry_multiplicity
 _atom_site_fract_x
 _atom_site_fract_y
 _atom_site_fract_z
 _atom_site_occupancy
  Li  Li0  1  0.22803400  0.08849400  0.93861800  1
  Li  Li1  1  0.08849400  0.22803400  0.43861800  1
  Li  Li2  1  0.76935100  0.31584900  0.55983700  1
  Li  Li3  1  0.90741000  0.32041000  0.05603400  1
  Li  Li4  1  0.31584900  0.76935100  0.05983700  1
  Li  Li5  1  0.32041000  0.90741000  0.55603400  1
  Li  Li6  1  0.91503400  0.77805100  0.55885000  1
  Li  Li7  1  0.77805100  0.91503400  0.05885000  1
  V  V8  1  0.56966200  0.00202500  0.25275300  1
  V  V9  1  0.99740100  0.43474300  0.24576000  1
  V  V10  1  0.56497700  0.43298800  0.75273400  1
  V  V11  1  0.43298800  0.56497700  0.25273400  1
  V  V12  1  0.00202500  0.56966200  0.75275300  1
  V  V13  1  0.43474300  0.99740100  0.74576000  1
  P  P14  1  0.23342900  0.08780400  0.15738100  1
  P  P15  1  0.08780400  0.23342900  0.65738100  1
  P  P16  1  0.68487500  0.08762500  0.66315200  1
  P  P17  1  0.33242500  0.33060600  0.36950400  1
  P  P18  1  0.33060600  0.33242500  0.86950400  1
  P  P19  1  0.68563800  0.23011300  0.16172800  1
  P  P20  1  0.76827300  0.31875500  0.34307000  1
  P  P21  1  0.08762500  0.68487500  0.16315200  1
  P  P22  1  0.91123300  0.31787300  0.83809800  1
  P  P23  1  0.23011300  0.68563800  0.66172800  1
  P  P24  1  0.31875500  0.76827300  0.84307000  1
  P  P25  1  0.66204800  0.67056300  0.12998400  1
  P  P26  1  0.67056300  0.66204800  0.62998400  1
  P  P27  1  0.31787300  0.91123300  0.33809800  1
  P  P28  1  0.91227500  0.76592400  0.34331400  1
  P  P29  1  0.76592400  0.91227500  0.84331400  1
  O  O30  1  0.24006600  0.99822400  0.42671300  1
  O  O31  1  0.25197300  0.08395500  0.65668900  1
  O  O32  1  0.00017300  0.20971700  0.74843400  1
  O  O33  1  0.99822400  0.24006600  0.92671300  1
  O  O34  1  0.38287100  0.09728300  0.17708500  1
  O  O35  1  0.08395500  0.25197300  0.15668900  1
  O  O36  1  0.32733400  0.18507100  0.83250400  1
  O  O37  1  0.52131300  0.09844900  0.67725300  1
  O  O38  1  0.76780200  0.98136000  0.93451000  1
  O  O39  1  0.66078500  0.08493900  0.16069900  1
  O  O40  1  0.18507100  0.32733400  0.33250400  1
  O  O41  1  0.48222300  0.18359200  0.32241800  1
  O  O42  1  0.09728300  0.38287100  0.67708500  1
  O  O43  1  0.34366200  0.32608300  0.47305900  1
  O  O44  1  0.32608300  0.34366200  0.97305900  1
  O  O45  1  0.09844900  0.52131300  0.17725300  1
  O  O46  1  0.47815800  0.33614000  0.82353000  1
  O  O47  1  0.18359200  0.48222300  0.82241800  1
  O  O48  1  0.66052300  0.25780100  0.66293500  1
  O  O49  1  0.78311200  0.20537200  0.25800700  1
  O  O50  1  0.77459300  0.23553800  0.07869200  1
  O  O51  1  0.75782000  0.25421300  0.43526300  1
  O  O52  1  0.52485100  0.38304000  0.17784700  1
  O  O53  1  0.33614000  0.47815800  0.32353000  1
  O  O54  1  0.08493900  0.66078500  0.66069900  1
  O  O55  1  0.74371600  0.34053600  0.83398200  1
  O  O56  1  0.38304000  0.52485100  0.67784700  1
  O  O57  1  0.99742300  0.24591500  0.56961200  1
  O  O58  1  0.98136000  0.76780200  0.43451000  1
  O  O59  1  0.61871400  0.48074400  0.32007900  1
  O  O60  1  0.25780100  0.66052300  0.16293500  1
  O  O61  1  0.01466700  0.78183600  0.25915100  1
  O  O62  1  0.91801200  0.33523100  0.33384900  1
  O  O63  1  0.67211600  0.51068600  0.67283700  1
  O  O64  1  0.48074400  0.61871400  0.82007900  1
  O  O65  1  0.25421300  0.75782000  0.93526300  1
  O  O66  1  0.23553800  0.77459300  0.57869200  1
  O  O67  1  0.20537200  0.78311200  0.75800700  1
  O  O68  1  0.34053600  0.74371600  0.33398200  1
  O  O69  1  0.81100900  0.51513900  0.16614300  1
  O  O70  1  0.90351300  0.47876800  0.82208300  1
  O  O71  1  0.51068600  0.67211600  0.17283700  1
  O  O72  1  0.67625600  0.65437100  0.52554600  1
  O  O73  1  0.65437100  0.67625600  0.02554600  1
  O  O74  1  0.89726200  0.62043400  0.32185100  1
  O  O75  1  0.51513900  0.81100900  0.66614300  1
  O  O76  1  0.81818700  0.66578600  0.67153800  1
  O  O77  1  0.33523100  0.91801200  0.83384900  1
  O  O78  1  0.20971700  0.00017300  0.24843400  1
  O  O79  1  0.24591500  0.99742300  0.06961200  1
  O  O80  1  0.47876800  0.90351300  0.32208300  1
  O  O81  1  0.66578600  0.81818700  0.17153800  1
  O  O82  1  0.91531900  0.74540900  0.82727100  1
  O  O83  1  0.62043400  0.89726200  0.82185100  1
  O  O84  1  0.99456000  0.77411200  0.08058700  1
  O  O85  1  0.74540900  0.91531900  0.32727100  1
  O  O86  1  0.77411200  0.99456000  0.58058700  1
  O  O87  1  0.78183600  0.01466700  0.75915100  1
