# generated using pymatgen
data_K2LiTe2
_symmetry_space_group_name_H-M   'P 1'
_cell_length_a   13.93539200
_cell_length_b   13.93539200
_cell_length_c   17.14070600
_cell_angle_alpha   90.00000000
_cell_angle_beta   90.00000000
_cell_angle_gamma   90.00000000
_symmetry_Int_Tables_number   1
_chemical_formula_structural   K2LiTe2
_chemical_formula_sum   'K2 Li1 Te2'
_cell_volume   3328.64197610
_cell_formula_units_Z   1
loop_
 _symmetry_equiv_pos_site_id
 _symmetry_equiv_pos_as_xyz
  1  'x, y, z'
loop_
 _atom_site_type_symbol
 _atom_site_label
 _atom_site_symmetry_multiplicity
 _atom_site_fract_x
 _atom_site_fract_y
 _atom_site_fract_z
 _atom_site_occupancy
  K  K0  1  0.50000000  0.50000000  0.66905500  1
  K  K1  1  0.50000000  0.50000000  0.33094500  1
  Li  Li2  1  0.50000000  0.50000000  0.00000000  1
  Te  Te3  1  0.50000000  0.50000000  0.15188000  1
  Te  Te4  1  0.50000000  0.50000000  0.84812000  1
