# generated using pymatgen
data_Li12Mn3V5(PO4)12
_symmetry_space_group_name_H-M   'P 1'
_cell_length_a   8.65224600
_cell_length_b   8.68800612
_cell_length_c   12.40275748
_cell_angle_alpha   88.24091850
_cell_angle_beta   89.74762119
_cell_angle_gamma   89.97088390
_symmetry_Int_Tables_number   1
_chemical_formula_structural   Li12Mn3V5(PO4)12
_chemical_formula_sum   'Li12 Mn3 V5 P12 O48'
_cell_volume   931.87630810
_cell_formula_units_Z   1
loop_
 _symmetry_equiv_pos_site_id
 _symmetry_equiv_pos_as_xyz
  1  'x, y, z'
loop_
 _atom_site_type_symbol
 _atom_site_label
 _atom_site_symmetry_multiplicity
 _atom_site_fract_x
 _atom_site_fract_y
 _atom_site_fract_z
 _atom_site_occupancy
  Li  Li0  1  0.91905900  0.07705700  0.30292600  1
  Li  Li1  1  0.30235200  0.08467400  0.23995400  1
  Li  Li2  1  0.21741600  0.20777300  0.82514600  1
  Li  Li3  1  0.71909400  0.29126700  0.67407100  1
  Li  Li4  1  0.80535000  0.41613700  0.26161600  1
  Li  Li5  1  0.41641300  0.42537800  0.19784400  1
  Li  Li6  1  0.58097400  0.57721700  0.80150800  1
  Li  Li7  1  0.19599000  0.58584500  0.73764900  1
  Li  Li8  1  0.28199800  0.70770900  0.32630000  1
  Li  Li9  1  0.78285900  0.79195300  0.17466000  1
  Li  Li10  1  0.69557800  0.91275200  0.76098900  1
  Li  Li11  1  0.08104100  0.92216300  0.69794300  1
  Mn  Mn12  1  0.96567300  0.25302300  0.10392200  1
  Mn  Mn13  1  0.03445400  0.74714600  0.89625500  1
  Mn  Mn14  1  0.53453300  0.75280900  0.60342400  1
  V  V15  1  0.46911900  0.24862000  0.39215600  1
  V  V16  1  0.53902600  0.24678700  0.88986200  1
  V  V17  1  0.03957700  0.25230200  0.60972700  1
  V  V18  1  0.96185400  0.74707100  0.39010800  1
  V  V19  1  0.46050700  0.75315100  0.11039700  1
  P  P20  1  0.75281700  0.03712200  0.50725800  1
  P  P21  1  0.61742300  0.10475700  0.14702500  1
  P  P22  1  0.89656800  0.10171700  0.84903100  1
  P  P23  1  0.39710200  0.39625400  0.64843300  1
  P  P24  1  0.11590300  0.39607900  0.35497500  1
  P  P25  1  0.25106000  0.46168700  0.99308100  1
  P  P26  1  0.74907600  0.53875200  0.00643600  1
  P  P27  1  0.88271900  0.60379900  0.64439900  1
  P  P28  1  0.60390300  0.60412200  0.34791200  1
  P  P29  1  0.10332000  0.89850100  0.15108000  1
  P  P30  1  0.38206100  0.89545400  0.85621700  1
  P  P31  1  0.24925000  0.96094500  0.49330000  1
  O  O32  1  0.13290000  0.04574200  0.56568700  1
  O  O33  1  0.11575200  0.07869400  0.14807800  1
  O  O34  1  0.31925100  0.06825800  0.40368800  1
  O  O35  1  0.40105800  0.07039000  0.83316300  1
  O  O36  1  0.63379200  0.10724300  0.42896500  1
  O  O37  1  0.78855100  0.14329300  0.17902800  1
  O  O38  1  0.58915200  0.14830400  0.02810800  1
  O  O39  1  0.01691900  0.14131200  0.75711900  1
  O  O40  1  0.73235900  0.15754800  0.81291900  1
  O  O41  1  0.83101300  0.17001200  0.56745800  1
  O  O42  1  0.95247100  0.17095400  0.95157000  1
  O  O43  1  0.50070500  0.19543100  0.21775600  1
  O  O44  1  0.99701900  0.30385100  0.28977300  1
  O  O45  1  0.45086500  0.32815900  0.54410300  1
  O  O46  1  0.33091100  0.32959000  0.93232400  1
  O  O47  1  0.23395600  0.34035200  0.68696800  1
  O  O48  1  0.09291700  0.35592600  0.47524500  1
  O  O49  1  0.28578500  0.35728500  0.31986700  1
  O  O50  1  0.51794800  0.35607800  0.73958000  1
  O  O51  1  0.13185000  0.39368800  0.07386400  1
  O  O52  1  0.81891400  0.43205700  0.09709700  1
  O  O53  1  0.61540200  0.42455100  0.35072300  1
  O  O54  1  0.90207400  0.42875100  0.66754600  1
  O  O55  1  0.63397200  0.45392900  0.93415600  1
  O  O56  1  0.36650000  0.54667700  0.06484600  1
  O  O57  1  0.09698900  0.57120800  0.33200600  1
  O  O58  1  0.38509600  0.57640200  0.64655000  1
  O  O59  1  0.18109600  0.56784200  0.90233200  1
  O  O60  1  0.86935900  0.60609300  0.92593300  1
  O  O61  1  0.48242100  0.64163200  0.25661300  1
  O  O62  1  0.71167900  0.64298000  0.67879900  1
  O  O63  1  0.90574300  0.64373200  0.52441400  1
  O  O64  1  0.76730600  0.65924900  0.31053400  1
  O  O65  1  0.66996800  0.67142200  0.06666100  1
  O  O66  1  0.54654100  0.67283500  0.45056600  1
  O  O67  1  0.00120500  0.69574000  0.71034400  1
  O  O68  1  0.50027800  0.80305800  0.78992600  1
  O  O69  1  0.04753500  0.82904800  0.04837400  1
  O  O70  1  0.17103700  0.82758300  0.43400100  1
  O  O71  1  0.26681000  0.84269800  0.18820600  1
  O  O72  1  0.98282300  0.85942900  0.24288100  1
  O  O73  1  0.40567800  0.85566100  0.97616400  1
  O  O74  1  0.21104500  0.85649200  0.82238900  1
  O  O75  1  0.36866900  0.89448200  0.57457200  1
  O  O76  1  0.59754000  0.92970500  0.16853700  1
  O  O77  1  0.68196400  0.93052400  0.59802200  1
  O  O78  1  0.88414100  0.92162000  0.85146200  1
  O  O79  1  0.86896900  0.95246000  0.43548000  1
