# generated using pymatgen
data_Li3MnV(PO4)3
_symmetry_space_group_name_H-M   'P 1'
_cell_length_a   8.64933900
_cell_length_b   8.69018034
_cell_length_c   12.44584379
_cell_angle_alpha   89.84387614
_cell_angle_beta   88.59947076
_cell_angle_gamma   89.75671813
_symmetry_Int_Tables_number   1
_chemical_formula_structural   Li3MnV(PO4)3
_chemical_formula_sum   'Li12 Mn4 V4 P12 O48'
_cell_volume   935.19222435
_cell_formula_units_Z   4
loop_
 _symmetry_equiv_pos_site_id
 _symmetry_equiv_pos_as_xyz
  1  'x, y, z'
loop_
 _atom_site_type_symbol
 _atom_site_label
 _atom_site_symmetry_multiplicity
 _atom_site_fract_x
 _atom_site_fract_y
 _atom_site_fract_z
 _atom_site_occupancy
  Li  Li0  1  0.91693100  0.90704000  0.69517500  1
  Li  Li1  1  0.92188200  0.29644100  0.75491900  1
  Li  Li2  1  0.79180900  0.22341100  0.17710100  1
  Li  Li3  1  0.71143100  0.72528900  0.32208400  1
  Li  Li4  1  0.58131900  0.80006400  0.74391300  1
  Li  Li5  1  0.57991300  0.40418600  0.80333200  1
  Li  Li6  1  0.41803800  0.59321500  0.19734200  1
  Li  Li7  1  0.41523800  0.20215300  0.25960300  1
  Li  Li8  1  0.28751700  0.27699300  0.67644600  1
  Li  Li9  1  0.20787500  0.77986300  0.82633300  1
  Li  Li10  1  0.08811500  0.69985300  0.24150700  1
  Li  Li11  1  0.08423500  0.09175300  0.30219400  1
  Mn  Mn12  1  0.74802200  0.96497800  0.89638000  1
  Mn  Mn13  1  0.25305800  0.03787400  0.10228800  1
  Mn  Mn14  1  0.24584300  0.45734700  0.89075600  1
  Mn  Mn15  1  0.24963800  0.53716100  0.39953100  1
  V  V16  1  0.75149600  0.46650700  0.60843800  1
  V  V17  1  0.75385200  0.54297500  0.11149300  1
  V  V18  1  0.74725200  0.04298300  0.38872400  1
  V  V19  1  0.25252000  0.95763600  0.61143400  1
  P  P20  1  0.96124500  0.75145000  0.49345000  1
  P  P21  1  0.89452700  0.61073400  0.85388400  1
  P  P22  1  0.90214600  0.90246600  0.15188500  1
  P  P23  1  0.60449700  0.11107800  0.64301700  1
  P  P24  1  0.60290000  0.40367100  0.35115700  1
  P  P25  1  0.53881900  0.25220200  0.00644200  1
  P  P26  1  0.46126700  0.75535600  0.99680100  1
  P  P27  1  0.39307900  0.59676600  0.65718100  1
  P  P28  1  0.39535300  0.88682500  0.35866000  1
  P  P29  1  0.09765200  0.09526700  0.84591000  1
  P  P30  1  0.10697100  0.38714000  0.13828700  1
  P  P31  1  0.04205900  0.24935200  0.50361900  1
  O  O32  1  0.95311200  0.13628400  0.43217100  1
  O  O33  1  0.93610300  0.32353600  0.59176800  1
  O  O34  1  0.93143000  0.40645400  0.16354900  1
  O  O35  1  0.91574200  0.10490400  0.84922200  1
  O  O36  1  0.88605600  0.63727200  0.57318700  1
  O  O37  1  0.84856800  0.58455400  0.97170500  1
  O  O38  1  0.85221300  0.77935900  0.81998200  1
  O  O39  1  0.85823000  0.02301600  0.24164200  1
  O  O40  1  0.85084100  0.73785200  0.18807000  1
  O  O41  1  0.83241000  0.83242300  0.43027500  1
  O  O42  1  0.83296200  0.95549700  0.04811600  1
  O  O43  1  0.80898200  0.49168600  0.78270600  1
  O  O44  1  0.69611700  0.98887100  0.70650100  1
  O  O45  1  0.66971200  0.45383400  0.45651600  1
  O  O46  1  0.66675100  0.33333200  0.06963500  1
  O  O47  1  0.65517100  0.24054300  0.31259800  1
  O  O48  1  0.64690900  0.27870500  0.67919200  1
  O  O49  1  0.64711400  0.52504500  0.26167800  1
  O  O50  1  0.64279600  0.09449700  0.52266300  1
  O  O51  1  0.61059300  0.13927100  0.92429400  1
  O  O52  1  0.57352600  0.60418500  0.65709100  1
  O  O53  1  0.57102100  0.90550500  0.33395100  1
  O  O54  1  0.56922100  0.82953100  0.90812100  1
  O  O55  1  0.54987100  0.63984300  0.06776600  1
  O  O56  1  0.44942200  0.36808500  0.93558500  1
  O  O57  1  0.43327100  0.17715800  0.09496600  1
  O  O58  1  0.42896600  0.09314200  0.66731000  1
  O  O59  1  0.42174800  0.39548300  0.35065700  1
  O  O60  1  0.39494000  0.87077500  0.08027600  1
  O  O61  1  0.35982200  0.90124000  0.47917600  1
  O  O62  1  0.35272600  0.47478400  0.74794200  1
  O  O63  1  0.35282000  0.71817000  0.32249600  1
  O  O64  1  0.34068700  0.76048100  0.69203000  1
  O  O65  1  0.33212000  0.67887400  0.93464800  1
  O  O66  1  0.32468700  0.53887600  0.55470900  1
  O  O67  1  0.30358600  0.00914400  0.29567700  1
  O  O68  1  0.20004600  0.50885500  0.19879600  1
  O  O69  1  0.16986900  0.04248800  0.94890500  1
  O  O70  1  0.17322200  0.16744500  0.56397400  1
  O  O71  1  0.14606800  0.25687900  0.80528500  1
  O  O72  1  0.13680100  0.97311200  0.75631500  1
  O  O73  1  0.14843700  0.21878900  0.17580200  1
  O  O74  1  0.13466800  0.39750800  0.01568200  1
  O  O75  1  0.11212000  0.36501200  0.42149500  1
  O  O76  1  0.08324600  0.89359000  0.15172000  1
  O  O77  1  0.07218900  0.59414400  0.83531000  1
  O  O78  1  0.06759300  0.67507600  0.40542900  1
  O  O79  1  0.04899500  0.86486400  0.56413400  1
