# generated using pymatgen
data_Li5Mn3(SbO5)2
_symmetry_space_group_name_H-M   'P 1'
_cell_length_a   5.36832230
_cell_length_b   8.32531919
_cell_length_c   10.88626725
_cell_angle_alpha   101.24429201
_cell_angle_beta   100.27146035
_cell_angle_gamma   108.89968138
_symmetry_Int_Tables_number   1
_chemical_formula_structural   Li5Mn3(SbO5)2
_chemical_formula_sum   'Li10 Mn6 Sb4 O20'
_cell_volume   435.91885767
_cell_formula_units_Z   2
loop_
 _symmetry_equiv_pos_site_id
 _symmetry_equiv_pos_as_xyz
  1  'x, y, z'
loop_
 _atom_site_type_symbol
 _atom_site_label
 _atom_site_symmetry_multiplicity
 _atom_site_fract_x
 _atom_site_fract_y
 _atom_site_fract_z
 _atom_site_occupancy
  Li  Li0  1  0.50455507  0.48504491  0.24296791  1
  Li  Li1  1  0.50943321  0.51305376  0.75491221  1
  Li  Li2  1  0.86754071  0.38924314  0.11900043  1
  Li  Li3  1  0.88353690  0.39986089  0.62546522  1
  Li  Li4  1  0.11682958  0.60463280  0.37633917  1
  Li  Li5  1  0.09601540  0.59424728  0.88060376  1
  Li  Li6  1  0.28961429  0.76489490  0.17384098  1
  Li  Li7  1  0.29436131  0.80265073  0.70200778  1
  Li  Li8  1  0.70466600  0.23094991  0.30839757  1
  Li  Li9  1  0.70551494  0.23993293  0.82493292  1
  Mn  Mn10  1  0.49963993  0.00038510  0.50152745  1
  Mn  Mn11  1  0.90040282  0.89518473  0.84372284  1
  Mn  Mn12  1  0.11231240  0.11003829  0.15566356  1
  Mn  Mn13  1  0.49953135  0.00894610  0.00137658  1
  Mn  Mn14  1  0.89299404  0.88975172  0.34196175  1
  Mn  Mn15  1  0.10448599  0.10846784  0.66054428  1
  Sb  Sb16  1  0.72002747  0.69713611  0.04662671  1
  Sb  Sb17  1  0.70710183  0.69234580  0.54642682  1
  Sb  Sb18  1  0.28443067  0.30354248  0.45275122  1
  Sb  Sb19  1  0.27646041  0.30356155  0.94745984  1
  O  O20  1  0.08617511  0.84954473  0.02849803  1
  O  O21  1  0.06728755  0.82378909  0.51492435  1
  O  O22  1  0.92038081  0.16218021  0.47702111  1
  O  O23  1  0.89843562  0.16452020  0.98071819  1
  O  O24  1  0.69946179  0.91617610  0.16019660  1
  O  O25  1  0.68775079  0.91335883  0.65551699  1
  O  O26  1  0.30195018  0.08046231  0.34612686  1
  O  O27  1  0.29315965  0.02663374  0.81312367  1
  O  O28  1  0.35029888  0.55870552  0.07295153  1
  O  O29  1  0.32875008  0.54223122  0.56648400  1
  O  O30  1  0.66303098  0.45288677  0.43218801  1
  O  O31  1  0.73327525  0.48802571  0.92833053  1
  O  O32  1  0.50812056  0.24176576  0.14054971  1
  O  O33  1  0.47469422  0.24857844  0.60888389  1
  O  O34  1  0.51885758  0.75067557  0.39156007  1
  O  O35  1  0.52434692  0.75200947  0.89072553  1
  O  O36  1  0.90910950  0.65415224  0.20906622  1
  O  O37  1  0.88707377  0.64838429  0.70525966  1
  O  O38  1  0.10391903  0.34758628  0.29330044  1
  O  O39  1  0.07446941  0.34446253  0.77804561  1
