# generated using pymatgen
data_Li9Mn2Co5O16
_symmetry_space_group_name_H-M   'P 1'
_cell_length_a   2.97999800
_cell_length_b   10.02132150
_cell_length_c   10.72831968
_cell_angle_alpha   114.74386771
_cell_angle_beta   96.19967438
_cell_angle_gamma   91.37664498
_symmetry_Int_Tables_number   1
_chemical_formula_structural   Li9Mn2Co5O16
_chemical_formula_sum   'Li9 Mn2 Co5 O16'
_cell_volume   288.41688813
_cell_formula_units_Z   1
loop_
 _symmetry_equiv_pos_site_id
 _symmetry_equiv_pos_as_xyz
  1  'x, y, z'
loop_
 _atom_site_type_symbol
 _atom_site_label
 _atom_site_symmetry_multiplicity
 _atom_site_fract_x
 _atom_site_fract_y
 _atom_site_fract_z
 _atom_site_occupancy
  Li  Li0  1  0.13415200  0.94674700  0.26107300  1
  Li  Li1  1  0.86587000  0.05880800  0.74659700  1
  Li  Li2  1  0.64334000  0.18369100  0.25788400  1
  Li  Li3  1  0.62441900  0.68982700  0.25287900  1
  Li  Li4  1  0.37006000  0.81095400  0.74697400  1
  Li  Li5  1  0.11388900  0.43768400  0.24551900  1
  Li  Li6  1  0.87111800  0.56513100  0.74968100  1
  Li  Li7  1  0.38289500  0.30603400  0.74568200  1
  Li  Li8  1  0.73204800  0.12231000  0.49040200  1
  Mn  Mn9  1  0.00177100  0.00008400  0.00114400  1
  Mn  Mn10  1  0.25827000  0.36991000  0.49991500  1
  Co  Co11  1  0.49706600  0.25117300  0.99868300  1
  Co  Co12  1  0.99849500  0.50015800  0.99909200  1
  Co  Co13  1  0.76243700  0.62792400  0.50302400  1
  Co  Co14  1  0.50290500  0.74830700  0.00102800  1
  Co  Co15  1  0.24183500  0.88425300  0.50069600  1
  O  O16  1  0.60234600  0.95907200  0.11829900  1
  O  O17  1  0.30565900  0.06951400  0.61497600  1
  O  O18  1  0.04454700  0.21403200  0.11291600  1
  O  O19  1  0.04993300  0.70893500  0.11461300  1
  O  O20  1  0.82941300  0.83428300  0.61050600  1
  O  O21  1  0.54869300  0.46233500  0.11655500  1
  O  O22  1  0.34768500  0.58855400  0.61296900  1
  O  O23  1  0.79823800  0.34854600  0.60920500  1
  O  O24  1  0.64935900  0.90049600  0.38536200  1
  O  O25  1  0.40031700  0.03959700  0.88311100  1
  O  O26  1  0.18927100  0.17391400  0.38177900  1
  O  O27  1  0.16662800  0.66879200  0.39249900  1
  O  O28  1  0.95626600  0.78750900  0.88575100  1
  O  O29  1  0.72038400  0.41479100  0.39556100  1
  O  O30  1  0.44873400  0.53732800  0.88379600  1
  O  O31  1  0.94195600  0.28930700  0.88182900  1
