# generated using pymatgen
data_Li4Yb5Ge4
_symmetry_space_group_name_H-M   'P 1'
_cell_length_a   8.91470842
_cell_length_b   8.91470842
_cell_length_c   8.91470842
_cell_angle_alpha   92.78289024
_cell_angle_beta   92.78289024
_cell_angle_gamma   154.54151643
_symmetry_Int_Tables_number   1
_chemical_formula_structural   Li4Yb5Ge4
_chemical_formula_sum   'Li4 Yb5 Ge4'
_cell_volume   297.05580642
_cell_formula_units_Z   1
loop_
 _symmetry_equiv_pos_site_id
 _symmetry_equiv_pos_as_xyz
  1  'x, y, z'
loop_
 _atom_site_type_symbol
 _atom_site_label
 _atom_site_symmetry_multiplicity
 _atom_site_fract_x
 _atom_site_fract_y
 _atom_site_fract_z
 _atom_site_occupancy
  Li  Li0  1  0.60092100  0.08147700  0.68239700  1
  Li  Li1  1  0.91852300  0.60092100  0.51944400  1
  Li  Li2  1  0.08147700  0.39907900  0.48055600  1
  Li  Li3  1  0.39907900  0.91852300  0.31760300  1
  Yb  Yb4  1  0.12986500  0.78680900  0.91667400  1
  Yb  Yb5  1  0.21319100  0.12986500  0.34305600  1
  Yb  Yb6  1  0.87013500  0.21319100  0.08332600  1
  Yb  Yb7  1  0.50000000  0.50000000  0.00000000  1
  Yb  Yb8  1  0.78680900  0.87013500  0.65694400  1
  Ge  Ge9  1  0.43994200  0.24955100  0.68949300  1
  Ge  Ge10  1  0.56005800  0.75044900  0.31050700  1
  Ge  Ge11  1  0.24955100  0.56005800  0.80960900  1
  Ge  Ge12  1  0.75044900  0.43994200  0.19039100  1
