# generated using pymatgen
data_Li9Mn2Co5O16
_symmetry_space_group_name_H-M   'P 1'
_cell_length_a   10.64964263
_cell_length_b   10.64964263
_cell_length_c   10.26333210
_cell_angle_alpha   67.18364906
_cell_angle_beta   67.18364906
_cell_angle_gamma   15.60653437
_symmetry_Int_Tables_number   1
_chemical_formula_structural   Li9Mn2Co5O16
_chemical_formula_sum   'Li9 Mn2 Co5 O16'
_cell_volume   288.17081200
_cell_formula_units_Z   1
loop_
 _symmetry_equiv_pos_site_id
 _symmetry_equiv_pos_as_xyz
  1  'x, y, z'
loop_
 _atom_site_type_symbol
 _atom_site_label
 _atom_site_symmetry_multiplicity
 _atom_site_fract_x
 _atom_site_fract_y
 _atom_site_fract_z
 _atom_site_occupancy
  Li  Li0  1  0.62600100  0.62600100  0.80912100  1
  Li  Li1  1  0.87570000  0.87570000  0.44114600  1
  Li  Li2  1  0.12884300  0.12884300  0.06394800  1
  Li  Li3  1  0.12615200  0.12615200  0.55441200  1
  Li  Li4  1  0.36988200  0.36988200  0.18997900  1
  Li  Li5  1  0.62257500  0.62257500  0.32753600  1
  Li  Li6  1  0.87511100  0.87511100  0.92731000  1
  Li  Li7  1  0.38010300  0.38010300  0.68648300  1
  Li  Li8  1  0.99774400  0.99774400  0.50041400  1
  Mn  Mn9  1  0.99918600  0.99918600  0.99980900  1
  Mn  Mn10  1  0.49856600  0.49856600  0.25920400  1
  Co  Co11  1  0.25074600  0.25074600  0.62591100  1
  Co  Co12  1  0.74878100  0.74878100  0.87533600  1
  Co  Co13  1  0.24955600  0.24955600  0.12496100  1
  Co  Co14  1  0.50461200  0.50461200  0.72358500  1
  Co  Co15  1  0.75098200  0.75098200  0.37359100  1
  O  O16  1  0.55271900  0.55271900  0.03825800  1
  O  O17  1  0.80478900  0.80478900  0.65751700  1
  O  O18  1  0.05584000  0.05584000  0.27326200  1
  O  O19  1  0.05254100  0.05254100  0.80348600  1
  O  O20  1  0.30803100  0.30803100  0.40139500  1
  O  O21  1  0.56324400  0.56324400  0.54303300  1
  O  O22  1  0.80714200  0.80714200  0.15683600  1
  O  O23  1  0.30712300  0.30712300  0.90891400  1
  O  O24  1  0.69676900  0.69676900  0.59345400  1
  O  O25  1  0.94674000  0.94674000  0.21041200  1
  O  O26  1  0.18933700  0.18933700  0.84786800  1
  O  O27  1  0.19254400  0.19254400  0.34240300  1
  O  O28  1  0.44303100  0.44303100  0.98073000  1
  O  O29  1  0.69228300  0.69228300  0.09341100  1
  O  O30  1  0.94090600  0.94090600  0.72206800  1
  O  O31  1  0.44241900  0.44241900  0.44420500  1
