# generated using pymatgen
data_Li7Mn5O12
_symmetry_space_group_name_H-M   'P 1'
_cell_length_a   6.91523351
_cell_length_b   7.80057915
_cell_length_c   8.75984177
_cell_angle_alpha   84.62308288
_cell_angle_beta   80.03949870
_cell_angle_gamma   72.19486746
_symmetry_Int_Tables_number   1
_chemical_formula_structural   Li7Mn5O12
_chemical_formula_sum   'Li14 Mn10 O24'
_cell_volume   442.69621013
_cell_formula_units_Z   2
loop_
 _symmetry_equiv_pos_site_id
 _symmetry_equiv_pos_as_xyz
  1  'x, y, z'
loop_
 _atom_site_type_symbol
 _atom_site_label
 _atom_site_symmetry_multiplicity
 _atom_site_fract_x
 _atom_site_fract_y
 _atom_site_fract_z
 _atom_site_occupancy
  Li  Li0  1  0.24390500  0.00037500  0.25092300  1
  Li  Li1  1  0.75607000  0.99960400  0.74908300  1
  Li  Li2  1  0.27835400  0.15516400  0.78862800  1
  Li  Li3  1  0.79533900  0.16894400  0.29689100  1
  Li  Li4  1  0.72166800  0.84487100  0.21140900  1
  Li  Li5  1  0.20468300  0.83100600  0.70305900  1
  Li  Li6  1  0.55301300  0.15898700  0.03604000  1
  Li  Li7  1  0.04985300  0.16046000  0.53109100  1
  Li  Li8  1  0.44694700  0.84096700  0.96391000  1
  Li  Li9  1  0.95017000  0.83943800  0.46901000  1
  Li  Li10  1  0.39333400  0.50444700  0.87326200  1
  Li  Li11  1  0.87778700  0.49678100  0.37120100  1
  Li  Li12  1  0.60655000  0.49547600  0.12665500  1
  Li  Li13  1  0.12226100  0.50320100  0.62886200  1
  Mn  Mn14  1  0.49991700  0.00007500  0.50005600  1
  Mn  Mn15  1  0.99998600  0.00005600  0.99998700  1
  Mn  Mn16  1  0.58262200  0.33043600  0.58350800  1
  Mn  Mn17  1  0.08113000  0.32740700  0.08657600  1
  Mn  Mn18  1  0.41751100  0.66955900  0.41644200  1
  Mn  Mn19  1  0.91884600  0.67250400  0.91342200  1
  Mn  Mn20  1  0.82802300  0.33139200  0.83182800  1
  Mn  Mn21  1  0.32563000  0.32617800  0.33198100  1
  Mn  Mn22  1  0.17193600  0.66873900  0.16814000  1
  Mn  Mn23  1  0.67434900  0.67383900  0.66813400  1
  O  O24  1  0.51154200  0.08999900  0.28468300  1
  O  O25  1  0.00895900  0.09468500  0.78606300  1
  O  O26  1  0.48849100  0.91007300  0.71536600  1
  O  O27  1  0.99108900  0.90530000  0.21385200  1
  O  O28  1  0.23400800  0.08560600  0.01874100  1
  O  O29  1  0.73489700  0.08678300  0.52019800  1
  O  O30  1  0.76598600  0.91442100  0.98124000  1
  O  O31  1  0.26521100  0.91324800  0.47980300  1
  O  O32  1  0.59590200  0.42774100  0.36590800  1
  O  O33  1  0.06856100  0.41343900  0.86533100  1
  O  O34  1  0.40411900  0.57223200  0.63407100  1
  O  O35  1  0.93141200  0.58658800  0.13471200  1
  O  O36  1  0.34591600  0.42516700  0.11281400  1
  O  O37  1  0.85112100  0.42483000  0.62050400  1
  O  O38  1  0.65406700  0.57477700  0.88714200  1
  O  O39  1  0.14886800  0.57518800  0.37948300  1
  O  O40  1  0.18793300  0.76192900  0.95267400  1
  O  O41  1  0.68472900  0.76443600  0.44818000  1
  O  O42  1  0.81209300  0.23801800  0.04727100  1
  O  O43  1  0.31523300  0.23570500  0.55186900  1
  O  O44  1  0.40942600  0.73630000  0.19480500  1
  O  O45  1  0.94342200  0.74651900  0.70021200  1
  O  O46  1  0.59055200  0.26366400  0.80515000  1
  O  O47  1  0.05658000  0.25344800  0.29983200  1
