# generated using pymatgen
data_Li5Co3(SbO5)2
_symmetry_space_group_name_H-M   'P 1'
_cell_length_a   6.82560233
_cell_length_b   8.05814995
_cell_length_c   8.17762059
_cell_angle_alpha   116.36524297
_cell_angle_beta   89.58928546
_cell_angle_gamma   90.67160251
_symmetry_Int_Tables_number   1
_chemical_formula_structural   Li5Co3(SbO5)2
_chemical_formula_sum   'Li10 Co6 Sb4 O20'
_cell_volume   402.96874384
_cell_formula_units_Z   2
loop_
 _symmetry_equiv_pos_site_id
 _symmetry_equiv_pos_as_xyz
  1  'x, y, z'
loop_
 _atom_site_type_symbol
 _atom_site_label
 _atom_site_symmetry_multiplicity
 _atom_site_fract_x
 _atom_site_fract_y
 _atom_site_fract_z
 _atom_site_occupancy
  Li  Li0  1  0.25025800  0.74956700  0.49990500  1
  Li  Li1  1  0.75155100  0.25025700  0.49869500  1
  Li  Li2  1  0.13172500  0.36425000  0.39307200  1
  Li  Li3  1  0.63460300  0.86406700  0.39523100  1
  Li  Li4  1  0.36645800  0.13414900  0.60533200  1
  Li  Li5  1  0.86630200  0.63578300  0.60484900  1
  Li  Li6  1  0.54707700  0.96237800  0.80931900  1
  Li  Li7  1  0.04465500  0.46353600  0.80924500  1
  Li  Li8  1  0.95135600  0.53750200  0.18971700  1
  Li  Li9  1  0.45122400  0.03808100  0.19152100  1
  Co  Co10  1  0.24750800  0.25314400  0.00132900  1
  Co  Co11  1  0.15405800  0.85772200  0.89720100  1
  Co  Co12  1  0.34586600  0.63962000  0.10197200  1
  Co  Co13  1  0.74879600  0.76174200  0.00159500  1
  Co  Co14  1  0.64989500  0.35440400  0.89526400  1
  Co  Co15  1  0.84207200  0.13690600  0.10301800  1
  Sb  Sb16  1  0.44452200  0.55033600  0.70036100  1
  Sb  Sb17  1  0.94376200  0.05151700  0.70129900  1
  Sb  Sb18  1  0.05828700  0.94926100  0.29962100  1
  Sb  Sb19  1  0.55818300  0.44847500  0.29835100  1
  O  O20  1  0.86200700  0.90635800  0.83625800  1
  O  O21  1  0.36206700  0.40454000  0.83469200  1
  O  O22  1  0.64339400  0.58901500  0.15892100  1
  O  O23  1  0.14004000  0.09249700  0.16292400  1
  O  O24  1  0.44480200  0.78968200  0.93222000  1
  O  O25  1  0.94570900  0.29199800  0.93080600  1
  O  O26  1  0.05440400  0.71113700  0.06699100  1
  O  O27  1  0.54983700  0.20936700  0.06620700  1
  O  O28  1  0.54445800  0.68086900  0.54702200  1
  O  O29  1  0.04244100  0.18175100  0.54727500  1
  O  O30  1  0.95747200  0.81906100  0.45344200  1
  O  O31  1  0.45981400  0.31822900  0.45332000  1
  O  O32  1  0.27706900  0.49365900  0.25434600  1
  O  O33  1  0.77588500  0.99321400  0.25717700  1
  O  O34  1  0.22435900  0.00794000  0.74780900  1
  O  O35  1  0.72597900  0.50971000  0.75044200  1
  O  O36  1  0.16672700  0.59766200  0.65838600  1
  O  O37  1  0.66425100  0.09687900  0.66128900  1
  O  O38  1  0.33581700  0.90171600  0.34195500  1
  O  O39  1  0.83531000  0.40201900  0.34162000  1
