# generated using pymatgen
data_Li2VOF3
_symmetry_space_group_name_H-M   'P 1'
_cell_length_a   7.84374800
_cell_length_b   7.84572304
_cell_length_c   10.96841462
_cell_angle_alpha   69.14288194
_cell_angle_beta   69.45266039
_cell_angle_gamma   79.86162390
_symmetry_Int_Tables_number   1
_chemical_formula_structural   Li2VOF3
_chemical_formula_sum   'Li16 V8 O8 F24'
_cell_volume   589.62913310
_cell_formula_units_Z   8
loop_
 _symmetry_equiv_pos_site_id
 _symmetry_equiv_pos_as_xyz
  1  'x, y, z'
loop_
 _atom_site_type_symbol
 _atom_site_label
 _atom_site_symmetry_multiplicity
 _atom_site_fract_x
 _atom_site_fract_y
 _atom_site_fract_z
 _atom_site_occupancy
  Li  Li0  1  0.21860200  0.20366700  0.06293300  1
  Li  Li1  1  0.58451300  0.11265700  0.04210700  1
  Li  Li2  1  0.07853800  0.60470100  0.03813100  1
  Li  Li3  1  0.71649400  0.73002800  0.04204200  1
  Li  Li4  1  0.44908600  0.96718100  0.31758400  1
  Li  Li5  1  0.08646000  0.60373500  0.53595300  1
  Li  Li6  1  0.84990900  0.83882500  0.28539600  1
  Li  Li7  1  0.35233400  0.33987900  0.28561600  1
  Li  Li8  1  0.21842200  0.20217000  0.56233300  1
  Li  Li9  1  0.71738300  0.70072800  0.56444400  1
  Li  Li10  1  0.94702100  0.47374200  0.31356800  1
  Li  Li11  1  0.35272700  0.33898000  0.78806600  1
  Li  Li12  1  0.58821300  0.10406000  0.53505500  1
  Li  Li13  1  0.45311800  0.97605800  0.80864300  1
  Li  Li14  1  0.95057000  0.47059900  0.81299100  1
  Li  Li15  1  0.85363100  0.84079300  0.77705000  1
  V  V16  1  0.00803500  0.98391400  0.49326900  1
  V  V17  1  0.23216700  0.76027800  0.24438100  1
  V  V18  1  0.73142700  0.26426100  0.24433200  1
  V  V19  1  0.23065500  0.75939300  0.74598200  1
  V  V20  1  0.50557900  0.48183900  0.49738700  1
  V  V21  1  0.00747300  0.98539400  0.99483000  1
  V  V22  1  0.50577200  0.48848100  0.99348700  1
  V  V23  1  0.73176100  0.25620400  0.74733400  1
  O  O24  1  0.03311600  0.83186200  0.38633800  1
  O  O25  1  0.07808800  0.78712000  0.13737500  1
  O  O26  1  0.57866500  0.29291900  0.13660700  1
  O  O27  1  0.08234300  0.78515700  0.63505100  1
  O  O28  1  0.53257100  0.33200200  0.38824900  1
  O  O29  1  0.03110000  0.83313500  0.88674600  1
  O  O30  1  0.53429000  0.33097100  0.88838700  1
  O  O31  1  0.57797900  0.28115900  0.64015000  1
  F  F32  1  0.35228900  0.00697000  0.15969200  1
  F  F33  1  0.24110200  0.41028800  0.10816000  1
  F  F34  1  0.39794700  0.71103800  0.37205300  1
  F  F35  1  0.45963400  0.66000400  0.11536200  1
  F  F36  1  0.96035300  0.15668300  0.11882300  1
  F  F37  1  0.75044600  0.60442100  0.40998000  1
  F  F38  1  0.25267900  0.10571900  0.40672500  1
  F  F39  1  0.84440100  0.51366000  0.15653200  1
  F  F40  1  0.15494900  0.49474100  0.35848500  1
  F  F41  1  0.65586700  0.99703100  0.35902200  1
  F  F42  1  0.74167500  0.91412700  0.10973300  1
  F  F43  1  0.45933800  0.64870400  0.62268600  1
  F  F44  1  0.89836400  0.21496200  0.37105300  1
  F  F45  1  0.25448700  0.10360700  0.90776400  1
  F  F46  1  0.85247000  0.50255300  0.65724100  1
  F  F47  1  0.35325300  0.00444900  0.65551000  1
  F  F48  1  0.15422800  0.49406900  0.86084600  1
  F  F49  1  0.24073000  0.40521800  0.61084600  1
  F  F50  1  0.74343100  0.90562500  0.61025200  1
  F  F51  1  0.40072600  0.71619400  0.86754500  1
  F  F52  1  0.90120900  0.21375900  0.86976900  1
  F  F53  1  0.95972100  0.14816500  0.62193000  1
  F  F54  1  0.75240300  0.60774500  0.90167300  1
  F  F55  1  0.65736300  0.98814300  0.86243000  1
