# generated using pymatgen
data_LiMn4P7O24
_symmetry_space_group_name_H-M   'P 1'
_cell_length_a   10.39040946
_cell_length_b   10.61176491
_cell_length_c   10.79802872
_cell_angle_alpha   112.36628908
_cell_angle_beta   108.69852250
_cell_angle_gamma   105.82469776
_symmetry_Int_Tables_number   1
_chemical_formula_structural   LiMn4P7O24
_chemical_formula_sum   'Li2 Mn8 P14 O48'
_cell_volume   931.04885150
_cell_formula_units_Z   2
loop_
 _symmetry_equiv_pos_site_id
 _symmetry_equiv_pos_as_xyz
  1  'x, y, z'
loop_
 _atom_site_type_symbol
 _atom_site_label
 _atom_site_symmetry_multiplicity
 _atom_site_fract_x
 _atom_site_fract_y
 _atom_site_fract_z
 _atom_site_occupancy
  Li  Li0  1  0.01782029  0.40701671  0.57214895  1
  Li  Li1  1  0.98217971  0.59298329  0.42785105  1
  Mn  Mn2  1  0.24328319  0.84973888  0.74460199  1
  Mn  Mn3  1  0.05842747  0.69509138  0.07085745  1
  Mn  Mn4  1  0.39134462  0.23205124  0.89772968  1
  Mn  Mn5  1  0.43036338  0.59892436  0.41613450  1
  Mn  Mn6  1  0.56963662  0.40107564  0.58386550  1
  Mn  Mn7  1  0.60865538  0.76794876  0.10227032  1
  Mn  Mn8  1  0.94157253  0.30490862  0.92914255  1
  Mn  Mn9  1  0.75671681  0.15026112  0.25539801  1
  P  P10  1  0.99528026  0.97014638  0.76457386  1
  P  P11  1  0.23645033  0.81557158  0.42861224  1
  P  P12  1  0.07670651  0.33964178  0.27387353  1
  P  P13  1  0.49660086  0.74434003  0.75666592  1
  P  P14  1  0.27071001  0.13452916  0.52781614  1
  P  P15  1  0.37641793  0.92032474  0.11012478  1
  P  P16  1  0.30064168  0.49399607  0.04828081  1
  P  P17  1  0.69935832  0.50600393  0.95171919  1
  P  P18  1  0.62358207  0.07967526  0.88987522  1
  P  P19  1  0.72928999  0.86547084  0.47218386  1
  P  P20  1  0.50339914  0.25565997  0.24333408  1
  P  P21  1  0.92329349  0.66035822  0.72612647  1
  P  P22  1  0.76354967  0.18442842  0.57138776  1
  P  P23  1  0.00471974  0.02985362  0.23542614  1
  O  O24  1  0.00535610  0.66081344  0.86992687  1
  O  O25  1  0.01189411  0.64291685  0.63461715  1
  O  O26  1  0.01919858  0.90006331  0.13435719  1
  O  O27  1  0.30569419  0.87901290  0.94536998  1
  O  O28  1  0.16213888  0.80377435  0.53141119  1
  O  O29  1  0.10003866  0.71674701  0.26760601  1
  O  O30  1  0.27327532  0.33553608  0.92893176  1
  O  O31  1  0.30138261  0.99045663  0.46501656  1
  O  O32  1  0.15649271  0.99355201  0.79169482  1
  O  O33  1  0.32812014  0.71336685  0.69735123  1
  O  O34  1  0.09572610  0.08074571  0.41311442  1
  O  O35  1  0.08054120  0.17582876  0.22525345  1
  O  O36  1  0.24060522  0.45867414  0.37649568  1
  O  O37  1  0.28208655  0.17836195  0.68111694  1
  O  O38  1  0.13591023  0.48116620  0.00795241  1
  O  O39  1  0.36923738  0.78036121  0.45441274  1
  O  O40  1  0.27533177  0.82469736  0.14770950  1
  O  O41  1  0.56316733  0.74794901  0.90402822  1
  O  O42  1  0.59471476  0.90849306  0.78465175  1
  O  O43  1  0.36345791  0.25592154  0.50948451  1
  O  O44  1  0.50856635  0.62952339  0.62670116  1
  O  O45  1  0.45904849  0.06730741  0.83176332  1
  O  O46  1  0.38142521  0.52145820  0.20989036  1
  O  O47  1  0.60717210  0.38240826  0.96997651  1
  O  O48  1  0.39282790  0.61759174  0.03002349  1
  O  O49  1  0.61857479  0.47854180  0.79010964  1
  O  O50  1  0.54095151  0.93269259  0.16823668  1
  O  O51  1  0.49143365  0.37047661  0.37329884  1
  O  O52  1  0.63654209  0.74407846  0.49051549  1
  O  O53  1  0.40528524  0.09150694  0.21534825  1
  O  O54  1  0.43683267  0.25205099  0.09597178  1
  O  O55  1  0.72466823  0.17530264  0.85229050  1
  O  O56  1  0.63076262  0.21963879  0.54558726  1
  O  O57  1  0.86408977  0.51883380  0.99204759  1
  O  O58  1  0.71791345  0.82163805  0.31888306  1
  O  O59  1  0.75939478  0.54132586  0.62350432  1
  O  O60  1  0.91945880  0.82417124  0.77474655  1
  O  O61  1  0.90427390  0.91925429  0.58688558  1
  O  O62  1  0.67187986  0.28663315  0.30264877  1
  O  O63  1  0.84350729  0.00644799  0.20830518  1
  O  O64  1  0.69861739  0.00954337  0.53498344  1
  O  O65  1  0.72672468  0.66446392  0.07106824  1
  O  O66  1  0.89996134  0.28325299  0.73239399  1
  O  O67  1  0.83786112  0.19622565  0.46858881  1
  O  O68  1  0.69430581  0.12098710  0.05463002  1
  O  O69  1  0.98080142  0.09993669  0.86564281  1
  O  O70  1  0.98810589  0.35708315  0.36538285  1
  O  O71  1  0.99464390  0.33918656  0.13007313  1
