# generated using pymatgen
data_Li9Mn2Co5O16
_symmetry_space_group_name_H-M   'P 1'
_cell_length_a   5.89747847
_cell_length_b   10.13106244
_cell_length_c   5.92951499
_cell_angle_alpha   88.81796528
_cell_angle_beta   120.28949290
_cell_angle_gamma   107.56975350
_symmetry_Int_Tables_number   1
_chemical_formula_structural   Li9Mn2Co5O16
_chemical_formula_sum   'Li9 Mn2 Co5 O16'
_cell_volume   287.88942381
_cell_formula_units_Z   1
loop_
 _symmetry_equiv_pos_site_id
 _symmetry_equiv_pos_as_xyz
  1  'x, y, z'
loop_
 _atom_site_type_symbol
 _atom_site_label
 _atom_site_symmetry_multiplicity
 _atom_site_fract_x
 _atom_site_fract_y
 _atom_site_fract_z
 _atom_site_occupancy
  Li  Li0  1  0.00018918  0.99692931  0.50155110  1
  Li  Li1  1  0.00103856  0.25946456  0.25916870  1
  Li  Li2  1  0.99847530  0.50222847  0.99384893  1
  Li  Li3  1  0.50079472  0.99780277  0.99701571  1
  Li  Li4  1  0.50198963  0.25593480  0.75795662  1
  Li  Li5  1  0.50630756  0.50457560  0.50168260  1
  Li  Li6  1  0.49816275  0.74578855  0.24232844  1
  Li  Li7  1  0.99037670  0.74071750  0.73750175  1
  Li  Li8  1  0.99345540  0.49786252  0.49848443  1
  Mn  Mn9  1  0.00390226  0.00041736  0.99791198  1
  Mn  Mn10  1  0.99965888  0.25405459  0.75106307  1
  Co  Co11  1  0.00238056  0.74029089  0.25053361  1
  Co  Co12  1  0.49201400  0.99516939  0.49973933  1
  Co  Co13  1  0.50674375  0.25552898  0.25937314  1
  Co  Co14  1  0.50781674  0.50153669  0.00426619  1
  Co  Co15  1  0.48881100  0.74051823  0.74924890  1
  O  O16  1  0.78084030  0.87903563  0.12060904  1
  O  O17  1  0.77089450  0.11982105  0.87239374  1
  O  O18  1  0.76394955  0.36318496  0.64250602  1
  O  O19  1  0.26384895  0.88063761  0.61503786  1
  O  O20  1  0.25232223  0.12242942  0.34252300  1
  O  O21  1  0.24653428  0.36278198  0.10716830  1
  O  O22  1  0.27188341  0.63401191  0.86983910  1
  O  O23  1  0.73639460  0.62263642  0.34705814  1
  O  O24  1  0.21793406  0.12339128  0.86694853  1
  O  O25  1  0.24122720  0.37033192  0.64919560  1
  O  O26  1  0.24747549  0.63822408  0.37158822  1
  O  O27  1  0.74735956  0.13520939  0.40229122  1
  O  O28  1  0.71808799  0.36502533  0.13339716  1
  O  O29  1  0.74680278  0.62395160  0.87932947  1
  O  O30  1  0.75575952  0.88116469  0.65358870  1
  O  O31  1  0.24656860  0.88934250  0.12485140  1
