# generated using pymatgen
data_Li9Mn2Co5O16
_symmetry_space_group_name_H-M   'P 1'
_cell_length_a   5.15431700
_cell_length_b   6.44397759
_cell_length_c   8.58878247
_cell_angle_alpha   96.96992512
_cell_angle_beta   94.46816790
_cell_angle_gamma   95.99113058
_symmetry_Int_Tables_number   1
_chemical_formula_structural   Li9Mn2Co5O16
_chemical_formula_sum   'Li9 Mn2 Co5 O16'
_cell_volume   280.42792019
_cell_formula_units_Z   1
loop_
 _symmetry_equiv_pos_site_id
 _symmetry_equiv_pos_as_xyz
  1  'x, y, z'
loop_
 _atom_site_type_symbol
 _atom_site_label
 _atom_site_symmetry_multiplicity
 _atom_site_fract_x
 _atom_site_fract_y
 _atom_site_fract_z
 _atom_site_occupancy
  Li  Li0  1  0.74965200  0.55354800  0.93001800  1
  Li  Li1  1  0.24856700  0.94446800  0.56446900  1
  Li  Li2  1  0.75731500  0.31842600  0.18957300  1
  Li  Li3  1  0.24597700  0.43892100  0.06026200  1
  Li  Li4  1  0.75123300  0.81020800  0.68529600  1
  Li  Li5  1  0.25247500  0.18973500  0.32085600  1
  Li  Li6  1  0.24597900  0.67446900  0.80391400  1
  Li  Li7  1  0.75068800  0.06974500  0.44559300  1
  Li  Li8  1  0.50012800  0.37447500  0.62540400  1
  Mn  Mn9  1  0.00004300  0.00044700  0.99827300  1
  Mn  Mn10  1  0.99996400  0.49856900  0.50231000  1
  Co  Co11  1  0.99997800  0.74992100  0.25052500  1
  Co  Co12  1  0.49936900  0.12972500  0.86964100  1
  Co  Co13  1  0.50063300  0.87295500  0.12707200  1
  Co  Co14  1  0.99975500  0.24904800  0.75095700  1
  Co  Co15  1  0.50024300  0.62562800  0.37550400  1
  O  O16  1  0.11015100  0.73122200  0.03873300  1
  O  O17  1  0.64769300  0.10954900  0.67835300  1
  O  O18  1  0.11191700  0.48204700  0.28741100  1
  O  O19  1  0.61348500  0.60873100  0.16369000  1
  O  O20  1  0.10637000  0.97614700  0.78975300  1
  O  O21  1  0.64415700  0.37108700  0.41024700  1
  O  O22  1  0.64182300  0.86808400  0.92313100  1
  O  O23  1  0.10412000  0.23124500  0.53719100  1
  O  O24  1  0.35379000  0.37702400  0.83740700  1
  O  O25  1  0.88853400  0.77030400  0.45939400  1
  O  O26  1  0.35705900  0.12787900  0.07867200  1
  O  O27  1  0.89323300  0.26921700  0.96618200  1
  O  O28  1  0.35420400  0.64441900  0.57452300  1
  O  O29  1  0.88958300  0.01844000  0.21077300  1
  O  O30  1  0.89479700  0.52056100  0.71070400  1
  O  O31  1  0.38708400  0.89375700  0.33416500  1
