# generated using pymatgen
data_Li4Mn3O7
_symmetry_space_group_name_H-M   'P 1'
_cell_length_a   3.00430500
_cell_length_b   5.11041728
_cell_length_c   16.99243492
_cell_angle_alpha   89.43020803
_cell_angle_beta   89.01605871
_cell_angle_gamma   88.28308417
_symmetry_Int_Tables_number   1
_chemical_formula_structural   Li4Mn3O7
_chemical_formula_sum   'Li8 Mn6 O14'
_cell_volume   260.72195595
_cell_formula_units_Z   2
loop_
 _symmetry_equiv_pos_site_id
 _symmetry_equiv_pos_as_xyz
  1  'x, y, z'
loop_
 _atom_site_type_symbol
 _atom_site_label
 _atom_site_symmetry_multiplicity
 _atom_site_fract_x
 _atom_site_fract_y
 _atom_site_fract_z
 _atom_site_occupancy
  Li  Li0  1  0.50000000  0.50000000  0.00000000  1
  Li  Li1  1  0.93575000  0.65059200  0.13813600  1
  Li  Li2  1  0.35374400  0.77985600  0.28606800  1
  Li  Li3  1  0.78552500  0.92897400  0.42821700  1
  Li  Li4  1  0.21447500  0.07102600  0.57178300  1
  Li  Li5  1  0.64625600  0.22014400  0.71393200  1
  Li  Li6  1  0.06425000  0.34940800  0.86186400  1
  Li  Li7  1  0.00000000  0.00000000  0.00000000  1
  Mn  Mn8  1  0.56516400  0.86514200  0.86268200  1
  Mn  Mn9  1  0.43483600  0.13485800  0.13731800  1
  Mn  Mn10  1  0.86797400  0.28872800  0.28336800  1
  Mn  Mn11  1  0.28629600  0.42905100  0.42781900  1
  Mn  Mn12  1  0.71370400  0.57094900  0.57218100  1
  Mn  Mn13  1  0.13202600  0.71127200  0.71663200  1
  O  O14  1  0.06468900  0.70415700  0.91888200  1
  O  O15  1  0.45366100  0.84000300  0.07817600  1
  O  O16  1  0.92508100  0.99515300  0.20729300  1
  O  O17  1  0.29083800  0.12460000  0.35685800  1
  O  O18  1  0.71533700  0.26808300  0.50113700  1
  O  O19  1  0.14545700  0.40645600  0.64488600  1
  O  O20  1  0.57045800  0.55945100  0.78594600  1
  O  O21  1  0.93531100  0.29584300  0.08111800  1
  O  O22  1  0.42954200  0.44054900  0.21405400  1
  O  O23  1  0.85454300  0.59354400  0.35511400  1
  O  O24  1  0.28466300  0.73191700  0.49886300  1
  O  O25  1  0.70916200  0.87540000  0.64314200  1
  O  O26  1  0.07491900  0.00484700  0.79270700  1
  O  O27  1  0.54633900  0.15999700  0.92182400  1
