# generated using pymatgen
data_Li6SN4
_symmetry_space_group_name_H-M   'P 1'
_cell_length_a   6.31275500
_cell_length_b   6.31275500
_cell_length_c   4.87513900
_cell_angle_alpha   90.00000000
_cell_angle_beta   90.00000000
_cell_angle_gamma   90.00000000
_symmetry_Int_Tables_number   1
_chemical_formula_structural   Li6SN4
_chemical_formula_sum   'Li12 S2 N8'
_cell_volume   194.27855826
_cell_formula_units_Z   2
loop_
 _symmetry_equiv_pos_site_id
 _symmetry_equiv_pos_as_xyz
  1  'x, y, z'
loop_
 _atom_site_type_symbol
 _atom_site_label
 _atom_site_symmetry_multiplicity
 _atom_site_fract_x
 _atom_site_fract_y
 _atom_site_fract_z
 _atom_site_occupancy
  Li  Li0  1  0.00000000  0.50000000  0.65287600  1
  Li  Li1  1  0.50000000  0.00000000  0.84712400  1
  Li  Li2  1  0.50000000  0.00000000  0.34712400  1
  Li  Li3  1  0.00000000  0.50000000  0.15287600  1
  Li  Li4  1  0.21192800  0.21192800  0.50000000  1
  Li  Li5  1  0.78807200  0.78807200  0.50000000  1
  Li  Li6  1  0.71192800  0.71192800  0.00000000  1
  Li  Li7  1  0.28807200  0.28807200  0.00000000  1
  Li  Li8  1  0.78807200  0.21192800  0.50000000  1
  Li  Li9  1  0.21192800  0.78807200  0.50000000  1
  Li  Li10  1  0.28807200  0.71192800  0.00000000  1
  Li  Li11  1  0.71192800  0.28807200  0.00000000  1
  S  S12  1  0.50000000  0.50000000  0.50000000  1
  S  S13  1  0.00000000  0.00000000  0.00000000  1
  N  N14  1  0.28351300  0.50000000  0.32184000  1
  N  N15  1  0.71648700  0.50000000  0.32184000  1
  N  N16  1  0.78351300  0.00000000  0.17816000  1
  N  N17  1  0.21648700  0.00000000  0.17816000  1
  N  N18  1  0.50000000  0.28351300  0.67816000  1
  N  N19  1  0.50000000  0.71648700  0.67816000  1
  N  N20  1  0.00000000  0.78351300  0.82184000  1
  N  N21  1  0.00000000  0.21648700  0.82184000  1
