# generated using pymatgen
data_Li9Mn7O16
_symmetry_space_group_name_H-M   'P 1'
_cell_length_a   5.29085800
_cell_length_b   7.66642816
_cell_length_c   7.77196041
_cell_angle_alpha   95.00269421
_cell_angle_beta   105.71489535
_cell_angle_gamma   98.38992946
_symmetry_Int_Tables_number   1
_chemical_formula_structural   Li9Mn7O16
_chemical_formula_sum   'Li9 Mn7 O16'
_cell_volume   297.54520101
_cell_formula_units_Z   1
loop_
 _symmetry_equiv_pos_site_id
 _symmetry_equiv_pos_as_xyz
  1  'x, y, z'
loop_
 _atom_site_type_symbol
 _atom_site_label
 _atom_site_symmetry_multiplicity
 _atom_site_fract_x
 _atom_site_fract_y
 _atom_site_fract_z
 _atom_site_occupancy
  Li  Li0  1  0.42357800  0.81062900  0.93116900  1
  Li  Li1  1  0.81225400  0.93731400  0.31379500  1
  Li  Li2  1  0.18774600  0.06268600  0.68620500  1
  Li  Li3  1  0.57642200  0.18937100  0.06883100  1
  Li  Li4  1  0.91872800  0.32017800  0.43263300  1
  Li  Li5  1  0.31427600  0.44180600  0.79946500  1
  Li  Li6  1  0.68572400  0.55819400  0.20053500  1
  Li  Li7  1  0.08127200  0.67982200  0.56736700  1
  Li  Li8  1  0.50000000  0.50000000  0.50000000  1
  Mn  Mn9  1  0.86565600  0.62260500  0.86832600  1
  Mn  Mn10  1  0.38166900  0.12866100  0.37507100  1
  Mn  Mn11  1  0.25631200  0.74971300  0.25471300  1
  Mn  Mn12  1  0.61833100  0.87133900  0.62492900  1
  Mn  Mn13  1  0.00000000  0.00000000  0.00000000  1
  Mn  Mn14  1  0.74368800  0.25028700  0.74528700  1
  Mn  Mn15  1  0.13434400  0.37739500  0.13167400  1
  O  O16  1  0.02823200  0.84043900  0.79691300  1
  O  O17  1  0.40305600  0.96228300  0.16874400  1
  O  O18  1  0.78688500  0.09274700  0.55229800  1
  O  O19  1  0.10939400  0.22065800  0.90360800  1
  O  O20  1  0.52252000  0.32988100  0.28172500  1
  O  O21  1  0.90972000  0.46228900  0.67202700  1
  O  O22  1  0.28599100  0.59265600  0.05428400  1
  O  O23  1  0.60790500  0.73075800  0.39948800  1
  O  O24  1  0.89060600  0.77934200  0.09639200  1
  O  O25  1  0.21311500  0.90725300  0.44770200  1
  O  O26  1  0.59694400  0.03771700  0.83125600  1
  O  O27  1  0.97176800  0.15956100  0.20308700  1
  O  O28  1  0.39209500  0.26924200  0.60051200  1
  O  O29  1  0.71400900  0.40734400  0.94571600  1
  O  O30  1  0.09028000  0.53771100  0.32797300  1
  O  O31  1  0.47748000  0.67011900  0.71827500  1
