# generated using pymatgen
data_Li3Np
_symmetry_space_group_name_H-M   'P 1'
_cell_length_a   6.49332886
_cell_length_b   6.49332886
_cell_length_c   4.96521700
_cell_angle_alpha   90.00000000
_cell_angle_beta   90.00000000
_cell_angle_gamma   120.00000880
_symmetry_Int_Tables_number   1
_chemical_formula_structural   Li3Np
_chemical_formula_sum   'Li6 Np2'
_cell_volume   181.30242983
_cell_formula_units_Z   2
loop_
 _symmetry_equiv_pos_site_id
 _symmetry_equiv_pos_as_xyz
  1  'x, y, z'
loop_
 _atom_site_type_symbol
 _atom_site_label
 _atom_site_symmetry_multiplicity
 _atom_site_fract_x
 _atom_site_fract_y
 _atom_site_fract_z
 _atom_site_occupancy
  Li  Li0  1  0.14763200  0.29526400  0.25000000  1
  Li  Li1  1  0.70473600  0.85236800  0.25000000  1
  Li  Li2  1  0.14763200  0.85236800  0.25000000  1
  Li  Li3  1  0.85236800  0.70473600  0.75000000  1
  Li  Li4  1  0.29526400  0.14763200  0.75000000  1
  Li  Li5  1  0.85236800  0.14763200  0.75000000  1
  Np  Np6  1  0.33333300  0.66666700  0.75000000  1
  Np  Np7  1  0.66666700  0.33333300  0.25000000  1
