# generated using pymatgen
data_Li19Mn4P8O35F
_symmetry_space_group_name_H-M   'P 1'
_cell_length_a   6.78154000
_cell_length_b   10.64809798
_cell_length_c   10.77871963
_cell_angle_alpha   82.79963702
_cell_angle_beta   71.66821636
_cell_angle_gamma   71.52008540
_symmetry_Int_Tables_number   1
_chemical_formula_structural   Li19Mn4P8O35F
_chemical_formula_sum   'Li19 Mn4 P8 O35 F1'
_cell_volume   700.45444722
_cell_formula_units_Z   1
loop_
 _symmetry_equiv_pos_site_id
 _symmetry_equiv_pos_as_xyz
  1  'x, y, z'
loop_
 _atom_site_type_symbol
 _atom_site_label
 _atom_site_symmetry_multiplicity
 _atom_site_fract_x
 _atom_site_fract_y
 _atom_site_fract_z
 _atom_site_occupancy
  Li  Li0  1  0.75803500  0.24554200  0.23882700  1
  Li  Li1  1  0.25811600  0.24491500  0.23836000  1
  Li  Li2  1  0.36891000  0.48844200  0.25547100  1
  Li  Li3  1  0.88766300  0.26606000  0.48581200  1
  Li  Li4  1  0.87373100  0.74355900  0.00732900  1
  Li  Li5  1  0.36326800  0.01351500  0.76058500  1
  Li  Li6  1  0.00232000  0.73422100  0.25961000  1
  Li  Li7  1  0.50433000  0.72738100  0.26590200  1
  Li  Li8  1  0.99766400  0.26556200  0.73778800  1
  Li  Li9  1  0.49902900  0.27227400  0.73193900  1
  Li  Li10  1  0.49977700  0.49934400  0.50023700  1
  Li  Li11  1  0.13365500  0.99057700  0.24418000  1
  Li  Li12  1  0.62550700  0.25444400  0.99277400  1
  Li  Li13  1  0.64895900  0.72721700  0.51262500  1
  Li  Li14  1  0.11332400  0.50977100  0.74337500  1
  Li  Li15  1  0.23945200  0.75250900  0.76363800  1
  Li  Li16  1  0.74390600  0.75350700  0.76457500  1
  Li  Li17  1  0.99725600  0.99924000  0.00034800  1
  Li  Li18  1  0.50311500  0.99928600  0.00037000  1
  Mn  Mn19  1  0.23854200  0.00393900  0.49832300  1
  Mn  Mn20  1  0.24800200  0.49973300  0.00079200  1
  Mn  Mn21  1  0.76468700  0.99949800  0.49638400  1
  Mn  Mn22  1  0.74996100  0.49864300  0.99776600  1
  P  P23  1  0.85612400  0.50283700  0.27694000  1
  P  P24  1  0.36499300  0.27462100  0.50160800  1
  P  P25  1  0.35864500  0.77787300  0.00383800  1
  P  P26  1  0.86030500  0.00292200  0.77811500  1
  P  P27  1  0.64338000  0.99444600  0.21926300  1
  P  P28  1  0.14139300  0.22084400  0.99508900  1
  P  P29  1  0.63763100  0.49611700  0.72103200  1
  P  P30  1  0.14216500  0.72365100  0.49827000  1
  O  O31  1  0.16220600  0.09308800  0.08162400  1
  O  O32  1  0.66299000  0.08244900  0.09324000  1
  O  O33  1  0.89410900  0.29581000  0.03044700  1
  O  O34  1  0.27386000  0.29720000  0.03358700  1
  O  O35  1  0.39703900  0.03280900  0.29603500  1
  O  O36  1  0.77942000  0.02938400  0.29530700  1
  O  O37  1  0.49373900  0.44680700  0.06190500  1
  O  O38  1  0.99639200  0.06693000  0.44096300  1
  O  O39  1  0.91694600  0.35080800  0.30991200  1
  O  O40  1  0.42188400  0.30917900  0.35281500  1
  O  O41  1  0.57422900  0.18540100  0.53849900  1
  O  O42  1  0.18975800  0.19665700  0.54168300  1
  O  O43  1  0.06670300  0.54346900  0.20345400  1
  O  O44  1  0.69588200  0.53806500  0.19170300  1
  O  O45  1  0.27106700  0.80714900  0.15274300  1
  O  O46  1  0.76855500  0.15341500  0.80731300  1
  O  O47  1  0.73012200  0.59088500  0.39581400  1
  O  O48  1  0.28160900  0.39222700  0.59129900  1
  O  O49  1  0.71867300  0.40827900  0.60200000  1
  O  O50  1  0.26901400  0.60699100  0.40788200  1
  O  O51  1  0.73177300  0.84369700  0.19026900  1
  O  O52  1  0.23192000  0.19216100  0.84585400  1
  O  O53  1  0.29691600  0.81533900  0.46276600  1
  O  O54  1  0.92905700  0.80125100  0.45893000  1
  O  O55  1  0.42762300  0.46073600  0.80665500  1
  O  O56  1  0.81473000  0.45611400  0.79479200  1
  O  O57  1  0.57898100  0.64844900  0.68796100  1
  O  O58  1  0.08605000  0.68827300  0.64669200  1
  O  O59  1  0.00404300  0.55172100  0.93665100  1
  O  O60  1  0.60562800  0.70135100  0.96512300  1
  O  O61  1  0.72886700  0.96471800  0.70009500  1
  O  O62  1  0.10828800  0.96818500  0.70296100  1
  O  O63  1  0.22155900  0.70283700  0.96825600  1
  O  O64  1  0.84082900  0.91372400  0.90325400  1
  O  O65  1  0.33933600  0.90517800  0.91646500  1
  F  F66  1  0.50883700  0.93428700  0.55140000  1
