# generated using pymatgen
data_Li9Mn2Co5O16
_symmetry_space_group_name_H-M   'P 1'
_cell_length_a   5.75184100
_cell_length_b   5.18266400
_cell_length_c   9.72992499
_cell_angle_alpha   81.78286421
_cell_angle_beta   90.00000000
_cell_angle_gamma   90.00000000
_symmetry_Int_Tables_number   1
_chemical_formula_structural   Li9Mn2Co5O16
_chemical_formula_sum   'Li9 Mn2 Co5 O16'
_cell_volume   287.06992863
_cell_formula_units_Z   1
loop_
 _symmetry_equiv_pos_site_id
 _symmetry_equiv_pos_as_xyz
  1  'x, y, z'
loop_
 _atom_site_type_symbol
 _atom_site_label
 _atom_site_symmetry_multiplicity
 _atom_site_fract_x
 _atom_site_fract_y
 _atom_site_fract_z
 _atom_site_occupancy
  Li  Li0  1  0.74889100  0.50000000  0.00000000  1
  Li  Li1  1  0.50000000  0.24187900  0.26056100  1
  Li  Li2  1  0.25215100  0.00000000  0.50000000  1
  Li  Li3  1  0.50000000  0.75812100  0.73943900  1
  Li  Li4  1  0.25110900  0.50000000  0.00000000  1
  Li  Li5  1  0.00000000  0.25645500  0.25413600  1
  Li  Li6  1  0.00000000  0.74354500  0.74586400  1
  Li  Li7  1  0.74784900  0.00000000  0.50000000  1
  Li  Li8  1  0.50000000  0.50000000  0.50000000  1
  Mn  Mn9  1  0.00000000  0.00000000  0.00000000  1
  Mn  Mn10  1  0.50000000  0.00000000  0.00000000  1
  Co  Co11  1  0.74826600  0.73597100  0.25874800  1
  Co  Co12  1  0.25173400  0.26402900  0.74125200  1
  Co  Co13  1  0.25173400  0.73597100  0.25874800  1
  Co  Co14  1  0.00000000  0.50000000  0.50000000  1
  Co  Co15  1  0.74826600  0.26402900  0.74125200  1
  O  O16  1  0.74731800  0.88897200  0.88527200  1
  O  O17  1  0.50000000  0.65780000  0.11868800  1
  O  O18  1  0.23243600  0.39584200  0.38117900  1
  O  O19  1  0.50000000  0.12577600  0.64025800  1
  O  O20  1  0.25268200  0.88897200  0.88527200  1
  O  O21  1  0.00000000  0.62921800  0.14042300  1
  O  O22  1  0.00000000  0.16261300  0.61436900  1
  O  O23  1  0.76756400  0.39584200  0.38117900  1
  O  O24  1  0.74731800  0.11102800  0.11472800  1
  O  O25  1  0.50000000  0.87422400  0.35974200  1
  O  O26  1  0.23243600  0.60415800  0.61882100  1
  O  O27  1  0.50000000  0.34220000  0.88131200  1
  O  O28  1  0.25268200  0.11102800  0.11472800  1
  O  O29  1  0.00000000  0.83738700  0.38563100  1
  O  O30  1  0.00000000  0.37078200  0.85957700  1
  O  O31  1  0.76756400  0.60415800  0.61882100  1
