# generated using pymatgen
data_Li9Mn2Co5O16
_symmetry_space_group_name_H-M   'P 1'
_cell_length_a   2.95467200
_cell_length_b   8.11241497
_cell_length_c   11.91430217
_cell_angle_alpha   90.85445972
_cell_angle_beta   92.26109665
_cell_angle_gamma   90.57882865
_symmetry_Int_Tables_number   1
_chemical_formula_structural   Li9Mn2Co5O16
_chemical_formula_sum   'Li9 Mn2 Co5 O16'
_cell_volume   285.30975340
_cell_formula_units_Z   1
loop_
 _symmetry_equiv_pos_site_id
 _symmetry_equiv_pos_as_xyz
  1  'x, y, z'
loop_
 _atom_site_type_symbol
 _atom_site_label
 _atom_site_symmetry_multiplicity
 _atom_site_fract_x
 _atom_site_fract_y
 _atom_site_fract_z
 _atom_site_occupancy
  Li  Li0  1  0.99287400  0.74901600  0.87893200  1
  Li  Li1  1  0.49775400  0.50283700  0.25761500  1
  Li  Li2  1  0.99251300  0.26362300  0.62549600  1
  Li  Li3  1  0.50000000  0.00000000  0.00000000  1
  Li  Li4  1  0.00748700  0.73637700  0.37450400  1
  Li  Li5  1  0.50224600  0.49716300  0.74238500  1
  Li  Li6  1  0.00712600  0.25098400  0.12106800  1
  Li  Li7  1  0.50000000  0.00000000  0.50000000  1
  Li  Li8  1  0.50000000  0.50000000  0.50000000  1
  Mn  Mn9  1  0.00596600  0.74295800  0.62262600  1
  Mn  Mn10  1  0.99403400  0.25704200  0.37737400  1
  Co  Co11  1  0.50000000  0.50000000  0.00000000  1
  Co  Co12  1  0.50370800  0.00383900  0.74781400  1
  Co  Co13  1  0.00002700  0.74913200  0.12517700  1
  Co  Co14  1  0.99997300  0.25086800  0.87482300  1
  Co  Co15  1  0.49629200  0.99616100  0.25218600  1
  O  O16  1  0.51995300  0.76369800  0.73646200  1
  O  O17  1  0.95915100  0.50995700  0.11874900  1
  O  O18  1  0.51027700  0.24872900  0.48349700  1
  O  O19  1  0.95949600  0.00926600  0.86908700  1
  O  O20  1  0.51097700  0.76079200  0.24544400  1
  O  O21  1  0.99449700  0.51887700  0.62889600  1
  O  O22  1  0.50904800  0.26189900  0.99609800  1
  O  O23  1  0.96453500  0.00864600  0.36727900  1
  O  O24  1  0.49095200  0.73810100  0.00390200  1
  O  O25  1  0.00550300  0.48112300  0.37110400  1
  O  O26  1  0.48902300  0.23920800  0.75455600  1
  O  O27  1  0.04050400  0.99073400  0.13091300  1
  O  O28  1  0.48972300  0.75127100  0.51650300  1
  O  O29  1  0.04084900  0.49004300  0.88125100  1
  O  O30  1  0.48004700  0.23630200  0.26353800  1
  O  O31  1  0.03546500  0.99135400  0.63272100  1
