# generated using pymatgen
data_Li9Mn2Co5O16
_symmetry_space_group_name_H-M   'P 1'
_cell_length_a   10.15468592
_cell_length_b   10.15468592
_cell_length_c   5.21867230
_cell_angle_alpha   82.02833945
_cell_angle_beta   82.02833945
_cell_angle_gamma   32.81307130
_symmetry_Int_Tables_number   1
_chemical_formula_structural   Li9Mn2Co5O16
_chemical_formula_sum   'Li9 Mn2 Co5 O16'
_cell_volume   288.55297767
_cell_formula_units_Z   1
loop_
 _symmetry_equiv_pos_site_id
 _symmetry_equiv_pos_as_xyz
  1  'x, y, z'
loop_
 _atom_site_type_symbol
 _atom_site_label
 _atom_site_symmetry_multiplicity
 _atom_site_fract_x
 _atom_site_fract_y
 _atom_site_fract_z
 _atom_site_occupancy
  Li  Li0  1  0.25225500  0.25225500  0.50725200  1
  Li  Li1  1  0.37166000  0.86756600  0.75441800  1
  Li  Li2  1  0.49678500  0.49678500  0.00525300  1
  Li  Li3  1  0.63407200  0.12884500  0.24059900  1
  Li  Li4  1  0.75446600  0.75446600  0.50218800  1
  Li  Li5  1  0.86756600  0.37166000  0.75441800  1
  Li  Li6  1  0.99604400  0.99604400  0.99363100  1
  Li  Li7  1  0.12884500  0.63407200  0.24059900  1
  Li  Li8  1  0.87676200  0.87676200  0.74669500  1
  Mn  Mn9  1  0.00029600  0.50285500  0.99537900  1
  Mn  Mn10  1  0.50285500  0.00029600  0.99537900  1
  Co  Co11  1  0.12168100  0.12168100  0.25862300  1
  Co  Co12  1  0.24698000  0.74619800  0.51157400  1
  Co  Co13  1  0.37556100  0.37556100  0.75140900  1
  Co  Co14  1  0.62382900  0.62382900  0.24925200  1
  Co  Co15  1  0.74619800  0.24698000  0.51157400  1
  O  O16  1  0.30270700  0.30270700  0.13072000  1
  O  O17  1  0.44368300  0.93019700  0.33368900  1
  O  O18  1  0.55950100  0.55950100  0.61531300  1
  O  O19  1  0.67059000  0.20146800  0.84862700  1
  O  O20  1  0.80424300  0.80424300  0.12434700  1
  O  O21  1  0.93019700  0.44368300  0.33368900  1
  O  O22  1  0.06286500  0.06286500  0.61582400  1
  O  O23  1  0.20146800  0.67059000  0.84862700  1
  O  O24  1  0.19342400  0.19342400  0.88635800  1
  O  O25  1  0.32295800  0.81145900  0.14156000  1
  O  O26  1  0.43750500  0.43750500  0.37836200  1
  O  O27  1  0.54842400  0.07299600  0.67247000  1
  O  O28  1  0.69718800  0.69718800  0.87106500  1
  O  O29  1  0.81145900  0.32295800  0.14156000  1
  O  O30  1  0.94493800  0.94493800  0.36707600  1
  O  O31  1  0.07299600  0.54842400  0.67247000  1
