# generated using pymatgen
data_LiFeF4
_symmetry_space_group_name_H-M   'P 1'
_cell_length_a   6.47394457
_cell_length_b   6.47394457
_cell_length_c   5.40537761
_cell_angle_alpha   83.29784718
_cell_angle_beta   83.29784718
_cell_angle_gamma   46.48023791
_symmetry_Int_Tables_number   1
_chemical_formula_structural   LiFeF4
_chemical_formula_sum   'Li2 Fe2 F8'
_cell_volume   162.94922210
_cell_formula_units_Z   2
loop_
 _symmetry_equiv_pos_site_id
 _symmetry_equiv_pos_as_xyz
  1  'x, y, z'
loop_
 _atom_site_type_symbol
 _atom_site_label
 _atom_site_symmetry_multiplicity
 _atom_site_fract_x
 _atom_site_fract_y
 _atom_site_fract_z
 _atom_site_occupancy
  Li  Li0  1  0.07770500  0.92229500  0.25000000  1
  Li  Li1  1  0.92229500  0.07770500  0.75000000  1
  Fe  Fe2  1  0.00000000  0.50000000  0.00000000  1
  Fe  Fe3  1  0.50000000  0.00000000  0.50000000  1
  F  F4  1  0.78002700  0.02624400  0.49332300  1
  F  F5  1  0.23399500  0.35644000  0.68340200  1
  F  F6  1  0.02624400  0.78002700  0.99332300  1
  F  F7  1  0.35644000  0.23399500  0.18340200  1
  F  F8  1  0.64356000  0.76600500  0.81659800  1
  F  F9  1  0.97375600  0.21997300  0.00667700  1
  F  F10  1  0.76600500  0.64356000  0.31659800  1
  F  F11  1  0.21997300  0.97375600  0.50667700  1
