# generated using pymatgen
data_Li3VN2
_symmetry_space_group_name_H-M   'P 1'
_cell_length_a   7.68263675
_cell_length_b   7.22414862
_cell_length_c   11.47671548
_cell_angle_alpha   90.00000192
_cell_angle_beta   138.32475903
_cell_angle_gamma   118.04472658
_symmetry_Int_Tables_number   1
_chemical_formula_structural   Li3VN2
_chemical_formula_sum   'Li12 V4 N8'
_cell_volume   299.47524508
_cell_formula_units_Z   4
loop_
 _symmetry_equiv_pos_site_id
 _symmetry_equiv_pos_as_xyz
  1  'x, y, z'
loop_
 _atom_site_type_symbol
 _atom_site_label
 _atom_site_symmetry_multiplicity
 _atom_site_fract_x
 _atom_site_fract_y
 _atom_site_fract_z
 _atom_site_occupancy
  Li  Li0  1  0.00000000  0.50000000  0.37364823  1
  Li  Li1  1  -0.00000000  -0.00000000  0.87635177  1
  Li  Li2  1  -0.00000000  0.50000000  0.12635177  1
  Li  Li3  1  0.00000000  0.00000000  0.12364823  1
  Li  Li4  1  0.51326657  0.50000000  0.50663379  1
  Li  Li5  1  0.48673343  0.50000000  0.99336621  1
  Li  Li6  1  0.51326657  -0.00000000  0.25663379  1
  Li  Li7  1  0.48673343  0.00000000  0.74336621  1
  Li  Li8  1  0.48673343  0.98673343  0.99336621  1
  Li  Li9  1  0.51326657  0.01326657  0.50663379  1
  Li  Li10  1  0.48673343  0.48673343  0.74336621  1
  Li  Li11  1  0.51326657  0.51326657  0.25663379  1
  V  V12  1  0.00000000  0.50000000  0.61564958  1
  V  V13  1  -0.00000000  -0.00000000  0.63435042  1
  V  V14  1  -0.00000000  0.50000000  0.88435042  1
  V  V15  1  0.00000000  0.00000000  0.36564958  1
  N  N16  1  0.39667683  0.69833892  0.73278541  1
  N  N17  1  0.60332317  0.30166108  0.33610857  1
  N  N18  1  0.39667683  0.19833892  0.91389143  1
  N  N19  1  0.60332317  0.80166108  0.51721459  1
  N  N20  1  0.00000000  0.30166108  0.96555251  1
  N  N21  1  -0.00000000  0.69833892  0.96555251  1
  N  N22  1  0.00000000  0.80166108  0.28444749  1
  N  N23  1  -0.00000000  0.19833892  0.28444749  1
