# generated using pymatgen
data_Li7Co5O12
_symmetry_space_group_name_H-M   'P 1'
_cell_length_a   6.40758760
_cell_length_b   6.40758760
_cell_length_c   4.90726408
_cell_angle_alpha   82.64720955
_cell_angle_beta   82.64720955
_cell_angle_gamma   83.47260156
_symmetry_Int_Tables_number   1
_chemical_formula_structural   Li7Co5O12
_chemical_formula_sum   'Li7 Co5 O12'
_cell_volume   197.20651960
_cell_formula_units_Z   1
loop_
 _symmetry_equiv_pos_site_id
 _symmetry_equiv_pos_as_xyz
  1  'x, y, z'
loop_
 _atom_site_type_symbol
 _atom_site_label
 _atom_site_symmetry_multiplicity
 _atom_site_fract_x
 _atom_site_fract_y
 _atom_site_fract_z
 _atom_site_occupancy
  Li  Li0  1  0.08357700  0.41272500  0.25657500  1
  Li  Li1  1  0.75470800  0.75470800  0.25976000  1
  Li  Li2  1  0.41272500  0.08357700  0.25657500  1
  Li  Li3  1  0.58727500  0.91642300  0.74342500  1
  Li  Li4  1  0.24529200  0.24529200  0.74024000  1
  Li  Li5  1  0.91642300  0.58727500  0.74342500  1
  Li  Li6  1  0.00000000  0.00000000  0.50000000  1
  Co  Co7  1  0.83457800  0.16542200  0.00000000  1
  Co  Co8  1  0.16542200  0.83457800  0.00000000  1
  Co  Co9  1  0.50000000  0.50000000  0.00000000  1
  Co  Co10  1  0.33284600  0.66715400  0.50000000  1
  Co  Co11  1  0.66715400  0.33284600  0.50000000  1
  O  O12  1  0.71302300  0.06339200  0.35698400  1
  O  O13  1  0.39004600  0.39004600  0.36920700  1
  O  O14  1  0.06339200  0.71302300  0.35698400  1
  O  O15  1  0.22461700  0.55903500  0.87057500  1
  O  O16  1  0.88679300  0.88679300  0.89568200  1
  O  O17  1  0.55903500  0.22461700  0.87057500  1
  O  O18  1  0.44096500  0.77538300  0.12942500  1
  O  O19  1  0.11320700  0.11320700  0.10431800  1
  O  O20  1  0.77538300  0.44096500  0.12942500  1
  O  O21  1  0.93660800  0.28697700  0.64301600  1
  O  O22  1  0.60995400  0.60995400  0.63079300  1
  O  O23  1  0.28697700  0.93660800  0.64301600  1
