# generated using pymatgen
data_Li9Mn2Co5O16
_symmetry_space_group_name_H-M   'P 1'
_cell_length_a   5.90811300
_cell_length_b   6.45272902
_cell_length_c   8.10757744
_cell_angle_alpha   88.79831431
_cell_angle_beta   89.19225004
_cell_angle_gamma   66.23501377
_symmetry_Int_Tables_number   1
_chemical_formula_structural   Li9Mn2Co5O16
_chemical_formula_sum   'Li9 Mn2 Co5 O16'
_cell_volume   282.81239580
_cell_formula_units_Z   1
loop_
 _symmetry_equiv_pos_site_id
 _symmetry_equiv_pos_as_xyz
  1  'x, y, z'
loop_
 _atom_site_type_symbol
 _atom_site_label
 _atom_site_symmetry_multiplicity
 _atom_site_fract_x
 _atom_site_fract_y
 _atom_site_fract_z
 _atom_site_occupancy
  Li  Li0  1  0.75082000  0.50306400  0.00515400  1
  Li  Li1  1  0.13350600  0.24598300  0.25138800  1
  Li  Li2  1  0.37347800  0.75166000  0.74865200  1
  Li  Li3  1  0.01671200  0.99441900  0.49551300  1
  Li  Li4  1  0.61837400  0.25244900  0.24874700  1
  Li  Li5  1  0.24683100  0.50450400  0.00854400  1
  Li  Li6  1  0.87516900  0.74825600  0.75100500  1
  Li  Li7  1  0.48858600  0.99507900  0.49085300  1
  Li  Li8  1  0.37417700  0.75170900  0.25142500  1
  Mn  Mn9  1  0.00631900  0.99552300  0.00017000  1
  Mn  Mn10  1  0.25038300  0.50330200  0.49674700  1
  Co  Co11  1  0.74076400  0.50763400  0.49768400  1
  Co  Co12  1  0.12459200  0.24933700  0.74992800  1
  Co  Co13  1  0.50283900  0.99696700  0.00393800  1
  Co  Co14  1  0.87797100  0.74994300  0.24962100  1
  Co  Co15  1  0.62345500  0.25020600  0.74974400  1
  O  O16  1  0.11238700  0.24288000  0.98834200  1
  O  O17  1  0.50407400  0.99443700  0.23191400  1
  O  O18  1  0.73988800  0.48565200  0.73424100  1
  O  O19  1  0.36873600  0.73618600  0.50272100  1
  O  O20  1  0.98716700  0.98931100  0.23643700  1
  O  O21  1  0.65333500  0.22179000  0.98923800  1
  O  O22  1  0.24026200  0.48618200  0.74142800  1
  O  O23  1  0.89997000  0.72459900  0.49360600  1
  O  O24  1  0.34740300  0.78374200  0.99756000  1
  O  O25  1  0.76348400  0.51440800  0.26704700  1
  O  O26  1  0.00319700  0.01366700  0.75880400  1
  O  O27  1  0.59572200  0.27924500  0.50851500  1
  O  O28  1  0.25274200  0.49885200  0.26549100  1
  O  O29  1  0.88695900  0.75652900  0.00675200  1
  O  O30  1  0.50943900  0.01426000  0.76469800  1
  O  O31  1  0.13126000  0.25822700  0.51409400  1
