# generated using pymatgen
data_LiCdN
_symmetry_space_group_name_H-M   'P 1'
_cell_length_a   3.69712558
_cell_length_b   3.69724811
_cell_length_c   4.08697205
_cell_angle_alpha   90.00000000
_cell_angle_beta   90.00000000
_cell_angle_gamma   119.99889474
_symmetry_Int_Tables_number   1
_chemical_formula_structural   LiCdN
_chemical_formula_sum   'Li1 Cd1 N1'
_cell_volume   48.38156747
_cell_formula_units_Z   1
loop_
 _symmetry_equiv_pos_site_id
 _symmetry_equiv_pos_as_xyz
  1  'x, y, z'
loop_
 _atom_site_type_symbol
 _atom_site_label
 _atom_site_symmetry_multiplicity
 _atom_site_fract_x
 _atom_site_fract_y
 _atom_site_fract_z
 _atom_site_occupancy
  Li  Li0  1  0.00001623  0.00003245  0.50000000  1
  Cd  Cd1  1  0.66669264  0.33338529  -0.00000000  1
  N  N2  1  0.66669113  0.33338226  0.50000000  1
