# generated using pymatgen
data_Li5Mn4(P2O7)4
_symmetry_space_group_name_H-M   'P 1'
_cell_length_a   9.77704800
_cell_length_b   9.85024029
_cell_length_c   11.25761186
_cell_angle_alpha   101.08300061
_cell_angle_beta   90.07674990
_cell_angle_gamma   90.17754307
_symmetry_Int_Tables_number   1
_chemical_formula_structural   Li5Mn4(P2O7)4
_chemical_formula_sum   'Li10 Mn8 P16 O56'
_cell_volume   1063.95124211
_cell_formula_units_Z   2
loop_
 _symmetry_equiv_pos_site_id
 _symmetry_equiv_pos_as_xyz
  1  'x, y, z'
loop_
 _atom_site_type_symbol
 _atom_site_label
 _atom_site_symmetry_multiplicity
 _atom_site_fract_x
 _atom_site_fract_y
 _atom_site_fract_z
 _atom_site_occupancy
  Li  Li0  1  0.28435200  0.11764600  0.45259000  1
  Li  Li1  1  0.89585600  0.08608100  0.02032900  1
  Li  Li2  1  0.40390600  0.41282600  0.97568100  1
  Li  Li3  1  0.05490200  0.40698500  0.51136900  1
  Li  Li4  1  0.77997700  0.39340500  0.55040500  1
  Li  Li5  1  0.41713700  0.84285500  0.95522600  1
  Li  Li6  1  0.88665500  0.64452900  0.04812500  1
  Li  Li7  1  0.11168500  0.90891700  0.97263700  1
  Li  Li8  1  0.40929200  0.81983600  0.45066000  1
  Li  Li9  1  0.71355800  0.89731000  0.54985200  1
  Mn  Mn10  1  0.08202400  0.20721700  0.68109400  1
  Mn  Mn11  1  0.77906500  0.27334100  0.83533700  1
  Mn  Mn12  1  0.28707900  0.22465400  0.16863400  1
  Mn  Mn13  1  0.57593000  0.30745400  0.33122000  1
  Mn  Mn14  1  0.41562100  0.70478100  0.66995900  1
  Mn  Mn15  1  0.70871700  0.76512700  0.83028500  1
  Mn  Mn16  1  0.22452900  0.70830100  0.16518000  1
  Mn  Mn17  1  0.92682500  0.80963800  0.33319300  1
  P  P18  1  0.55669900  0.02898200  0.76110500  1
  P  P19  1  0.29582000  0.11719300  0.89548400  1
  P  P20  1  0.06768900  0.05825200  0.23962000  1
  P  P21  1  0.84802800  0.13752700  0.42379100  1
  P  P22  1  0.36177800  0.37846000  0.56241100  1
  P  P23  1  0.57440900  0.43581200  0.75685000  1
  P  P24  1  0.94334700  0.53111700  0.76439000  1
  P  P25  1  0.78872400  0.37755000  0.11641800  1
  P  P26  1  0.21017200  0.61217000  0.88979400  1
  P  P27  1  0.06184700  0.45879900  0.23976900  1
  P  P28  1  0.43074300  0.56017200  0.24227800  1
  P  P29  1  0.65589000  0.63327800  0.41899300  1
  P  P30  1  0.13874200  0.87964500  0.56268000  1
  P  P31  1  0.92635000  0.94240000  0.75662000  1
  P  P32  1  0.71066400  0.88351700  0.11978900  1
  P  P33  1  0.43861600  0.96249600  0.23576300  1
  O  O34  1  0.57566800  0.01576200  0.62802300  1
  O  O35  1  0.14930600  0.03083500  0.55008300  1
  O  O36  1  0.91057900  0.08902100  0.73079000  1
  O  O37  1  0.66083100  0.11522300  0.84660000  1
  O  O38  1  0.41169200  0.10109900  0.79133400  1
  O  O39  1  0.17270800  0.16852800  0.83759600  1
  O  O40  1  0.35354900  0.22672000  0.00471800  1
  O  O41  1  0.75083700  0.02239100  0.09950800  1
  O  O42  1  0.93055600  0.12622600  0.29696700  1
  O  O43  1  0.06674000  0.06141100  0.10627200  1
  O  O44  1  0.44314900  0.10879500  0.20116100  1
  O  O45  1  0.70937500  0.20047300  0.40164300  1
  O  O46  1  0.18840700  0.15062700  0.29903500  1
  O  O47  1  0.92818700  0.23780200  0.51951400  1
  O  O48  1  0.43961300  0.28125500  0.45913400  1
  O  O49  1  0.69608400  0.34429600  0.69618000  1
  O  O50  1  0.22147100  0.31179400  0.57567100  1
  O  O51  1  0.94597800  0.38721900  0.80511700  1
  O  O52  1  0.43934000  0.36946500  0.68835700  1
  O  O53  1  0.56970700  0.41329300  0.88541900  1
  O  O54  1  0.24040900  0.47213000  0.91251200  1
  O  O55  1  0.83557700  0.26828700  0.00329100  1
  O  O56  1  0.67308300  0.31640900  0.18281100  1
  O  O57  1  0.91407800  0.38900300  0.21189500  1
  O  O58  1  0.42289100  0.41099300  0.26912600  1
  O  O59  1  0.16203000  0.36885900  0.15132800  1
  O  O60  1  0.91942800  0.52015500  0.63127100  1
  O  O61  1  0.66747600  0.48635700  0.44207600  1
  O  O62  1  0.35664000  0.52777100  0.55089600  1
  O  O63  1  0.08819300  0.46643300  0.37048100  1
  O  O64  1  0.84839500  0.62860700  0.85397000  1
  O  O65  1  0.58616600  0.58675000  0.73762100  1
  O  O66  1  0.09195900  0.59981300  0.78734500  1
  O  O67  1  0.32417700  0.69195800  0.84070000  1
  O  O68  1  0.14435100  0.71251000  0.00435000  1
  O  O69  1  0.76451400  0.51484200  0.08389500  1
  O  O70  1  0.41024400  0.56622000  0.11047600  1
  O  O71  1  0.57587400  0.62107300  0.28961200  1
  O  O72  1  0.05633400  0.60436500  0.19893800  1
  O  O73  1  0.79458200  0.69667400  0.39933600  1
  O  O74  1  0.32125900  0.66376500  0.30904600  1
  O  O75  1  0.57158500  0.73290600  0.51172300  1
  O  O76  1  0.05507700  0.78864400  0.46101000  1
  O  O77  1  0.80433000  0.84640500  0.70259800  1
  O  O78  1  0.27829000  0.81708400  0.57890800  1
  O  O79  1  0.54579500  0.88037100  0.80122800  1
  O  O80  1  0.94234700  0.93235600  0.88850500  1
  O  O81  1  0.06090700  0.87446800  0.68894000  1
  O  O82  1  0.28229000  0.97850700  0.93285100  1
  O  O83  1  0.65071600  0.78684600  0.00486600  1
  O  O84  1  0.82381100  0.80376100  0.17689600  1
  O  O85  1  0.59048300  0.90122100  0.22123800  1
  O  O86  1  0.34973900  0.86394900  0.14138600  1
  O  O87  1  0.07671600  0.90916000  0.26657700  1
  O  O88  1  0.83386500  0.98870900  0.44288800  1
  O  O89  1  0.39943500  0.96620400  0.36530300  1
