# generated using pymatgen
data_Li3Co4SnO8
_symmetry_space_group_name_H-M   'P 1'
_cell_length_a   6.02222269
_cell_length_b   10.45079830
_cell_length_c   6.07305179
_cell_angle_alpha   73.53444908
_cell_angle_beta   60.64558820
_cell_angle_gamma   74.27819040
_symmetry_Int_Tables_number   1
_chemical_formula_structural   Li3Co4SnO8
_chemical_formula_sum   'Li6 Co8 Sn2 O16'
_cell_volume   315.47196142
_cell_formula_units_Z   2
loop_
 _symmetry_equiv_pos_site_id
 _symmetry_equiv_pos_as_xyz
  1  'x, y, z'
loop_
 _atom_site_type_symbol
 _atom_site_label
 _atom_site_symmetry_multiplicity
 _atom_site_fract_x
 _atom_site_fract_y
 _atom_site_fract_z
 _atom_site_occupancy
  Li  Li0  1  0.99813500  0.49965200  0.99604900  1
  Li  Li1  1  0.50187100  0.00034300  0.50395700  1
  Li  Li2  1  0.25000500  0.25000500  0.75000500  1
  Li  Li3  1  0.75000700  0.74999900  0.24999700  1
  Li  Li4  1  0.00718100  0.49051400  0.51112400  1
  Li  Li5  1  0.49280800  0.00948400  0.98887400  1
  Co  Co6  1  0.74998900  0.75000100  0.74999700  1
  Co  Co7  1  0.25000500  0.25001900  0.24997100  1
  Co  Co8  1  0.00073300  0.99673400  0.00166400  1
  Co  Co9  1  0.49928300  0.50324000  0.49836400  1
  Co  Co10  1  0.74999200  0.25001100  0.25000700  1
  Co  Co11  1  0.25000100  0.74999200  0.75003700  1
  Co  Co12  1  0.00098300  0.00057800  0.50195800  1
  Co  Co13  1  0.49899600  0.49941300  0.99802700  1
  Sn  Sn14  1  0.74995400  0.25003600  0.75001600  1
  Sn  Sn15  1  0.25000600  0.75000200  0.24995100  1
  O  O16  1  0.14021100  0.63733500  0.09300600  1
  O  O17  1  0.63993100  0.12763800  0.61838700  1
  O  O18  1  0.86006000  0.37235200  0.88161800  1
  O  O19  1  0.35981400  0.86269200  0.40696900  1
  O  O20  1  0.91518200  0.86430900  0.85660900  1
  O  O21  1  0.37061100  0.36581400  0.35735700  1
  O  O22  1  0.12937300  0.13417600  0.14265700  1
  O  O23  1  0.58481600  0.63570500  0.64336600  1
  O  O24  1  0.88853000  0.87284100  0.36977900  1
  O  O25  1  0.38210300  0.36939600  0.87217300  1
  O  O26  1  0.12420300  0.62305800  0.60734500  1
  O  O27  1  0.62722600  0.12584400  0.11555200  1
  O  O28  1  0.87276100  0.37413400  0.38448900  1
  O  O29  1  0.37577900  0.87694000  0.89267200  1
  O  O30  1  0.11797500  0.13057700  0.62781700  1
  O  O31  1  0.61147700  0.62716500  0.13020800  1
