# generated using pymatgen
data_Li9Mn2Co5O16
_symmetry_space_group_name_H-M   'P 1'
_cell_length_a   6.45596214
_cell_length_b   6.44167327
_cell_length_c   7.85919496
_cell_angle_alpha   87.50668581
_cell_angle_beta   113.92324220
_cell_angle_gamma   108.18594265
_symmetry_Int_Tables_number   1
_chemical_formula_structural   Li9Mn2Co5O16
_chemical_formula_sum   'Li9 Mn2 Co5 O16'
_cell_volume   282.53798273
_cell_formula_units_Z   1
loop_
 _symmetry_equiv_pos_site_id
 _symmetry_equiv_pos_as_xyz
  1  'x, y, z'
loop_
 _atom_site_type_symbol
 _atom_site_label
 _atom_site_symmetry_multiplicity
 _atom_site_fract_x
 _atom_site_fract_y
 _atom_site_fract_z
 _atom_site_occupancy
  Li  Li0  1  0.87006316  0.06292392  0.31274942  1
  Li  Li1  1  0.86553084  0.55892118  0.80667050  1
  Li  Li2  1  0.13317231  0.93287139  0.69248323  1
  Li  Li3  1  0.12543736  0.43929351  0.18767730  1
  Li  Li4  1  0.37776991  0.80767354  0.05203347  1
  Li  Li5  1  0.38368738  0.32503470  0.57557942  1
  Li  Li6  1  0.62442751  0.68347458  0.43671771  1
  Li  Li7  1  0.62211673  0.18893899  0.93891180  1
  Li  Li8  1  0.49726278  0.74520244  0.75192463  1
  Mn  Mn9  1  0.99584791  0.00073846  0.99484836  1
  Mn  Mn10  1  0.25302875  0.87257944  0.37855227  1
  Co  Co11  1  0.00741410  0.50549875  0.50973083  1
  Co  Co12  1  0.25260516  0.37840803  0.87351470  1
  Co  Co13  1  0.50064966  0.25161239  0.24866703  1
  Co  Co14  1  0.74334104  0.62074015  0.11641745  1
  Co  Co15  1  0.74965699  0.12613591  0.62337374  1
  O  O16  1  0.71218518  0.90019058  0.04149865  1
  O  O17  1  0.69918530  0.39488623  0.52979106  1
  O  O18  1  0.96264657  0.77735442  0.41664722  1
  O  O19  1  0.95177474  0.27149974  0.91162238  1
  O  O20  1  0.18745177  0.63634280  0.78646872  1
  O  O21  1  0.18839158  0.13846519  0.26204436  1
  O  O22  1  0.45875046  0.52286238  0.16341389  1
  O  O23  1  0.43539499  0.02302601  0.62385900  1
  O  O24  1  0.04114199  0.22822047  0.58771888  1
  O  O25  1  0.05975461  0.73592002  0.10815677  1
  O  O26  1  0.29673951  0.10277194  0.96701375  1
  O  O27  1  0.29345334  0.60066659  0.45878405  1
  O  O28  1  0.54181299  0.97310111  0.33504410  1
  O  O29  1  0.54847606  0.46362302  0.84933318  1
  O  O30  1  0.82744781  0.87376996  0.74095623  1
  O  O31  1  0.79338152  0.35725815  0.21779788  1
