# generated using pymatgen
data_KLiEr2(MoO4)4
_symmetry_space_group_name_H-M   'P 1'
_cell_length_a   6.86375952
_cell_length_b   6.86375952
_cell_length_c   19.57515888
_cell_angle_alpha   88.76376856
_cell_angle_beta   88.76376856
_cell_angle_gamma   135.06941988
_symmetry_Int_Tables_number   1
_chemical_formula_structural   KLiEr2(MoO4)4
_chemical_formula_sum   'K2 Li2 Er4 Mo8 O32'
_cell_volume   650.27083432
_cell_formula_units_Z   2
loop_
 _symmetry_equiv_pos_site_id
 _symmetry_equiv_pos_as_xyz
  1  'x, y, z'
loop_
 _atom_site_type_symbol
 _atom_site_label
 _atom_site_symmetry_multiplicity
 _atom_site_fract_x
 _atom_site_fract_y
 _atom_site_fract_z
 _atom_site_occupancy
  K  K0  1  0.53095700  0.46904300  0.25000000  1
  K  K1  1  0.46904300  0.53095700  0.75000000  1
  Li  Li2  1  0.81330500  0.18669500  0.25000000  1
  Li  Li3  1  0.18669500  0.81330500  0.75000000  1
  Er  Er4  1  0.64811700  0.35427900  0.03184800  1
  Er  Er5  1  0.35188300  0.64572100  0.96815200  1
  Er  Er6  1  0.64572100  0.35188300  0.46815200  1
  Er  Er7  1  0.35427900  0.64811700  0.53184800  1
  Mo  Mo8  1  0.91837600  0.04307400  0.09164400  1
  Mo  Mo9  1  0.08162400  0.95692600  0.90835600  1
  Mo  Mo10  1  0.95692600  0.08162400  0.40835600  1
  Mo  Mo11  1  0.04307400  0.91837600  0.59164400  1
  Mo  Mo12  1  0.23131800  0.74705600  0.14740600  1
  Mo  Mo13  1  0.76868200  0.25294400  0.85259400  1
  Mo  Mo14  1  0.25294400  0.76868200  0.35259400  1
  Mo  Mo15  1  0.74705600  0.23131800  0.64740600  1
  O  O16  1  0.66401500  0.00427300  0.04167600  1
  O  O17  1  0.33598500  0.99572700  0.95832400  1
  O  O18  1  0.99572700  0.33598500  0.45832400  1
  O  O19  1  0.00427300  0.66401500  0.54167600  1
  O  O20  1  0.49178800  0.76904300  0.17283300  1
  O  O21  1  0.50821200  0.23095700  0.82716700  1
  O  O22  1  0.23095700  0.50821200  0.32716700  1
  O  O23  1  0.76904300  0.49178800  0.67283300  1
  O  O24  1  0.71925100  0.75867100  0.46349900  1
  O  O25  1  0.28074900  0.24132900  0.53650100  1
  O  O26  1  0.24132900  0.28074900  0.03650100  1
  O  O27  1  0.75867100  0.71925100  0.96349900  1
  O  O28  1  0.44022200  0.91930600  0.43386500  1
  O  O29  1  0.55977800  0.08069400  0.56613500  1
  O  O30  1  0.08069400  0.55977800  0.06613500  1
  O  O31  1  0.91930600  0.44022200  0.93386500  1
  O  O32  1  0.79869000  0.98033500  0.32956700  1
  O  O33  1  0.20131000  0.01966500  0.67043300  1
  O  O34  1  0.01966500  0.20131000  0.17043300  1
  O  O35  1  0.98033500  0.79869000  0.82956700  1
  O  O36  1  0.71921200  0.81361800  0.60121600  1
  O  O37  1  0.28078800  0.18638200  0.39878400  1
  O  O38  1  0.18638200  0.28078800  0.89878400  1
  O  O39  1  0.81361800  0.71921200  0.10121600  1
  O  O40  1  0.40150600  0.10121800  0.13132600  1
  O  O41  1  0.59849400  0.89878200  0.86867400  1
  O  O42  1  0.89878200  0.59849400  0.36867400  1
  O  O43  1  0.10121800  0.40150600  0.63132600  1
  O  O44  1  0.43408600  0.02909200  0.28603800  1
  O  O45  1  0.56591400  0.97090800  0.71396200  1
  O  O46  1  0.97090800  0.56591400  0.21396200  1
  O  O47  1  0.02909200  0.43408600  0.78603800  1
