# generated using pymatgen
data_Li2VFeP2(HO5)2
_symmetry_space_group_name_H-M   'P 1'
_cell_length_a   6.94886900
_cell_length_b   7.52793164
_cell_length_c   7.87220286
_cell_angle_alpha   117.39529514
_cell_angle_beta   92.03176794
_cell_angle_gamma   90.87291184
_symmetry_Int_Tables_number   1
_chemical_formula_structural   Li2VFeP2(HO5)2
_chemical_formula_sum   'Li4 V2 Fe2 P4 H4 O20'
_cell_volume   365.15682336
_cell_formula_units_Z   2
loop_
 _symmetry_equiv_pos_site_id
 _symmetry_equiv_pos_as_xyz
  1  'x, y, z'
loop_
 _atom_site_type_symbol
 _atom_site_label
 _atom_site_symmetry_multiplicity
 _atom_site_fract_x
 _atom_site_fract_y
 _atom_site_fract_z
 _atom_site_occupancy
  Li  Li0  1  0.16116000  0.58592300  0.76317600  1
  Li  Li1  1  0.33863400  0.91394800  0.73596400  1
  Li  Li2  1  0.66093800  0.08591100  0.26380700  1
  Li  Li3  1  0.83937100  0.41419900  0.23714600  1
  V  V4  1  0.00003500  0.00042900  0.99992700  1
  V  V5  1  0.75051400  0.25001500  0.75042600  1
  Fe  Fe6  1  0.24968000  0.74975100  0.24979300  1
  Fe  Fe7  1  0.49982500  0.49930500  0.49974600  1
  P  P8  1  0.59626700  0.72668200  0.95890200  1
  P  P9  1  0.09677400  0.22676800  0.45877900  1
  P  P10  1  0.90339000  0.77264900  0.54060300  1
  P  P11  1  0.40347200  0.27369100  0.04144400  1
  H  H12  1  0.04127700  0.32255800  0.98337300  1
  H  H13  1  0.53988900  0.82003600  0.48072600  1
  H  H14  1  0.45872500  0.17973200  0.51741200  1
  H  H15  1  0.96024000  0.67791000  0.01877400  1
  O  O16  1  0.05510300  0.83187600  0.71089600  1
  O  O17  1  0.00374800  0.68881700  0.34738200  1
  O  O18  1  0.44587200  0.66766500  0.78795500  1
  O  O19  1  0.72531700  0.90523600  0.97788700  1
  O  O20  1  0.08232300  0.75423600  0.03193200  1
  O  O21  1  0.22531100  0.40572300  0.47644200  1
  O  O22  1  0.41773700  0.74410600  0.46844200  1
  O  O23  1  0.72456500  0.54936400  0.92984700  1
  O  O24  1  0.50388300  0.18998600  0.84738300  1
  O  O25  1  0.77562000  0.95028100  0.57024900  1
  O  O26  1  0.22377200  0.04880200  0.42882300  1
  O  O27  1  0.49507000  0.81065900  0.15180800  1
  O  O28  1  0.27596600  0.45137200  0.07082100  1
  O  O29  1  0.58014400  0.25608800  0.52885000  1
  O  O30  1  0.77392200  0.59457300  0.52379800  1
  O  O31  1  0.91980600  0.24619900  0.97133100  1
  O  O32  1  0.27534800  0.09458600  0.02201900  1
  O  O33  1  0.55436900  0.33257900  0.21158800  1
  O  O34  1  0.99728500  0.31036000  0.65321700  1
  O  O35  1  0.94464500  0.16798600  0.28933400  1
