# generated using pymatgen
data_Li9Mn2Co5O16
_symmetry_space_group_name_H-M   'P 1'
_cell_length_a   5.19449959
_cell_length_b   10.29335506
_cell_length_c   5.92209101
_cell_angle_alpha   104.65014735
_cell_angle_beta   70.88561843
_cell_angle_gamma   84.82409121
_symmetry_Int_Tables_number   1
_chemical_formula_structural   Li9Mn2Co5O16
_chemical_formula_sum   'Li9 Mn2 Co5 O16'
_cell_volume   284.22955068
_cell_formula_units_Z   1
loop_
 _symmetry_equiv_pos_site_id
 _symmetry_equiv_pos_as_xyz
  1  'x, y, z'
loop_
 _atom_site_type_symbol
 _atom_site_label
 _atom_site_symmetry_multiplicity
 _atom_site_fract_x
 _atom_site_fract_y
 _atom_site_fract_z
 _atom_site_occupancy
  Li  Li0  1  0.50487427  0.12062534  0.93177577  1
  Li  Li1  1  0.49965443  0.36981509  0.31219305  1
  Li  Li2  1  0.50014189  0.62975063  0.69560104  1
  Li  Li3  1  0.49548402  0.87774080  0.07291762  1
  Li  Li4  1  0.50198802  0.12248836  0.44091152  1
  Li  Li5  1  0.49533865  0.37361707  0.80531916  1
  Li  Li6  1  0.50218538  0.62956502  0.18676734  1
  Li  Li7  1  0.49689578  0.87743716  0.55503912  1
  Li  Li8  1  0.00118064  0.99884743  0.49998850  1
  Mn  Mn9  1  0.99840667  0.99864773  0.00423314  1
  Mn  Mn10  1  0.99681144  0.50084559  0.24776584  1
  Co  Co11  1  0.99483163  0.24986922  0.37227096  1
  Co  Co12  1  0.00235713  0.49958864  0.74644646  1
  Co  Co13  1  0.00576721  0.75384720  0.13674056  1
  Co  Co14  1  0.00005393  0.24113285  0.85682284  1
  Co  Co15  1  0.00193874  0.75195220  0.62274501  1
  O  O16  1  0.23819005  0.06727310  0.74289293  1
  O  O17  1  0.21958324  0.31827292  0.10762427  1
  O  O18  1  0.20991460  0.56056460  0.46279716  1
  O  O19  1  0.23519312  0.81900758  0.87405754  1
  O  O20  1  0.21006036  0.06955381  0.21396135  1
  O  O21  1  0.23230201  0.32431666  0.60538989  1
  O  O22  1  0.23177181  0.56740639  0.98796581  1
  O  O23  1  0.23114220  0.80739683  0.36309897  1
  O  O24  1  0.75812322  0.17550595  0.14011291  1
  O  O25  1  0.76758869  0.43476027  0.50944119  1
  O  O26  1  0.78590241  0.67850686  0.87997944  1
  O  O27  1  0.76906250  0.92894368  0.26091795  1
  O  O28  1  0.77203541  0.19923950  0.65128993  1
  O  O29  1  0.78657224  0.44075131  0.03304212  1
  O  O30  1  0.76630778  0.68108346  0.38559863  1
  O  O31  1  0.78834051  0.93164675  0.79429199  1
