# generated using pymatgen
data_Li4Mn3NbO8
_symmetry_space_group_name_H-M   'P 1'
_cell_length_a   6.06817131
_cell_length_b   6.06817131
_cell_length_c   6.06565321
_cell_angle_alpha   61.61659120
_cell_angle_beta   61.61659120
_cell_angle_gamma   61.52065522
_symmetry_Int_Tables_number   1
_chemical_formula_structural   Li4Mn3NbO8
_chemical_formula_sum   'Li4 Mn3 Nb1 O8'
_cell_volume   163.54914133
_cell_formula_units_Z   1
loop_
 _symmetry_equiv_pos_site_id
 _symmetry_equiv_pos_as_xyz
  1  'x, y, z'
loop_
 _atom_site_type_symbol
 _atom_site_label
 _atom_site_symmetry_multiplicity
 _atom_site_fract_x
 _atom_site_fract_y
 _atom_site_fract_z
 _atom_site_occupancy
  Li  Li0  1  0.50000000  0.50000000  0.50000000  1
  Li  Li1  1  0.00000000  0.00000000  0.50000000  1
  Li  Li2  1  0.50000000  0.00000000  0.00000000  1
  Li  Li3  1  0.00000000  0.50000000  0.00000000  1
  Mn  Mn4  1  0.50000000  0.50000000  0.00000000  1
  Mn  Mn5  1  0.00000000  0.50000000  0.50000000  1
  Mn  Mn6  1  0.50000000  0.00000000  0.50000000  1
  Nb  Nb7  1  0.00000000  0.00000000  0.00000000  1
  O  O8  1  0.25686600  0.25686600  0.27460500  1
  O  O9  1  0.76398200  0.76398200  0.22933200  1
  O  O10  1  0.23014300  0.76637500  0.76221800  1
  O  O11  1  0.74313400  0.74313400  0.72539500  1
  O  O12  1  0.76637500  0.23014300  0.76221800  1
  O  O13  1  0.23601800  0.23601800  0.77066800  1
  O  O14  1  0.76985700  0.23362500  0.23778200  1
  O  O15  1  0.23362500  0.76985700  0.23778200  1
