# generated using pymatgen
data_Li2TiVO4
_symmetry_space_group_name_H-M   'P 1'
_cell_length_a   5.19182430
_cell_length_b   7.81332324
_cell_length_c   7.81371379
_cell_angle_alpha   72.49105561
_cell_angle_beta   104.05655866
_cell_angle_gamma   91.87707215
_symmetry_Int_Tables_number   1
_chemical_formula_structural   Li2TiVO4
_chemical_formula_sum   'Li8 Ti4 V4 O16'
_cell_volume   292.95141839
_cell_formula_units_Z   4
loop_
 _symmetry_equiv_pos_site_id
 _symmetry_equiv_pos_as_xyz
  1  'x, y, z'
loop_
 _atom_site_type_symbol
 _atom_site_label
 _atom_site_symmetry_multiplicity
 _atom_site_fract_x
 _atom_site_fract_y
 _atom_site_fract_z
 _atom_site_occupancy
  Li  Li0  1  0.30995500  0.37614500  0.43647800  1
  Li  Li1  1  0.55814400  0.87597900  0.18856300  1
  Li  Li2  1  0.06058400  0.87755900  0.68724100  1
  Li  Li3  1  0.81452700  0.37300400  0.93891800  1
  Li  Li4  1  0.87790800  0.24866700  0.62674200  1
  Li  Li5  1  0.12632500  0.74929600  0.37596900  1
  Li  Li6  1  0.62368900  0.75199400  0.87354100  1
  Li  Li7  1  0.37574400  0.24869200  0.12309700  1
  Ti  Ti8  1  0.68338500  0.62685000  0.56612800  1
  Ti  Ti9  1  0.94365500  0.11862100  0.31219600  1
  Ti  Ti10  1  0.43860400  0.12488700  0.81188900  1
  Ti  Ti11  1  0.18602700  0.62792500  0.05877500  1
  V  V12  1  0.50000800  0.00357300  0.49946000  1
  V  V13  1  0.74910000  0.49873100  0.25200400  1
  V  V14  1  0.24965400  0.50142100  0.74922000  1
  V  V15  1  0.99592800  0.99727500  0.00222100  1
  O  O16  1  0.39598500  0.74338400  0.61919500  1
  O  O17  1  0.65232200  0.24825900  0.36640900  1
  O  O18  1  0.15053000  0.23891600  0.87029000  1
  O  O19  1  0.89263300  0.73316100  0.12525400  1
  O  O20  1  0.97203000  0.50966400  0.49799600  1
  O  O21  1  0.23300500  0.00780900  0.25331800  1
  O  O22  1  0.72963800  0.00755900  0.75426300  1
  O  O23  1  0.48408500  0.50898500  0.01068200  1
  O  O24  1  0.55997900  0.37580200  0.68917200  1
  O  O25  1  0.81170500  0.87806200  0.43768800  1
  O  O26  1  0.30859000  0.87575700  0.93727400  1
  O  O27  1  0.05587100  0.37635200  0.18828000  1
  O  O28  1  0.44189400  0.62329200  0.31158000  1
  O  O29  1  0.68975100  0.12296000  0.06292100  1
  O  O30  1  0.18998300  0.12449000  0.56131600  1
  O  O31  1  0.93876100  0.62493200  0.81191900  1
