# generated using pymatgen
data_Li3ZnFe2(PO4)3
_symmetry_space_group_name_H-M   'P 1'
_cell_length_a   7.70499000
_cell_length_b   11.27990610
_cell_length_c   11.40388795
_cell_angle_alpha   69.35669013
_cell_angle_beta   75.04289424
_cell_angle_gamma   84.42689110
_symmetry_Int_Tables_number   1
_chemical_formula_structural   Li3ZnFe2(PO4)3
_chemical_formula_sum   'Li12 Zn4 Fe8 P12 O48'
_cell_volume   896.04793694
_cell_formula_units_Z   4
loop_
 _symmetry_equiv_pos_site_id
 _symmetry_equiv_pos_as_xyz
  1  'x, y, z'
loop_
 _atom_site_type_symbol
 _atom_site_label
 _atom_site_symmetry_multiplicity
 _atom_site_fract_x
 _atom_site_fract_y
 _atom_site_fract_z
 _atom_site_occupancy
  Li  Li0  1  0.33349800  0.33335400  0.49953700  1
  Li  Li1  1  0.66680000  0.66691500  0.49925100  1
  Li  Li2  1  0.99934800  0.00019100  0.49965200  1
  Li  Li3  1  0.00034600  0.49983300  0.00043400  1
  Li  Li4  1  0.33388100  0.83335400  0.00004900  1
  Li  Li5  1  0.66700800  0.16647200  0.00044800  1
  Li  Li6  1  0.00027400  0.49984400  0.49944500  1
  Li  Li7  1  0.33378600  0.83319300  0.49951500  1
  Li  Li8  1  0.66668900  0.16682700  0.49948900  1
  Li  Li9  1  0.33295300  0.33350200  0.00044200  1
  Li  Li10  1  0.66632300  0.66680500  0.00049000  1
  Li  Li11  1  0.99986400  0.00042900  0.99995700  1
  Zn  Zn12  1  0.58646500  0.33647000  0.21887500  1
  Zn  Zn13  1  0.25268600  0.00278900  0.21900300  1
  Zn  Zn14  1  0.91950200  0.66960600  0.21890200  1
  Zn  Zn15  1  0.26783500  0.01788200  0.71880200  1
  Fe  Fe16  1  0.93476600  0.68519400  0.72042800  1
  Fe  Fe17  1  0.60217600  0.35171800  0.72040100  1
  Fe  Fe18  1  0.74855700  0.99865800  0.77978100  1
  Fe  Fe19  1  0.41522800  0.66563900  0.77987000  1
  Fe  Fe20  1  0.08213100  0.33159600  0.77994100  1
  Fe  Fe21  1  0.06498700  0.31481700  0.27930500  1
  Fe  Fe22  1  0.73135700  0.98163200  0.27925800  1
  Fe  Fe23  1  0.39825600  0.64817600  0.27908900  1
  P  P24  1  0.00362300  0.75346200  0.40640600  1
  P  P25  1  0.33682700  0.08681400  0.40714100  1
  P  P26  1  0.67017100  0.42017100  0.40641700  1
  P  P27  1  0.72475700  0.47453500  0.90846200  1
  P  P28  1  0.05814900  0.80827600  0.90797200  1
  P  P29  1  0.39110900  0.14122400  0.90783400  1
  P  P30  1  0.99822300  0.24596800  0.59285200  1
  P  P31  1  0.33022000  0.58029700  0.59240900  1
  P  P32  1  0.66201600  0.91409200  0.59284600  1
  P  P33  1  0.27470500  0.52464500  0.09338000  1
  P  P34  1  0.60783800  0.85796000  0.09337500  1
  P  P35  1  0.94107100  0.19126400  0.09343900  1
  O  O36  1  0.84756000  0.80059200  0.33476500  1
  O  O37  1  0.18038200  0.13354600  0.33584500  1
  O  O38  1  0.51403300  0.46729500  0.33485800  1
  O  O39  1  0.92880500  0.47480600  0.83709600  1
  O  O40  1  0.26211700  0.80912600  0.83589400  1
  O  O41  1  0.59542400  0.14221500  0.83671000  1
  O  O42  1  0.88248800  0.33426300  0.66459400  1
  O  O43  1  0.21426200  0.66840400  0.66408500  1
  O  O44  1  0.54645200  0.00252300  0.66465600  1
  O  O45  1  0.34330700  0.38829700  0.16457200  1
  O  O46  1  0.67594200  0.72162900  0.16494000  1
  O  O47  1  0.00909400  0.05492600  0.16501400  1
  O  O48  1  0.15482000  0.19826700  0.66445800  1
  O  O49  1  0.48614500  0.53263100  0.66442300  1
  O  O50  1  0.81846200  0.86620200  0.66432500  1
  O  O51  1  0.07011400  0.52449100  0.16497500  1
  O  O52  1  0.40328800  0.85836700  0.16455300  1
  O  O53  1  0.73650000  0.19171000  0.16462600  1
  O  O54  1  0.11878500  0.66507100  0.33498300  1
  O  O55  1  0.45131300  0.99809000  0.33590500  1
  O  O56  1  0.78515400  0.33175800  0.33489500  1
  O  O57  1  0.65774100  0.61077100  0.83674800  1
  O  O58  1  0.99115500  0.94443900  0.83598100  1
  O  O59  1  0.32381400  0.27762600  0.83692600  1
  O  O60  1  0.77897700  0.52887000  0.40352500  1
  O  O61  1  0.11224000  0.86229700  0.40359800  1
  O  O62  1  0.44575900  0.19572600  0.40359100  1
  O  O63  1  0.61775800  0.36791100  0.90610300  1
  O  O64  1  0.95132800  0.70128700  0.90594600  1
  O  O65  1  0.28502800  0.03494700  0.90388900  1
  O  O66  1  0.22209500  0.47196200  0.59434300  1
  O  O67  1  0.55459100  0.80560500  0.59447800  1
  O  O68  1  0.88917400  0.13836000  0.59446200  1
  O  O69  1  0.38166500  0.63188600  0.09414400  1
  O  O70  1  0.71516800  0.96519500  0.09427600  1
  O  O71  1  0.04869300  0.29835400  0.09433900  1
  O  O72  1  0.05381500  0.80385600  0.04682500  1
  O  O73  1  0.38631500  0.13642900  0.04698400  1
  O  O74  1  0.72035900  0.47042500  0.04721400  1
  O  O75  1  0.91526800  0.66514200  0.54511200  1
  O  O76  1  0.24876100  0.99874400  0.54650700  1
  O  O77  1  0.58185600  0.33194800  0.54516100  1
  O  O78  1  0.94475200  0.19466400  0.95515000  1
  O  O79  1  0.27798500  0.52827300  0.95496300  1
  O  O80  1  0.61179300  0.86135900  0.95503400  1
  O  O81  1  0.08611000  0.33491500  0.45464000  1
  O  O82  1  0.41884200  0.66879700  0.45437800  1
  O  O83  1  0.75108700  0.00239900  0.45461400  1
