# generated using pymatgen
data_Li6Mn3V(PO4)6
_symmetry_space_group_name_H-M   'P 1'
_cell_length_a   8.60455800
_cell_length_b   8.71745837
_cell_length_c   12.36639760
_cell_angle_alpha   89.40782514
_cell_angle_beta   88.15418677
_cell_angle_gamma   89.34976539
_symmetry_Int_Tables_number   1
_chemical_formula_structural   Li6Mn3V(PO4)6
_chemical_formula_sum   'Li12 Mn6 V2 P12 O48'
_cell_volume   927.01481309
_cell_formula_units_Z   2
loop_
 _symmetry_equiv_pos_site_id
 _symmetry_equiv_pos_as_xyz
  1  'x, y, z'
loop_
 _atom_site_type_symbol
 _atom_site_label
 _atom_site_symmetry_multiplicity
 _atom_site_fract_x
 _atom_site_fract_y
 _atom_site_fract_z
 _atom_site_occupancy
  Li  Li0  1  0.07722500  0.08863000  0.30285600  1
  Li  Li1  1  0.07379600  0.69246500  0.23871600  1
  Li  Li2  1  0.21136700  0.77790800  0.82583400  1
  Li  Li3  1  0.28908600  0.28173900  0.67478300  1
  Li  Li4  1  0.41710100  0.19803600  0.25808800  1
  Li  Li5  1  0.41820500  0.58457400  0.19525800  1
  Li  Li6  1  0.58314700  0.41508700  0.80446900  1
  Li  Li7  1  0.58151100  0.80418500  0.73848200  1
  Li  Li8  1  0.70668400  0.71674200  0.32652800  1
  Li  Li9  1  0.79342500  0.21821200  0.17142400  1
  Li  Li10  1  0.92170200  0.30527300  0.76259200  1
  Li  Li11  1  0.92036000  0.91790700  0.69897300  1
  Mn  Mn12  1  0.24731200  0.53807100  0.39889000  1
  Mn  Mn13  1  0.24922800  0.45685400  0.89124000  1
  Mn  Mn14  1  0.25183600  0.95919700  0.60985300  1
  Mn  Mn15  1  0.75312800  0.53987700  0.10818700  1
  Mn  Mn16  1  0.74875900  0.96282900  0.89740300  1
  Mn  Mn17  1  0.75038200  0.46309000  0.60142500  1
  V  V18  1  0.25205500  0.03014500  0.10659100  1
  V  V19  1  0.74663200  0.04260200  0.38903700  1
  P  P20  1  0.03759900  0.25576800  0.50371500  1
  P  P21  1  0.10341200  0.38617100  0.13947700  1
  P  P22  1  0.10252400  0.09673000  0.84728400  1
  P  P23  1  0.39965100  0.59663400  0.65586300  1
  P  P24  1  0.39395300  0.88410200  0.35611200  1
  P  P25  1  0.46666800  0.75036800  0.99394600  1
  P  P26  1  0.53884900  0.24557900  0.00448000  1
  P  P27  1  0.60287400  0.11650400  0.64272300  1
  P  P28  1  0.60000400  0.40027900  0.34493100  1
  P  P29  1  0.89651700  0.89971100  0.15558000  1
  P  P30  1  0.89904200  0.61523900  0.86117600  1
  P  P31  1  0.96071800  0.75210300  0.49618600  1
  O  O32  1  0.04712500  0.86563400  0.56825700  1
  O  O33  1  0.07825300  0.88943400  0.14910000  1
  O  O34  1  0.06955500  0.68436000  0.40475800  1
  O  O35  1  0.07665700  0.59173900  0.83538100  1
  O  O36  1  0.09985400  0.37682300  0.42152000  1
  O  O37  1  0.14119700  0.21830400  0.17810600  1
  O  O38  1  0.13445600  0.39517200  0.01642300  1
  O  O39  1  0.14316900  0.97379700  0.75682900  1
  O  O40  1  0.14973600  0.25749200  0.80550300  1
  O  O41  1  0.17091700  0.17935800  0.56387700  1
  O  O42  1  0.17546800  0.04446000  0.95145200  1
  O  O43  1  0.19579900  0.50726000  0.20015200  1
  O  O44  1  0.30133300  0.00205800  0.28647700  1
  O  O45  1  0.32794200  0.54269500  0.55333600  1
  O  O46  1  0.33337900  0.67585800  0.93571800  1
  O  O47  1  0.35064600  0.75880900  0.69400200  1
  O  O48  1  0.35707000  0.90501700  0.47760400  1
  O  O49  1  0.35828000  0.71432100  0.32340600  1
  O  O50  1  0.36039900  0.47421900  0.74714700  1
  O  O51  1  0.40220600  0.86830200  0.07586900  1
  O  O52  1  0.42961700  0.17838200  0.09516700  1
  O  O53  1  0.41772600  0.39064300  0.34978100  1
  O  O54  1  0.42592200  0.09544600  0.66690400  1
  O  O55  1  0.45089300  0.36572600  0.93409000  1
  O  O56  1  0.55383200  0.63068400  0.06462900  1
  O  O57  1  0.57024000  0.90627300  0.33390800  1
  O  O58  1  0.58246500  0.60452500  0.65076800  1
  O  O59  1  0.57555300  0.81969900  0.90325800  1
  O  O60  1  0.59863900  0.12631500  0.92097800  1
  O  O61  1  0.63823800  0.51924900  0.25161200  1
  O  O62  1  0.64109400  0.28507600  0.67772000  1
  O  O63  1  0.64007900  0.10008300  0.52135200  1
  O  O64  1  0.65351900  0.23667000  0.30912900  1
  O  O65  1  0.67481900  0.31976000  0.06038600  1
  O  O66  1  0.67155600  0.45806600  0.44633100  1
  O  O67  1  0.69707300  0.99549100  0.70616700  1
  O  O68  1  0.80548500  0.49506300  0.80068400  1
  O  O69  1  0.82199900  0.95529400  0.05346700  1
  O  O70  1  0.82771600  0.83437100  0.43614600  1
  O  O71  1  0.84607900  0.74011300  0.19802700  1
  O  O72  1  0.86174900  0.02430600  0.24512600  1
  O  O73  1  0.86850200  0.60732700  0.98443000  1
  O  O74  1  0.86223400  0.78416600  0.82288000  1
  O  O75  1  0.89264800  0.63132000  0.57492900  1
  O  O76  1  0.92537600  0.40869900  0.16476300  1
  O  O77  1  0.92797100  0.32423100  0.59512400  1
  O  O78  1  0.91960000  0.10435700  0.85172500  1
  O  O79  1  0.95118100  0.14094400  0.43350000  1
