# generated using pymatgen
data_Li5V3P8O29
_symmetry_space_group_name_H-M   'P 1'
_cell_length_a   9.79950300
_cell_length_b   9.80541035
_cell_length_c   14.14312489
_cell_angle_alpha   90.09903492
_cell_angle_beta   90.14694716
_cell_angle_gamma   119.97408606
_symmetry_Int_Tables_number   1
_chemical_formula_structural   Li5V3P8O29
_chemical_formula_sum   'Li10 V6 P16 O58'
_cell_volume   1177.21321289
_cell_formula_units_Z   2
loop_
 _symmetry_equiv_pos_site_id
 _symmetry_equiv_pos_as_xyz
  1  'x, y, z'
loop_
 _atom_site_type_symbol
 _atom_site_label
 _atom_site_symmetry_multiplicity
 _atom_site_fract_x
 _atom_site_fract_y
 _atom_site_fract_z
 _atom_site_occupancy
  Li  Li0  1  0.91807900  0.21802900  0.94526500  1
  Li  Li1  1  0.76272400  0.09483500  0.43892500  1
  Li  Li2  1  0.90086000  0.66428700  0.43823300  1
  Li  Li3  1  0.77393400  0.68729700  0.93974600  1
  Li  Li4  1  0.32017000  0.09302600  0.94401300  1
  Li  Li5  1  0.33438800  0.23479100  0.43771100  1
  Li  Li6  1  0.34272900  0.67235700  0.89402100  1
  Li  Li7  1  0.09256100  0.32762700  0.55828800  1
  Li  Li8  1  0.08459400  0.77673200  0.06343400  1
  Li  Li9  1  0.97639300  0.95629900  0.49966800  1
  V  V10  1  0.56572800  0.56776000  0.74619200  1
  V  V11  1  0.43578500  0.43482000  0.24907300  1
  V  V12  1  0.56584900  0.00064700  0.25028900  1
  V  V13  1  0.43566900  0.99840900  0.74493300  1
  V  V14  1  0.00026100  0.43522700  0.75175400  1
  V  V15  1  0.99753000  0.56650400  0.25134300  1
  P  P16  1  0.90906200  0.23002800  0.16093600  1
  P  P17  1  0.77338400  0.08561200  0.65318200  1
  P  P18  1  0.91390500  0.68623200  0.65889400  1
  P  P19  1  0.66486300  0.33278700  0.86873200  1
  P  P20  1  0.66577800  0.33151100  0.37227100  1
  P  P21  1  0.76622300  0.67915600  0.15533100  1
  P  P22  1  0.69333900  0.77685900  0.33783400  1
  P  P23  1  0.31839000  0.08924000  0.15828100  1
  P  P24  1  0.68484600  0.91109900  0.83613000  1
  P  P25  1  0.31057300  0.22753900  0.65751800  1
  P  P26  1  0.22886500  0.31717900  0.84121200  1
  P  P27  1  0.33155500  0.66390500  0.63032800  1
  P  P28  1  0.33023700  0.66741000  0.13252800  1
  P  P29  1  0.08943200  0.31758400  0.34096700  1
  P  P30  1  0.22408700  0.91719000  0.34075300  1
  P  P31  1  0.09341400  0.77336800  0.84114300  1
  O  O32  1  0.00229800  0.22850800  0.42877500  1
  O  O33  1  0.91882300  0.25229700  0.66507700  1
  O  O34  1  0.77544600  0.00692800  0.91867600  1
  O  O35  1  0.74067200  0.08380100  0.17155500  1
  O  O36  1  0.89869200  0.38045500  0.18025000  1
  O  O37  1  0.81925200  0.34021000  0.82778800  1
  O  O38  1  0.91571100  0.53145300  0.66801500  1
  O  O39  1  0.99811900  0.75225400  0.92868600  1
  O  O40  1  0.91792400  0.66624500  0.16357200  1
  O  O41  1  0.67504200  0.18504800  0.33002500  1
  O  O42  1  0.61918400  0.08974300  0.66667500  1
  O  O43  1  0.81001100  0.48728200  0.33354900  1
  O  O44  1  0.66476600  0.33596000  0.97364600  1
  O  O45  1  0.66916000  0.32548900  0.47785400  1
  O  O46  1  0.66018300  0.47937200  0.82595500  1
  O  O47  1  0.47907500  0.09753900  0.18007800  1
  O  O48  1  0.52148000  0.17997100  0.82624100  1
  O  O49  1  0.74200200  0.65548800  0.67140000  1
  O  O50  1  0.78333200  0.79903300  0.23838800  1
  O  O51  1  0.80600400  0.79740500  0.41625000  1
  O  O52  1  0.75536100  0.74316100  0.06242500  1
  O  O53  1  0.62127100  0.51680000  0.17926900  1
  O  O54  1  0.51046400  0.31948700  0.33298800  1
  O  O55  1  0.66224500  0.74062500  0.83861400  1
  O  O56  1  0.46906300  0.38534000  0.67584700  1
  O  O57  1  0.33743600  0.08876500  0.66408300  1
  O  O58  1  0.78219600  0.98280700  0.73982800  1
  O  O59  1  0.78606100  0.01454100  0.56203100  1
  O  O60  1  0.20919900  0.00758100  0.42156300  1
  O  O61  1  0.65875000  0.91639300  0.33939000  1
  O  O62  1  0.54084400  0.61789500  0.33420900  1
  O  O63  1  0.34039100  0.25410500  0.16224300  1
  O  O64  1  0.48210700  0.66735600  0.67806900  1
  O  O65  1  0.37750000  0.48404000  0.82606100  1
  O  O66  1  0.24243100  0.22920500  0.92213100  1
  O  O67  1  0.23404800  0.23517000  0.56650600  1
  O  O68  1  0.20062800  0.21865000  0.74367200  1
  O  O69  1  0.25708500  0.33952900  0.33928500  1
  O  O70  1  0.47474500  0.81944700  0.17971600  1
  O  O71  1  0.51660700  0.88818700  0.82508600  1
  O  O72  1  0.33433800  0.52437700  0.17550900  1
  O  O73  1  0.33952500  0.67734600  0.02685500  1
  O  O74  1  0.33636700  0.65777100  0.52603200  1
  O  O75  1  0.18519700  0.51136000  0.67152500  1
  O  O76  1  0.38382200  0.92176200  0.33157600  1
  O  O77  1  0.33066500  0.81086400  0.67401400  1
  O  O78  1  0.08448700  0.34118400  0.84578000  1
  O  O79  1  0.00318100  0.21059100  0.24888800  1
  O  O80  1  0.98420300  0.23320700  0.06984200  1
  O  O81  1  0.09391800  0.47485200  0.32897400  1
  O  O82  1  0.18050700  0.67140400  0.16692100  1
  O  O83  1  0.11835600  0.63011200  0.82427100  1
  O  O84  1  0.25606300  0.92298900  0.84270200  1
  O  O85  1  0.24892200  0.00044000  0.06764600  1
  O  O86  1  0.20129300  0.98816100  0.24234600  1
  O  O87  1  0.08577500  0.74426300  0.34069400  1
  O  O88  1  0.97932200  0.77304600  0.56841900  1
  O  O89  1  0.00461700  0.79318800  0.74986800  1
