# generated using pymatgen
data_Li4Fe3Cu2Sn3O16
_symmetry_space_group_name_H-M   'P 1'
_cell_length_a   6.13270535
_cell_length_b   6.11704471
_cell_length_c   9.68025558
_cell_angle_alpha   89.99981909
_cell_angle_beta   89.85532398
_cell_angle_gamma   119.91621094
_symmetry_Int_Tables_number   1
_chemical_formula_structural   Li4Fe3Cu2Sn3O16
_chemical_formula_sum   'Li4 Fe3 Cu2 Sn3 O16'
_cell_volume   314.75702122
_cell_formula_units_Z   1
loop_
 _symmetry_equiv_pos_site_id
 _symmetry_equiv_pos_as_xyz
  1  'x, y, z'
loop_
 _atom_site_type_symbol
 _atom_site_label
 _atom_site_symmetry_multiplicity
 _atom_site_fract_x
 _atom_site_fract_y
 _atom_site_fract_z
 _atom_site_occupancy
  Li  Li0  1  0.33972700  0.66988100  0.88941400  1
  Li  Li1  1  0.97995900  0.98997800  0.99258400  1
  Li  Li2  1  0.98529200  0.99266800  0.50009400  1
  Li  Li3  1  0.66865400  0.33435500  0.39573600  1
  Fe  Fe4  1  0.66378700  0.83190800  0.21298800  1
  Fe  Fe5  1  0.83172200  0.66171900  0.71254000  1
  Fe  Fe6  1  0.83172300  0.17003000  0.71254400  1
  Cu  Cu7  1  0.33894300  0.66947500  0.48948300  1
  Cu  Cu8  1  0.67509800  0.33757700  0.98460300  1
  Sn  Sn9  1  0.17104500  0.83171500  0.21335800  1
  Sn  Sn10  1  0.17103900  0.33933500  0.21335300  1
  Sn  Sn11  1  0.34246700  0.17124700  0.71275400  1
  O  O12  1  0.15925700  0.83089200  0.59943800  1
  O  O13  1  0.03577800  0.51789100  0.34539300  1
  O  O14  1  0.34119700  0.67060700  0.09641500  1
  O  O15  1  0.99361100  0.99681200  0.31584200  1
  O  O16  1  0.99173800  0.99585900  0.80842700  1
  O  O17  1  0.15925100  0.32838300  0.59944500  1
  O  O18  1  0.48620500  0.96068100  0.34408000  1
  O  O19  1  0.48620300  0.52553800  0.34407400  1
  O  O20  1  0.32281500  0.16141500  0.09403700  1
  O  O21  1  0.66852400  0.83428800  0.60703700  1
  O  O22  1  0.52867100  0.48660200  0.84321500  1
  O  O23  1  0.52867000  0.04209000  0.84320700  1
  O  O24  1  0.67887300  0.33948200  0.60040600  1
  O  O25  1  0.83097700  0.67142800  0.10036800  1
  O  O26  1  0.95779600  0.47889000  0.83664100  1
  O  O27  1  0.83097500  0.15955600  0.10036100  1
