# generated using pymatgen
data_Li7Co5O12
_symmetry_space_group_name_H-M   'P 1'
_cell_length_a   7.72665972
_cell_length_b   8.65389751
_cell_length_c   7.71047867
_cell_angle_alpha   72.92269590
_cell_angle_beta   111.09322550
_cell_angle_gamma   75.63572050
_symmetry_Int_Tables_number   1
_chemical_formula_structural   Li7Co5O12
_chemical_formula_sum   'Li14 Co10 O24'
_cell_volume   422.09141690
_cell_formula_units_Z   2
loop_
 _symmetry_equiv_pos_site_id
 _symmetry_equiv_pos_as_xyz
  1  'x, y, z'
loop_
 _atom_site_type_symbol
 _atom_site_label
 _atom_site_symmetry_multiplicity
 _atom_site_fract_x
 _atom_site_fract_y
 _atom_site_fract_z
 _atom_site_occupancy
  Li  Li0  1  0.58487200  0.25108200  0.83244700  1
  Li  Li1  1  0.08475700  0.74763700  0.83820400  1
  Li  Li2  1  0.96951700  0.10894900  0.59604600  1
  Li  Li3  1  0.46523300  0.61031700  0.59261100  1
  Li  Li4  1  0.20772700  0.38612200  0.08017800  1
  Li  Li5  1  0.70331300  0.88933700  0.07622200  1
  Li  Li6  1  0.11889200  0.62994100  0.24921900  1
  Li  Li7  1  0.61608500  0.12878200  0.24932900  1
  Li  Li8  1  0.28565100  0.12959400  0.91638400  1
  Li  Li9  1  0.78864800  0.62813000  0.91676600  1
  Li  Li10  1  0.37793900  0.87036000  0.74803500  1
  Li  Li11  1  0.88169400  0.36911100  0.75374900  1
  Li  Li12  1  0.54094500  0.37430800  0.41026100  1
  Li  Li13  1  0.04716100  0.87340600  0.41408500  1
  Co  Co14  1  0.00020000  0.99578000  0.99775400  1
  Co  Co15  1  0.49742600  0.49890200  0.99335500  1
  Co  Co16  1  0.16948300  0.50196700  0.67301500  1
  Co  Co17  1  0.66983700  0.00093000  0.67322500  1
  Co  Co18  1  0.25711400  0.25299100  0.50060700  1
  Co  Co19  1  0.75814400  0.74498100  0.50812600  1
  Co  Co20  1  0.90452700  0.24983400  0.15805500  1
  Co  Co21  1  0.40740700  0.75173400  0.15688600  1
  Co  Co22  1  0.33189500  0.00212500  0.33139400  1
  Co  Co23  1  0.83373400  0.49898700  0.33332300  1
  O  O24  1  0.01009000  0.43105900  0.21514600  1
  O  O25  1  0.51389200  0.92969800  0.21332700  1
  O  O26  1  0.15296800  0.06987700  0.45343500  1
  O  O27  1  0.65545800  0.56834600  0.45301100  1
  O  O28  1  0.78724800  0.16087500  0.72723000  1
  O  O29  1  0.28039000  0.66162600  0.72169700  1
  O  O30  1  0.38659200  0.33963700  0.94319900  1
  O  O31  1  0.90006900  0.82863100  0.96317300  1
  O  O32  1  0.17693900  0.94056800  0.89166700  1
  O  O33  1  0.67700200  0.44079200  0.89065200  1
  O  O34  1  0.33546000  0.43405500  0.54763000  1
  O  O35  1  0.82952100  0.93637600  0.54926600  1
  O  O36  1  0.33223900  0.56748400  0.11790500  1
  O  O37  1  0.83146100  0.06467000  0.12211000  1
  O  O38  1  0.49330200  0.05781500  0.77329800  1
  O  O39  1  0.99061200  0.55982200  0.77701800  1
  O  O40  1  0.43149400  0.18705800  0.37592400  1
  O  O41  1  0.95352200  0.67203300  0.40447100  1
  O  O42  1  0.09739900  0.17182600  0.04744400  1
  O  O43  1  0.59802200  0.67271300  0.04330000  1
  O  O44  1  0.07132700  0.32754800  0.62353800  1
  O  O45  1  0.56360700  0.82586400  0.61398300  1
  O  O46  1  0.71139300  0.32903600  0.26418700  1
  O  O47  1  0.21779400  0.82728600  0.26811400  1
