# generated using pymatgen
data_Li3FePCO7
_symmetry_space_group_name_H-M   'P 1'
_cell_length_a   4.96986900
_cell_length_b   8.52061512
_cell_length_c   13.03201147
_cell_angle_alpha   90.68823040
_cell_angle_beta   90.38354396
_cell_angle_gamma   95.03748050
_symmetry_Int_Tables_number   1
_chemical_formula_structural   Li3FePCO7
_chemical_formula_sum   'Li12 Fe4 P4 C4 O28'
_cell_volume   549.67014193
_cell_formula_units_Z   4
loop_
 _symmetry_equiv_pos_site_id
 _symmetry_equiv_pos_as_xyz
  1  'x, y, z'
loop_
 _atom_site_type_symbol
 _atom_site_label
 _atom_site_symmetry_multiplicity
 _atom_site_fract_x
 _atom_site_fract_y
 _atom_site_fract_z
 _atom_site_occupancy
  Li  Li0  1  0.23546600  0.09489200  0.12782100  1
  Li  Li1  1  0.23378300  0.10147400  0.62903600  1
  Li  Li2  1  0.74636100  0.27454300  0.51317800  1
  Li  Li3  1  0.74919700  0.27275700  0.24566000  1
  Li  Li4  1  0.76475900  0.28057400  0.73854400  1
  Li  Li5  1  0.22082400  0.35133600  0.86780200  1
  Li  Li6  1  0.24919600  0.71990200  0.98261700  1
  Li  Li7  1  0.24852600  0.72222100  0.26394500  1
  Li  Li8  1  0.24799900  0.72539200  0.49030300  1
  Li  Li9  1  0.24513800  0.72003400  0.76440700  1
  Li  Li10  1  0.76649000  0.90307500  0.37822500  1
  Li  Li11  1  0.76737200  0.89877200  0.87056400  1
  Fe  Fe12  1  0.75325200  0.26050500  0.99398100  1
  Fe  Fe13  1  0.21237000  0.33413900  0.37633100  1
  Fe  Fe14  1  0.78798100  0.66480800  0.12424100  1
  Fe  Fe15  1  0.78219700  0.66242100  0.62504400  1
  P  P16  1  0.27640300  0.40973600  0.12412800  1
  P  P17  1  0.27724800  0.41035500  0.62638600  1
  P  P18  1  0.71922100  0.58913000  0.37367900  1
  P  P19  1  0.71646300  0.58837400  0.87525500  1
  C  C20  1  0.30220600  0.03483700  0.37425300  1
  C  C21  1  0.29375400  0.03976200  0.88151400  1
  C  C22  1  0.70337900  0.96442300  0.62499400  1
  C  C23  1  0.69972400  0.96452300  0.12478000  1
  O  O24  1  0.04595000  0.07035300  0.88061800  1
  O  O25  1  0.05505700  0.07080500  0.37290500  1
  O  O26  1  0.64105100  0.11243800  0.12244600  1
  O  O27  1  0.63901400  0.10897600  0.62584800  1
  O  O28  1  0.49655000  0.14854800  0.37458300  1
  O  O29  1  0.48665800  0.15549500  0.88636500  1
  O  O30  1  0.16840800  0.30912800  0.53126100  1
  O  O31  1  0.16095000  0.30911200  0.03088300  1
  O  O32  1  0.17941900  0.30905900  0.21824200  1
  O  O33  1  0.17726000  0.31002200  0.71837100  1
  O  O34  1  0.81843800  0.42258100  0.37305100  1
  O  O35  1  0.82200500  0.42252000  0.87186300  1
  O  O36  1  0.59402300  0.42901100  0.62363600  1
  O  O37  1  0.59353400  0.42323900  0.11925300  1
  O  O38  1  0.40381700  0.57159300  0.37310900  1
  O  O39  1  0.40456200  0.57345300  0.87608200  1
  O  O40  1  0.18429200  0.57768800  0.12707100  1
  O  O41  1  0.17857100  0.57807500  0.62533500  1
  O  O42  1  0.82986900  0.69284900  0.46594700  1
  O  O43  1  0.82399600  0.68922100  0.28005300  1
  O  O44  1  0.82796000  0.69126700  0.78444400  1
  O  O45  1  0.83077900  0.68892500  0.96997100  1
  O  O46  1  0.50387200  0.85395900  0.12645400  1
  O  O47  1  0.51355500  0.84807100  0.62385200  1
  O  O48  1  0.36111000  0.88919400  0.37510500  1
  O  O49  1  0.36238500  0.89554700  0.87540000  1
  O  O50  1  0.94582300  0.93022900  0.12566300  1
  O  O51  1  0.95178700  0.93065600  0.62550500  1
