# generated using pymatgen
data_Li7Mn5O12
_symmetry_space_group_name_H-M   'P 1'
_cell_length_a   6.46379487
_cell_length_b   8.37426803
_cell_length_c   8.63443664
_cell_angle_alpha   89.84766565
_cell_angle_beta   89.82689674
_cell_angle_gamma   70.83755859
_symmetry_Int_Tables_number   1
_chemical_formula_structural   Li7Mn5O12
_chemical_formula_sum   'Li14 Mn10 O24'
_cell_volume   441.47886499
_cell_formula_units_Z   2
loop_
 _symmetry_equiv_pos_site_id
 _symmetry_equiv_pos_as_xyz
  1  'x, y, z'
loop_
 _atom_site_type_symbol
 _atom_site_label
 _atom_site_symmetry_multiplicity
 _atom_site_fract_x
 _atom_site_fract_y
 _atom_site_fract_z
 _atom_site_occupancy
  Li  Li0  1  0.33507500  0.16011400  0.00115900  1
  Li  Li1  1  0.33152300  0.67272500  0.49848000  1
  Li  Li2  1  0.33336900  0.41662600  0.24996400  1
  Li  Li3  1  0.33295500  0.91695200  0.75005000  1
  Li  Li4  1  0.33314100  0.41683500  0.75039900  1
  Li  Li5  1  0.33351700  0.91672700  0.24989900  1
  Li  Li6  1  0.65928600  0.83719100  0.01895700  1
  Li  Li7  1  0.65851000  0.33440900  0.51973000  1
  Li  Li8  1  0.00703400  0.49983900  0.98146000  1
  Li  Li9  1  0.00715900  0.99587900  0.48033500  1
  Li  Li10  1  0.00854000  0.24734500  0.75001400  1
  Li  Li11  1  0.00995000  0.75421800  0.25521900  1
  Li  Li12  1  0.65837200  0.58660700  0.75130900  1
  Li  Li13  1  0.65658300  0.07893400  0.24455000  1
  Mn  Mn14  1  0.32945900  0.16341800  0.49938500  1
  Mn  Mn15  1  0.33647200  0.66979000  0.00073500  1
  Mn  Mn16  1  0.00313000  0.49741600  0.50835200  1
  Mn  Mn17  1  0.99773200  0.99685500  0.00756100  1
  Mn  Mn18  1  0.66436500  0.33417000  0.99164200  1
  Mn  Mn19  1  0.66921700  0.83628400  0.49240200  1
  Mn  Mn20  1  0.00337100  0.74776500  0.74900400  1
  Mn  Mn21  1  0.00175700  0.24678800  0.25272900  1
  Mn  Mn22  1  0.66554100  0.58627000  0.24729800  1
  Mn  Mn23  1  0.66274800  0.08567400  0.74996800  1
  O  O24  1  0.98665500  0.48826200  0.27218700  1
  O  O25  1  0.98573300  0.98872700  0.77704300  1
  O  O26  1  0.68094200  0.34480200  0.22742300  1
  O  O27  1  0.68005200  0.84455500  0.72265700  1
  O  O28  1  0.31359200  0.90996200  0.00025700  1
  O  O29  1  0.32230000  0.40077500  0.49959000  1
  O  O30  1  0.34562900  0.43337100  0.00053900  1
  O  O31  1  0.35255100  0.92386400  0.49965000  1
  O  O32  1  0.66755400  0.31614900  0.76431500  1
  O  O33  1  0.66991800  0.81827300  0.27105700  1
  O  O34  1  0.99930900  0.51734600  0.73585800  1
  O  O35  1  0.99673600  0.01448500  0.22886900  1
  O  O36  1  0.31725500  0.67389600  0.77382000  1
  O  O37  1  0.31689800  0.16995700  0.27147100  1
  O  O38  1  0.35075600  0.66321400  0.22840000  1
  O  O39  1  0.34778700  0.16011200  0.72654900  1
  O  O40  1  0.65046900  0.60015300  0.99213900  1
  O  O41  1  0.64966100  0.07484900  0.48787800  1
  O  O42  1  0.01662500  0.75868000  0.01222200  1
  O  O43  1  0.01637000  0.23303400  0.50767400  1
  O  O44  1  0.99135200  0.23318900  0.99274000  1
  O  O45  1  0.98772800  0.76409200  0.49486900  1
  O  O46  1  0.67877200  0.06937800  0.00508500  1
  O  O47  1  0.67655300  0.60004400  0.50710300  1
