# generated using pymatgen
data_Li2P(HO)6
_symmetry_space_group_name_H-M   'P 1'
_cell_length_a   11.10545078
_cell_length_b   11.10545078
_cell_length_c   11.10545078
_cell_angle_alpha   109.47122063
_cell_angle_beta   109.47122063
_cell_angle_gamma   109.47122063
_symmetry_Int_Tables_number   1
_chemical_formula_structural   Li2P(HO)6
_chemical_formula_sum   'Li16 P8 H48 O48'
_cell_volume   1054.35456981
_cell_formula_units_Z   8
loop_
 _symmetry_equiv_pos_site_id
 _symmetry_equiv_pos_as_xyz
  1  'x, y, z'
loop_
 _atom_site_type_symbol
 _atom_site_label
 _atom_site_symmetry_multiplicity
 _atom_site_fract_x
 _atom_site_fract_y
 _atom_site_fract_z
 _atom_site_occupancy
  Li  Li0  1  0.25000000  0.65050400  0.40050400  1
  Li  Li1  1  0.75000000  0.84949600  0.09949600  1
  Li  Li2  1  0.65050400  0.40050400  0.25000000  1
  Li  Li3  1  0.84949600  0.09949600  0.75000000  1
  Li  Li4  1  0.40050400  0.25000000  0.65050400  1
  Li  Li5  1  0.09949600  0.75000000  0.84949600  1
  Li  Li6  1  0.75000000  0.34949600  0.59949600  1
  Li  Li7  1  0.25000000  0.15050400  0.90050400  1
  Li  Li8  1  0.34949600  0.59949600  0.75000000  1
  Li  Li9  1  0.15050400  0.90050400  0.25000000  1
  Li  Li10  1  0.59949600  0.75000000  0.34949600  1
  Li  Li11  1  0.90050400  0.25000000  0.15050400  1
  Li  Li12  1  0.00000000  0.00000000  0.50000000  1
  Li  Li13  1  0.50000000  0.50000000  0.50000000  1
  Li  Li14  1  0.50000000  0.00000000  0.00000000  1
  Li  Li15  1  0.00000000  0.50000000  0.00000000  1
  P  P16  1  0.50000000  0.00000000  0.60065000  1
  P  P17  1  0.60065000  0.50000000  0.00000000  1
  P  P18  1  0.00000000  0.60065000  0.50000000  1
  P  P19  1  0.89935000  0.89935000  0.89935000  1
  P  P20  1  0.50000000  0.00000000  0.39935000  1
  P  P21  1  0.39935000  0.50000000  0.00000000  1
  P  P22  1  0.00000000  0.39935000  0.50000000  1
  P  P23  1  0.10065000  0.10065000  0.10065000  1
  H  H24  1  0.09003900  0.80110000  0.40703400  1
  H  H25  1  0.60593300  0.69890000  0.78893800  1
  H  H26  1  0.40996100  0.81699500  0.71106200  1
  H  H27  1  0.89406700  0.68300500  0.09296600  1
  H  H28  1  0.80110000  0.40703400  0.09003900  1
  H  H29  1  0.69890000  0.78893800  0.60593300  1
  H  H30  1  0.81699500  0.71106200  0.40996100  1
  H  H31  1  0.68300500  0.09296600  0.89406700  1
  H  H32  1  0.40703400  0.09003900  0.80110000  1
  H  H33  1  0.78893800  0.60593300  0.69890000  1
  H  H34  1  0.71106200  0.40996100  0.81699500  1
  H  H35  1  0.09296600  0.89406700  0.68300500  1
  H  H36  1  0.90996100  0.19890000  0.59296600  1
  H  H37  1  0.39406700  0.30110000  0.21106200  1
  H  H38  1  0.59003900  0.18300500  0.28893800  1
  H  H39  1  0.10593300  0.31699500  0.90703400  1
  H  H40  1  0.19890000  0.59296600  0.90996100  1
  H  H41  1  0.30110000  0.21106200  0.39406700  1
  H  H42  1  0.18300500  0.28893800  0.59003900  1
  H  H43  1  0.31699500  0.90703400  0.10593300  1
  H  H44  1  0.59296600  0.90996100  0.19890000  1
  H  H45  1  0.21106200  0.39406700  0.30110000  1
  H  H46  1  0.28893800  0.59003900  0.18300500  1
  H  H47  1  0.90703400  0.10593300  0.31699500  1
  H  H48  1  0.22209900  0.96316400  0.50497700  1
  H  H49  1  0.54181300  0.53683600  0.75893500  1
  H  H50  1  0.27790100  0.78287800  0.74106500  1
  H  H51  1  0.95818700  0.71712200  0.99502300  1
  H  H52  1  0.96316400  0.50497700  0.22209900  1
  H  H53  1  0.53683600  0.75893500  0.54181300  1
  H  H54  1  0.78287800  0.74106500  0.27790100  1
  H  H55  1  0.71712200  0.99502300  0.95818700  1
  H  H56  1  0.50497700  0.22209900  0.96316400  1
  H  H57  1  0.75893500  0.54181300  0.53683600  1
  H  H58  1  0.74106500  0.27790100  0.78287800  1
  H  H59  1  0.99502300  0.95818700  0.71712200  1
  H  H60  1  0.77790100  0.03683600  0.49502300  1
  H  H61  1  0.45818700  0.46316400  0.24106500  1
  H  H62  1  0.72209900  0.21712200  0.25893500  1
  H  H63  1  0.04181300  0.28287800  0.00497700  1
  H  H64  1  0.03683600  0.49502300  0.77790100  1
  H  H65  1  0.46316400  0.24106500  0.45818700  1
  H  H66  1  0.21712200  0.25893500  0.72209900  1
  H  H67  1  0.28287800  0.00497700  0.04181300  1
  H  H68  1  0.49502300  0.77790100  0.03683600  1
  H  H69  1  0.24106500  0.45818700  0.46316400  1
  H  H70  1  0.25893500  0.72209900  0.21712200  1
  H  H71  1  0.00497700  0.04181300  0.28287800  1
  O  O72  1  0.42979100  0.83751100  0.56431300  1
  O  O73  1  0.72680200  0.66248900  0.09228000  1
  O  O74  1  0.07020900  0.63452200  0.40772000  1
  O  O75  1  0.77319800  0.86547800  0.93568700  1
  O  O76  1  0.83751100  0.56431300  0.42979100  1
  O  O77  1  0.66248900  0.09228000  0.72680200  1
  O  O78  1  0.63452200  0.40772000  0.07020900  1
  O  O79  1  0.86547800  0.93568700  0.77319800  1
  O  O80  1  0.56431300  0.42979100  0.83751100  1
  O  O81  1  0.09228000  0.72680200  0.66248900  1
  O  O82  1  0.40772000  0.07020900  0.63452200  1
  O  O83  1  0.93568700  0.77319800  0.86547800  1
  O  O84  1  0.57020900  0.16248900  0.43568700  1
  O  O85  1  0.27319800  0.33751100  0.90772000  1
  O  O86  1  0.92979100  0.36547800  0.59228000  1
  O  O87  1  0.22680200  0.13452200  0.06431300  1
  O  O88  1  0.16248900  0.43568700  0.57020900  1
  O  O89  1  0.33751100  0.90772000  0.27319800  1
  O  O90  1  0.36547800  0.59228000  0.92979100  1
  O  O91  1  0.13452200  0.06431300  0.22680200  1
  O  O92  1  0.43568700  0.57020900  0.16248900  1
  O  O93  1  0.90772000  0.27319800  0.33751100  1
  O  O94  1  0.59228000  0.92979100  0.36547800  1
  O  O95  1  0.06431300  0.22680200  0.13452200  1
  O  O96  1  0.11972000  0.90111500  0.41870600  1
  O  O97  1  0.51759000  0.59888500  0.71860500  1
  O  O98  1  0.38028000  0.79898600  0.78139500  1
  O  O99  1  0.98241000  0.70101400  0.08129400  1
  O  O100  1  0.90111500  0.41870600  0.11972000  1
  O  O101  1  0.59888500  0.71860500  0.51759000  1
  O  O102  1  0.79898600  0.78139500  0.38028000  1
  O  O103  1  0.70101400  0.08129400  0.98241000  1
  O  O104  1  0.41870600  0.11972000  0.90111500  1
  O  O105  1  0.71860500  0.51759000  0.59888500  1
  O  O106  1  0.78139500  0.38028000  0.79898600  1
  O  O107  1  0.08129400  0.98241000  0.70101400  1
  O  O108  1  0.88028000  0.09888500  0.58129400  1
  O  O109  1  0.48241000  0.40111500  0.28139500  1
  O  O110  1  0.61972000  0.20101400  0.21860500  1
  O  O111  1  0.01759000  0.29898600  0.91870600  1
  O  O112  1  0.09888500  0.58129400  0.88028000  1
  O  O113  1  0.40111500  0.28139500  0.48241000  1
  O  O114  1  0.20101400  0.21860500  0.61972000  1
  O  O115  1  0.29898600  0.91870600  0.01759000  1
  O  O116  1  0.58129400  0.88028000  0.09888500  1
  O  O117  1  0.28139500  0.48241000  0.40111500  1
  O  O118  1  0.21860500  0.61972000  0.20101400  1
  O  O119  1  0.91870600  0.01759000  0.29898600  1
