# generated using pymatgen
data_Li2TlSb
_symmetry_space_group_name_H-M   'P 1'
_cell_length_a   11.67111940
_cell_length_b   11.67111940
_cell_length_c   11.67111940
_cell_angle_alpha   122.27217205
_cell_angle_beta   119.29091537
_cell_angle_gamma   88.67142531
_symmetry_Int_Tables_number   1
_chemical_formula_structural   Li2TlSb
_chemical_formula_sum   'Li2 Tl1 Sb1'
_cell_volume   1109.57477970
_cell_formula_units_Z   1
loop_
 _symmetry_equiv_pos_site_id
 _symmetry_equiv_pos_as_xyz
  1  'x, y, z'
loop_
 _atom_site_type_symbol
 _atom_site_label
 _atom_site_symmetry_multiplicity
 _atom_site_fract_x
 _atom_site_fract_y
 _atom_site_fract_z
 _atom_site_occupancy
  Li  Li0  1  0.00000000  0.24148400  0.24148400  1
  Li  Li1  1  0.00000000  0.75851600  0.75851600  1
  Tl  Tl2  1  0.00000000  0.50000000  0.50000000  1
  Sb  Sb3  1  0.00000000  0.00000000  0.00000000  1
