# generated using pymatgen
data_LiMg5
_symmetry_space_group_name_H-M   'P 1'
_cell_length_a   8.41652771
_cell_length_b   8.41652771
_cell_length_c   5.12473500
_cell_angle_alpha   90.00000000
_cell_angle_beta   90.00000000
_cell_angle_gamma   158.30640648
_symmetry_Int_Tables_number   1
_chemical_formula_structural   LiMg5
_chemical_formula_sum   'Li1 Mg5'
_cell_volume   134.18984634
_cell_formula_units_Z   1
loop_
 _symmetry_equiv_pos_site_id
 _symmetry_equiv_pos_as_xyz
  1  'x, y, z'
loop_
 _atom_site_type_symbol
 _atom_site_label
 _atom_site_symmetry_multiplicity
 _atom_site_fract_x
 _atom_site_fract_y
 _atom_site_fract_z
 _atom_site_occupancy
  Li  Li0  1  0.77769400  0.22230600  0.50000000  1
  Mg  Mg1  1  0.99997000  0.00003000  0.00000000  1
  Mg  Mg2  1  0.33244400  0.66755600  0.00000000  1
  Mg  Mg3  1  0.66767600  0.33232400  0.00000000  1
  Mg  Mg4  1  0.11224000  0.88776000  0.50000000  1
  Mg  Mg5  1  0.44330900  0.55669100  0.50000000  1
