# generated using pymatgen
data_Li9Co7O16
_symmetry_space_group_name_H-M   'P 1'
_cell_length_a   2.97977500
_cell_length_b   9.86659191
_cell_length_c   10.27513828
_cell_angle_alpha   106.56729187
_cell_angle_beta   98.25743456
_cell_angle_gamma   88.58683919
_symmetry_Int_Tables_number   1
_chemical_formula_structural   Li9Co7O16
_chemical_formula_sum   'Li9 Co7 O16'
_cell_volume   286.50609812
_cell_formula_units_Z   1
loop_
 _symmetry_equiv_pos_site_id
 _symmetry_equiv_pos_as_xyz
  1  'x, y, z'
loop_
 _atom_site_type_symbol
 _atom_site_label
 _atom_site_symmetry_multiplicity
 _atom_site_fract_x
 _atom_site_fract_y
 _atom_site_fract_z
 _atom_site_occupancy
  Li  Li0  1  0.43906900  0.68306600  0.87652400  1
  Li  Li1  1  0.93541600  0.18619600  0.87229600  1
  Li  Li2  1  0.06458400  0.81380400  0.12770400  1
  Li  Li3  1  0.56093100  0.31693400  0.12347600  1
  Li  Li4  1  0.68668900  0.93852100  0.37443600  1
  Li  Li5  1  0.18204100  0.43795900  0.37354600  1
  Li  Li6  1  0.31331100  0.06147900  0.62556400  1
  Li  Li7  1  0.81795900  0.56204100  0.62645400  1
  Li  Li8  1  0.00000000  0.50000000  0.00000000  1
  Co  Co9  1  0.37779200  0.38007700  0.75938800  1
  Co  Co10  1  0.62220800  0.61992300  0.24061200  1
  Co  Co11  1  0.87516700  0.87611100  0.74696800  1
  Co  Co12  1  0.50000000  0.00000000  0.00000000  1
  Co  Co13  1  0.12483300  0.12388900  0.25303200  1
  Co  Co14  1  0.25392600  0.74838800  0.49724700  1
  Co  Co15  1  0.74607400  0.25161200  0.50275300  1
  O  O16  1  0.93872700  0.51848300  0.80735700  1
  O  O17  1  0.39797200  0.02084100  0.81239900  1
  O  O18  1  0.54347100  0.65670700  0.08288900  1
  O  O19  1  0.03415700  0.14834800  0.06495200  1
  O  O20  1  0.19863200  0.77103000  0.31672300  1
  O  O21  1  0.65003400  0.27483100  0.31916000  1
  O  O22  1  0.78486800  0.89911000  0.56571600  1
  O  O23  1  0.27614100  0.39703600  0.57336600  1
  O  O24  1  0.96584300  0.85165200  0.93504800  1
  O  O25  1  0.45652900  0.34329300  0.91711100  1
  O  O26  1  0.60202800  0.97915900  0.18760100  1
  O  O27  1  0.06127300  0.48151700  0.19264300  1
  O  O28  1  0.21513200  0.10089000  0.43428400  1
  O  O29  1  0.72385900  0.60296400  0.42663400  1
  O  O30  1  0.80136800  0.22897000  0.68327700  1
  O  O31  1  0.34996600  0.72516900  0.68084000  1
