# generated using pymatgen
data_Li3ReN2
_symmetry_space_group_name_H-M   'P 1'
_cell_length_a   7.58213008
_cell_length_b   7.20069643
_cell_length_c   11.23631461
_cell_angle_alpha   90.00000075
_cell_angle_beta   137.81440730
_cell_angle_gamma   118.34935217
_symmetry_Int_Tables_number   1
_chemical_formula_structural   Li3ReN2
_chemical_formula_sum   'Li12 Re4 N8'
_cell_volume   291.30156613
_cell_formula_units_Z   4
loop_
 _symmetry_equiv_pos_site_id
 _symmetry_equiv_pos_as_xyz
  1  'x, y, z'
loop_
 _atom_site_type_symbol
 _atom_site_label
 _atom_site_symmetry_multiplicity
 _atom_site_fract_x
 _atom_site_fract_y
 _atom_site_fract_z
 _atom_site_occupancy
  Li  Li0  1  0.00000000  0.50000000  0.36798912  1
  Li  Li1  1  -0.00000000  -0.00000000  0.88201088  1
  Li  Li2  1  -0.00000000  0.50000000  0.13201088  1
  Li  Li3  1  0.00000000  0.00000000  0.11798912  1
  Li  Li4  1  0.51193550  0.50000000  0.50596775  1
  Li  Li5  1  0.48806450  0.50000000  0.99403225  1
  Li  Li6  1  0.51193550  1.00000000  0.25596775  1
  Li  Li7  1  0.48806450  0.00000000  0.74403225  1
  Li  Li8  1  0.48806450  0.98806450  0.99403225  1
  Li  Li9  1  0.51193550  0.01193550  0.50596775  1
  Li  Li10  1  0.48806450  0.48806450  0.74403225  1
  Li  Li11  1  0.51193550  0.51193550  0.25596775  1
  Re  Re12  1  1.00000000  0.50000000  0.63389437  1
  Re  Re13  1  0.00000000  0.00000000  0.61610563  1
  Re  Re14  1  0.00000000  0.50000000  0.86610563  1
  Re  Re15  1  1.00000000  1.00000000  0.38389437  1
  N  N16  1  0.54608785  0.27304392  0.33671649  1
  N  N17  1  0.45391215  0.72695608  0.79062964  1
  N  N18  1  0.54608785  0.77304392  0.45937036  1
  N  N19  1  0.45391215  0.22695608  0.91328351  1
  N  N20  1  0.00000000  0.72695608  0.93632743  1
  N  N21  1  1.00000000  0.27304392  0.93632743  1
  N  N22  1  0.00000000  0.22695608  0.31367257  1
  N  N23  1  1.00000000  0.77304392  0.31367257  1
