# generated using pymatgen
data_LiCoPO4
_symmetry_space_group_name_H-M   'P 1'
_cell_length_a   4.97257621
_cell_length_b   7.28377813
_cell_length_c   9.60198100
_cell_angle_alpha   90.00093679
_cell_angle_beta   89.99799416
_cell_angle_gamma   89.94277398
_symmetry_Int_Tables_number   1
_chemical_formula_structural   LiCoPO4
_chemical_formula_sum   'Li4 Co4 P4 O16'
_cell_volume   347.77533818
_cell_formula_units_Z   4
loop_
 _symmetry_equiv_pos_site_id
 _symmetry_equiv_pos_as_xyz
  1  'x, y, z'
loop_
 _atom_site_type_symbol
 _atom_site_label
 _atom_site_symmetry_multiplicity
 _atom_site_fract_x
 _atom_site_fract_y
 _atom_site_fract_z
 _atom_site_occupancy
  Li  Li0  1  0.10497700  0.23349800  0.43519500  1
  Li  Li1  1  0.89504000  0.76650400  0.93522200  1
  Li  Li2  1  0.60308300  0.26573500  0.65434500  1
  Li  Li3  1  0.39691400  0.73427800  0.15434100  1
  Co  Co4  1  0.70829400  0.91575600  0.52331800  1
  Co  Co5  1  0.79278700  0.41641100  0.07254500  1
  Co  Co6  1  0.29168100  0.08423000  0.02331000  1
  Co  Co7  1  0.20720800  0.58356100  0.57255000  1
  P  P8  1  0.86460000  0.00460200  0.19799200  1
  P  P9  1  0.13539700  0.99541600  0.69798600  1
  P  P10  1  0.36312300  0.49381600  0.89665000  1
  P  P11  1  0.63688600  0.50614800  0.39665100  1
  O  O12  1  0.90132400  0.01299200  0.35772300  1
  O  O13  1  0.09862300  0.98702100  0.85770600  1
  O  O14  1  0.56539300  0.98341200  0.15810600  1
  O  O15  1  0.43461000  0.01659900  0.65811000  1
  O  O16  1  0.96390600  0.14737300  0.62839000  1
  O  O17  1  0.03610600  0.85265300  0.12840400  1
  O  O18  1  0.98492600  0.19119300  0.13951100  1
  O  O19  1  0.01508400  0.80881800  0.63948000  1
  O  O20  1  0.48433900  0.30974800  0.95891400  1
  O  O21  1  0.51566700  0.69023400  0.45891400  1
  O  O22  1  0.60227100  0.51973700  0.23689000  1
  O  O23  1  0.39770600  0.48026500  0.73691900  1
  O  O24  1  0.06393000  0.51613700  0.93663800  1
  O  O25  1  0.93607800  0.48386400  0.43658900  1
  O  O26  1  0.46610300  0.35147100  0.46270400  1
  O  O27  1  0.53394100  0.64852700  0.96273300  1
