# generated using pymatgen
data_Li7Mn5O12
_symmetry_space_group_name_H-M   'P 1'
_cell_length_a   2.99566612
_cell_length_b   2.99566612
_cell_length_c   29.53008100
_cell_angle_alpha   90.00000000
_cell_angle_beta   90.00000000
_cell_angle_gamma   120.00000273
_symmetry_Int_Tables_number   1
_chemical_formula_structural   Li7Mn5O12
_chemical_formula_sum   'Li7 Mn5 O12'
_cell_volume   229.49967479
_cell_formula_units_Z   1
loop_
 _symmetry_equiv_pos_site_id
 _symmetry_equiv_pos_as_xyz
  1  'x, y, z'
loop_
 _atom_site_type_symbol
 _atom_site_label
 _atom_site_symmetry_multiplicity
 _atom_site_fract_x
 _atom_site_fract_y
 _atom_site_fract_z
 _atom_site_occupancy
  Li  Li0  1  0.66666700  0.33333300  0.07514700  1
  Li  Li1  1  0.00000000  0.00000000  0.25033600  1
  Li  Li2  1  0.33333300  0.66666700  0.41657300  1
  Li  Li3  1  0.66666700  0.33333300  0.58342700  1
  Li  Li4  1  0.00000000  0.00000000  0.74966400  1
  Li  Li5  1  0.33333300  0.66666700  0.92485300  1
  Li  Li6  1  0.00000000  0.00000000  0.00000000  1
  Mn  Mn7  1  0.66666700  0.33333300  0.83317300  1
  Mn  Mn8  1  0.33333300  0.66666700  0.16682700  1
  Mn  Mn9  1  0.66666700  0.33333300  0.33331700  1
  Mn  Mn10  1  0.00000000  0.00000000  0.50000000  1
  Mn  Mn11  1  0.33333300  0.66666700  0.66668300  1
  O  O12  1  0.66666700  0.33333300  0.20482000  1
  O  O13  1  0.00000000  0.00000000  0.37122200  1
  O  O14  1  0.33333300  0.66666700  0.53775400  1
  O  O15  1  0.66666700  0.33333300  0.70468100  1
  O  O16  1  0.00000000  0.00000000  0.86678800  1
  O  O17  1  0.33333300  0.66666700  0.04292800  1
  O  O18  1  0.66666700  0.33333300  0.95707200  1
  O  O19  1  0.00000000  0.00000000  0.13321200  1
  O  O20  1  0.33333300  0.66666700  0.29531900  1
  O  O21  1  0.66666700  0.33333300  0.46224600  1
  O  O22  1  0.00000000  0.00000000  0.62877800  1
  O  O23  1  0.33333300  0.66666700  0.79518000  1
