# generated using pymatgen
data_Li4V3P8O29
_symmetry_space_group_name_H-M   'P 1'
_cell_length_a   9.80402367
_cell_length_b   9.80402367
_cell_length_c   14.26726451
_cell_angle_alpha   89.91169898
_cell_angle_beta   89.91169898
_cell_angle_gamma   59.63534022
_symmetry_Int_Tables_number   1
_chemical_formula_structural   Li4V3P8O29
_chemical_formula_sum   'Li8 V6 P16 O58'
_cell_volume   1183.23706697
_cell_formula_units_Z   2
loop_
 _symmetry_equiv_pos_site_id
 _symmetry_equiv_pos_as_xyz
  1  'x, y, z'
loop_
 _atom_site_type_symbol
 _atom_site_label
 _atom_site_symmetry_multiplicity
 _atom_site_fract_x
 _atom_site_fract_y
 _atom_site_fract_z
 _atom_site_occupancy
  Li  Li0  1  0.67018600  0.23508700  0.05606800  1
  Li  Li1  1  0.23508700  0.67018600  0.55606800  1
  Li  Li2  1  0.23489000  0.10000700  0.05633000  1
  Li  Li3  1  0.10000700  0.23489000  0.55633000  1
  Li  Li4  1  0.76580900  0.32493700  0.44178600  1
  Li  Li5  1  0.32493700  0.76580900  0.94178600  1
  Li  Li6  1  0.96308800  0.98127800  0.99734300  1
  Li  Li7  1  0.98127800  0.96308800  0.49734300  1
  V  V8  1  0.99932300  0.56712900  0.24464000  1
  V  V9  1  0.99903300  0.44040300  0.75810900  1
  V  V10  1  0.56712900  0.99932300  0.74464000  1
  V  V11  1  0.44040300  0.99903300  0.25810900  1
  V  V12  1  0.56405300  0.43455500  0.24661000  1
  V  V13  1  0.43455500  0.56405300  0.74661000  1
  P  P14  1  0.68851700  0.22087800  0.83875100  1
  P  P15  1  0.69672500  0.08394400  0.34540300  1
  P  P16  1  0.22087800  0.68851700  0.33875100  1
  P  P17  1  0.33376700  0.32734400  0.13299400  1
  P  P18  1  0.32734400  0.33376700  0.63299400  1
  P  P19  1  0.08394400  0.69672500  0.84540300  1
  P  P20  1  0.91806300  0.77675200  0.66138300  1
  P  P21  1  0.23018400  0.08531000  0.84122000  1
  P  P22  1  0.77675200  0.91806300  0.16138300  1
  P  P23  1  0.08531000  0.23018400  0.34122000  1
  P  P24  1  0.91735200  0.30527100  0.15880500  1
  P  P25  1  0.67382100  0.65969400  0.36630000  1
  P  P26  1  0.65969400  0.67382100  0.86630000  1
  P  P27  1  0.78063800  0.31394000  0.66081800  1
  P  P28  1  0.30527100  0.91735200  0.65880500  1
  P  P29  1  0.31394000  0.78063800  0.16081800  1
  O  O30  1  0.79271900  0.23246700  0.57004800  1
  O  O31  1  0.65595600  0.25894300  0.33620100  1
  O  O32  1  0.78830000  0.00652300  0.07930600  1
  O  O33  1  0.65765000  0.08135300  0.82464800  1
  O  O34  1  0.53466900  0.37902300  0.82751900  1
  O  O35  1  0.48778500  0.32467600  0.16665500  1
  O  O36  1  0.37902300  0.53466900  0.32751900  1
  O  O37  1  0.23246700  0.79271900  0.07004800  1
  O  O38  1  0.25894300  0.65595600  0.83620100  1
  O  O39  1  0.47710500  0.18833000  0.67690400  1
  O  O40  1  0.54070300  0.07884700  0.33265900  1
  O  O41  1  0.32467600  0.48778500  0.66665500  1
  O  O42  1  0.32672500  0.31697700  0.02903500  1
  O  O43  1  0.31697700  0.32672500  0.52903500  1
  O  O44  1  0.18833000  0.47710500  0.17690400  1
  O  O45  1  0.38562100  0.08456200  0.82546000  1
  O  O46  1  0.33182500  0.18295100  0.18073100  1
  O  O47  1  0.08135300  0.65765000  0.32464800  1
  O  O48  1  0.99703600  0.80082800  0.75400200  1
  O  O49  1  0.00652300  0.78830000  0.57930600  1
  O  O50  1  0.00814300  0.79040400  0.93048200  1
  O  O51  1  0.07884700  0.54070300  0.83265900  1
  O  O52  1  0.18295100  0.33182500  0.68073100  1
  O  O53  1  0.91144000  0.74332200  0.16313800  1
  O  O54  1  0.08456200  0.38562100  0.32546000  1
  O  O55  1  0.25782300  0.08857000  0.33468600  1
  O  O56  1  0.80082800  0.99703600  0.25400200  1
  O  O57  1  0.79040400  0.00814300  0.43048200  1
  O  O58  1  0.20074700  0.01179500  0.57957500  1
  O  O59  1  0.74332200  0.91144000  0.66313800  1
  O  O60  1  0.92655700  0.61582100  0.67371500  1
  O  O61  1  0.08857000  0.25782200  0.83468600  1
  O  O62  1  0.81559700  0.66234400  0.31614100  1
  O  O63  1  0.92115200  0.46051400  0.16899600  1
  O  O64  1  0.01179500  0.20074700  0.07957500  1
  O  O65  1  0.00638100  0.22748700  0.43131100  1
  O  O66  1  0.98979600  0.20933600  0.25683100  1
  O  O67  1  0.91959500  0.34717400  0.66819900  1
  O  O68  1  0.66234400  0.81559700  0.81614100  1
  O  O69  1  0.61582100  0.92655700  0.17371500  1
  O  O70  1  0.81131900  0.52473100  0.82129000  1
  O  O71  1  0.66510000  0.67652300  0.97013600  1
  O  O72  1  0.67652300  0.66510000  0.47013600  1
  O  O73  1  0.67439500  0.51056900  0.32849500  1
  O  O74  1  0.46051400  0.92115200  0.66899600  1
  O  O75  1  0.52473100  0.81131900  0.32129000  1
  O  O76  1  0.74472400  0.33908200  0.15780100  1
  O  O77  1  0.80090800  0.20455200  0.75015400  1
  O  O78  1  0.77386800  0.20010900  0.92921800  1
  O  O79  1  0.62026700  0.47006300  0.67409400  1
  O  O80  1  0.51056900  0.67439500  0.82849500  1
  O  O81  1  0.47006300  0.62026700  0.17409400  1
  O  O82  1  0.34717400  0.91959500  0.16819900  1
  O  O83  1  0.22748700  0.00638100  0.93131100  1
  O  O84  1  0.20933600  0.98979600  0.75683100  1
  O  O85  1  0.33908200  0.74472400  0.65780100  1
  O  O86  1  0.20010900  0.77386800  0.42921800  1
  O  O87  1  0.20455200  0.80090800  0.25015400  1
