# generated using pymatgen
data_Li4MnCo2O7
_symmetry_space_group_name_H-M   'P 1'
_cell_length_a   3.02143700
_cell_length_b   9.74026187
_cell_length_c   9.82088260
_cell_angle_alpha   116.45276796
_cell_angle_beta   93.96948321
_cell_angle_gamma   96.23680483
_symmetry_Int_Tables_number   1
_chemical_formula_structural   Li4MnCo2O7
_chemical_formula_sum   'Li8 Mn2 Co4 O14'
_cell_volume   254.97647849
_cell_formula_units_Z   2
loop_
 _symmetry_equiv_pos_site_id
 _symmetry_equiv_pos_as_xyz
  1  'x, y, z'
loop_
 _atom_site_type_symbol
 _atom_site_label
 _atom_site_symmetry_multiplicity
 _atom_site_fract_x
 _atom_site_fract_y
 _atom_site_fract_z
 _atom_site_occupancy
  Li  Li0  1  0.92513500  0.85254300  0.21565200  1
  Li  Li1  1  0.22098200  0.43128400  0.35874200  1
  Li  Li2  1  0.50342300  0.99774900  0.49761000  1
  Li  Li3  1  0.78475500  0.57009900  0.64272100  1
  Li  Li4  1  0.07239500  0.14778400  0.78751400  1
  Li  Li5  1  0.34790100  0.70793400  0.92555600  1
  Li  Li6  1  0.64564200  0.29358300  0.07148600  1
  Li  Li7  1  0.28551000  0.57157600  0.14181500  1
  Mn  Mn8  1  0.99873500  0.00056200  0.00274000  1
  Mn  Mn9  1  0.42993000  0.85505600  0.71009400  1
  Co  Co10  1  0.56702900  0.14512000  0.28873400  1
  Co  Co11  1  0.86122100  0.70768400  0.41396200  1
  Co  Co12  1  0.14516900  0.28797900  0.57284600  1
  Co  Co13  1  0.71680400  0.43263000  0.86843400  1
  O  O14  1  0.44401200  0.94122500  0.11461700  1
  O  O15  1  0.75545900  0.51874400  0.26775500  1
  O  O16  1  0.00143300  0.08473000  0.39722200  1
  O  O17  1  0.30200600  0.65262100  0.53495500  1
  O  O18  1  0.62896400  0.23299000  0.68869300  1
  O  O19  1  0.86962600  0.79516500  0.82367800  1
  O  O20  1  0.16289500  0.36406600  0.95705900  1
  O  O21  1  0.41385000  0.77852200  0.32814400  1
  O  O22  1  0.64964900  0.34390000  0.46340400  1
  O  O23  1  0.98131400  0.91012800  0.59475300  1
  O  O24  1  0.27264000  0.48709600  0.74763300  1
  O  O25  1  0.56113000  0.06085500  0.88861000  1
  O  O26  1  0.81435000  0.62268200  0.01537900  1
  O  O27  1  0.13804100  0.20569600  0.18019400  1
