# generated using pymatgen
data_LiSnN
_symmetry_space_group_name_H-M   'P 1'
_cell_length_a   3.27673258
_cell_length_b   3.27674259
_cell_length_c   10.04568913
_cell_angle_alpha   90.00000000
_cell_angle_beta   90.00000000
_cell_angle_gamma   119.99990909
_symmetry_Int_Tables_number   1
_chemical_formula_structural   LiSnN
_chemical_formula_sum   'Li2 Sn2 N2'
_cell_volume   93.41015413
_cell_formula_units_Z   2
loop_
 _symmetry_equiv_pos_site_id
 _symmetry_equiv_pos_as_xyz
  1  'x, y, z'
loop_
 _atom_site_type_symbol
 _atom_site_label
 _atom_site_symmetry_multiplicity
 _atom_site_fract_x
 _atom_site_fract_y
 _atom_site_fract_z
 _atom_site_occupancy
  Li  Li0  1  0.66667577  0.33335253  0.72995117  1
  Li  Li1  1  0.33332423  0.66664747  0.22995117  1
  Sn  Sn2  1  0.99999637  0.99999174  0.49888458  1
  Sn  Sn3  1  0.00000363  0.00000826  0.99888458  1
  N  N4  1  0.33333010  0.66665920  0.61580425  1
  N  N5  1  0.66666990  0.33334080  0.11580425  1
