# generated using pymatgen
data_Li9Mn2Co5O16
_symmetry_space_group_name_H-M   'P 1'
_cell_length_a   5.90181400
_cell_length_b   5.92757843
_cell_length_c   8.19516848
_cell_angle_alpha   90.66542982
_cell_angle_beta   90.44893699
_cell_angle_gamma   93.19531100
_symmetry_Int_Tables_number   1
_chemical_formula_structural   Li9Mn2Co5O16
_chemical_formula_sum   'Li9 Mn2 Co5 O16'
_cell_volume   286.22003925
_cell_formula_units_Z   1
loop_
 _symmetry_equiv_pos_site_id
 _symmetry_equiv_pos_as_xyz
  1  'x, y, z'
loop_
 _atom_site_type_symbol
 _atom_site_label
 _atom_site_symmetry_multiplicity
 _atom_site_fract_x
 _atom_site_fract_y
 _atom_site_fract_z
 _atom_site_occupancy
  Li  Li0  1  0.00019200  0.50033300  0.99738700  1
  Li  Li1  1  0.24456400  0.74465500  0.26401700  1
  Li  Li2  1  0.24377500  0.26027600  0.74219300  1
  Li  Li3  1  0.50161800  0.50257500  0.99791900  1
  Li  Li4  1  0.50054100  0.99952700  0.50317700  1
  Li  Li5  1  0.75688000  0.25509900  0.73719000  1
  Li  Li6  1  0.75510200  0.74177500  0.25603200  1
  Li  Li7  1  0.99843000  0.99763200  0.50183800  1
  Li  Li8  1  0.00171600  0.49984800  0.50212500  1
  Mn  Mn9  1  0.99709300  0.99895300  0.00052600  1
  Mn  Mn10  1  0.24590300  0.25677800  0.25108300  1
  Co  Co11  1  0.50565300  0.50650400  0.49980800  1
  Co  Co12  1  0.75440400  0.73865100  0.74773600  1
  Co  Co13  1  0.49829600  0.99977000  0.99880900  1
  Co  Co14  1  0.75099700  0.25216500  0.25430000  1
  Co  Co15  1  0.24705900  0.74698800  0.74598800  1
  O  O16  1  0.76295700  0.76176700  0.00358000  1
  O  O17  1  0.01917400  0.00244500  0.23802200  1
  O  O18  1  0.01060500  0.52284600  0.75133600  1
  O  O19  1  0.23799600  0.78514000  0.98727500  1
  O  O20  1  0.26303600  0.25689400  0.48258000  1
  O  O21  1  0.52141900  0.49907100  0.75118300  1
  O  O22  1  0.48913700  0.03467000  0.23299900  1
  O  O23  1  0.74041800  0.25651000  0.47847200  1
  O  O24  1  0.23399000  0.24109100  0.00982000  1
  O  O25  1  0.47783100  0.49543700  0.24596400  1
  O  O26  1  0.49562600  0.97731300  0.76801100  1
  O  O27  1  0.75907400  0.21665000  0.01502400  1
  O  O28  1  0.73861000  0.74123800  0.50136800  1
  O  O29  1  0.97964600  0.00118800  0.76548300  1
  O  O30  1  0.00689400  0.46367800  0.24867400  1
  O  O31  1  0.26136400  0.74253500  0.52008000  1
