# generated using pymatgen
data_Li10Ni4O9
_symmetry_space_group_name_H-M   'P 1'
_cell_length_a   9.81298000
_cell_length_b   9.81298000
_cell_length_c   4.68061400
_cell_angle_alpha   90.00000000
_cell_angle_beta   90.00000000
_cell_angle_gamma   90.00000000
_symmetry_Int_Tables_number   1
_chemical_formula_structural   Li10Ni4O9
_chemical_formula_sum   'Li20 Ni8 O18'
_cell_volume   450.71774280
_cell_formula_units_Z   2
loop_
 _symmetry_equiv_pos_site_id
 _symmetry_equiv_pos_as_xyz
  1  'x, y, z'
loop_
 _atom_site_type_symbol
 _atom_site_label
 _atom_site_symmetry_multiplicity
 _atom_site_fract_x
 _atom_site_fract_y
 _atom_site_fract_z
 _atom_site_occupancy
  Li  Li0  1  0.50000000  0.00000000  0.84463900  1
  Li  Li1  1  0.00000000  0.50000000  0.65536100  1
  Li  Li2  1  0.00000000  0.50000000  0.15536100  1
  Li  Li3  1  0.50000000  0.00000000  0.34463900  1
  Li  Li4  1  0.68726300  0.14419400  0.79409600  1
  Li  Li5  1  0.31273700  0.85580600  0.79409600  1
  Li  Li6  1  0.81273700  0.64419400  0.70590400  1
  Li  Li7  1  0.18726300  0.35580600  0.70590400  1
  Li  Li8  1  0.85580600  0.31273700  0.20590400  1
  Li  Li9  1  0.14419400  0.68726300  0.20590400  1
  Li  Li10  1  0.35580600  0.18726300  0.29409600  1
  Li  Li11  1  0.64419400  0.81273700  0.29409600  1
  Li  Li12  1  0.81273700  0.35580600  0.70590400  1
  Li  Li13  1  0.18726300  0.64419400  0.70590400  1
  Li  Li14  1  0.68726300  0.85580600  0.79409600  1
  Li  Li15  1  0.31273700  0.14419400  0.79409600  1
  Li  Li16  1  0.64419400  0.18726300  0.29409600  1
  Li  Li17  1  0.35580600  0.81273700  0.29409600  1
  Li  Li18  1  0.14419400  0.31273700  0.20590400  1
  Li  Li19  1  0.85580600  0.68726300  0.20590400  1
  Ni  Ni20  1  0.50000000  0.33904600  0.77382800  1
  Ni  Ni21  1  0.50000000  0.66095400  0.77382800  1
  Ni  Ni22  1  0.00000000  0.83904600  0.72617200  1
  Ni  Ni23  1  0.00000000  0.16095400  0.72617200  1
  Ni  Ni24  1  0.66095400  0.50000000  0.22617200  1
  Ni  Ni25  1  0.33904600  0.50000000  0.22617200  1
  Ni  Ni26  1  0.16095400  0.00000000  0.27382800  1
  Ni  Ni27  1  0.83904600  0.00000000  0.27382800  1
  O  O28  1  0.67373100  0.32626900  0.00000000  1
  O  O29  1  0.32626900  0.67373100  0.00000000  1
  O  O30  1  0.82626900  0.82626900  0.50000000  1
  O  O31  1  0.17373100  0.17373100  0.50000000  1
  O  O32  1  0.82626900  0.17373100  0.50000000  1
  O  O33  1  0.17373100  0.82626900  0.50000000  1
  O  O34  1  0.67373100  0.67373100  0.00000000  1
  O  O35  1  0.32626900  0.32626900  0.00000000  1
  O  O36  1  0.00000000  0.00000000  0.00000000  1
  O  O37  1  0.50000000  0.50000000  0.50000000  1
  O  O38  1  0.00000000  0.34203300  0.91758500  1
  O  O39  1  0.00000000  0.65796700  0.91758500  1
  O  O40  1  0.50000000  0.84203300  0.58241500  1
  O  O41  1  0.50000000  0.15796700  0.58241500  1
  O  O42  1  0.65796700  0.00000000  0.08241500  1
  O  O43  1  0.34203300  0.00000000  0.08241500  1
  O  O44  1  0.15796700  0.50000000  0.41758500  1
  O  O45  1  0.84203300  0.50000000  0.41758500  1
