# generated using pymatgen
data_Li9Mn2Co5O16
_symmetry_space_group_name_H-M   'P 1'
_cell_length_a   5.87381164
_cell_length_b   5.87381164
_cell_length_c   9.85267569
_cell_angle_alpha   81.62034873
_cell_angle_beta   81.62034873
_cell_angle_gamma   59.59072794
_symmetry_Int_Tables_number   1
_chemical_formula_structural   Li9Mn2Co5O16
_chemical_formula_sum   'Li9 Mn2 Co5 O16'
_cell_volume   289.00623342
_cell_formula_units_Z   1
loop_
 _symmetry_equiv_pos_site_id
 _symmetry_equiv_pos_as_xyz
  1  'x, y, z'
loop_
 _atom_site_type_symbol
 _atom_site_label
 _atom_site_symmetry_multiplicity
 _atom_site_fract_x
 _atom_site_fract_y
 _atom_site_fract_z
 _atom_site_occupancy
  Li  Li0  1  0.37409900  0.86464300  0.75871800  1
  Li  Li1  1  0.62681600  0.13444500  0.24136700  1
  Li  Li2  1  0.86464300  0.37409900  0.75871800  1
  Li  Li3  1  0.87226900  0.87226900  0.76065300  1
  Li  Li4  1  0.12572600  0.12572600  0.24081700  1
  Li  Li5  1  0.37894600  0.37894600  0.76415300  1
  Li  Li6  1  0.62240400  0.62240400  0.23505900  1
  Li  Li7  1  0.13444500  0.62681600  0.24136700  1
  Li  Li8  1  0.49989500  0.49989500  0.00036200  1
  Mn  Mn9  1  0.99990000  0.99990000  0.99992700  1
  Mn  Mn10  1  0.25024200  0.25024200  0.49995400  1
  Co  Co11  1  0.75024000  0.75024000  0.49929500  1
  Co  Co12  1  0.49965200  0.00020100  0.99994900  1
  Co  Co13  1  0.75047300  0.24980500  0.50043900  1
  Co  Co14  1  0.00020100  0.49965200  0.99994900  1
  Co  Co15  1  0.24980500  0.75047300  0.50043900  1
  O  O16  1  0.17020600  0.70250300  0.88604200  1
  O  O17  1  0.43132800  0.95130400  0.38704000  1
  O  O18  1  0.70250300  0.17020600  0.88604200  1
  O  O19  1  0.69524700  0.69524700  0.88875900  1
  O  O20  1  0.94353800  0.94353800  0.38856800  1
  O  O21  1  0.17566700  0.17566700  0.88422000  1
  O  O22  1  0.42658800  0.42658800  0.38601300  1
  O  O23  1  0.95130400  0.43132800  0.38704000  1
  O  O24  1  0.54842200  0.06900800  0.61288900  1
  O  O25  1  0.82815000  0.29907500  0.11352000  1
  O  O26  1  0.06900800  0.54842200  0.61288900  1
  O  O27  1  0.07494600  0.07494600  0.61176200  1
  O  O28  1  0.30469000  0.30469000  0.10958800  1
  O  O29  1  0.55595900  0.55595900  0.61400600  1
  O  O30  1  0.82361200  0.82361200  0.11693400  1
  O  O31  1  0.29907500  0.82815000  0.11352000  1
