# generated using pymatgen
data_Li2Mn2P3(HO4)3
_symmetry_space_group_name_H-M   'P 1'
_cell_length_a   12.19227300
_cell_length_b   7.24570400
_cell_length_c   12.87373058
_cell_angle_alpha   83.72102188
_cell_angle_beta   90.00000000
_cell_angle_gamma   90.00000000
_symmetry_Int_Tables_number   1
_chemical_formula_structural   Li2Mn2P3(HO4)3
_chemical_formula_sum   'Li8 Mn8 P12 H12 O48'
_cell_volume   1130.46356536
_cell_formula_units_Z   4
loop_
 _symmetry_equiv_pos_site_id
 _symmetry_equiv_pos_as_xyz
  1  'x, y, z'
loop_
 _atom_site_type_symbol
 _atom_site_label
 _atom_site_symmetry_multiplicity
 _atom_site_fract_x
 _atom_site_fract_y
 _atom_site_fract_z
 _atom_site_occupancy
  Li  Li0  1  0.64132400  0.48512900  0.19504000  1
  Li  Li1  1  0.85867600  0.98512900  0.19504000  1
  Li  Li2  1  0.37426900  0.08580000  0.26757300  1
  Li  Li3  1  0.12573100  0.58580000  0.26757300  1
  Li  Li4  1  0.87426900  0.41420000  0.73242700  1
  Li  Li5  1  0.62573100  0.91420000  0.73242700  1
  Li  Li6  1  0.14132400  0.01487100  0.80496000  1
  Li  Li7  1  0.35867600  0.51487100  0.80496000  1
  Mn  Mn8  1  0.41280200  0.16607600  0.03188200  1
  Mn  Mn9  1  0.08719800  0.66607600  0.03188200  1
  Mn  Mn10  1  0.05731300  0.13671300  0.34923200  1
  Mn  Mn11  1  0.44268700  0.63671300  0.34923200  1
  Mn  Mn12  1  0.55731300  0.36328700  0.65076800  1
  Mn  Mn13  1  0.94268700  0.86328700  0.65076800  1
  Mn  Mn14  1  0.91280200  0.33392400  0.96811800  1
  Mn  Mn15  1  0.58719800  0.83392400  0.96811800  1
  P  P16  1  0.18547300  0.99452200  0.15641400  1
  P  P17  1  0.31452700  0.49452200  0.15641400  1
  P  P18  1  0.90956400  0.40962100  0.17937500  1
  P  P19  1  0.59043600  0.90962100  0.17937500  1
  P  P20  1  0.63722400  0.38456600  0.43575500  1
  P  P21  1  0.86277600  0.88456600  0.43575500  1
  P  P22  1  0.13722400  0.11543400  0.56424500  1
  P  P23  1  0.36277600  0.61543400  0.56424500  1
  P  P24  1  0.40956400  0.09037900  0.82062500  1
  P  P25  1  0.09043600  0.59037900  0.82062500  1
  P  P26  1  0.68547300  0.50547800  0.84358600  1
  P  P27  1  0.81452700  0.00547800  0.84358600  1
  H  H28  1  0.15221200  0.27324100  0.08411800  1
  H  H29  1  0.34778800  0.77324100  0.08411800  1
  H  H30  1  0.78561500  0.40983200  0.31506300  1
  H  H31  1  0.71438500  0.90983200  0.31506300  1
  H  H32  1  0.82178300  0.17913700  0.46485400  1
  H  H33  1  0.67821700  0.67913700  0.46485400  1
  H  H34  1  0.32178300  0.32086300  0.53514600  1
  H  H35  1  0.17821700  0.82086300  0.53514600  1
  H  H36  1  0.28561500  0.09016800  0.68493700  1
  H  H37  1  0.21438500  0.59016800  0.68493700  1
  H  H38  1  0.65221200  0.22675900  0.91588200  1
  H  H39  1  0.84778800  0.72675900  0.91588200  1
  O  O40  1  0.12252300  0.14334600  0.07804000  1
  O  O41  1  0.56274800  0.05928400  0.08762000  1
  O  O42  1  0.37747700  0.64334600  0.07804000  1
  O  O43  1  0.88945200  0.22734300  0.12708500  1
  O  O44  1  0.93725200  0.55928400  0.08762000  1
  O  O45  1  0.19894300  0.46680200  0.10988600  1
  O  O46  1  0.38485200  0.31724300  0.16156500  1
  O  O47  1  0.61054800  0.72734300  0.12708500  1
  O  O48  1  0.30105700  0.96680200  0.10988600  1
  O  O49  1  0.11514800  0.81724300  0.16156500  1
  O  O50  1  0.70061100  0.96855300  0.22971000  1
  O  O51  1  0.79938900  0.46855300  0.22971000  1
  O  O52  1  0.19927700  0.06591700  0.26465700  1
  O  O53  1  0.00123200  0.38898000  0.26257800  1
  O  O54  1  0.30072300  0.56591700  0.26465700  1
  O  O55  1  0.49876800  0.88898000  0.26257800  1
  O  O56  1  0.56943500  0.43503600  0.33405000  1
  O  O57  1  0.75697500  0.34118800  0.40573800  1
  O  O58  1  0.93056500  0.93503600  0.33405000  1
  O  O59  1  0.74302500  0.84118800  0.40573800  1
  O  O60  1  0.09086800  0.26500800  0.48384800  1
  O  O61  1  0.86533700  0.06605400  0.49792400  1
  O  O62  1  0.40913200  0.76500800  0.48384800  1
  O  O63  1  0.63466300  0.56605400  0.49792400  1
  O  O64  1  0.36533700  0.43394600  0.50207600  1
  O  O65  1  0.59086800  0.23499200  0.51615200  1
  O  O66  1  0.13466300  0.93394600  0.50207600  1
  O  O67  1  0.90913200  0.73499200  0.51615200  1
  O  O68  1  0.25697500  0.15881200  0.59426200  1
  O  O69  1  0.06943500  0.06496400  0.66595000  1
  O  O70  1  0.24302500  0.65881200  0.59426200  1
  O  O71  1  0.43056500  0.56496400  0.66595000  1
  O  O72  1  0.50123200  0.11102000  0.73742200  1
  O  O73  1  0.69927700  0.43408300  0.73534300  1
  O  O74  1  0.99876800  0.61102000  0.73742200  1
  O  O75  1  0.80072300  0.93408300  0.73534300  1
  O  O76  1  0.20061100  0.53144700  0.77029000  1
  O  O77  1  0.29938900  0.03144700  0.77029000  1
  O  O78  1  0.88485200  0.18275700  0.83843500  1
  O  O79  1  0.69894300  0.03319800  0.89011400  1
  O  O80  1  0.38945200  0.27265700  0.87291500  1
  O  O81  1  0.61514800  0.68275700  0.83843500  1
  O  O82  1  0.80105700  0.53319800  0.89011400  1
  O  O83  1  0.06274800  0.44071600  0.91238000  1
  O  O84  1  0.11054800  0.77265700  0.87291500  1
  O  O85  1  0.62252300  0.35665400  0.92196000  1
  O  O86  1  0.43725200  0.94071600  0.91238000  1
  O  O87  1  0.87747700  0.85665400  0.92196000  1
