# generated using pymatgen
data_Li2MgAg
_symmetry_space_group_name_H-M   'P 1'
_cell_length_a   11.17092717
_cell_length_b   11.17092717
_cell_length_c   11.17092717
_cell_angle_alpha   120.01799856
_cell_angle_beta   119.78017330
_cell_angle_gamma   90.17500037
_symmetry_Int_Tables_number   1
_chemical_formula_structural   Li2MgAg
_chemical_formula_sum   'Li2 Mg1 Ag1'
_cell_volume   987.21119298
_cell_formula_units_Z   1
loop_
 _symmetry_equiv_pos_site_id
 _symmetry_equiv_pos_as_xyz
  1  'x, y, z'
loop_
 _atom_site_type_symbol
 _atom_site_label
 _atom_site_symmetry_multiplicity
 _atom_site_fract_x
 _atom_site_fract_y
 _atom_site_fract_z
 _atom_site_occupancy
  Li  Li0  1  0.27106500  0.00000000  0.27106500  1
  Li  Li1  1  0.72893500  0.00000000  0.72893500  1
  Mg  Mg2  1  0.00000000  0.00000000  0.00000000  1
  Ag  Ag3  1  0.50000000  0.00000000  0.50000000  1
