# generated using pymatgen
data_LiMn16O32
_symmetry_space_group_name_H-M   'P 1'
_cell_length_a   5.87965200
_cell_length_b   9.90757000
_cell_length_c   9.95857819
_cell_angle_alpha   89.77883839
_cell_angle_beta   90.00000000
_cell_angle_gamma   90.00000000
_symmetry_Int_Tables_number   1
_chemical_formula_structural   LiMn16O32
_chemical_formula_sum   'Li1 Mn16 O32'
_cell_volume   580.11336852
_cell_formula_units_Z   1
loop_
 _symmetry_equiv_pos_site_id
 _symmetry_equiv_pos_as_xyz
  1  'x, y, z'
loop_
 _atom_site_type_symbol
 _atom_site_label
 _atom_site_symmetry_multiplicity
 _atom_site_fract_x
 _atom_site_fract_y
 _atom_site_fract_z
 _atom_site_occupancy
  Li  Li0  1  0.00000000  0.48912200  0.42157700  1
  Mn  Mn1  1  0.74931100  0.16745100  0.34811000  1
  Mn  Mn2  1  0.25068900  0.16745100  0.34811000  1
  Mn  Mn3  1  0.74938300  0.34852700  0.83109300  1
  Mn  Mn4  1  0.25061700  0.34852700  0.83109300  1
  Mn  Mn5  1  0.25093300  0.65051800  0.16298800  1
  Mn  Mn6  1  0.74906700  0.65051800  0.16298800  1
  Mn  Mn7  1  0.25031100  0.83376300  0.64868500  1
  Mn  Mn8  1  0.74968900  0.83376300  0.64868500  1
  Mn  Mn9  1  0.50000000  0.66669100  0.84628600  1
  Mn  Mn10  1  0.00000000  0.66661200  0.84702000  1
  Mn  Mn11  1  0.50000000  0.84737600  0.33218000  1
  Mn  Mn12  1  0.00000000  0.84861700  0.33310000  1
  Mn  Mn13  1  0.50000000  0.15196600  0.66449200  1
  Mn  Mn14  1  0.00000000  0.15150600  0.66454500  1
  Mn  Mn15  1  0.50000000  0.33212300  0.14887800  1
  Mn  Mn16  1  0.00000000  0.33152500  0.14608900  1
  O  O17  1  0.50000000  0.95751900  0.66126400  1
  O  O18  1  0.00000000  0.95737600  0.66104500  1
  O  O19  1  0.50000000  0.66513900  0.03974300  1
  O  O20  1  0.00000000  0.66495200  0.04006200  1
  O  O21  1  0.50000000  0.33486800  0.95424100  1
  O  O22  1  0.00000000  0.33432100  0.95376800  1
  O  O23  1  0.50000000  0.04180700  0.33779800  1
  O  O24  1  0.00000000  0.04253700  0.33798100  1
  O  O25  1  0.24919900  0.45614000  0.16238100  1
  O  O26  1  0.75080100  0.45614000  0.16238100  1
  O  O27  1  0.25011700  0.16963100  0.54173300  1
  O  O28  1  0.74988300  0.16963100  0.54173300  1
  O  O29  1  0.75000300  0.83015000  0.45622500  1
  O  O30  1  0.24999700  0.83015000  0.45622500  1
  O  O31  1  0.75009100  0.54298400  0.83198700  1
  O  O32  1  0.24990900  0.54298400  0.83198700  1
  O  O33  1  0.75033100  0.79570400  0.84098000  1
  O  O34  1  0.24966900  0.79570400  0.84098000  1
  O  O35  1  0.24889200  0.84237800  0.20360500  1
  O  O36  1  0.75110800  0.84237800  0.20360500  1
  O  O37  1  0.24974600  0.20316800  0.15491000  1
  O  O38  1  0.75025400  0.20316800  0.15491000  1
  O  O39  1  0.75009600  0.15604300  0.79299400  1
  O  O40  1  0.24990400  0.15604300  0.79299400  1
  O  O41  1  0.50000000  0.29857700  0.34086700  1
  O  O42  1  0.00000000  0.30385000  0.34211500  1
  O  O43  1  0.50000000  0.34517700  0.70211100  1
  O  O44  1  0.00000000  0.34566600  0.70055300  1
  O  O45  1  0.50000000  0.70428500  0.65363200  1
  O  O46  1  0.00000000  0.70296400  0.65294100  1
  O  O47  1  0.50000000  0.65073700  0.29129100  1
  O  O48  1  0.00000000  0.64772300  0.29535100  1
