# generated using pymatgen
data_Li2VFeP2(HO5)2
_symmetry_space_group_name_H-M   'P 1'
_cell_length_a   5.17451500
_cell_length_b   7.39295123
_cell_length_c   10.68446233
_cell_angle_alpha   104.53188197
_cell_angle_beta   96.91030901
_cell_angle_gamma   108.70699407
_symmetry_Int_Tables_number   1
_chemical_formula_structural   Li2VFeP2(HO5)2
_chemical_formula_sum   'Li4 V2 Fe2 P4 H4 O20'
_cell_volume   365.65813677
_cell_formula_units_Z   2
loop_
 _symmetry_equiv_pos_site_id
 _symmetry_equiv_pos_as_xyz
  1  'x, y, z'
loop_
 _atom_site_type_symbol
 _atom_site_label
 _atom_site_symmetry_multiplicity
 _atom_site_fract_x
 _atom_site_fract_y
 _atom_site_fract_z
 _atom_site_occupancy
  Li  Li0  1  0.54779300  0.62484400  0.80121800  1
  Li  Li1  1  0.95221000  0.87487400  0.69805900  1
  Li  Li2  1  0.04779000  0.12512600  0.30194100  1
  Li  Li3  1  0.45220700  0.37515600  0.19878200  1
  V  V4  1  0.00000000  0.00000000  0.00000000  1
  V  V5  1  0.50000000  0.00000000  0.50000000  1
  Fe  Fe6  1  0.00000000  0.50000000  0.00000000  1
  Fe  Fe7  1  0.50000000  0.50000000  0.50000000  1
  P  P8  1  0.49675400  0.05152900  0.81950200  1
  P  P9  1  0.00598900  0.45000300  0.68056500  1
  P  P10  1  0.99401100  0.54999700  0.31943500  1
  P  P11  1  0.50324600  0.94847100  0.18049800  1
  H  H12  1  0.32782600  0.31126900  0.96813400  1
  H  H13  1  0.16798700  0.19139500  0.52944800  1
  H  H14  1  0.83201300  0.80860500  0.47055200  1
  H  H15  1  0.67217400  0.68873100  0.03186600  1
  O  O16  1  0.81195400  0.69895100  0.97547200  1
  O  O17  1  0.62713800  0.27794200  0.89782100  1
  O  O18  1  0.13543700  0.48983200  0.82831300  1
  O  O19  1  0.24656800  0.94514600  0.87364500  1
  O  O20  1  0.71747100  0.94915300  0.83019500  1
  O  O21  1  0.78563800  0.55159700  0.67018500  1
  O  O22  1  0.25741900  0.55462200  0.62471000  1
  O  O23  1  0.36762300  0.01397800  0.67222400  1
  O  O24  1  0.87880000  0.22377800  0.60363800  1
  O  O25  1  0.31461600  0.20129300  0.47662300  1
  O  O26  1  0.68538400  0.79870700  0.52337700  1
  O  O27  1  0.12120000  0.77622200  0.39636200  1
  O  O28  1  0.63237700  0.98602200  0.32777600  1
  O  O29  1  0.74258100  0.44537800  0.37529000  1
  O  O30  1  0.21436200  0.44840300  0.32981500  1
  O  O31  1  0.28252900  0.05084700  0.16980500  1
  O  O32  1  0.75343200  0.05485400  0.12635500  1
  O  O33  1  0.86456300  0.51016800  0.17168700  1
  O  O34  1  0.37286200  0.72205800  0.10217900  1
  O  O35  1  0.18804600  0.30104900  0.02452800  1
