# generated using pymatgen
data_Li9Mn7O16
_symmetry_space_group_name_H-M   'P 1'
_cell_length_a   5.35063500
_cell_length_b   6.52143285
_cell_length_c   8.68854593
_cell_angle_alpha   97.32706153
_cell_angle_beta   93.73327330
_cell_angle_gamma   95.01678935
_symmetry_Int_Tables_number   1
_chemical_formula_structural   Li9Mn7O16
_chemical_formula_sum   'Li9 Mn7 O16'
_cell_volume   298.65516742
_cell_formula_units_Z   1
loop_
 _symmetry_equiv_pos_site_id
 _symmetry_equiv_pos_as_xyz
  1  'x, y, z'
loop_
 _atom_site_type_symbol
 _atom_site_label
 _atom_site_symmetry_multiplicity
 _atom_site_fract_x
 _atom_site_fract_y
 _atom_site_fract_z
 _atom_site_occupancy
  Li  Li0  1  0.74534800  0.20029000  0.81917900  1
  Li  Li1  1  0.24978500  0.56041600  0.43464200  1
  Li  Li2  1  0.75737300  0.93986600  0.06584200  1
  Li  Li3  1  0.24262700  0.06013400  0.93415800  1
  Li  Li4  1  0.75021500  0.43958400  0.56535800  1
  Li  Li5  1  0.25465200  0.79971000  0.18082100  1
  Li  Li6  1  0.24652000  0.30891200  0.68838400  1
  Li  Li7  1  0.75348000  0.69108800  0.31161600  1
  Li  Li8  1  0.50000000  0.50000000  0.00000000  1
  Mn  Mn9  1  0.00003800  0.62359300  0.87617100  1
  Mn  Mn10  1  0.99996200  0.37640700  0.12382900  1
  Mn  Mn11  1  0.50000000  0.00000000  0.50000000  1
  Mn  Mn12  1  0.50029400  0.74778300  0.75359700  1
  Mn  Mn13  1  0.00055900  0.12585800  0.37455400  1
  Mn  Mn14  1  0.99944100  0.87414200  0.62544600  1
  Mn  Mn15  1  0.49970600  0.25221700  0.24640300  1
  O  O16  1  0.10294300  0.35530700  0.91322600  1
  O  O17  1  0.60467600  0.72886200  0.53633900  1
  O  O18  1  0.10814600  0.10691600  0.16087900  1
  O  O19  1  0.65911900  0.23712000  0.05096100  1
  O  O20  1  0.10930900  0.60226100  0.66422700  1
  O  O21  1  0.60369700  0.97469700  0.28462600  1
  O  O22  1  0.65960900  0.49928700  0.79142600  1
  O  O23  1  0.10363400  0.85387200  0.41240400  1
  O  O24  1  0.39630300  0.02530300  0.71537400  1
  O  O25  1  0.89069100  0.39773900  0.33577300  1
  O  O26  1  0.34088100  0.76288000  0.94903900  1
  O  O27  1  0.89185400  0.89308400  0.83912100  1
  O  O28  1  0.39532400  0.27113800  0.46366100  1
  O  O29  1  0.89705700  0.64469300  0.08677400  1
  O  O30  1  0.89636600  0.14612800  0.58759600  1
  O  O31  1  0.34039100  0.50071300  0.20857400  1
