# generated using pymatgen
data_Li3MnFeCo(PO4)3
_symmetry_space_group_name_H-M   'P 1'
_cell_length_a   10.45616453
_cell_length_b   6.08520828
_cell_length_c   14.28809414
_cell_angle_alpha   90.00000000
_cell_angle_beta   89.91076433
_cell_angle_gamma   90.00000000
_symmetry_Int_Tables_number   1
_chemical_formula_structural   Li3MnFeCo(PO4)3
_chemical_formula_sum   'Li12 Mn4 Fe4 Co4 P12 O48'
_cell_volume   909.12087917
_cell_formula_units_Z   4
loop_
 _symmetry_equiv_pos_site_id
 _symmetry_equiv_pos_as_xyz
  1  'x, y, z'
loop_
 _atom_site_type_symbol
 _atom_site_label
 _atom_site_symmetry_multiplicity
 _atom_site_fract_x
 _atom_site_fract_y
 _atom_site_fract_z
 _atom_site_occupancy
  Li  Li0  1  0.99778971  0.49924726  0.66711716  1
  Li  Li1  1  0.99883207  0.00032645  0.99959690  1
  Li  Li2  1  0.99883207  0.49967355  0.99959690  1
  Li  Li3  1  0.99889660  0.99952327  0.33307987  1
  Li  Li4  1  0.99889660  0.50047673  0.33307987  1
  Li  Li5  1  0.99778971  0.00075274  0.66711716  1
  Li  Li6  1  0.50184514  0.99979303  0.50062456  1
  Li  Li7  1  0.50184514  0.50020697  0.50062456  1
  Li  Li8  1  0.50087838  0.99977175  0.16652886  1
  Li  Li9  1  0.50087838  0.50022825  0.16652886  1
  Li  Li10  1  0.50150058  0.99920913  0.83299714  1
  Li  Li11  1  0.50150058  0.50079087  0.83299714  1
  Mn  Mn12  1  0.21885137  0.75000000  0.49338756  1
  Mn  Mn13  1  0.21863086  0.75000000  0.82662703  1
  Mn  Mn14  1  0.28098954  0.25000000  0.66009553  1
  Mn  Mn15  1  0.28042826  0.25000000  0.32609865  1
  Fe  Fe16  1  0.21877660  0.75000000  0.15929448  1
  Fe  Fe17  1  0.28117286  0.25000000  0.99224675  1
  Fe  Fe18  1  0.71973287  0.75000000  0.00837361  1
  Fe  Fe19  1  0.71977199  0.75000000  0.34141339  1
  Co  Co20  1  0.72395007  0.75000000  0.67447116  1
  Co  Co21  1  0.77709571  0.25000000  0.83995781  1
  Co  Co22  1  0.77970726  0.25000000  0.50581116  1
  Co  Co23  1  0.78194811  0.25000000  0.17268532  1
  P  P24  1  0.09080080  0.25000000  0.80646992  1
  P  P25  1  0.09250623  0.25000000  0.13852886  1
  P  P26  1  0.08966928  0.25000000  0.47208236  1
  P  P27  1  0.40782696  0.75000000  0.30432317  1
  P  P28  1  0.41023648  0.75000000  0.63894867  1
  P  P29  1  0.40744588  0.75000000  0.97371867  1
  P  P30  1  0.59632708  0.25000000  0.36053577  1
  P  P31  1  0.59575856  0.25000000  0.02746526  1
  P  P32  1  0.59700862  0.25000000  0.69383509  1
  P  P33  1  0.90353752  0.75000000  0.86110250  1
  P  P34  1  0.90430771  0.75000000  0.19398375  1
  P  P35  1  0.90331591  0.75000000  0.52826215  1
  O  O36  1  0.04192030  0.75000000  0.23581438  1
  O  O37  1  0.04048533  0.75000000  0.57060158  1
  O  O38  1  0.04078861  0.75000000  0.90304333  1
  O  O39  1  0.09385058  0.25000000  0.57961470  1
  O  O40  1  0.09657912  0.25000000  0.91398406  1
  O  O41  1  0.09466675  0.25000000  0.24593776  1
  O  O42  1  0.16384398  0.04685572  0.09443490  1
  O  O43  1  0.16384398  0.45314428  0.09443490  1
  O  O44  1  0.16026688  0.04798657  0.42724461  1
  O  O45  1  0.16026688  0.45201343  0.42724461  1
  O  O46  1  0.16107698  0.04809756  0.76090636  1
  O  O47  1  0.16107698  0.45190244  0.76090636  1
  O  O48  1  0.33932801  0.54811958  0.59404419  1
  O  O49  1  0.33932801  0.95188042  0.59404419  1
  O  O50  1  0.33703822  0.54818931  0.25948521  1
  O  O51  1  0.33703822  0.95181069  0.25948521  1
  O  O52  1  0.33656481  0.54656834  0.92972517  1
  O  O53  1  0.33656481  0.95343166  0.92972517  1
  O  O54  1  0.40487373  0.75000000  0.41194013  1
  O  O55  1  0.40488704  0.75000000  0.08119602  1
  O  O56  1  0.40525634  0.75000000  0.74648493  1
  O  O57  1  0.45911369  0.25000000  0.40282953  1
  O  O58  1  0.45800927  0.25000000  0.06857117  1
  O  O59  1  0.45967740  0.25000000  0.73630047  1
  O  O60  1  0.54574027  0.75000000  0.26374689  1
  O  O61  1  0.54439027  0.75000000  0.93134103  1
  O  O62  1  0.54824114  0.75000000  0.59848521  1
  O  O63  1  0.59867552  0.25000000  0.25303269  1
  O  O64  1  0.59916455  0.25000000  0.91973589  1
  O  O65  1  0.59892861  0.25000000  0.58631239  1
  O  O66  1  0.66677389  0.04794022  0.07240973  1
  O  O67  1  0.66727493  0.04775402  0.40547261  1
  O  O68  1  0.66752463  0.04620750  0.73825222  1
  O  O69  1  0.66752463  0.45379250  0.73825222  1
  O  O70  1  0.66677389  0.45205978  0.07240973  1
  O  O71  1  0.66727493  0.45224598  0.40547261  1
  O  O72  1  0.83350147  0.54548376  0.90483734  1
  O  O73  1  0.83350147  0.95451624  0.90483734  1
  O  O74  1  0.83380826  0.54570495  0.23828983  1
  O  O75  1  0.83232098  0.54586945  0.57267132  1
  O  O76  1  0.83380826  0.95429505  0.23828983  1
  O  O77  1  0.83232098  0.95413055  0.57267132  1
  O  O78  1  0.90183954  0.75000000  0.75320682  1
  O  O79  1  0.90274901  0.75000000  0.42087554  1
  O  O80  1  0.90316377  0.75000000  0.08636116  1
  O  O81  1  0.95261821  0.25000000  0.76655746  1
  O  O82  1  0.95471919  0.25000000  0.09740451  1
  O  O83  1  0.95173219  0.25000000  0.43147179  1
