# generated using pymatgen
data_Li9Mn2Co5O16
_symmetry_space_group_name_H-M   'P 1'
_cell_length_a   3.02804900
_cell_length_b   7.83804916
_cell_length_c   12.47343121
_cell_angle_alpha   89.67566780
_cell_angle_beta   89.79883051
_cell_angle_gamma   81.42177476
_symmetry_Int_Tables_number   1
_chemical_formula_structural   Li9Mn2Co5O16
_chemical_formula_sum   'Li9 Mn2 Co5 O16'
_cell_volume   292.72681616
_cell_formula_units_Z   1
loop_
 _symmetry_equiv_pos_site_id
 _symmetry_equiv_pos_as_xyz
  1  'x, y, z'
loop_
 _atom_site_type_symbol
 _atom_site_label
 _atom_site_symmetry_multiplicity
 _atom_site_fract_x
 _atom_site_fract_y
 _atom_site_fract_z
 _atom_site_occupancy
  Li  Li0  1  0.18999200  0.62453100  0.06478800  1
  Li  Li1  1  0.93671800  0.12333700  0.31396800  1
  Li  Li2  1  0.68876300  0.62478300  0.56480800  1
  Li  Li3  1  0.81467500  0.37521400  0.93614900  1
  Li  Li4  1  0.56479800  0.87543800  0.18860800  1
  Li  Li5  1  0.31420200  0.36973200  0.44132300  1
  Li  Li6  1  0.43261600  0.13057400  0.80713400  1
  Li  Li7  1  0.06019300  0.87565800  0.68349500  1
  Li  Li8  1  0.87490400  0.24872300  0.62426200  1
  Mn  Mn9  1  0.99383000  0.00118300  0.00016200  1
  Mn  Mn10  1  0.62929900  0.74697400  0.87189800  1
  Co  Co11  1  0.74979000  0.50194000  0.25223800  1
  Co  Co12  1  0.49174600  0.01106300  0.50327500  1
  Co  Co13  1  0.26332400  0.48640500  0.74419400  1
  Co  Co14  1  0.36853000  0.25306600  0.12731100  1
  Co  Co15  1  0.12450300  0.75158200  0.37732100  1
  O  O16  1  0.62891800  0.81381800  0.02315000  1
  O  O17  1  0.32594900  0.32046100  0.27458800  1
  O  O18  1  0.11831500  0.82008600  0.52233200  1
  O  O19  1  0.24667200  0.56339000  0.89225900  1
  O  O20  1  0.95379900  0.06785400  0.15064300  1
  O  O21  1  0.71941900  0.56455300  0.40103200  1
  O  O22  1  0.86714000  0.32625400  0.77737600  1
  O  O23  1  0.47690400  0.05112000  0.64063800  1
  O  O24  1  0.78392600  0.43716500  0.10222900  1
  O  O25  1  0.54143800  0.93428900  0.35650700  1
  O  O26  1  0.27225600  0.44602100  0.60722300  1
  O  O27  1  0.37055800  0.18618800  0.97803500  1
  O  O28  1  0.17428500  0.68474700  0.22844900  1
  O  O29  1  0.88565400  0.17169700  0.47114400  1
  O  O30  1  0.00100800  0.93507700  0.84867400  1
  O  O31  1  0.63587800  0.67707500  0.72478400  1
