# generated using pymatgen
data_Li3Mn5(PO4)6
_symmetry_space_group_name_H-M   'P 1'
_cell_length_a   15.63044250
_cell_length_b   15.63044250
_cell_length_c   11.16644525
_cell_angle_alpha   89.85203318
_cell_angle_beta   89.85203318
_cell_angle_gamma   157.14046290
_symmetry_Int_Tables_number   1
_chemical_formula_structural   Li3Mn5(PO4)6
_chemical_formula_sum   'Li6 Mn10 P12 O48'
_cell_volume   1059.69718990
_cell_formula_units_Z   2
loop_
 _symmetry_equiv_pos_site_id
 _symmetry_equiv_pos_as_xyz
  1  'x, y, z'
loop_
 _atom_site_type_symbol
 _atom_site_label
 _atom_site_symmetry_multiplicity
 _atom_site_fract_x
 _atom_site_fract_y
 _atom_site_fract_z
 _atom_site_occupancy
  Li  Li0  1  0.78704800  0.51843000  0.45108000  1
  Li  Li1  1  0.96148900  0.03851100  0.25000000  1
  Li  Li2  1  0.48157000  0.21295200  0.04892000  1
  Li  Li3  1  0.51843000  0.78704800  0.95108000  1
  Li  Li4  1  0.03851100  0.96148900  0.75000000  1
  Li  Li5  1  0.21295200  0.48157000  0.54892000  1
  Mn  Mn6  1  0.79782700  0.69510500  0.09099400  1
  Mn  Mn7  1  0.00000000  0.50000000  0.00000000  1
  Mn  Mn8  1  0.81039700  0.18960300  0.75000000  1
  Mn  Mn9  1  0.81289200  0.18710800  0.25000000  1
  Mn  Mn10  1  0.69510500  0.79782700  0.59099400  1
  Mn  Mn11  1  0.50000000  0.00000000  0.50000000  1
  Mn  Mn12  1  0.30489500  0.20217300  0.40900600  1
  Mn  Mn13  1  0.18710800  0.81289200  0.75000000  1
  Mn  Mn14  1  0.18960300  0.81039700  0.25000000  1
  Mn  Mn15  1  0.20217300  0.30489500  0.90900600  1
  P  P16  1  0.78854700  0.73767900  0.36653700  1
  P  P17  1  0.99507900  0.28981000  0.00101500  1
  P  P18  1  0.71827000  0.28173000  0.75000000  1
  P  P19  1  0.71953100  0.28046900  0.25000000  1
  P  P20  1  0.71019000  0.00492100  0.49898500  1
  P  P21  1  0.73767900  0.78854700  0.86653700  1
  P  P22  1  0.26232100  0.21145300  0.13346300  1
  P  P23  1  0.28981000  0.99507900  0.50101500  1
  P  P24  1  0.28046900  0.71953100  0.75000000  1
  P  P25  1  0.28173000  0.71827000  0.25000000  1
  P  P26  1  0.00492100  0.71019000  0.99898500  1
  P  P27  1  0.21145300  0.26232100  0.63346300  1
  O  O28  1  0.00406000  0.88978800  0.40539100  1
  O  O29  1  0.78685700  0.76145700  0.22966600  1
  O  O30  1  0.79249500  0.75458700  0.92756400  1
  O  O31  1  0.80003600  0.57945400  0.02326600  1
  O  O32  1  0.89805900  0.52107400  0.99756800  1
  O  O33  1  0.88110300  0.50579600  0.72680500  1
  O  O34  1  0.87795600  0.50312100  0.26793500  1
  O  O35  1  0.61697300  0.50895400  0.39418400  1
  O  O36  1  0.78012500  0.27745400  0.85642000  1
  O  O37  1  0.77791100  0.27396200  0.14296600  1
  O  O38  1  0.87853100  0.15942300  0.11930900  1
  O  O39  1  0.82388200  0.12487800  0.89933300  1
  O  O40  1  0.87512200  0.17611800  0.60066700  1
  O  O41  1  0.84057700  0.12146900  0.38069100  1
  O  O42  1  0.72254600  0.21987500  0.64358000  1
  O  O43  1  0.72603800  0.22208900  0.35703400  1
  O  O44  1  0.49104600  0.38302700  0.10581600  1
  O  O45  1  0.88978800  0.00406000  0.90539100  1
  O  O46  1  0.49420400  0.11889700  0.77319500  1
  O  O47  1  0.49687900  0.12204400  0.23206500  1
  O  O48  1  0.47892600  0.10194100  0.50243200  1
  O  O49  1  0.76145700  0.78685700  0.72966600  1
  O  O50  1  0.42054600  0.19996400  0.47673400  1
  O  O51  1  0.75458700  0.79249500  0.42756400  1
  O  O52  1  0.24541300  0.20750500  0.57243600  1
  O  O53  1  0.57945400  0.80003600  0.52326600  1
  O  O54  1  0.23854300  0.21314300  0.27033400  1
  O  O55  1  0.52107400  0.89805900  0.49756800  1
  O  O56  1  0.50312100  0.87795600  0.76793500  1
  O  O57  1  0.50579600  0.88110300  0.22680500  1
  O  O58  1  0.11021200  0.99594000  0.09460900  1
  O  O59  1  0.50895400  0.61697300  0.89418400  1
  O  O60  1  0.27396200  0.77791100  0.64296600  1
  O  O61  1  0.27745400  0.78012500  0.35642000  1
  O  O62  1  0.15942300  0.87853100  0.61930900  1
  O  O63  1  0.12487800  0.82388200  0.39933300  1
  O  O64  1  0.17611800  0.87512200  0.10066700  1
  O  O65  1  0.12146900  0.84057700  0.88069100  1
  O  O66  1  0.22208900  0.72603800  0.85703400  1
  O  O67  1  0.21987500  0.72254600  0.14358000  1
  O  O68  1  0.38302700  0.49104600  0.60581600  1
  O  O69  1  0.12204400  0.49687900  0.73206500  1
  O  O70  1  0.11889700  0.49420400  0.27319500  1
  O  O71  1  0.10194100  0.47892600  0.00243200  1
  O  O72  1  0.19996400  0.42054600  0.97673400  1
  O  O73  1  0.20750500  0.24541300  0.07243600  1
  O  O74  1  0.21314300  0.23854300  0.77033400  1
  O  O75  1  0.99594000  0.11021200  0.59460900  1
