# generated using pymatgen
data_Li3Mn4O8
_symmetry_space_group_name_H-M   'P 1'
_cell_length_a   8.35787200
_cell_length_b   8.88809956
_cell_length_c   10.12754406
_cell_angle_alpha   116.01511995
_cell_angle_beta   114.00596833
_cell_angle_gamma   89.78675433
_symmetry_Int_Tables_number   1
_chemical_formula_structural   Li3Mn4O8
_chemical_formula_sum   'Li12 Mn16 O32'
_cell_volume   603.47285634
_cell_formula_units_Z   4
loop_
 _symmetry_equiv_pos_site_id
 _symmetry_equiv_pos_as_xyz
  1  'x, y, z'
loop_
 _atom_site_type_symbol
 _atom_site_label
 _atom_site_symmetry_multiplicity
 _atom_site_fract_x
 _atom_site_fract_y
 _atom_site_fract_z
 _atom_site_occupancy
  Li  Li0  1  0.74994000  0.23741200  0.00055700  1
  Li  Li1  1  0.62705300  0.88046100  0.75085100  1
  Li  Li2  1  0.12510500  0.87332400  0.75072300  1
  Li  Li3  1  0.62462000  0.37474500  0.74925600  1
  Li  Li4  1  0.24964300  0.73628000  0.99907400  1
  Li  Li5  1  0.12232800  0.36568400  0.74801300  1
  Li  Li6  1  0.50046300  0.51407900  0.50349100  1
  Li  Li7  1  0.99939400  0.98563700  0.49626400  1
  Li  Li8  1  0.87256700  0.61596600  0.24852700  1
  Li  Li9  1  0.37497400  0.62475600  0.24970900  1
  Li  Li10  1  0.87553500  0.12321900  0.25125000  1
  Li  Li11  1  0.37753400  0.13265000  0.25156500  1
  Mn  Mn12  1  0.37451300  0.12397200  0.74949600  1
  Mn  Mn13  1  0.00064800  0.50042300  0.50094200  1
  Mn  Mn14  1  0.24962000  0.74952200  0.49974800  1
  Mn  Mn15  1  0.12550200  0.37508200  0.25027100  1
  Mn  Mn16  1  0.75018600  0.74969600  0.50004700  1
  Mn  Mn17  1  0.25025700  0.24970700  0.50012500  1
  Mn  Mn18  1  0.49894000  0.99839200  0.99970300  1
  Mn  Mn19  1  0.87484900  0.62490800  0.75000100  1
  Mn  Mn20  1  0.49932000  0.99816500  0.49912000  1
  Mn  Mn21  1  0.74968600  0.24953100  0.49982200  1
  Mn  Mn22  1  0.00291200  0.99878800  0.00151000  1
  Mn  Mn23  1  0.62486200  0.87417100  0.24963400  1
  Mn  Mn24  1  0.25006600  0.25034600  0.99995700  1
  Mn  Mn25  1  0.50092200  0.49868100  0.99939700  1
  Mn  Mn26  1  0.75010500  0.75036100  0.00004600  1
  Mn  Mn27  1  0.99854500  0.49864300  0.99960500  1
  O  O28  1  0.48207000  0.25007300  0.98847900  1
  O  O29  1  0.37893800  0.90997400  0.75744200  1
  O  O30  1  0.98224600  0.74988800  0.98898300  1
  O  O31  1  0.59922800  0.11789500  0.73928100  1
  O  O32  1  0.23442300  0.50133000  0.48888400  1
  O  O33  1  0.24063100  0.47350100  0.99902600  1
  O  O34  1  0.87066700  0.83957200  0.74304600  1
  O  O35  1  0.15000500  0.13034600  0.76050900  1
  O  O36  1  0.74133100  0.97445300  0.99978200  1
  O  O37  1  0.37056600  0.33816700  0.74200700  1
  O  O38  1  0.99132600  0.72541200  0.49958200  1
  O  O39  1  0.65062200  0.63026600  0.76107600  1
  O  O40  1  0.26556100  0.99791100  0.51115100  1
  O  O41  1  0.90059800  0.38022400  0.26072000  1
  O  O42  1  0.49092900  0.22076000  0.49922600  1
  O  O43  1  0.11957600  0.58883000  0.24215100  1
  O  O44  1  0.87916300  0.40995900  0.75710700  1
  O  O45  1  0.50868700  0.77329600  0.50033600  1
  O  O46  1  0.09963300  0.62137500  0.74017700  1
  O  O47  1  0.73350100  0.99919300  0.48808300  1
  O  O48  1  0.35000800  0.37074000  0.23955800  1
  O  O49  1  0.00919300  0.27797900  0.50082000  1
  O  O50  1  0.63029000  0.65964100  0.25718100  1
  O  O51  1  0.25905400  0.02991800  0.00089800  1
  O  O52  1  0.84917400  0.87112200  0.23893000  1
  O  O53  1  0.13048200  0.16106800  0.25828200  1
  O  O54  1  0.75833900  0.52887300  0.00028600  1
  O  O55  1  0.76633800  0.49998000  0.51187200  1
  O  O56  1  0.40015400  0.87680100  0.25979100  1
  O  O57  1  0.01807200  0.24906800  0.01161300  1
  O  O58  1  0.61929000  0.08891300  0.24247100  1
  O  O59  1  0.51766900  0.74905700  0.01095700  1
