# generated using pymatgen
data_LiSnHg2
_symmetry_space_group_name_H-M   'P 1'
_cell_length_a   11.43240949
_cell_length_b   11.43240949
_cell_length_c   11.43240949
_cell_angle_alpha   121.79422084
_cell_angle_beta   119.33688641
_cell_angle_gamma   89.03659211
_symmetry_Int_Tables_number   1
_chemical_formula_structural   LiSnHg2
_chemical_formula_sum   'Li1 Sn1 Hg2'
_cell_volume   1046.76278877
_cell_formula_units_Z   1
loop_
 _symmetry_equiv_pos_site_id
 _symmetry_equiv_pos_as_xyz
  1  'x, y, z'
loop_
 _atom_site_type_symbol
 _atom_site_label
 _atom_site_symmetry_multiplicity
 _atom_site_fract_x
 _atom_site_fract_y
 _atom_site_fract_z
 _atom_site_occupancy
  Li  Li0  1  0.00000000  0.00000000  0.00000000  1
  Sn  Sn1  1  0.00000000  0.50000000  0.50000000  1
  Hg  Hg2  1  0.00000000  0.23925900  0.23925900  1
  Hg  Hg3  1  0.00000000  0.76074100  0.76074000  1
