# generated using pymatgen
data_LiMg2
_symmetry_space_group_name_H-M   'P 1'
_cell_length_a   3.19291928
_cell_length_b   3.19291928
_cell_length_c   14.82879400
_cell_angle_alpha   90.00000000
_cell_angle_beta   90.00000000
_cell_angle_gamma   119.99998507
_symmetry_Int_Tables_number   1
_chemical_formula_structural   LiMg2
_chemical_formula_sum   'Li2 Mg4'
_cell_volume   130.92193260
_cell_formula_units_Z   2
loop_
 _symmetry_equiv_pos_site_id
 _symmetry_equiv_pos_as_xyz
  1  'x, y, z'
loop_
 _atom_site_type_symbol
 _atom_site_label
 _atom_site_symmetry_multiplicity
 _atom_site_fract_x
 _atom_site_fract_y
 _atom_site_fract_z
 _atom_site_occupancy
  Li  Li0  1  0.66666700  0.33333300  0.75000000  1
  Li  Li1  1  0.33333300  0.66666700  0.25000000  1
  Mg  Mg2  1  0.33333300  0.66666700  0.91474500  1
  Mg  Mg3  1  0.33333300  0.66666700  0.58525500  1
  Mg  Mg4  1  0.66666700  0.33333300  0.41474500  1
  Mg  Mg5  1  0.66666700  0.33333300  0.08525500  1
