# generated using pymatgen
data_Li2TiFeO4
_symmetry_space_group_name_H-M   'P 1'
_cell_length_a   5.26536143
_cell_length_b   5.98149628
_cell_length_c   10.35529899
_cell_angle_alpha   73.48393543
_cell_angle_beta   80.78252433
_cell_angle_gamma   90.06692515
_symmetry_Int_Tables_number   1
_chemical_formula_structural   Li2TiFeO4
_chemical_formula_sum   'Li8 Ti4 Fe4 O16'
_cell_volume   308.26742192
_cell_formula_units_Z   4
loop_
 _symmetry_equiv_pos_site_id
 _symmetry_equiv_pos_as_xyz
  1  'x, y, z'
loop_
 _atom_site_type_symbol
 _atom_site_label
 _atom_site_symmetry_multiplicity
 _atom_site_fract_x
 _atom_site_fract_y
 _atom_site_fract_z
 _atom_site_occupancy
  Li  Li0  1  0.50009500  0.75002300  0.49994800  1
  Li  Li1  1  0.49999800  0.24996500  0.50004700  1
  Li  Li2  1  0.00094600  0.50396900  0.99326500  1
  Li  Li3  1  0.99903000  0.99602700  0.00675000  1
  Li  Li4  1  0.50001700  0.25005000  0.99999300  1
  Li  Li5  1  0.50003300  0.74998200  0.00000000  1
  Li  Li6  1  0.99999500  0.99959700  0.50000700  1
  Li  Li7  1  0.99999300  0.50036900  0.50000100  1
  Ti  Ti8  1  0.22935300  0.37858500  0.24291400  1
  Ti  Ti9  1  0.27034200  0.87149200  0.25647700  1
  Ti  Ti10  1  0.77061900  0.12138300  0.75713300  1
  Ti  Ti11  1  0.72965000  0.62850700  0.74348600  1
  Fe  Fe12  1  0.25023000  0.87548400  0.74989500  1
  Fe  Fe13  1  0.74981100  0.62449800  0.25009800  1
  Fe  Fe14  1  0.25008400  0.37473600  0.74989700  1
  Fe  Fe15  1  0.74990000  0.12532500  0.25007500  1
  O  O16  1  0.41269500  0.56607000  0.86961600  1
  O  O17  1  0.40102000  0.07337200  0.85536900  1
  O  O18  1  0.91269200  0.31672000  0.36828600  1
  O  O19  1  0.90006900  0.82271900  0.35649400  1
  O  O20  1  0.08732400  0.18332900  0.63173600  1
  O  O21  1  0.09986100  0.67734200  0.64350200  1
  O  O22  1  0.58727900  0.93386400  0.13037800  1
  O  O23  1  0.59900900  0.42659900  0.14463700  1
  O  O24  1  0.35774400  0.06043800  0.36740200  1
  O  O25  1  0.35802800  0.57271700  0.36687100  1
  O  O26  1  0.85851300  0.82122700  0.86707200  1
  O  O27  1  0.85809600  0.31210100  0.86744900  1
  O  O28  1  0.14148600  0.67874500  0.13292400  1
  O  O29  1  0.14188900  0.18792700  0.13254300  1
  O  O30  1  0.64224100  0.43953100  0.63259600  1
  O  O31  1  0.64195800  0.92730600  0.63313900  1
