# generated using pymatgen
data_LiV2O5
_symmetry_space_group_name_H-M   'P 1'
_cell_length_a   3.64214200
_cell_length_b   9.89108000
_cell_length_c   11.11862700
_cell_angle_alpha   90.00000000
_cell_angle_beta   90.00000000
_cell_angle_gamma   90.00000000
_symmetry_Int_Tables_number   1
_chemical_formula_structural   LiV2O5
_chemical_formula_sum   'Li4 V8 O20'
_cell_volume   400.54540104
_cell_formula_units_Z   4
loop_
 _symmetry_equiv_pos_site_id
 _symmetry_equiv_pos_as_xyz
  1  'x, y, z'
loop_
 _atom_site_type_symbol
 _atom_site_label
 _atom_site_symmetry_multiplicity
 _atom_site_fract_x
 _atom_site_fract_y
 _atom_site_fract_z
 _atom_site_occupancy
  Li  Li0  1  0.25000000  0.17702100  0.77834900  1
  Li  Li1  1  0.75000000  0.82297900  0.22165100  1
  Li  Li2  1  0.75000000  0.32297900  0.27834900  1
  Li  Li3  1  0.25000000  0.67702100  0.72165100  1
  V  V4  1  0.25000000  0.37682200  0.50412200  1
  V  V5  1  0.75000000  0.62317800  0.49587800  1
  V  V6  1  0.75000000  0.12317800  0.00412200  1
  V  V7  1  0.25000000  0.87682200  0.99587800  1
  V  V8  1  0.25000000  0.06726700  0.40318200  1
  V  V9  1  0.75000000  0.93273300  0.59681800  1
  V  V10  1  0.75000000  0.43273300  0.90318200  1
  V  V11  1  0.25000000  0.56726700  0.09681800  1
  O  O12  1  0.25000000  0.24083600  0.36915600  1
  O  O13  1  0.75000000  0.75916400  0.63084400  1
  O  O14  1  0.75000000  0.25916400  0.86915600  1
  O  O15  1  0.25000000  0.74083600  0.13084400  1
  O  O16  1  0.25000000  0.48106300  0.22254400  1
  O  O17  1  0.75000000  0.51893700  0.77745600  1
  O  O18  1  0.75000000  0.01893700  0.72254400  1
  O  O19  1  0.25000000  0.98106300  0.27745600  1
  O  O20  1  0.25000000  0.28098000  0.62653900  1
  O  O21  1  0.75000000  0.71902000  0.37346100  1
  O  O22  1  0.75000000  0.21902000  0.12653900  1
  O  O23  1  0.25000000  0.78098000  0.87346100  1
  O  O24  1  0.25000000  0.57211500  0.54927200  1
  O  O25  1  0.75000000  0.42788500  0.45072800  1
  O  O26  1  0.75000000  0.92788500  0.04927200  1
  O  O27  1  0.25000000  0.07211500  0.95072800  1
  O  O28  1  0.25000000  0.44088300  0.95599900  1
  O  O29  1  0.75000000  0.55911700  0.04400100  1
  O  O30  1  0.75000000  0.05911700  0.45599900  1
  O  O31  1  0.25000000  0.94088300  0.54400100  1
