# generated using pymatgen
data_Li(CrS2)2
_symmetry_space_group_name_H-M   'P 1'
_cell_length_a   5.89393200
_cell_length_b   6.87609700
_cell_length_c   12.79827900
_cell_angle_alpha   90.00000000
_cell_angle_beta   90.00000000
_cell_angle_gamma   90.00000000
_symmetry_Int_Tables_number   1
_chemical_formula_structural   Li(CrS2)2
_chemical_formula_sum   'Li4 Cr8 S16'
_cell_volume   518.67902884
_cell_formula_units_Z   4
loop_
 _symmetry_equiv_pos_site_id
 _symmetry_equiv_pos_as_xyz
  1  'x, y, z'
loop_
 _atom_site_type_symbol
 _atom_site_label
 _atom_site_symmetry_multiplicity
 _atom_site_fract_x
 _atom_site_fract_y
 _atom_site_fract_z
 _atom_site_occupancy
  Li  Li0  1  0.33902400  0.00000000  0.00000000  1
  Li  Li1  1  0.66097600  0.50000000  0.50000000  1
  Li  Li2  1  0.02426200  0.00000000  0.50000000  1
  Li  Li3  1  0.97573800  0.50000000  0.00000000  1
  Cr  Cr4  1  0.98942300  0.00000000  0.24757600  1
  Cr  Cr5  1  0.98942300  0.00000000  0.75242400  1
  Cr  Cr6  1  0.01057700  0.50000000  0.25242400  1
  Cr  Cr7  1  0.01057700  0.50000000  0.74757600  1
  Cr  Cr8  1  0.50000000  0.25000000  0.25000000  1
  Cr  Cr9  1  0.50000000  0.75000000  0.75000000  1
  Cr  Cr10  1  0.50000000  0.75000000  0.25000000  1
  Cr  Cr11  1  0.50000000  0.25000000  0.75000000  1
  S  S12  1  0.83717700  0.25186600  0.35534000  1
  S  S13  1  0.83717700  0.74813400  0.64466000  1
  S  S14  1  0.16282300  0.75186600  0.14466000  1
  S  S15  1  0.16282300  0.24813400  0.85534000  1
  S  S16  1  0.16282300  0.24813400  0.14466000  1
  S  S17  1  0.16282300  0.75186600  0.85534000  1
  S  S18  1  0.83717700  0.74813400  0.35534000  1
  S  S19  1  0.83717700  0.25186600  0.64466000  1
  S  S20  1  0.65896600  0.00000000  0.14460700  1
  S  S21  1  0.65896600  0.00000000  0.85539300  1
  S  S22  1  0.34103400  0.50000000  0.35539300  1
  S  S23  1  0.34103400  0.50000000  0.64460700  1
  S  S24  1  0.33156600  0.00000000  0.35194500  1
  S  S25  1  0.33156600  0.00000000  0.64805500  1
  S  S26  1  0.66843400  0.50000000  0.14805500  1
  S  S27  1  0.66843400  0.50000000  0.85194500  1
