# generated using pymatgen
data_Li4MnCo2O7
_symmetry_space_group_name_H-M   'P 1'
_cell_length_a   5.13814019
_cell_length_b   5.13814019
_cell_length_c   17.83690136
_cell_angle_alpha   83.93039210
_cell_angle_beta   83.93039210
_cell_angle_gamma   32.71740884
_symmetry_Int_Tables_number   1
_chemical_formula_structural   Li4MnCo2O7
_chemical_formula_sum   'Li8 Mn2 Co4 O14'
_cell_volume   252.97097911
_cell_formula_units_Z   2
loop_
 _symmetry_equiv_pos_site_id
 _symmetry_equiv_pos_as_xyz
  1  'x, y, z'
loop_
 _atom_site_type_symbol
 _atom_site_label
 _atom_site_symmetry_multiplicity
 _atom_site_fract_x
 _atom_site_fract_y
 _atom_site_fract_z
 _atom_site_occupancy
  Li  Li0  1  0.28801500  0.28801500  0.92080900  1
  Li  Li1  1  0.86189900  0.86189900  0.79045800  1
  Li  Li2  1  0.43577100  0.43577100  0.64791400  1
  Li  Li3  1  0.99641300  0.99641300  0.50628800  1
  Li  Li4  1  0.57441200  0.57441200  0.35144000  1
  Li  Li5  1  0.14151600  0.14151600  0.21178200  1
  Li  Li6  1  0.70981800  0.70981800  0.06904600  1
  Li  Li7  1  0.56725500  0.56725500  0.85801700  1
  Mn  Mn8  1  0.99692900  0.99692900  0.99360500  1
  Mn  Mn9  1  0.28509000  0.28509000  0.42897800  1
  Co  Co10  1  0.14927600  0.14927600  0.72781700  1
  Co  Co11  1  0.71192800  0.71192800  0.57725300  1
  Co  Co12  1  0.85668300  0.85668300  0.28200400  1
  Co  Co13  1  0.42941300  0.42941300  0.14117100  1
  O  O14  1  0.37058500  0.37058500  0.03313400  1
  O  O15  1  0.93080800  0.93080800  0.90227100  1
  O  O16  1  0.51726500  0.51726500  0.74651000  1
  O  O17  1  0.07858100  0.07858100  0.60397900  1
  O  O18  1  0.66042300  0.66042300  0.46129900  1
  O  O19  1  0.22190100  0.22190100  0.32871500  1
  O  O20  1  0.79441400  0.79441400  0.17612200  1
  O  O21  1  0.21714600  0.21714600  0.81666200  1
  O  O22  1  0.77223700  0.77223700  0.67944000  1
  O  O23  1  0.34632100  0.34632100  0.52990700  1
  O  O24  1  0.91160000  0.91160000  0.39627400  1
  O  O25  1  0.49405200  0.49405200  0.24775400  1
  O  O26  1  0.05740300  0.05740300  0.10279000  1
  O  O27  1  0.62284500  0.62284500  0.96856000  1
