# generated using pymatgen
data_LiAl
_symmetry_space_group_name_H-M   'P 1'
_cell_length_a   8.86769133
_cell_length_b   8.86769133
_cell_length_c   5.90077500
_cell_angle_alpha   90.00000000
_cell_angle_beta   90.00000000
_cell_angle_gamma   92.32010405
_symmetry_Int_Tables_number   1
_chemical_formula_structural   LiAl
_chemical_formula_sum   'Li12 Al12'
_cell_volume   463.63267082
_cell_formula_units_Z   12
loop_
 _symmetry_equiv_pos_site_id
 _symmetry_equiv_pos_as_xyz
  1  'x, y, z'
loop_
 _atom_site_type_symbol
 _atom_site_label
 _atom_site_symmetry_multiplicity
 _atom_site_fract_x
 _atom_site_fract_y
 _atom_site_fract_z
 _atom_site_occupancy
  Li  Li0  1  0.51351600  0.01351600  0.75000000  1
  Li  Li1  1  0.98648400  0.48648400  0.25000000  1
  Li  Li2  1  0.48648400  0.98648400  0.25000000  1
  Li  Li3  1  0.01351600  0.51351600  0.75000000  1
  Li  Li4  1  0.30577600  0.69422400  0.50000000  1
  Li  Li5  1  0.80577600  0.19422400  0.00000000  1
  Li  Li6  1  0.69422400  0.30577600  0.50000000  1
  Li  Li7  1  0.19422400  0.80577600  0.00000000  1
  Li  Li8  1  0.28933200  0.28933200  0.39056400  1
  Li  Li9  1  0.71066800  0.71066800  0.60943600  1
  Li  Li10  1  0.21066800  0.21066800  0.89056400  1
  Li  Li11  1  0.78933200  0.78933200  0.10943600  1
  Al  Al12  1  0.22522700  0.99686400  0.53745600  1
  Al  Al13  1  0.00313600  0.77477300  0.46254400  1
  Al  Al14  1  0.50313600  0.27477300  0.03745600  1
  Al  Al15  1  0.72522700  0.49686400  0.96254400  1
  Al  Al16  1  0.77477300  0.00313600  0.46254400  1
  Al  Al17  1  0.99686400  0.22522700  0.53745600  1
  Al  Al18  1  0.49686400  0.72522700  0.96254400  1
  Al  Al19  1  0.27477300  0.50313600  0.03745600  1
  Al  Al20  1  0.97250500  0.97250500  0.79147200  1
  Al  Al21  1  0.02749500  0.02749500  0.20852800  1
  Al  Al22  1  0.52749500  0.52749500  0.29147200  1
  Al  Al23  1  0.47250500  0.47250500  0.70852800  1
