# generated using pymatgen
data_Li2VCO5
_symmetry_space_group_name_H-M   'P 1'
_cell_length_a   2.92664400
_cell_length_b   9.38923875
_cell_length_c   12.04996757
_cell_angle_alpha   90.01021425
_cell_angle_beta   90.15353427
_cell_angle_gamma   91.03698072
_symmetry_Int_Tables_number   1
_chemical_formula_structural   Li2VCO5
_chemical_formula_sum   'Li8 V4 C4 O20'
_cell_volume   331.06514055
_cell_formula_units_Z   4
loop_
 _symmetry_equiv_pos_site_id
 _symmetry_equiv_pos_as_xyz
  1  'x, y, z'
loop_
 _atom_site_type_symbol
 _atom_site_label
 _atom_site_symmetry_multiplicity
 _atom_site_fract_x
 _atom_site_fract_y
 _atom_site_fract_z
 _atom_site_occupancy
  Li  Li0  1  0.49844300  0.00475500  0.71859100  1
  Li  Li1  1  0.50047100  0.00000100  0.00005300  1
  Li  Li2  1  0.98920600  0.99981100  0.50016800  1
  Li  Li3  1  0.49586100  0.99523800  0.28149600  1
  Li  Li4  1  0.49826700  0.50475100  0.78142300  1
  Li  Li5  1  0.50556600  0.49999900  0.49986700  1
  Li  Li6  1  0.00004700  0.50002100  0.00001200  1
  Li  Li7  1  0.50354500  0.49520800  0.21862000  1
  V  V8  1  0.00266600  0.24307800  0.88702500  1
  V  V9  1  0.00215700  0.25688000  0.38700600  1
  V  V10  1  0.00327700  0.74301500  0.61299700  1
  V  V11  1  0.99753800  0.75690700  0.11302300  1
  C  C12  1  0.99962800  0.23340300  0.13870200  1
  C  C13  1  0.00095600  0.26659300  0.63876800  1
  C  C14  1  0.00065300  0.73329300  0.36123400  1
  C  C15  1  0.99859300  0.76669800  0.86128100  1
  O  O16  1  0.52387700  0.11709600  0.85699800  1
  O  O17  1  0.46521700  0.12768700  0.42086400  1
  O  O18  1  0.99945400  0.13190300  0.63816500  1
  O  O19  1  0.99074300  0.16052000  0.23175900  1
  O  O20  1  0.00686000  0.15732200  0.04695300  1
  O  O21  1  0.00994100  0.34262500  0.54694600  1
  O  O22  1  0.99340500  0.33950000  0.73175000  1
  O  O23  1  0.00101500  0.36811300  0.13804400  1
  O  O24  1  0.47541000  0.37271800  0.92094900  1
  O  O25  1  0.53785500  0.38283500  0.35681600  1
  O  O26  1  0.52521800  0.61707700  0.64296200  1
  O  O27  1  0.52515500  0.62728100  0.07905400  1
  O  O28  1  0.00580000  0.63200900  0.86189300  1
  O  O29  1  0.00924700  0.66052400  0.26822800  1
  O  O30  1  0.00849000  0.65732800  0.45305700  1
  O  O31  1  0.99329400  0.84269000  0.95307300  1
  O  O32  1  0.99442100  0.83952200  0.76820600  1
  O  O33  1  0.98803800  0.86789500  0.36189300  1
  O  O34  1  0.47386200  0.87278700  0.57907000  1
  O  O35  1  0.47582600  0.88292000  0.14305200  1
