# generated using pymatgen
data_Li9Mn2Co5O16
_symmetry_space_group_name_H-M   'P 1'
_cell_length_a   5.12907200
_cell_length_b   5.88170153
_cell_length_c   9.73138340
_cell_angle_alpha   88.40309318
_cell_angle_beta   78.80037178
_cell_angle_gamma   89.50835720
_symmetry_Int_Tables_number   1
_chemical_formula_structural   Li9Mn2Co5O16
_chemical_formula_sum   'Li9 Mn2 Co5 O16'
_cell_volume   287.86913525
_cell_formula_units_Z   1
loop_
 _symmetry_equiv_pos_site_id
 _symmetry_equiv_pos_as_xyz
  1  'x, y, z'
loop_
 _atom_site_type_symbol
 _atom_site_label
 _atom_site_symmetry_multiplicity
 _atom_site_fract_x
 _atom_site_fract_y
 _atom_site_fract_z
 _atom_site_occupancy
  Li  Li0  1  0.49945300  0.25401900  0.99459700  1
  Li  Li1  1  0.25746800  0.50483900  0.25476200  1
  Li  Li2  1  0.49767900  0.74473400  0.99782200  1
  Li  Li3  1  0.25382800  0.99767600  0.26286300  1
  Li  Li4  1  0.74564600  0.00209200  0.74156500  1
  Li  Li5  1  0.75083700  0.49130500  0.73966300  1
  Li  Li6  1  0.99139900  0.76545600  0.50773900  1
  Li  Li7  1  0.00431400  0.23895600  0.50169200  1
  Li  Li8  1  0.50592200  0.00061500  0.49993600  1
  Mn  Mn9  1  0.99974900  0.99851200  0.00092300  1
  Mn  Mn10  1  0.74927700  0.24754700  0.25364700  1
  Co  Co11  1  0.50022700  0.50000800  0.49887000  1
  Co  Co12  1  0.25904100  0.75627300  0.73987200  1
  Co  Co13  1  0.99378700  0.49896400  0.99985400  1
  Co  Co14  1  0.75597400  0.75405400  0.25439300  1
  Co  Co15  1  0.25030600  0.24716900  0.74329000  1
  O  O16  1  0.34529600  0.99808200  0.88268400  1
  O  O17  1  0.09691800  0.24470800  0.11422000  1
  O  O18  1  0.33174500  0.50219000  0.87737900  1
  O  O19  1  0.09810700  0.76525500  0.12828000  1
  O  O20  1  0.60972500  0.73597200  0.62835900  1
  O  O21  1  0.59722200  0.26053600  0.62650800  1
  O  O22  1  0.86414000  0.49048300  0.35757400  1
  O  O23  1  0.87378200  0.01788600  0.36592000  1
  O  O24  1  0.65383500  0.48639800  0.12239800  1
  O  O25  1  0.41623100  0.73554200  0.36848600  1
  O  O26  1  0.65387000  0.00580300  0.13503300  1
  O  O27  1  0.40778400  0.25577200  0.36556100  1
  O  O28  1  0.88898700  0.23163000  0.87995700  1
  O  O29  1  0.88844700  0.75897900  0.89480100  1
  O  O30  1  0.12577900  0.99942100  0.63562200  1
  O  O31  1  0.13322600  0.50912400  0.62573100  1
