# generated using pymatgen
data_Li7CrN4
_symmetry_space_group_name_H-M   'P 1'
_cell_length_a   9.62702086
_cell_length_b   9.62702086
_cell_length_c   9.62702086
_cell_angle_alpha   90.00000000
_cell_angle_beta   90.00000000
_cell_angle_gamma   90.00000000
_symmetry_Int_Tables_number   1
_chemical_formula_structural   Li7CrN4
_chemical_formula_sum   'Li56 Cr8 N32'
_cell_volume   892.22777476
_cell_formula_units_Z   8
loop_
 _symmetry_equiv_pos_site_id
 _symmetry_equiv_pos_as_xyz
  1  'x, y, z'
loop_
 _atom_site_type_symbol
 _atom_site_label
 _atom_site_symmetry_multiplicity
 _atom_site_fract_x
 _atom_site_fract_y
 _atom_site_fract_z
 _atom_site_occupancy
  Li  Li0  1  0.00000000  -0.00000000  0.50000000  1
  Li  Li1  1  -0.00000000  0.50000000  -0.00000000  1
  Li  Li2  1  0.50000000  -0.00000000  -0.00000000  1
  Li  Li3  1  0.50000000  -0.00000000  0.50000000  1
  Li  Li4  1  0.50000000  0.50000000  -0.00000000  1
  Li  Li5  1  -0.00000000  0.50000000  0.50000000  1
  Li  Li6  1  0.00000000  0.50000000  0.25000000  1
  Li  Li7  1  0.50000000  0.75000000  -0.00000000  1
  Li  Li8  1  0.25000000  -0.00000000  0.50000000  1
  Li  Li9  1  0.50000000  0.25000000  -0.00000000  1
  Li  Li10  1  0.75000000  -0.00000000  0.50000000  1
  Li  Li11  1  -0.00000000  0.50000000  0.75000000  1
  Li  Li12  1  0.26811627  0.73188373  0.26811627  1
  Li  Li13  1  0.73188373  0.26811627  0.26811627  1
  Li  Li14  1  0.26811627  0.26811627  0.73188373  1
  Li  Li15  1  0.73188373  0.73188373  0.73188373  1
  Li  Li16  1  0.76811627  0.76811627  0.23188373  1
  Li  Li17  1  0.23188373  0.76811627  0.76811627  1
  Li  Li18  1  0.76811627  0.23188373  0.76811627  1
  Li  Li19  1  0.23188373  0.23188373  0.23188373  1
  Li  Li20  1  0.50000000  0.50000000  0.23647855  1
  Li  Li21  1  0.50000000  0.76352145  0.50000000  1
  Li  Li22  1  0.23647855  0.50000000  0.50000000  1
  Li  Li23  1  0.50000000  0.23647855  0.50000000  1
  Li  Li24  1  0.76352145  0.50000000  0.50000000  1
  Li  Li25  1  0.50000000  0.50000000  0.76352145  1
  Li  Li26  1  0.00000000  0.73647855  -0.00000000  1
  Li  Li27  1  0.00000000  -0.00000000  0.26352145  1
  Li  Li28  1  0.73647855  -0.00000000  -0.00000000  1
  Li  Li29  1  0.00000000  -0.00000000  0.73647855  1
  Li  Li30  1  0.26352145  -0.00000000  -0.00000000  1
  Li  Li31  1  0.00000000  0.26352145  -0.00000000  1
  Li  Li32  1  0.51934966  0.73951481  0.24763484  1
  Li  Li33  1  0.26048519  0.75236516  0.51934966  1
  Li  Li34  1  0.24763484  0.48065034  0.26048519  1
  Li  Li35  1  0.48065034  0.26048519  0.24763484  1
  Li  Li36  1  0.73951481  0.24763484  0.51934966  1
  Li  Li37  1  0.75236516  0.51934966  0.26048519  1
  Li  Li38  1  0.51934966  0.26048519  0.75236516  1
  Li  Li39  1  0.26048519  0.24763484  0.48065034  1
  Li  Li40  1  0.24763484  0.51934966  0.73951481  1
  Li  Li41  1  0.48065034  0.73951481  0.75236516  1
  Li  Li42  1  0.73951481  0.75236516  0.48065034  1
  Li  Li43  1  0.75236516  0.48065034  0.73951481  1
  Li  Li44  1  0.01934966  0.74763484  0.23951481  1
  Li  Li45  1  0.76048519  0.01934966  0.25236516  1
  Li  Li46  1  0.74763484  0.76048519  0.98065034  1
  Li  Li47  1  0.98065034  0.74763484  0.76048519  1
  Li  Li48  1  0.23951481  0.01934966  0.74763484  1
  Li  Li49  1  0.25236516  0.76048519  0.01934966  1
  Li  Li50  1  0.01934966  0.25236516  0.76048519  1
  Li  Li51  1  0.76048519  0.98065034  0.74763484  1
  Li  Li52  1  0.74763484  0.23951481  0.01934966  1
  Li  Li53  1  0.98065034  0.25236516  0.23951481  1
  Li  Li54  1  0.23951481  0.98065034  0.25236516  1
  Li  Li55  1  0.25236516  0.23951481  0.98065034  1
  Cr  Cr56  1  0.50000000  0.50000000  0.50000000  1
  Cr  Cr57  1  -0.00000000  -0.00000000  -0.00000000  1
  Cr  Cr58  1  0.50000000  -0.00000000  0.25000000  1
  Cr  Cr59  1  0.00000000  0.75000000  0.50000000  1
  Cr  Cr60  1  0.25000000  0.50000000  -0.00000000  1
  Cr  Cr61  1  0.00000000  0.25000000  0.50000000  1
  Cr  Cr62  1  0.75000000  0.50000000  -0.00000000  1
  Cr  Cr63  1  0.50000000  -0.00000000  0.75000000  1
  N  N64  1  0.39141869  0.60858131  0.39141869  1
  N  N65  1  0.60858131  0.39141869  0.39141869  1
  N  N66  1  0.39141869  0.39141869  0.60858131  1
  N  N67  1  0.60858131  0.60858131  0.60858131  1
  N  N68  1  0.89141869  0.89141869  0.10858131  1
  N  N69  1  0.10858131  0.89141869  0.89141869  1
  N  N70  1  0.89141869  0.10858131  0.89141869  1
  N  N71  1  0.10858131  0.10858131  0.10858131  1
  N  N72  1  0.39302318  0.88350877  0.14303750  1
  N  N73  1  0.11649123  0.85696250  0.39302318  1
  N  N74  1  0.14303750  0.60697682  0.11649123  1
  N  N75  1  0.60697682  0.11649123  0.14303750  1
  N  N76  1  0.88350877  0.14303750  0.39302318  1
  N  N77  1  0.85696250  0.39302318  0.11649123  1
  N  N78  1  0.39302318  0.11649123  0.85696250  1
  N  N79  1  0.11649123  0.14303750  0.60697682  1
  N  N80  1  0.14303750  0.39302318  0.88350877  1
  N  N81  1  0.60697682  0.88350877  0.85696250  1
  N  N82  1  0.88350877  0.85696250  0.60697682  1
  N  N83  1  0.85696250  0.60697682  0.88350877  1
  N  N84  1  0.89302318  0.64303750  0.38350877  1
  N  N85  1  0.61649123  0.89302318  0.35696250  1
  N  N86  1  0.64303750  0.61649123  0.10697682  1
  N  N87  1  0.10697682  0.64303750  0.61649123  1
  N  N88  1  0.38350877  0.89302318  0.64303750  1
  N  N89  1  0.35696250  0.61649123  0.89302318  1
  N  N90  1  0.89302318  0.35696250  0.61649123  1
  N  N91  1  0.61649123  0.10697682  0.64303750  1
  N  N92  1  0.64303750  0.38350877  0.89302318  1
  N  N93  1  0.10697682  0.35696250  0.38350877  1
  N  N94  1  0.38350877  0.10697682  0.35696250  1
  N  N95  1  0.35696250  0.38350877  0.10697682  1
