# generated using pymatgen
data_Li32Mn11Cr5O48
_symmetry_space_group_name_H-M   'P 1'
_cell_length_a   5.01676096
_cell_length_b   5.01676096
_cell_length_c   38.47794373
_cell_angle_alpha   88.93666621
_cell_angle_beta   88.93666621
_cell_angle_gamma   119.78953102
_symmetry_Int_Tables_number   1
_chemical_formula_structural   Li32Mn11Cr5O48
_chemical_formula_sum   'Li32 Mn11 Cr5 O48'
_cell_volume   839.86411517
_cell_formula_units_Z   1
loop_
 _symmetry_equiv_pos_site_id
 _symmetry_equiv_pos_as_xyz
  1  'x, y, z'
loop_
 _atom_site_type_symbol
 _atom_site_label
 _atom_site_symmetry_multiplicity
 _atom_site_fract_x
 _atom_site_fract_y
 _atom_site_fract_z
 _atom_site_occupancy
  Li  Li0  1  0.91178500  0.46403100  0.93745600  1
  Li  Li1  1  0.00008700  0.87394200  0.68736300  1
  Li  Li2  1  0.93278500  0.80943900  0.87504600  1
  Li  Li3  1  0.87142400  0.74970500  0.06240400  1
  Li  Li4  1  0.81503700  0.68488800  0.24999200  1
  Li  Li5  1  0.74998100  0.62371100  0.43744900  1
  Li  Li6  1  0.68744500  0.56259200  0.62500200  1
  Li  Li7  1  0.96018600  0.16003600  0.81242000  1
  Li  Li8  1  0.62789600  0.50311700  0.81249200  1
  Li  Li9  1  0.83996400  0.03981400  0.18758000  1
  Li  Li10  1  0.71053100  0.90915500  0.56248700  1
  Li  Li11  1  0.56257800  0.43742200  0.00000000  1
  Li  Li12  1  0.49688300  0.37210400  0.18750800  1
  Li  Li13  1  0.58817200  0.78327400  0.93776400  1
  Li  Li14  1  0.46062400  0.65916600  0.31258100  1
  Li  Li15  1  0.78736300  0.34100900  0.31273700  1
  Li  Li16  1  0.65899100  0.21263700  0.68726300  1
  Li  Li17  1  0.34083400  0.53937600  0.68741900  1
  Li  Li18  1  0.21672600  0.41182800  0.06223600  1
  Li  Li19  1  0.53596900  0.08821500  0.06254400  1
  Li  Li20  1  0.40909100  0.96278000  0.43735400  1
  Li  Li21  1  0.43740800  0.31255500  0.37499800  1
  Li  Li22  1  0.28683900  0.83732300  0.81258700  1
  Li  Li23  1  0.16267700  0.71316100  0.18741300  1
  Li  Li24  1  0.37628900  0.25001900  0.56255100  1
  Li  Li25  1  0.03722000  0.59090900  0.56264600  1
  Li  Li26  1  0.31511200  0.18496300  0.75000800  1
  Li  Li27  1  0.25029500  0.12857600  0.93759600  1
  Li  Li28  1  0.19056100  0.06721500  0.12495400  1
  Li  Li29  1  0.12605800  0.99991300  0.31263700  1
  Li  Li30  1  0.06510100  0.93489900  0.50000000  1
  Li  Li31  1  0.09084500  0.28946900  0.43751300  1
  Mn  Mn32  1  0.89518200  0.10481800  0.00000000  1
  Mn  Mn33  1  0.77044000  0.97952500  0.37498300  1
  Mn  Mn34  1  0.64502700  0.85503200  0.75002500  1
  Mn  Mn35  1  0.52083300  0.72906300  0.12503100  1
  Mn  Mn36  1  0.39498900  0.60501100  0.50000000  1
  Mn  Mn37  1  0.27093700  0.47916700  0.87496900  1
  Mn  Mn38  1  0.35469300  0.89533300  0.62501700  1
  Mn  Mn39  1  0.22939300  0.77060700  0.00000000  1
  Mn  Mn40  1  0.10466700  0.64530700  0.37498300  1
  Mn  Mn41  1  0.14496800  0.35497300  0.24997500  1
  Mn  Mn42  1  0.02047500  0.22956000  0.62501700  1
  Cr  Cr43  1  0.98274900  0.51727500  0.75001300  1
  Cr  Cr44  1  0.85927700  0.40091100  0.12497300  1
  Cr  Cr45  1  0.73276100  0.26723900  0.50000000  1
  Cr  Cr46  1  0.59908900  0.14072300  0.87502700  1
  Cr  Cr47  1  0.48272500  0.01725100  0.24998700  1
  O  O48  1  0.91164300  0.42940000  0.02796800  1
  O  O49  1  0.94769400  0.46405700  0.84695100  1
  O  O50  1  0.92914900  0.80441200  0.97154200  1
  O  O51  1  0.80390300  0.67901400  0.34654500  1
  O  O52  1  0.94491600  0.82044900  0.77842200  1
  O  O53  1  0.81867400  0.69036300  0.15338200  1
  O  O54  1  0.69453700  0.57024000  0.52844700  1
  O  O55  1  0.67989200  0.55568100  0.72156000  1
  O  O56  1  0.54863500  0.43024600  0.09609100  1
  O  O57  1  0.92888800  0.16399700  0.90289100  1
  O  O58  1  0.56975400  0.45136500  0.90390900  1
  O  O59  1  0.80120500  0.03863800  0.27790700  1
  O  O60  1  0.67964900  0.91166600  0.65289200  1
  O  O61  1  0.96136200  0.19879500  0.72209300  1
  O  O62  1  0.83600300  0.07111200  0.09710900  1
  O  O63  1  0.71170800  0.94881500  0.47208800  1
  O  O64  1  0.78657900  0.30412800  0.40298200  1
  O  O65  1  0.82820100  0.34490700  0.22156400  1
  O  O66  1  0.69587200  0.21342100  0.59701800  1
  O  O67  1  0.55394100  0.78676700  0.02789700  1
  O  O68  1  0.42962400  0.66169200  0.40288900  1
  O  O69  1  0.58751500  0.81357000  0.84675400  1
  O  O70  1  0.46213400  0.69885600  0.22216100  1
  O  O71  1  0.33830800  0.57037600  0.59711100  1
  O  O72  1  0.65509300  0.17179900  0.77843600  1
  O  O73  1  0.53594300  0.05230600  0.15304900  1
  O  O74  1  0.40490300  0.92158800  0.52841700  1
  O  O75  1  0.57060000  0.08835700  0.97203200  1
  O  O76  1  0.44582400  0.96342200  0.34701700  1
  O  O77  1  0.30114400  0.53786600  0.77783900  1
  O  O78  1  0.18643000  0.41248500  0.15324600  1
  O  O79  1  0.21323300  0.44605900  0.97210300  1
  O  O80  1  0.28978000  0.80625400  0.90284500  1
  O  O81  1  0.15520800  0.67190700  0.27839300  1
  O  O82  1  0.03657800  0.55417600  0.65298300  1
  O  O83  1  0.32809300  0.84479200  0.72160700  1
  O  O84  1  0.19374600  0.71022000  0.09715500  1
  O  O85  1  0.42976000  0.30546300  0.47155300  1
  O  O86  1  0.07841200  0.59509700  0.47158300  1
  O  O87  1  0.44431900  0.32010800  0.27844000  1
  O  O88  1  0.32098600  0.19609700  0.65345500  1
  O  O89  1  0.30963700  0.18132600  0.84661800  1
  O  O90  1  0.17955100  0.05508400  0.22157800  1
  O  O91  1  0.05401100  0.92911100  0.59655500  1
  O  O92  1  0.19558800  0.07085100  0.02845800  1
  O  O93  1  0.07088900  0.94598900  0.40344500  1
  O  O94  1  0.05118500  0.28829200  0.52791200  1
  O  O95  1  0.08833400  0.32035100  0.34710800  1
