# generated using pymatgen
data_NaLi2MnPCO7
_symmetry_space_group_name_H-M   'P 1'
_cell_length_a   5.10554303
_cell_length_b   17.53859082
_cell_length_c   6.78358355
_cell_angle_alpha   82.81888470
_cell_angle_beta   90.61669095
_cell_angle_gamma   87.72916399
_symmetry_Int_Tables_number   1
_chemical_formula_structural   NaLi2MnPCO7
_chemical_formula_sum   'Na4 Li8 Mn4 P4 C4 O28'
_cell_volume   602.11575608
_cell_formula_units_Z   4
loop_
 _symmetry_equiv_pos_site_id
 _symmetry_equiv_pos_as_xyz
  1  'x, y, z'
loop_
 _atom_site_type_symbol
 _atom_site_label
 _atom_site_symmetry_multiplicity
 _atom_site_fract_x
 _atom_site_fract_y
 _atom_site_fract_z
 _atom_site_occupancy
  Na  Na0  1  0.24994712  0.11931724  0.52474092  1
  Na  Na1  1  0.24978737  0.61927220  0.52470639  1
  Na  Na2  1  0.75005307  0.38073203  0.47521290  1
  Na  Na3  1  0.75024656  0.88072959  0.47512399  1
  Li  Li4  1  0.73233621  0.04477630  0.17885331  1
  Li  Li5  1  0.73233673  0.54476843  0.17881220  1
  Li  Li6  1  0.26764412  0.45523031  0.82113853  1
  Li  Li7  1  0.26776182  0.95520320  0.82107559  1
  Li  Li8  1  0.22698928  0.14704521  0.06817745  1
  Li  Li9  1  0.22684615  0.64696397  0.06796434  1
  Li  Li10  1  0.77311710  0.35298669  0.93174248  1
  Li  Li11  1  0.77325429  0.85297499  0.93189367  1
  Mn  Mn12  1  0.77887103  0.67652553  0.77190603  1
  Mn  Mn13  1  0.22154998  0.82356723  0.22849073  1
  Mn  Mn14  1  0.77907926  0.17639831  0.77238404  1
  Mn  Mn15  1  0.22034992  0.32347234  0.22787779  1
  P  P16  1  0.71915467  0.20783630  0.25430457  1
  P  P17  1  0.71914780  0.70779226  0.25421138  1
  P  P18  1  0.28085699  0.29218777  0.74569023  1
  P  P19  1  0.28089521  0.79219614  0.74577212  1
  C  C20  1  0.73296730  0.01730216  0.76779649  1
  C  C21  1  0.73278312  0.51729996  0.76794992  1
  C  C22  1  0.26705895  0.48268162  0.23218019  1
  C  C23  1  0.26702026  0.98272352  0.23215147  1
  O  O24  1  0.34972696  0.05100444  0.24585607  1
  O  O25  1  0.34966752  0.55105504  0.24586412  1
  O  O26  1  0.65018964  0.44899724  0.75415613  1
  O  O27  1  0.65035801  0.94895742  0.75408196  1
  O  O28  1  0.97878916  0.03240229  0.76380779  1
  O  O29  1  0.97867302  0.53241657  0.76429339  1
  O  O30  1  0.02130052  0.46758561  0.23617905  1
  O  O31  1  0.02113378  0.96758941  0.23613508  1
  O  O32  1  0.55798511  0.07225826  0.78977663  1
  O  O33  1  0.55784757  0.57230511  0.78956274  1
  O  O34  1  0.44187318  0.42769522  0.21024920  1
  O  O35  1  0.44198377  0.92772359  0.21018076  1
  O  O36  1  0.82670591  0.15514757  0.10001586  1
  O  O37  1  0.82677418  0.65514005  0.09998897  1
  O  O38  1  0.17327723  0.34482718  0.90002019  1
  O  O39  1  0.17322339  0.84481452  0.90007665  1
  O  O40  1  0.81097180  0.17003915  0.46140475  1
  O  O41  1  0.81085065  0.67000277  0.46140121  1
  O  O42  1  0.18906197  0.33002020  0.53856405  1
  O  O43  1  0.18922296  0.82999619  0.53857655  1
  O  O44  1  0.41288658  0.21321846  0.23942955  1
  O  O45  1  0.41289854  0.71312515  0.23911665  1
  O  O46  1  0.58714013  0.28680628  0.76063166  1
  O  O47  1  0.58714802  0.78689452  0.76082811  1
  O  O48  1  0.18306660  0.20881746  0.79174179  1
  O  O49  1  0.18311750  0.70884263  0.79153747  1
  O  O50  1  0.81709753  0.29116569  0.20807778  1
  O  O51  1  0.81697441  0.79116865  0.20828910  1
