# generated using pymatgen
data_Li2Eu5Sn7
_symmetry_space_group_name_H-M   'P 1'
_cell_length_a   6.37742799
_cell_length_b   13.94692003
_cell_length_c   17.81956931
_cell_angle_alpha   90.00000000
_cell_angle_beta   90.00000000
_cell_angle_gamma   90.00000000
_symmetry_Int_Tables_number   1
_chemical_formula_structural   Li2Eu5Sn7
_chemical_formula_sum   'Li8 Eu20 Sn28'
_cell_volume   1584.97011313
_cell_formula_units_Z   4
loop_
 _symmetry_equiv_pos_site_id
 _symmetry_equiv_pos_as_xyz
  1  'x, y, z'
loop_
 _atom_site_type_symbol
 _atom_site_label
 _atom_site_symmetry_multiplicity
 _atom_site_fract_x
 _atom_site_fract_y
 _atom_site_fract_z
 _atom_site_occupancy
  Li  Li0  1  0.41697740  0.23136684  0.02030329  1
  Li  Li1  1  0.08302260  0.76863316  0.52030329  1
  Li  Li2  1  0.58302260  0.73136684  0.47969671  1
  Li  Li3  1  0.91697740  0.26863316  0.97969671  1
  Li  Li4  1  0.12115158  0.76760521  0.22884227  1
  Li  Li5  1  0.37884842  0.23239479  0.72884227  1
  Li  Li6  1  0.87884842  0.26760521  0.27115773  1
  Li  Li7  1  0.62115158  0.73239479  0.77115773  1
  Eu  Eu8  1  0.36051790  0.18046799  0.54116617  1
  Eu  Eu9  1  0.13948210  0.81953201  0.04116617  1
  Eu  Eu10  1  0.63948210  0.68046799  0.95883383  1
  Eu  Eu11  1  0.86051790  0.31953201  0.45883383  1
  Eu  Eu12  1  0.63593627  0.00090676  0.01741271  1
  Eu  Eu13  1  0.86406373  0.99909324  0.51741271  1
  Eu  Eu14  1  0.36406373  0.50090676  0.48258729  1
  Eu  Eu15  1  0.13593627  0.49909324  0.98258729  1
  Eu  Eu16  1  0.14497797  0.49742376  0.26240186  1
  Eu  Eu17  1  0.35502203  0.50257624  0.76240186  1
  Eu  Eu18  1  0.85502203  0.99742376  0.23759814  1
  Eu  Eu19  1  0.64497797  0.00257624  0.73759814  1
  Eu  Eu20  1  0.64170042  0.42352589  0.12371663  1
  Eu  Eu21  1  0.85829958  0.57647411  0.62371663  1
  Eu  Eu22  1  0.35829958  0.92352589  0.37628337  1
  Eu  Eu23  1  0.14170042  0.07647411  0.87628337  1
  Eu  Eu24  1  0.36097055  0.17603886  0.21716024  1
  Eu  Eu25  1  0.13902945  0.82396114  0.71716024  1
  Eu  Eu26  1  0.63902945  0.67603886  0.28283976  1
  Eu  Eu27  1  0.86097055  0.32396114  0.78283976  1
  Sn  Sn28  1  0.13923977  0.06188150  0.06538117  1
  Sn  Sn29  1  0.36076023  0.93811850  0.56538117  1
  Sn  Sn30  1  0.86076023  0.56188150  0.43461883  1
  Sn  Sn31  1  0.63923977  0.43811850  0.93461883  1
  Sn  Sn32  1  0.09295002  0.12312856  0.37576552  1
  Sn  Sn33  1  0.40704998  0.87687144  0.87576552  1
  Sn  Sn34  1  0.90704998  0.62312856  0.12423448  1
  Sn  Sn35  1  0.59295002  0.37687144  0.62423448  1
  Sn  Sn36  1  0.14724942  0.05660238  0.68926990  1
  Sn  Sn37  1  0.35275058  0.94339762  0.18926990  1
  Sn  Sn38  1  0.85275058  0.55660238  0.81073010  1
  Sn  Sn39  1  0.64724942  0.44339762  0.31073010  1
  Sn  Sn40  1  0.18973179  0.69017118  0.37432865  1
  Sn  Sn41  1  0.31026821  0.30982882  0.87432865  1
  Sn  Sn42  1  0.81026821  0.19017118  0.12567135  1
  Sn  Sn43  1  0.68973179  0.80982882  0.62567135  1
  Sn  Sn44  1  0.13290755  0.34471717  0.12018057  1
  Sn  Sn45  1  0.36709245  0.65528283  0.62018057  1
  Sn  Sn46  1  0.86709245  0.84471717  0.37981943  1
  Sn  Sn47  1  0.63290755  0.15528283  0.87981943  1
  Sn  Sn48  1  0.33999808  0.30698703  0.37813131  1
  Sn  Sn49  1  0.16000192  0.69301297  0.87813131  1
  Sn  Sn50  1  0.66000192  0.80698703  0.12186869  1
  Sn  Sn51  1  0.83999808  0.19301297  0.62186869  1
  Sn  Sn52  1  0.61216886  0.13067112  0.37857354  1
  Sn  Sn53  1  0.88783114  0.86932888  0.87857354  1
  Sn  Sn54  1  0.38783114  0.63067112  0.12142646  1
  Sn  Sn55  1  0.11216886  0.36932888  0.62142646  1
