# generated using pymatgen
data_Li4V3P8O29
_symmetry_space_group_name_H-M   'P 1'
_cell_length_a   9.76253000
_cell_length_b   9.77400558
_cell_length_c   14.20307236
_cell_angle_alpha   90.21856922
_cell_angle_beta   89.89338426
_cell_angle_gamma   119.92309566
_symmetry_Int_Tables_number   1
_chemical_formula_structural   Li4V3P8O29
_chemical_formula_sum   'Li8 V6 P16 O58'
_cell_volume   1174.57503314
_cell_formula_units_Z   2
loop_
 _symmetry_equiv_pos_site_id
 _symmetry_equiv_pos_as_xyz
  1  'x, y, z'
loop_
 _atom_site_type_symbol
 _atom_site_label
 _atom_site_symmetry_multiplicity
 _atom_site_fract_x
 _atom_site_fract_y
 _atom_site_fract_z
 _atom_site_occupancy
  Li  Li0  1  0.09647100  0.76922100  0.56240800  1
  Li  Li1  1  0.68340100  0.91392800  0.56460800  1
  Li  Li2  1  0.67371700  0.76400400  0.05580900  1
  Li  Li3  1  0.09417700  0.32474900  0.05817600  1
  Li  Li4  1  0.77326600  0.68528700  0.44094500  1
  Li  Li5  1  0.23088400  0.32803400  0.56000800  1
  Li  Li6  1  0.31714300  0.09298400  0.43980700  1
  Li  Li7  1  0.03644600  0.98347400  0.00268100  1
  V  V8  1  0.56559800  0.56707300  0.24853600  1
  V  V9  1  0.43426900  0.43147100  0.75342500  1
  V  V10  1  0.99786500  0.56451200  0.75539600  1
  V  V11  1  0.99833200  0.43398800  0.25052400  1
  V  V12  1  0.43232500  0.99389800  0.24183800  1
  V  V13  1  0.56732500  0.00269900  0.75154700  1
  P  P14  1  0.22341700  0.91822100  0.83950200  1
  P  P15  1  0.08833300  0.77113500  0.34161400  1
  P  P16  1  0.67968300  0.91290100  0.34634100  1
  P  P17  1  0.33163900  0.66317300  0.12812600  1
  P  P18  1  0.33242300  0.66438100  0.63077900  1
  P  P19  1  0.68634500  0.77422000  0.84051000  1
  P  P20  1  0.77127600  0.68097700  0.65949600  1
  P  P21  1  0.08539600  0.31225700  0.84340200  1
  P  P22  1  0.91665700  0.69296200  0.15840200  1
  P  P23  1  0.23102000  0.32126300  0.34184400  1
  P  P24  1  0.30764400  0.22255100  0.16088300  1
  P  P25  1  0.66341500  0.33118500  0.36673200  1
  P  P26  1  0.66822300  0.33510300  0.86937700  1
  P  P27  1  0.31839400  0.08805700  0.65680200  1
  P  P28  1  0.91475600  0.22834000  0.66129000  1
  P  P29  1  0.77834400  0.08282200  0.16371500  1
  O  O30  1  0.24251200  0.00315000  0.56618400  1
  O  O31  1  0.25553500  0.91814800  0.33832300  1
  O  O32  1  0.00046100  0.79183900  0.07655800  1
  O  O33  1  0.08465400  0.74306700  0.82821200  1
  O  O34  1  0.37997300  0.91940000  0.83094000  1
  O  O35  1  0.32541100  0.81026700  0.17424100  1
  O  O36  1  0.51995500  0.90201600  0.31882700  1
  O  O37  1  0.78503800  0.98852100  0.08354900  1
  O  O38  1  0.65484600  0.91267700  0.83055700  1
  O  O39  1  0.18351400  0.66632000  0.67312400  1
  O  O40  1  0.09805700  0.61941000  0.32160500  1
  O  O41  1  0.48499600  0.81438400  0.66662700  1
  O  O42  1  0.32593900  0.66281100  0.02373400  1
  O  O43  1  0.32269500  0.65341900  0.52568900  1
  O  O44  1  0.48748700  0.67747000  0.16704500  1
  O  O45  1  0.08931600  0.47239200  0.82801600  1
  O  O46  1  0.18484200  0.51099500  0.17076100  1
  O  O47  1  0.66559400  0.74779600  0.33778100  1
  O  O48  1  0.79484800  0.79016300  0.75037300  1
  O  O49  1  0.76239300  0.76027200  0.57091600  1
  O  O50  1  0.76548800  0.77807700  0.93067600  1
  O  O51  1  0.52759700  0.61657900  0.82438000  1
  O  O52  1  0.33418900  0.51474000  0.67286900  1
  O  O53  1  0.74170600  0.65605300  0.16296500  1
  O  O54  1  0.38120700  0.48179100  0.32191400  1
  O  O55  1  0.08449400  0.34237400  0.33222100  1
  O  O56  1  0.99208500  0.78929500  0.25642100  1
  O  O57  1  0.00475000  0.75936100  0.43268500  1
  O  O58  1  0.01277300  0.23656600  0.57946400  1
  O  O59  1  0.91867200  0.66063800  0.65894200  1
  O  O60  1  0.61900800  0.52213600  0.67662700  1
  O  O61  1  0.25634900  0.34155300  0.82937300  1
  O  O62  1  0.66958600  0.48533700  0.32973000  1
  O  O63  1  0.46282000  0.37886200  0.16829700  1
  O  O64  1  0.19937300  0.20157900  0.08142600  1
  O  O65  1  0.24200200  0.24998200  0.43275600  1
  O  O66  1  0.21187000  0.20186900  0.25883500  1
  O  O67  1  0.33913300  0.25652300  0.65886400  1
  O  O68  1  0.81442900  0.48778200  0.82286700  1
  O  O69  1  0.91994600  0.53627300  0.17218400  1
  O  O70  1  0.51785900  0.33417500  0.82287900  1
  O  O71  1  0.66930200  0.34981300  0.97299200  1
  O  O72  1  0.66767300  0.32898100  0.47118300  1
  O  O73  1  0.51601700  0.18150500  0.32456600  1
  O  O74  1  0.90784100  0.38164900  0.67943800  1
  O  O75  1  0.81540600  0.33714000  0.31850100  1
  O  O76  1  0.34200500  0.08272200  0.16722400  1
  O  O77  1  0.20301500  0.99670700  0.74256000  1
  O  O78  1  0.19816400  0.99640900  0.92112500  1
  O  O79  1  0.47798500  0.09727500  0.67522100  1
  O  O80  1  0.67485900  0.19417600  0.82631200  1
  O  O81  1  0.61854700  0.08416600  0.17214500  1
  O  O82  1  0.91705800  0.25660500  0.16149800  1
  O  O83  1  0.01883700  0.23787900  0.93577200  1
  O  O84  1  0.98820600  0.20039100  0.75799800  1
  O  O85  1  0.74630900  0.08385600  0.65965900  1
  O  O86  1  0.74218800  0.98793500  0.43882300  1
  O  O87  1  0.79947400  0.01610200  0.26271100  1
