# generated using pymatgen
data_LiReN2
_symmetry_space_group_name_H-M   'P 1'
_cell_length_a   5.62408570
_cell_length_b   6.54524314
_cell_length_c   5.55158662
_cell_angle_alpha   90.00000000
_cell_angle_beta   90.00000000
_cell_angle_gamma   90.00000000
_symmetry_Int_Tables_number   1
_chemical_formula_structural   LiReN2
_chemical_formula_sum   'Li4 Re4 N8'
_cell_volume   204.35950141
_cell_formula_units_Z   4
loop_
 _symmetry_equiv_pos_site_id
 _symmetry_equiv_pos_as_xyz
  1  'x, y, z'
loop_
 _atom_site_type_symbol
 _atom_site_label
 _atom_site_symmetry_multiplicity
 _atom_site_fract_x
 _atom_site_fract_y
 _atom_site_fract_z
 _atom_site_occupancy
  Li  Li0  1  0.58749261  0.37691582  0.00447212  1
  Li  Li1  1  0.41250739  0.62308418  0.50447212  1
  Li  Li2  1  0.91250739  0.87691582  0.50447212  1
  Li  Li3  1  0.08749261  0.12308418  0.00447212  1
  Re  Re4  1  0.56892516  0.86938187  0.01259470  1
  Re  Re5  1  0.43107484  0.13061813  0.51259470  1
  Re  Re6  1  0.93107484  0.36938187  0.51259470  1
  Re  Re7  1  0.06892516  0.63061813  0.01259470  1
  N  N8  1  0.60530861  0.35961621  0.40082986  1
  N  N9  1  0.39469139  0.64038379  0.90082986  1
  N  N10  1  0.89469139  0.85961621  0.90082986  1
  N  N11  1  0.10530861  0.14038379  0.40082986  1
  N  N12  1  0.55466373  0.89844704  0.35210231  1
  N  N13  1  0.44533627  0.10155296  0.85210231  1
  N  N14  1  0.94533627  0.39844704  0.85210231  1
  N  N15  1  0.05466373  0.60155296  0.35210231  1
