# generated using pymatgen
data_Li3VSi2O7
_symmetry_space_group_name_H-M   'P 1'
_cell_length_a   8.59754833
_cell_length_b   8.61494728
_cell_length_c   13.15185563
_cell_angle_alpha   89.71787247
_cell_angle_beta   90.01285907
_cell_angle_gamma   120.12799625
_symmetry_Int_Tables_number   1
_chemical_formula_structural   Li3VSi2O7
_chemical_formula_sum   'Li18 V6 Si12 O42'
_cell_volume   842.51296989
_cell_formula_units_Z   6
loop_
 _symmetry_equiv_pos_site_id
 _symmetry_equiv_pos_as_xyz
  1  'x, y, z'
loop_
 _atom_site_type_symbol
 _atom_site_label
 _atom_site_symmetry_multiplicity
 _atom_site_fract_x
 _atom_site_fract_y
 _atom_site_fract_z
 _atom_site_occupancy
  Li  Li0  1  0.02533100  0.68868700  0.90061500  1
  Li  Li1  1  0.02222100  0.69401300  0.56608100  1
  Li  Li2  1  0.33405200  0.66773900  0.22851100  1
  Li  Li3  1  0.33018500  0.66242500  0.72907000  1
  Li  Li4  1  0.00057000  0.99965600  0.43568400  1
  Li  Li5  1  0.99955600  0.99806700  0.93584500  1
  Li  Li6  1  0.30767000  0.33110700  0.56390300  1
  Li  Li7  1  0.31044700  0.33525800  0.89977500  1
  Li  Li8  1  0.66731100  0.97503300  0.90066100  1
  Li  Li9  1  0.67269900  0.97810900  0.56746300  1
  Li  Li10  1  0.32722800  0.02268600  0.06664400  1
  Li  Li11  1  0.33358900  0.02381800  0.39785700  1
  Li  Li12  1  0.68885000  0.66333600  0.40132000  1
  Li  Li13  1  0.69352100  0.67098900  0.06491200  1
  Li  Li14  1  0.65890000  0.32732300  0.23234700  1
  Li  Li15  1  0.66600300  0.33280000  0.72875300  1
  Li  Li16  1  0.97751900  0.30830500  0.06561200  1
  Li  Li17  1  0.97570500  0.30897400  0.40111400  1
  V  V18  1  0.99625100  0.99637200  0.22758900  1
  V  V19  1  0.00423300  0.00387300  0.72780900  1
  V  V20  1  0.33358000  0.66717000  0.51032600  1
  V  V21  1  0.33482400  0.66767600  0.95607300  1
  V  V22  1  0.66609200  0.33263600  0.45658600  1
  V  V23  1  0.66591100  0.33324600  0.01040300  1
  Si  Si24  1  0.02623200  0.67357200  0.34549200  1
  Si  Si25  1  0.02386500  0.67169400  0.12139700  1
  Si  Si26  1  0.32644300  0.35268300  0.12135700  1
  Si  Si27  1  0.32453300  0.35145000  0.34447900  1
  Si  Si28  1  0.64926600  0.97695100  0.12171900  1
  Si  Si29  1  0.64917100  0.97458500  0.34561100  1
  Si  Si30  1  0.35132300  0.02600600  0.84584100  1
  Si  Si31  1  0.35182500  0.02345300  0.62140700  1
  Si  Si32  1  0.67550900  0.64834900  0.84468000  1
  Si  Si33  1  0.67355100  0.64868500  0.62157000  1
  Si  Si34  1  0.97529100  0.32759200  0.62151400  1
  Si  Si35  1  0.97381800  0.32648900  0.84540100  1
  O  O36  1  0.13184800  0.92697300  0.84148200  1
  O  O37  1  0.13329300  0.92417900  0.62739300  1
  O  O38  1  0.12870800  0.69412700  0.23344100  1
  O  O39  1  0.18624200  0.75586200  0.03689700  1
  O  O40  1  0.18820900  0.75779300  0.43012200  1
  O  O41  1  0.11788100  0.54109200  0.60494900  1
  O  O42  1  0.11894700  0.53899000  0.85920200  1
  O  O43  1  0.07035300  0.20403800  0.84213200  1
  O  O44  1  0.42166800  0.88374900  0.86282000  1
  O  O45  1  0.07582400  0.21042200  0.62850700  1
  O  O46  1  0.42356300  0.88235700  0.60681200  1
  O  O47  1  0.24489800  0.43442800  0.03671900  1
  O  O48  1  0.24147800  0.42722000  0.43054000  1
  O  O49  1  0.30475700  0.43583400  0.23283200  1
  O  O50  1  0.20312800  0.13214300  0.33936700  1
  O  O51  1  0.56786600  0.87063100  0.23403100  1
  O  O52  1  0.20734800  0.13514800  0.12782000  1
  O  O53  1  0.57064700  0.81227800  0.43081600  1
  O  O54  1  0.57287800  0.81599300  0.03703400  1
  O  O55  1  0.46000400  0.57848900  0.60596400  1
  O  O56  1  0.46261400  0.58088500  0.86035100  1
  O  O57  1  0.53772000  0.41964000  0.35949700  1
  O  O58  1  0.54015300  0.42336900  0.10541400  1
  O  O59  1  0.43107200  0.18708700  0.53681700  1
  O  O60  1  0.42832700  0.18828900  0.92958300  1
  O  O61  1  0.79296000  0.86629600  0.62851300  1
  O  O62  1  0.43309200  0.12857800  0.73331000  1
  O  O63  1  0.79753000  0.86736500  0.83965800  1
  O  O64  1  0.69433700  0.56414200  0.73330100  1
  O  O65  1  0.75934600  0.57059700  0.92973500  1
  O  O66  1  0.75573500  0.56964400  0.53673300  1
  O  O67  1  0.57492200  0.11668700  0.10657000  1
  O  O68  1  0.92586100  0.79148200  0.12766800  1
  O  O69  1  0.57972400  0.11793700  0.35965300  1
  O  O70  1  0.92912300  0.79539100  0.34159700  1
  O  O71  1  0.88246300  0.46105700  0.36252500  1
  O  O72  1  0.88109600  0.45848100  0.10628300  1
  O  O73  1  0.81134900  0.24207900  0.93003500  1
  O  O74  1  0.81316200  0.24265600  0.53726400  1
  O  O75  1  0.87027500  0.30470000  0.73335500  1
  O  O76  1  0.86774800  0.07865200  0.12850300  1
  O  O77  1  0.86877400  0.07243600  0.34182200  1
