# generated using pymatgen
data_Li2MnVP2(HO5)2
_symmetry_space_group_name_H-M   'P 1'
_cell_length_a   6.95590800
_cell_length_b   7.49641487
_cell_length_c   7.86257683
_cell_angle_alpha   116.84456917
_cell_angle_beta   91.57554929
_cell_angle_gamma   90.78181309
_symmetry_Int_Tables_number   1
_chemical_formula_structural   Li2MnVP2(HO5)2
_chemical_formula_sum   'Li4 Mn2 V2 P4 H4 O20'
_cell_volume   365.51214991
_cell_formula_units_Z   2
loop_
 _symmetry_equiv_pos_site_id
 _symmetry_equiv_pos_as_xyz
  1  'x, y, z'
loop_
 _atom_site_type_symbol
 _atom_site_label
 _atom_site_symmetry_multiplicity
 _atom_site_fract_x
 _atom_site_fract_y
 _atom_site_fract_z
 _atom_site_occupancy
  Li  Li0  1  0.16134900  0.58470100  0.76274100  1
  Li  Li1  1  0.34058300  0.91407900  0.73993800  1
  Li  Li2  1  0.65873900  0.08887100  0.26125500  1
  Li  Li3  1  0.83822700  0.41313600  0.23513200  1
  Mn  Mn4  1  0.25116500  0.74967300  0.24944900  1
  Mn  Mn5  1  0.50172800  0.49997100  0.50097900  1
  V  V6  1  0.99917500  0.99999700  0.00081900  1
  V  V7  1  0.74849700  0.25127000  0.75074600  1
  P  P8  1  0.59080000  0.72662500  0.96132100  1
  P  P9  1  0.09748100  0.22738000  0.45875800  1
  P  P10  1  0.90713300  0.77545900  0.54069300  1
  P  P11  1  0.40496600  0.27144300  0.03983600  1
  H  H12  1  0.04267800  0.32056300  0.98076800  1
  H  H13  1  0.54524100  0.81327700  0.48329900  1
  H  H14  1  0.45594200  0.18482200  0.51743800  1
  H  H15  1  0.95607400  0.67927500  0.01737500  1
  O  O16  1  0.05432800  0.83751900  0.71255500  1
  O  O17  1  0.01242600  0.69283700  0.34766000  1
  O  O18  1  0.43974100  0.66975700  0.79615900  1
  O  O19  1  0.71754000  0.90681500  0.98136300  1
  O  O20  1  0.07621600  0.75631700  0.02653800  1
  O  O21  1  0.22119800  0.40913900  0.47712900  1
  O  O22  1  0.42468700  0.73646100  0.47489000  1
  O  O23  1  0.72093500  0.54941600  0.93154600  1
  O  O24  1  0.50404700  0.18832400  0.84321900  1
  O  O25  1  0.77608800  0.95081100  0.56789700  1
  O  O26  1  0.22748100  0.05304700  0.43413800  1
  O  O27  1  0.49120000  0.81013100  0.15863400  1
  O  O28  1  0.27558900  0.44748800  0.06724100  1
  O  O29  1  0.57785700  0.26142400  0.52791800  1
  O  O30  1  0.78241900  0.59275700  0.51880500  1
  O  O31  1  0.92128000  0.24317800  0.96852900  1
  O  O32  1  0.27869000  0.09185400  0.02263100  1
  O  O33  1  0.55809000  0.32918500  0.20467400  1
  O  O34  1  0.99253000  0.30928400  0.65096500  1
  O  O35  1  0.94788000  0.16371400  0.28696400  1
