# generated using pymatgen
data_Li7MoN4
_symmetry_space_group_name_H-M   'P 1'
_cell_length_a   9.80484180
_cell_length_b   9.80484180
_cell_length_c   9.80484180
_cell_angle_alpha   90.00000000
_cell_angle_beta   90.00000000
_cell_angle_gamma   90.00000000
_symmetry_Int_Tables_number   1
_chemical_formula_structural   Li7MoN4
_chemical_formula_sum   'Li56 Mo8 N32'
_cell_volume   942.58770875
_cell_formula_units_Z   8
loop_
 _symmetry_equiv_pos_site_id
 _symmetry_equiv_pos_as_xyz
  1  'x, y, z'
loop_
 _atom_site_type_symbol
 _atom_site_label
 _atom_site_symmetry_multiplicity
 _atom_site_fract_x
 _atom_site_fract_y
 _atom_site_fract_z
 _atom_site_occupancy
  Li  Li0  1  0.36814076  0.63185924  0.13185924  1
  Li  Li1  1  0.63185924  0.13185924  0.36814076  1
  Li  Li2  1  0.13185924  0.36814076  0.63185924  1
  Li  Li3  1  0.86814076  0.86814076  0.86814076  1
  Li  Li4  1  0.63185924  0.36814076  0.86814076  1
  Li  Li5  1  0.36814076  0.86814076  0.63185924  1
  Li  Li6  1  0.86814076  0.63185924  0.36814076  1
  Li  Li7  1  0.13185924  0.13185924  0.13185924  1
  Li  Li8  1  0.36997191  0.63137977  0.38249451  1
  Li  Li9  1  0.63002809  0.13137977  0.11750549  1
  Li  Li10  1  0.13002809  0.36862023  0.88249451  1
  Li  Li11  1  0.86997191  0.86862023  0.61750549  1
  Li  Li12  1  0.38249451  0.36997191  0.63137977  1
  Li  Li13  1  0.11750549  0.63002809  0.13137977  1
  Li  Li14  1  0.88249451  0.13002809  0.36862023  1
  Li  Li15  1  0.61750549  0.86997191  0.86862023  1
  Li  Li16  1  0.63137977  0.38249451  0.36997191  1
  Li  Li17  1  0.13137977  0.11750549  0.63002809  1
  Li  Li18  1  0.36862023  0.88249451  0.13002809  1
  Li  Li19  1  0.86862023  0.61750549  0.86997191  1
  Li  Li20  1  0.63002809  0.36862023  0.61750549  1
  Li  Li21  1  0.36997191  0.86862023  0.88249451  1
  Li  Li22  1  0.86997191  0.63137977  0.11750549  1
  Li  Li23  1  0.13002809  0.13137977  0.38249451  1
  Li  Li24  1  0.61750549  0.63002809  0.36862023  1
  Li  Li25  1  0.88249451  0.36997191  0.86862023  1
  Li  Li26  1  0.11750549  0.86997191  0.63137977  1
  Li  Li27  1  0.38249451  0.13002809  0.13137977  1
  Li  Li28  1  0.36862023  0.61750549  0.63002809  1
  Li  Li29  1  0.86862023  0.88249451  0.36997191  1
  Li  Li30  1  0.63137977  0.11750549  0.86997191  1
  Li  Li31  1  0.13137977  0.38249451  0.13002809  1
  Li  Li32  1  0.40128101  0.86318392  0.38021180  1
  Li  Li33  1  0.59871899  0.36318392  0.11978820  1
  Li  Li34  1  0.09871899  0.13681608  0.88021180  1
  Li  Li35  1  0.90128101  0.63681608  0.61978820  1
  Li  Li36  1  0.38021180  0.40128101  0.86318392  1
  Li  Li37  1  0.11978820  0.59871899  0.36318392  1
  Li  Li38  1  0.88021180  0.09871899  0.13681608  1
  Li  Li39  1  0.61978820  0.90128101  0.63681608  1
  Li  Li40  1  0.86318392  0.38021180  0.40128101  1
  Li  Li41  1  0.36318392  0.11978820  0.59871899  1
  Li  Li42  1  0.13681608  0.88021180  0.09871899  1
  Li  Li43  1  0.63681608  0.61978820  0.90128101  1
  Li  Li44  1  0.59871899  0.13681608  0.61978820  1
  Li  Li45  1  0.40128101  0.63681608  0.88021180  1
  Li  Li46  1  0.90128101  0.86318392  0.11978820  1
  Li  Li47  1  0.09871899  0.36318392  0.38021180  1
  Li  Li48  1  0.61978820  0.59871899  0.13681608  1
  Li  Li49  1  0.88021180  0.40128101  0.63681608  1
  Li  Li50  1  0.11978820  0.90128101  0.86318392  1
  Li  Li51  1  0.38021180  0.09871899  0.36318392  1
  Li  Li52  1  0.13681608  0.61978820  0.59871899  1
  Li  Li53  1  0.63681608  0.88021180  0.40128101  1
  Li  Li54  1  0.86318392  0.11978820  0.90128101  1
  Li  Li55  1  0.36318392  0.38021180  0.09871899  1
  Mo  Mo56  1  0.13084281  0.86915719  0.36915719  1
  Mo  Mo57  1  0.86915719  0.36915719  0.13084281  1
  Mo  Mo58  1  0.36915719  0.13084281  0.86915719  1
  Mo  Mo59  1  0.63084281  0.63084281  0.63084281  1
  Mo  Mo60  1  0.86915719  0.13084281  0.63084281  1
  Mo  Mo61  1  0.13084281  0.63084281  0.86915719  1
  Mo  Mo62  1  0.63084281  0.86915719  0.13084281  1
  Mo  Mo63  1  0.36915719  0.36915719  0.36915719  1
  N  N64  1  0.24424267  0.75575733  0.25575733  1
  N  N65  1  0.75575733  0.25575733  0.24424267  1
  N  N66  1  0.25575733  0.24424267  0.75575733  1
  N  N67  1  0.74424267  0.74424267  0.74424267  1
  N  N68  1  0.75575733  0.24424267  0.74424267  1
  N  N69  1  0.24424267  0.74424267  0.75575733  1
  N  N70  1  0.74424267  0.75575733  0.24424267  1
  N  N71  1  0.25575733  0.25575733  0.25575733  1
  N  N72  1  0.01698465  0.98846218  0.25720691  1
  N  N73  1  0.98301535  0.48846218  0.24279309  1
  N  N74  1  0.48301535  0.01153782  0.75720691  1
  N  N75  1  0.51698465  0.51153782  0.74279309  1
  N  N76  1  0.25720691  0.01698465  0.98846218  1
  N  N77  1  0.24279309  0.98301535  0.48846218  1
  N  N78  1  0.75720691  0.48301535  0.01153782  1
  N  N79  1  0.74279309  0.51698465  0.51153782  1
  N  N80  1  0.98846218  0.25720691  0.01698465  1
  N  N81  1  0.48846218  0.24279309  0.98301535  1
  N  N82  1  0.01153782  0.75720691  0.48301535  1
  N  N83  1  0.51153782  0.74279309  0.51698465  1
  N  N84  1  0.98301535  0.01153782  0.74279309  1
  N  N85  1  0.01698465  0.51153782  0.75720691  1
  N  N86  1  0.51698465  0.98846218  0.24279309  1
  N  N87  1  0.48301535  0.48846218  0.25720691  1
  N  N88  1  0.74279309  0.98301535  0.01153782  1
  N  N89  1  0.75720691  0.01698465  0.51153782  1
  N  N90  1  0.24279309  0.51698465  0.98846218  1
  N  N91  1  0.25720691  0.48301535  0.48846218  1
  N  N92  1  0.01153782  0.74279309  0.98301535  1
  N  N93  1  0.51153782  0.75720691  0.01698465  1
  N  N94  1  0.98846218  0.24279309  0.51698465  1
  N  N95  1  0.48846218  0.25720691  0.48301535  1
