# generated using pymatgen
data_Li3MnFeCo(PO4)3
_symmetry_space_group_name_H-M   'P 1'
_cell_length_a   6.07833600
_cell_length_b   10.47589900
_cell_length_c   14.29658487
_cell_angle_alpha   89.95782344
_cell_angle_beta   90.00000000
_cell_angle_gamma   90.00000000
_symmetry_Int_Tables_number   1
_chemical_formula_structural   Li3MnFeCo(PO4)3
_chemical_formula_sum   'Li12 Mn4 Fe4 Co4 P12 O48'
_cell_volume   910.34957818
_cell_formula_units_Z   4
loop_
 _symmetry_equiv_pos_site_id
 _symmetry_equiv_pos_as_xyz
  1  'x, y, z'
loop_
 _atom_site_type_symbol
 _atom_site_label
 _atom_site_symmetry_multiplicity
 _atom_site_fract_x
 _atom_site_fract_y
 _atom_site_fract_z
 _atom_site_occupancy
  Li  Li0  1  0.74959900  0.00146200  0.66739700  1
  Li  Li1  1  0.24833800  0.00090700  0.99950100  1
  Li  Li2  1  0.75166200  0.00090700  0.99950100  1
  Li  Li3  1  0.24919100  0.00094200  0.33345200  1
  Li  Li4  1  0.75080900  0.00094200  0.33345200  1
  Li  Li5  1  0.25040100  0.00146200  0.66739700  1
  Li  Li6  1  0.24975300  0.49884600  0.50051100  1
  Li  Li7  1  0.75024700  0.49884600  0.50051100  1
  Li  Li8  1  0.24925800  0.49843900  0.16748800  1
  Li  Li9  1  0.75074200  0.49843900  0.16748800  1
  Li  Li10  1  0.25043600  0.49884200  0.83276700  1
  Li  Li11  1  0.74956400  0.49884200  0.83276700  1
  Mn  Mn12  1  0.50000000  0.78184000  0.16056200  1
  Mn  Mn13  1  0.50000000  0.78103400  0.82633800  1
  Mn  Mn14  1  0.00000000  0.71906300  0.65995800  1
  Mn  Mn15  1  0.50000000  0.27953200  0.00676300  1
  Fe  Fe16  1  0.50000000  0.78153000  0.49224400  1
  Fe  Fe17  1  0.00000000  0.71949800  0.99252800  1
  Fe  Fe18  1  0.00000000  0.71856200  0.32600300  1
  Fe  Fe19  1  0.50000000  0.28030100  0.34195100  1
  Co  Co20  1  0.50000000  0.27644600  0.67321100  1
  Co  Co21  1  0.00000000  0.22281700  0.83934600  1
  Co  Co22  1  0.00000000  0.21999600  0.50674200  1
  Co  Co23  1  0.00000000  0.21949700  0.17354300  1
  P  P24  1  0.00000000  0.90997100  0.80614300  1
  P  P25  1  0.00000000  0.90751900  0.13812200  1
  P  P26  1  0.00000000  0.90793100  0.47195300  1
  P  P27  1  0.50000000  0.59239300  0.30732800  1
  P  P28  1  0.50000000  0.59098800  0.63736000  1
  P  P29  1  0.50000000  0.59264100  0.97301800  1
  P  P30  1  0.00000000  0.40430900  0.36114300  1
  P  P31  1  0.00000000  0.40489100  0.02889500  1
  P  P32  1  0.00000000  0.40271700  0.69395000  1
  P  P33  1  0.50000000  0.09469700  0.85954400  1
  P  P34  1  0.50000000  0.09616400  0.19497200  1
  P  P35  1  0.50000000  0.09644600  0.52719200  1
  O  O36  1  0.50000000  0.95990800  0.23835600  1
  O  O37  1  0.50000000  0.95917500  0.56910300  1
  O  O38  1  0.50000000  0.95833200  0.90274300  1
  O  O39  1  0.00000000  0.90615900  0.57939700  1
  O  O40  1  0.00000000  0.90395700  0.91361500  1
  O  O41  1  0.00000000  0.90252500  0.24575600  1
  O  O42  1  0.20222000  0.83776200  0.09258700  1
  O  O43  1  0.79778000  0.83776200  0.09258700  1
  O  O44  1  0.20303200  0.83626900  0.42793800  1
  O  O45  1  0.79696800  0.83626900  0.42793800  1
  O  O46  1  0.20210400  0.84002400  0.76050800  1
  O  O47  1  0.79789600  0.84002400  0.76050800  1
  O  O48  1  0.70203800  0.66169800  0.59217300  1
  O  O49  1  0.29796200  0.66169800  0.59217300  1
  O  O50  1  0.70343300  0.66333300  0.26315600  1
  O  O51  1  0.29656700  0.66333300  0.26315600  1
  O  O52  1  0.70355600  0.66382200  0.92956400  1
  O  O53  1  0.29644400  0.66382200  0.92956400  1
  O  O54  1  0.50000000  0.59488200  0.41472400  1
  O  O55  1  0.50000000  0.59294300  0.08048100  1
  O  O56  1  0.50000000  0.59575800  0.74498000  1
  O  O57  1  0.00000000  0.54157300  0.40264800  1
  O  O58  1  0.00000000  0.54324100  0.06828900  1
  O  O59  1  0.00000000  0.53952700  0.73692400  1
  O  O60  1  0.50000000  0.45573100  0.26522700  1
  O  O61  1  0.50000000  0.45681900  0.92939200  1
  O  O62  1  0.50000000  0.45273500  0.59801700  1
  O  O63  1  0.00000000  0.40238800  0.25360500  1
  O  O64  1  0.00000000  0.39927500  0.92117300  1
  O  O65  1  0.00000000  0.40260500  0.58635500  1
  O  O66  1  0.20119700  0.33508000  0.07514700  1
  O  O67  1  0.20162800  0.33267000  0.40613700  1
  O  O68  1  0.20375600  0.33166600  0.73787200  1
  O  O69  1  0.79624400  0.33166600  0.73787200  1
  O  O70  1  0.79880300  0.33508000  0.07514700  1
  O  O71  1  0.79837200  0.33267000  0.40613700  1
  O  O72  1  0.70479400  0.16470000  0.90297600  1
  O  O73  1  0.29520600  0.16470000  0.90297600  1
  O  O74  1  0.70442100  0.16757900  0.23808600  1
  O  O75  1  0.70378400  0.16817500  0.57118700  1
  O  O76  1  0.29557900  0.16757900  0.23808600  1
  O  O77  1  0.29621600  0.16817500  0.57118700  1
  O  O78  1  0.50000000  0.09653900  0.75176800  1
  O  O79  1  0.50000000  0.09713400  0.41969500  1
  O  O80  1  0.50000000  0.09460800  0.08735800  1
  O  O81  1  0.00000000  0.04785100  0.76605300  1
  O  O82  1  0.00000000  0.04602700  0.09839900  1
  O  O83  1  0.00000000  0.04509500  0.43023900  1
