# generated using pymatgen
data_Li2TiCr3O8
_symmetry_space_group_name_H-M   'P 1'
_cell_length_a   5.93936913
_cell_length_b   10.29981566
_cell_length_c   5.93528874
_cell_angle_alpha   73.50726126
_cell_angle_beta   59.94092843
_cell_angle_gamma   89.88407742
_symmetry_Int_Tables_number   1
_chemical_formula_structural   Li2TiCr3O8
_chemical_formula_sum   'Li4 Ti2 Cr6 O16'
_cell_volume   296.99652124
_cell_formula_units_Z   2
loop_
 _symmetry_equiv_pos_site_id
 _symmetry_equiv_pos_as_xyz
  1  'x, y, z'
loop_
 _atom_site_type_symbol
 _atom_site_label
 _atom_site_symmetry_multiplicity
 _atom_site_fract_x
 _atom_site_fract_y
 _atom_site_fract_z
 _atom_site_occupancy
  Li  Li0  1  0.18883400  0.06303700  0.12174800  1
  Li  Li1  1  0.68397800  0.56457300  0.12572400  1
  Li  Li2  1  0.31117800  0.43695400  0.87826700  1
  Li  Li3  1  0.81600800  0.93541700  0.87425300  1
  Ti  Ti4  1  0.75000800  0.25000100  0.50002200  1
  Ti  Ti5  1  0.24994000  0.74997800  0.50003500  1
  Cr  Cr6  1  0.24999000  0.75004300  0.99998200  1
  Cr  Cr7  1  0.24999700  0.24997800  0.50007000  1
  Cr  Cr8  1  0.74997700  0.75003000  0.49995700  1
  Cr  Cr9  1  0.74999300  0.24998400  0.00001600  1
  Cr  Cr10  1  0.50390000  0.99978100  0.49770600  1
  Cr  Cr11  1  0.99611500  0.50022800  0.50225000  1
  O  O12  1  0.41029700  0.13418900  0.24870100  1
  O  O13  1  0.88546800  0.63729100  0.26845600  1
  O  O14  1  0.08970900  0.36579700  0.75131600  1
  O  O15  1  0.61455900  0.86273600  0.73151200  1
  O  O16  1  0.62648500  0.35646300  0.25438700  1
  O  O17  1  0.11854700  0.85730700  0.26795200  1
  O  O18  1  0.84969900  0.13453600  0.25890700  1
  O  O19  1  0.34273200  0.63142300  0.26891000  1
  O  O20  1  0.40066200  0.13315000  0.71134200  1
  O  O21  1  0.88775100  0.63717500  0.71346500  1
  O  O22  1  0.09940900  0.36680900  0.28869500  1
  O  O23  1  0.61224700  0.86282200  0.28648000  1
  O  O24  1  0.65034300  0.36545400  0.74108300  1
  O  O25  1  0.15726900  0.86861100  0.73101900  1
  O  O26  1  0.87349500  0.14349400  0.74569400  1
  O  O27  1  0.38141300  0.64273700  0.73204900  1
