# generated using pymatgen
data_Li5Mn2CoO8
_symmetry_space_group_name_H-M   'P 1'
_cell_length_a   4.97817224
_cell_length_b   7.78275125
_cell_length_c   7.73462296
_cell_angle_alpha   81.75810746
_cell_angle_beta   77.46457444
_cell_angle_gamma   101.89691152
_symmetry_Int_Tables_number   1
_chemical_formula_structural   Li5Mn2CoO8
_chemical_formula_sum   'Li10 Mn4 Co2 O16'
_cell_volume   280.63761098
_cell_formula_units_Z   2
loop_
 _symmetry_equiv_pos_site_id
 _symmetry_equiv_pos_as_xyz
  1  'x, y, z'
loop_
 _atom_site_type_symbol
 _atom_site_label
 _atom_site_symmetry_multiplicity
 _atom_site_fract_x
 _atom_site_fract_y
 _atom_site_fract_z
 _atom_site_occupancy
  Li  Li0  1  0.99914600  0.37988800  0.88298300  1
  Li  Li1  1  0.00028500  0.88120100  0.38047100  1
  Li  Li2  1  0.49256000  0.49558900  0.00264100  1
  Li  Li3  1  0.50004700  0.00081500  0.49802100  1
  Li  Li4  1  0.99418500  0.61984900  0.11878500  1
  Li  Li5  1  0.00266300  0.11653500  0.61440200  1
  Li  Li6  1  0.50132900  0.75153100  0.24970400  1
  Li  Li7  1  0.50543300  0.24934000  0.74813500  1
  Li  Li8  1  0.00167100  0.74994300  0.75046800  1
  Li  Li9  1  0.99552600  0.24820500  0.25366400  1
  Mn  Mn10  1  0.49503500  0.12760200  0.13116700  1
  Mn  Mn11  1  0.99923400  0.00289000  0.00115400  1
  Mn  Mn12  1  0.00269600  0.50137000  0.49844500  1
  Mn  Mn13  1  0.50483600  0.62856800  0.62649500  1
  Co  Co14  1  0.49949200  0.86908000  0.87000700  1
  Co  Co15  1  0.49396400  0.37212100  0.37276400  1
  O  O16  1  0.75291200  0.12078500  0.89359000  1
  O  O17  1  0.75903400  0.62192200  0.39291700  1
  O  O18  1  0.24845000  0.22872700  0.00695900  1
  O  O19  1  0.25342600  0.72600000  0.50664600  1
  O  O20  1  0.71251700  0.36026100  0.13491000  1
  O  O21  1  0.72103000  0.85988500  0.62657900  1
  O  O22  1  0.25263900  0.49408700  0.27076500  1
  O  O23  1  0.24753700  0.99590400  0.77330200  1
  O  O24  1  0.27833700  0.62477500  0.86066200  1
  O  O25  1  0.26908100  0.12079200  0.36378600  1
  O  O26  1  0.75506700  0.77592800  0.99564900  1
  O  O27  1  0.75489900  0.27538100  0.49159700  1
  O  O28  1  0.26008800  0.39254800  0.60823800  1
  O  O29  1  0.24759100  0.89462400  0.11820800  1
  O  O30  1  0.75346300  0.50679700  0.72791800  1
  O  O31  1  0.74582600  0.00705800  0.22896700  1
