# generated using pymatgen
data_Li4V(TeO4)3
_symmetry_space_group_name_H-M   'P 1'
_cell_length_a   10.16988252
_cell_length_b   11.07261154
_cell_length_c   10.27664623
_cell_angle_alpha   102.33858724
_cell_angle_beta   61.40698575
_cell_angle_gamma   78.02772445
_symmetry_Int_Tables_number   1
_chemical_formula_structural   Li4V(TeO4)3
_chemical_formula_sum   'Li16 V4 Te12 O48'
_cell_volume   925.65949926
_cell_formula_units_Z   4
loop_
 _symmetry_equiv_pos_site_id
 _symmetry_equiv_pos_as_xyz
  1  'x, y, z'
loop_
 _atom_site_type_symbol
 _atom_site_label
 _atom_site_symmetry_multiplicity
 _atom_site_fract_x
 _atom_site_fract_y
 _atom_site_fract_z
 _atom_site_occupancy
  Li  Li0  1  0.34780800  0.00204300  0.34881000  1
  Li  Li1  1  0.84781300  0.00204300  0.84883100  1
  Li  Li2  1  0.59804900  0.50190500  0.09856600  1
  Li  Li3  1  0.09794300  0.50198200  0.59864300  1
  Li  Li4  1  0.30930800  0.25193300  0.55978100  1
  Li  Li5  1  0.80933700  0.25190000  0.06001200  1
  Li  Li6  1  0.55918700  0.75204300  0.30981900  1
  Li  Li7  1  0.05932400  0.75215200  0.80979000  1
  Li  Li8  1  0.41642900  0.99372500  0.88273900  1
  Li  Li9  1  0.91597900  0.99393300  0.38312500  1
  Li  Li10  1  0.66878400  0.49302100  0.63078600  1
  Li  Li11  1  0.16897500  0.49296300  0.13062800  1
  Li  Li12  1  0.21410500  0.24997100  0.95891200  1
  Li  Li13  1  0.71415300  0.25009000  0.45888200  1
  Li  Li14  1  0.46475000  0.75027300  0.70845100  1
  Li  Li15  1  0.96480700  0.75034900  0.20834500  1
  V  V16  1  0.55760200  0.00075500  0.54615800  1
  V  V17  1  0.80787300  0.50069200  0.29571100  1
  V  V18  1  0.05753500  0.00059600  0.04609100  1
  V  V19  1  0.30762800  0.50087800  0.79574800  1
  Te  Te20  1  0.07049400  0.25208400  0.32901100  1
  Te  Te21  1  0.57045800  0.25214100  0.82907200  1
  Te  Te22  1  0.32060600  0.75210200  0.07902800  1
  Te  Te23  1  0.82052500  0.75211500  0.57903600  1
  Te  Te24  1  0.71209700  0.00227000  0.21191800  1
  Te  Te25  1  0.21222600  0.00219000  0.71183100  1
  Te  Te26  1  0.96227400  0.50233300  0.96142700  1
  Te  Te27  1  0.46236200  0.50232200  0.46139700  1
  Te  Te28  1  0.42520300  0.24927100  0.17637000  1
  Te  Te29  1  0.92520400  0.24929800  0.67641800  1
  Te  Te30  1  0.67533300  0.74920200  0.92639100  1
  Te  Te31  1  0.17528000  0.74916900  0.42637100  1
  O  O32  1  0.12079300  0.13078500  0.12601700  1
  O  O33  1  0.62094100  0.13081300  0.62596000  1
  O  O34  1  0.37058500  0.63090600  0.87609300  1
  O  O35  1  0.87044900  0.63092300  0.37609000  1
  O  O36  1  0.36492500  0.36831300  0.88655500  1
  O  O37  1  0.86491700  0.36840400  0.38664900  1
  O  O38  1  0.61479000  0.86846400  0.63726300  1
  O  O39  1  0.11489400  0.86843900  0.13721200  1
  O  O40  1  0.27987600  0.14116200  0.27631600  1
  O  O41  1  0.77984900  0.14104800  0.77618100  1
  O  O42  1  0.53005400  0.64077300  0.02573300  1
  O  O43  1  0.03002800  0.64076100  0.52571100  1
  O  O44  1  0.52805300  0.35752500  0.03468200  1
  O  O45  1  0.02798600  0.35759500  0.53478600  1
  O  O46  1  0.77870000  0.85715100  0.78463000  1
  O  O47  1  0.27876500  0.85711900  0.28464600  1
  O  O48  1  0.51503700  0.10382800  0.42437000  1
  O  O49  1  0.01509600  0.10384000  0.92437800  1
  O  O50  1  0.76534300  0.60382700  0.17377800  1
  O  O51  1  0.26526600  0.60392300  0.67385200  1
  O  O52  1  0.67783200  0.39795000  0.26828600  1
  O  O53  1  0.17782200  0.39792800  0.76834100  1
  O  O54  1  0.92787700  0.89765300  0.01904900  1
  O  O55  1  0.42781200  0.89769000  0.51905300  1
  O  O56  1  0.19774700  0.35087300  0.21986100  1
  O  O57  1  0.69771900  0.35078000  0.71982600  1
  O  O58  1  0.44770500  0.85094300  0.97004800  1
  O  O59  1  0.94765500  0.85095700  0.47001500  1
  O  O60  1  0.46753200  0.14879800  0.95291400  1
  O  O61  1  0.96749800  0.14887700  0.45299600  1
  O  O62  1  0.71763200  0.64883600  0.70303700  1
  O  O63  1  0.21767700  0.64880600  0.20304900  1
  O  O64  1  0.99973000  0.39934900  0.08844300  1
  O  O65  1  0.49963400  0.39946500  0.58852300  1
  O  O66  1  0.24959400  0.89950100  0.83917400  1
  O  O67  1  0.74955000  0.89950600  0.33918400  1
  O  O68  1  0.33653100  0.09652800  0.75816200  1
  O  O69  1  0.83652700  0.09650300  0.25813700  1
  O  O70  1  0.58670800  0.59652100  0.50759200  1
  O  O71  1  0.08676800  0.59648800  0.00764600  1
  O  O72  1  0.35082900  0.39230000  0.42290400  1
  O  O73  1  0.85086300  0.39224100  0.92289000  1
  O  O74  1  0.60076100  0.89208400  0.17346000  1
  O  O75  1  0.10073400  0.89197100  0.67356600  1
  O  O76  1  0.67649000  0.11087700  0.09940000  1
  O  O77  1  0.17640300  0.11086900  0.59939700  1
  O  O78  1  0.92641600  0.61117400  0.84907000  1
  O  O79  1  0.42631200  0.61118600  0.34913400  1
