# generated using pymatgen
data_Li2Mn3TeO8
_symmetry_space_group_name_H-M   'P 1'
_cell_length_a   5.92258652
_cell_length_b   6.28700194
_cell_length_c   8.98177705
_cell_angle_alpha   90.02050887
_cell_angle_beta   89.99780125
_cell_angle_gamma   90.05830679
_symmetry_Int_Tables_number   1
_chemical_formula_structural   Li2Mn3TeO8
_chemical_formula_sum   'Li4 Mn6 Te2 O16'
_cell_volume   334.43908427
_cell_formula_units_Z   2
loop_
 _symmetry_equiv_pos_site_id
 _symmetry_equiv_pos_as_xyz
  1  'x, y, z'
loop_
 _atom_site_type_symbol
 _atom_site_label
 _atom_site_symmetry_multiplicity
 _atom_site_fract_x
 _atom_site_fract_y
 _atom_site_fract_z
 _atom_site_occupancy
  Li  Li0  1  0.00043700  0.29179600  0.13124500  1
  Li  Li1  1  0.49921100  0.79229200  0.63089700  1
  Li  Li2  1  0.99946900  0.70761400  0.86914700  1
  Li  Li3  1  0.50071500  0.20829200  0.36875300  1
  Mn  Mn4  1  0.50024600  0.00006400  0.99997700  1
  Mn  Mn5  1  0.75002800  0.74890900  0.25120300  1
  Mn  Mn6  1  0.24986800  0.25113000  0.74896000  1
  Mn  Mn7  1  0.00055000  0.50013100  0.49969000  1
  Mn  Mn8  1  0.25005500  0.75085400  0.24883200  1
  Mn  Mn9  1  0.74984000  0.24906700  0.75104900  1
  Te  Te10  1  0.99993500  0.00017500  0.49992200  1
  Te  Te11  1  0.49996800  0.49988000  0.00011000  1
  O  O12  1  0.00068400  0.55423700  0.25990900  1
  O  O13  1  0.49919000  0.05426100  0.75987600  1
  O  O14  1  0.99930100  0.44590200  0.74016600  1
  O  O15  1  0.50078700  0.94575600  0.24013200  1
  O  O16  1  0.22817700  0.77717400  0.49755200  1
  O  O17  1  0.72930500  0.27791500  0.99786000  1
  O  O18  1  0.77096500  0.77770700  0.49865400  1
  O  O19  1  0.27206800  0.27657800  0.99867400  1
  O  O20  1  0.99893300  0.98143900  0.27558700  1
  O  O21  1  0.49923400  0.48119200  0.77575100  1
  O  O22  1  0.00096900  0.01876000  0.72427500  1
  O  O23  1  0.50065200  0.51846200  0.22442700  1
  O  O24  1  0.22904100  0.22246500  0.50123000  1
  O  O25  1  0.72784900  0.72310000  0.00152000  1
  O  O26  1  0.77180700  0.22303900  0.50229500  1
  O  O27  1  0.27071600  0.72181000  0.00230600  1
