# generated using pymatgen
data_Li9Mn2Co5O16
_symmetry_space_group_name_H-M   'P 1'
_cell_length_a   2.98117200
_cell_length_b   5.97349136
_cell_length_c   16.15634128
_cell_angle_alpha   90.84053803
_cell_angle_beta   90.77911454
_cell_angle_gamma   93.75478665
_symmetry_Int_Tables_number   1
_chemical_formula_structural   Li9Mn2Co5O16
_chemical_formula_sum   'Li9 Mn2 Co5 O16'
_cell_volume   287.03316959
_cell_formula_units_Z   1
loop_
 _symmetry_equiv_pos_site_id
 _symmetry_equiv_pos_as_xyz
  1  'x, y, z'
loop_
 _atom_site_type_symbol
 _atom_site_label
 _atom_site_symmetry_multiplicity
 _atom_site_fract_x
 _atom_site_fract_y
 _atom_site_fract_z
 _atom_site_occupancy
  Li  Li0  1  0.99716300  0.49502400  0.00435200  1
  Li  Li1  1  0.49685400  0.75979600  0.12936300  1
  Li  Li2  1  0.00048000  0.00622800  0.24588300  1
  Li  Li3  1  0.50141400  0.24689200  0.87455500  1
  Li  Li4  1  0.99987400  0.00015500  0.74915700  1
  Li  Li5  1  0.49938300  0.75127300  0.62294100  1
  Li  Li6  1  0.99952700  0.49960500  0.49998600  1
  Li  Li7  1  0.50222400  0.25148700  0.37357000  1
  Li  Li8  1  0.50723700  0.24082800  0.12846800  1
  Mn  Mn9  1  0.99589300  0.00616400  0.00443900  1
  Mn  Mn10  1  0.99931300  0.49920500  0.75005600  1
  Co  Co11  1  0.00430800  0.49177000  0.24471200  1
  Co  Co12  1  0.49528000  0.74883600  0.37421700  1
  Co  Co13  1  0.99765300  0.99809000  0.49791000  1
  Co  Co14  1  0.50902000  0.24781900  0.62362800  1
  Co  Co15  1  0.48881200  0.75449600  0.87497300  1
  O  O16  1  0.47698800  0.77853300  0.99521900  1
  O  O17  1  0.00542000  0.99655400  0.11663300  1
  O  O18  1  0.53083100  0.27171600  0.25096400  1
  O  O19  1  0.02816100  0.51360900  0.87327800  1
  O  O20  1  0.53042500  0.25509400  0.74392500  1
  O  O21  1  0.03662900  0.00949200  0.61927900  1
  O  O22  1  0.48369000  0.75797100  0.49323500  1
  O  O23  1  0.02548000  0.51469100  0.36583400  1
  O  O24  1  0.52009300  0.21981200  0.00025200  1
  O  O25  1  0.99910000  0.50468200  0.13701100  1
  O  O26  1  0.47568600  0.73583100  0.25703100  1
  O  O27  1  0.96697500  0.98557100  0.88033900  1
  O  O28  1  0.47008400  0.74370700  0.75587300  1
  O  O29  1  0.97382300  0.48742300  0.62855400  1
  O  O30  1  0.51458600  0.23841000  0.50520700  1
  O  O31  1  0.96759400  0.98923600  0.37915600  1
