# generated using pymatgen
data_Li7V3P8O29
_symmetry_space_group_name_H-M   'P 1'
_cell_length_a   9.85142400
_cell_length_b   9.86816505
_cell_length_c   13.91880207
_cell_angle_alpha   90.00302081
_cell_angle_beta   90.00277036
_cell_angle_gamma   119.92036750
_symmetry_Int_Tables_number   1
_chemical_formula_structural   Li7V3P8O29
_chemical_formula_sum   'Li14 V6 P16 O58'
_cell_volume   1172.77807041
_cell_formula_units_Z   2
loop_
 _symmetry_equiv_pos_site_id
 _symmetry_equiv_pos_as_xyz
  1  'x, y, z'
loop_
 _atom_site_type_symbol
 _atom_site_label
 _atom_site_symmetry_multiplicity
 _atom_site_fract_x
 _atom_site_fract_y
 _atom_site_fract_z
 _atom_site_occupancy
  Li  Li0  1  0.90102700  0.66368600  0.06423300  1
  Li  Li1  1  0.77235200  0.67813300  0.56012800  1
  Li  Li2  1  0.90991000  0.22417800  0.55736900  1
  Li  Li3  1  0.66553600  0.33123000  0.88471200  1
  Li  Li4  1  0.76417600  0.09161500  0.06506400  1
  Li  Li5  1  0.32475100  0.22911500  0.06492400  1
  Li  Li6  1  0.68503100  0.90918300  0.43526200  1
  Li  Li7  1  0.31847000  0.09296800  0.55886800  1
  Li  Li8  1  0.23217000  0.90119500  0.94017100  1
  Li  Li9  1  0.33641200  0.66874200  0.61463200  1
  Li  Li10  1  0.09077300  0.77916800  0.43606100  1
  Li  Li11  1  0.22879500  0.31851900  0.43563300  1
  Li  Li12  1  0.09874300  0.33359100  0.94228900  1
  Li  Li13  1  0.95193600  0.96580000  0.99991700  1
  V  V14  1  0.56705100  0.99971700  0.24914300  1
  V  V15  1  0.43425900  0.00013400  0.75069700  1
  V  V16  1  0.56589300  0.57003200  0.75429600  1
  V  V17  1  0.43674300  0.43568400  0.24774800  1
  V  V18  1  0.99998000  0.56739400  0.25102000  1
  V  V19  1  0.00103700  0.43504400  0.74892100  1
  P  P20  1  0.91069600  0.68315500  0.84177500  1
  P  P21  1  0.76636900  0.67797200  0.34343000  1
  P  P22  1  0.91461500  0.23393200  0.34207600  1
  P  P23  1  0.66812500  0.33515600  0.12516800  1
  P  P24  1  0.66748700  0.33925200  0.62758700  1
  P  P25  1  0.77672400  0.09228600  0.84561600  1
  P  P26  1  0.68005400  0.91011600  0.65898500  1
  P  P27  1  0.31686100  0.22951000  0.84335200  1
  P  P28  1  0.69174300  0.77370600  0.15726700  1
  P  P29  1  0.32085800  0.09120400  0.34052300  1
  P  P30  1  0.22576200  0.91163100  0.15815000  1
  P  P31  1  0.33285900  0.66473100  0.37309500  1
  P  P32  1  0.32814700  0.66135200  0.87439500  1
  P  P33  1  0.09035100  0.76865100  0.65577700  1
  P  P34  1  0.23205900  0.32180100  0.65625500  1
  P  P35  1  0.08903900  0.31779900  0.15798100  1
  O  O36  1  0.99386200  0.74661200  0.56744100  1
  O  O37  1  0.91659900  0.66483100  0.34253300  1
  O  O38  1  0.79695500  0.78241500  0.07599500  1
  O  O39  1  0.74690100  0.66290600  0.84019700  1
  O  O40  1  0.89779900  0.52023300  0.83174400  1
  O  O41  1  0.81102800  0.48918700  0.16471600  1
  O  O42  1  0.90246900  0.38207800  0.32095200  1
  O  O43  1  0.00085300  0.22467500  0.06971900  1
  O  O44  1  0.92539200  0.25595700  0.83954800  1
  O  O45  1  0.66341100  0.48491900  0.67289700  1
  O  O46  1  0.62108200  0.51776500  0.32355400  1
  O  O47  1  0.81940400  0.34240300  0.67273100  1
  O  O48  1  0.66692100  0.34322800  0.01631000  1
  O  O49  1  0.68302900  0.35321900  0.52132500  1
  O  O50  1  0.67899100  0.19084800  0.15882800  1
  O  O51  1  0.48235200  0.37452700  0.83087000  1
  O  O52  1  0.51126800  0.32226700  0.16434200  1
  O  O53  1  0.75425400  0.08633900  0.34402400  1
  O  O54  1  0.78415900  0.00019900  0.75155000  1
  O  O55  1  0.75844900  0.00306300  0.56988400  1
  O  O56  1  0.78589800  0.01112600  0.93472100  1
  O  O57  1  0.63077900  0.11094500  0.83544300  1
  O  O58  1  0.52066100  0.18901000  0.66451500  1
  O  O59  1  0.66740200  0.91513800  0.15653200  1
  O  O60  1  0.47989900  0.10568600  0.32464500  1
  O  O61  1  0.33426400  0.25514700  0.33788300  1
  O  O62  1  0.78671100  0.79251900  0.25654800  1
  O  O63  1  0.75388700  0.75324100  0.43490000  1
  O  O64  1  0.24591900  0.24292000  0.56740500  1
  O  O65  1  0.67170900  0.74964300  0.65920500  1
  O  O66  1  0.51233200  0.88215600  0.67342300  1
  O  O67  1  0.32986200  0.08078800  0.84433600  1
  O  O68  1  0.48582900  0.81176600  0.33983200  1
  O  O69  1  0.37513900  0.90446700  0.16622600  1
  O  O70  1  0.21366500  0.99399400  0.06871700  1
  O  O71  1  0.23792200  0.00439700  0.43087400  1
  O  O72  1  0.20655800  0.99931500  0.25054500  1
  O  O73  1  0.24955700  0.91986300  0.65406400  1
  O  O74  1  0.47409700  0.65967600  0.82660800  1
  O  O75  1  0.53670800  0.61744200  0.16703100  1
  O  O76  1  0.32701000  0.81014700  0.83950300  1
  O  O77  1  0.31881600  0.63868300  0.98013000  1
  O  O78  1  0.32263700  0.65360300  0.48163900  1
  O  O79  1  0.18545600  0.67246800  0.33442200  1
  O  O80  1  0.37476700  0.48697300  0.67145100  1
  O  O81  1  0.32687300  0.51315900  0.33109700  1
  O  O82  1  0.07874200  0.74406000  0.16286200  1
  O  O83  1  0.00068300  0.78462500  0.74839900  1
  O  O84  1  0.00102700  0.77142500  0.93035800  1
  O  O85  1  0.11713500  0.62811000  0.67342000  1
  O  O86  1  0.18016100  0.51265600  0.82760300  1
  O  O87  1  0.09307500  0.47323600  0.16990800  1
  O  O88  1  0.25516400  0.33751400  0.15842900  1
  O  O89  1  0.23152900  0.23782500  0.93132600  1
  O  O90  1  0.21609100  0.21661200  0.74901100  1
  O  O91  1  0.08061900  0.33202100  0.65559900  1
  O  O92  1  0.00826600  0.25428800  0.43199200  1
  O  O93  1  0.00475900  0.21274800  0.25161400  1
