# generated using pymatgen
data_Li6Zn3(PS4)4
_symmetry_space_group_name_H-M   'P 1'
_cell_length_a   9.31568400
_cell_length_b   11.61084595
_cell_length_c   23.12878666
_cell_angle_alpha   90.02901075
_cell_angle_beta   90.03646760
_cell_angle_gamma   90.08219695
_symmetry_Int_Tables_number   1
_chemical_formula_structural   Li6Zn3(PS4)4
_chemical_formula_sum   'Li24 Zn12 P16 S64'
_cell_volume   2501.67489699
_cell_formula_units_Z   4
loop_
 _symmetry_equiv_pos_site_id
 _symmetry_equiv_pos_as_xyz
  1  'x, y, z'
loop_
 _atom_site_type_symbol
 _atom_site_label
 _atom_site_symmetry_multiplicity
 _atom_site_fract_x
 _atom_site_fract_y
 _atom_site_fract_z
 _atom_site_occupancy
  Li  Li0  1  0.25115500  0.49581800  0.12514700  1
  Li  Li1  1  0.25724500  0.00307000  0.12478800  1
  Li  Li2  1  0.75120100  0.74231300  0.24599600  1
  Li  Li3  1  0.75071900  0.73989900  0.00261400  1
  Li  Li4  1  0.49511200  0.49806300  0.74885100  1
  Li  Li5  1  0.49879700  0.00006900  0.74962200  1
  Li  Li6  1  0.49542300  0.50179700  0.50134300  1
  Li  Li7  1  0.49786100  0.00070000  0.50010000  1
  Li  Li8  1  0.99795400  0.74957600  0.62482800  1
  Li  Li9  1  0.99865800  0.25046300  0.62499300  1
  Li  Li10  1  0.49645400  0.49891200  0.25258000  1
  Li  Li11  1  0.50566400  0.00231400  0.25066600  1
  Li  Li12  1  0.00310300  0.74969600  0.37839100  1
  Li  Li13  1  0.99513300  0.25290000  0.37463000  1
  Li  Li14  1  0.49766200  0.49581600  0.99947000  1
  Li  Li15  1  0.50595600  0.00357600  0.99853000  1
  Li  Li16  1  0.00646000  0.74937700  0.12595500  1
  Li  Li17  1  0.98923200  0.25165800  0.12394900  1
  Li  Li18  1  0.00149900  0.74821100  0.87258100  1
  Li  Li19  1  0.99719700  0.24965000  0.87412000  1
  Li  Li20  1  0.51673900  0.25175600  0.12559400  1
  Li  Li21  1  0.49905800  0.74887600  0.12442400  1
  Li  Li22  1  0.99994500  0.49717200  0.24986500  1
  Li  Li23  1  0.00031400  0.49790400  0.99859900  1
  Zn  Zn24  1  0.50034200  0.25117600  0.87620900  1
  Zn  Zn25  1  0.49324000  0.74818300  0.87334100  1
  Zn  Zn26  1  0.50088900  0.24989500  0.62492900  1
  Zn  Zn27  1  0.50188100  0.75000700  0.62502800  1
  Zn  Zn28  1  0.00026700  0.49983000  0.74980700  1
  Zn  Zn29  1  0.00149900  0.00042600  0.74961600  1
  Zn  Zn30  1  0.49927700  0.25095900  0.37472600  1
  Zn  Zn31  1  0.49495200  0.75064100  0.37598600  1
  Zn  Zn32  1  0.00036800  0.50027800  0.49958400  1
  Zn  Zn33  1  0.00115500  0.99961600  0.50084700  1
  Zn  Zn34  1  0.00153300  0.00215600  0.25099400  1
  Zn  Zn35  1  0.00168300  0.00157800  0.99919300  1
  P  P36  1  0.25016300  0.24945500  0.75005900  1
  P  P37  1  0.24941100  0.75015100  0.74939900  1
  P  P38  1  0.24961700  0.25017300  0.49992200  1
  P  P39  1  0.24983900  0.75053300  0.50067300  1
  P  P40  1  0.75034400  0.49990700  0.62495000  1
  P  P41  1  0.74993800  0.00008400  0.62508300  1
  P  P42  1  0.25081800  0.24308900  0.24725300  1
  P  P43  1  0.24999700  0.74761000  0.25209300  1
  P  P44  1  0.75068300  0.49679500  0.37576200  1
  P  P45  1  0.74777700  0.99875400  0.37542300  1
  P  P46  1  0.25041400  0.25288600  0.99813300  1
  P  P47  1  0.25039900  0.75690000  0.00202800  1
  P  P48  1  0.74963400  0.50548200  0.12496100  1
  P  P49  1  0.75146300  0.99523600  0.12538700  1
  P  P50  1  0.74590400  0.50562300  0.87389900  1
  P  P51  1  0.75206700  0.99910700  0.87526300  1
  S  S52  1  0.13043700  0.35402100  0.94663500  1
  S  S53  1  0.12893400  0.85953300  0.94769400  1
  S  S54  1  0.13572400  0.36095600  0.69796200  1
  S  S55  1  0.13408900  0.86089000  0.69733400  1
  S  S56  1  0.62713700  0.61191000  0.82063900  1
  S  S57  1  0.63351000  0.10852000  0.82416500  1
  S  S58  1  0.13573000  0.36151400  0.44768600  1
  S  S59  1  0.13793900  0.86337100  0.44856400  1
  S  S60  1  0.63625100  0.61163700  0.57288600  1
  S  S61  1  0.63600800  0.11132000  0.57275300  1
  S  S62  1  0.13147500  0.35170400  0.19643500  1
  S  S63  1  0.13442600  0.86236200  0.19852800  1
  S  S64  1  0.63046800  0.61181900  0.32419500  1
  S  S65  1  0.63779800  0.11130000  0.32325300  1
  S  S66  1  0.62678000  0.60919700  0.07068900  1
  S  S67  1  0.63737700  0.10114700  0.07385000  1
  S  S68  1  0.36425200  0.64668700  0.69362300  1
  S  S69  1  0.36417100  0.14560600  0.69397100  1
  S  S70  1  0.36173300  0.64568900  0.44459500  1
  S  S71  1  0.36375700  0.14601400  0.44417600  1
  S  S72  1  0.86375400  0.89566300  0.56927700  1
  S  S73  1  0.86465900  0.39612300  0.56912700  1
  S  S74  1  0.36831000  0.64554100  0.19746400  1
  S  S75  1  0.37506100  0.14098500  0.19493000  1
  S  S76  1  0.86806200  0.89361700  0.31997900  1
  S  S77  1  0.85993700  0.39540900  0.32083600  1
  S  S78  1  0.36730700  0.65139100  0.94722300  1
  S  S79  1  0.37014600  0.14525200  0.94561700  1
  S  S80  1  0.87645300  0.89073600  0.07035400  1
  S  S81  1  0.87251000  0.40317900  0.07371400  1
  S  S82  1  0.86565300  0.89572900  0.81932100  1
  S  S83  1  0.86249700  0.40014500  0.81928800  1
  S  S84  1  0.13588400  0.13786400  0.80222400  1
  S  S85  1  0.13802900  0.63741600  0.80170700  1
  S  S86  1  0.13504200  0.13910200  0.55237400  1
  S  S87  1  0.13505000  0.63904500  0.55252200  1
  S  S88  1  0.63615000  0.38834100  0.67715400  1
  S  S89  1  0.63614300  0.88866600  0.67743100  1
  S  S90  1  0.13243900  0.13940500  0.30240800  1
  S  S91  1  0.12498800  0.64757100  0.30249100  1
  S  S92  1  0.62505800  0.39315000  0.42782000  1
  S  S93  1  0.63494500  0.88747300  0.42772100  1
  S  S94  1  0.13177900  0.13985700  0.05210400  1
  S  S95  1  0.13265500  0.64566200  0.05224500  1
  S  S96  1  0.62555500  0.40554700  0.17697500  1
  S  S97  1  0.63375100  0.88832800  0.17805300  1
  S  S98  1  0.63606000  0.39203200  0.92655100  1
  S  S99  1  0.63200700  0.88618900  0.92657700  1
  S  S100  1  0.36518100  0.35293800  0.80582700  1
  S  S101  1  0.36109600  0.85597900  0.80544300  1
  S  S102  1  0.36345700  0.35383900  0.55628000  1
  S  S103  1  0.36561400  0.85419400  0.55627200  1
  S  S104  1  0.86472700  0.60417100  0.68076000  1
  S  S105  1  0.86427900  0.10430400  0.68095300  1
  S  S106  1  0.36436400  0.34822500  0.30341300  1
  S  S107  1  0.37244300  0.85503600  0.30397000  1
  S  S108  1  0.86127000  0.60411500  0.43188700  1
  S  S109  1  0.86710800  0.10099900  0.43001000  1
  S  S110  1  0.36909300  0.35130800  0.05431700  1
  S  S111  1  0.37333500  0.86206600  0.05365200  1
  S  S112  1  0.87360900  0.61033300  0.17832700  1
  S  S113  1  0.87362300  0.09980200  0.17842900  1
  S  S114  1  0.86707300  0.60763100  0.92760400  1
  S  S115  1  0.86175100  0.10433900  0.93155900  1
