# generated using pymatgen
data_Li2CoSn(PO4)2
_symmetry_space_group_name_H-M   'P 1'
_cell_length_a   12.08105077
_cell_length_b   5.90657901
_cell_length_c   4.95054099
_cell_angle_alpha   89.99559043
_cell_angle_beta   79.54378402
_cell_angle_gamma   89.99591158
_symmetry_Int_Tables_number   1
_chemical_formula_structural   Li2CoSn(PO4)2
_chemical_formula_sum   'Li4 Co2 Sn2 P4 O16'
_cell_volume   347.39285969
_cell_formula_units_Z   2
loop_
 _symmetry_equiv_pos_site_id
 _symmetry_equiv_pos_as_xyz
  1  'x, y, z'
loop_
 _atom_site_type_symbol
 _atom_site_label
 _atom_site_symmetry_multiplicity
 _atom_site_fract_x
 _atom_site_fract_y
 _atom_site_fract_z
 _atom_site_occupancy
  Li  Li0  1  0.00021500  0.00038100  0.99954300  1
  Li  Li1  1  0.99979300  0.50033000  0.00037700  1
  Li  Li2  1  0.50001000  0.99996900  0.50005300  1
  Li  Li3  1  0.49996100  0.50001700  0.49994100  1
  Co  Co4  1  0.31695700  0.24994300  0.04106500  1
  Co  Co5  1  0.68306200  0.74989100  0.95893200  1
  Sn  Sn6  1  0.21788900  0.74995300  0.54401800  1
  Sn  Sn7  1  0.78204000  0.25009500  0.45606400  1
  P  P8  1  0.10548000  0.25002200  0.40248600  1
  P  P9  1  0.41884200  0.74994600  0.93139500  1
  P  P10  1  0.58116400  0.24993900  0.06865800  1
  P  P11  1  0.89451400  0.74997600  0.59739500  1
  O  O12  1  0.00365900  0.75027400  0.71903200  1
  O  O13  1  0.08470200  0.25007300  0.71575400  1
  O  O14  1  0.18203300  0.04407900  0.27138600  1
  O  O15  1  0.18197100  0.45602700  0.27135700  1
  O  O16  1  0.36483000  0.53445700  0.82125800  1
  O  O17  1  0.36479600  0.96541700  0.82126500  1
  O  O18  1  0.40513100  0.74991000  0.24744400  1
  O  O19  1  0.45684200  0.24984300  0.22816600  1
  O  O20  1  0.54316600  0.75001000  0.77187400  1
  O  O21  1  0.59488200  0.24999000  0.75260400  1
  O  O22  1  0.63526100  0.03449900  0.17873900  1
  O  O23  1  0.63513900  0.46545800  0.17880400  1
  O  O24  1  0.81808900  0.54400400  0.72901200  1
  O  O25  1  0.81792200  0.95593900  0.72823400  1
  O  O26  1  0.91528900  0.74964900  0.28425400  1
  O  O27  1  0.99636000  0.24991200  0.28089200  1
