# generated using pymatgen
data_Li3MnV3O8
_symmetry_space_group_name_H-M   'P 1'
_cell_length_a   5.97992987
_cell_length_b   10.32472529
_cell_length_c   5.96497007
_cell_angle_alpha   90.13652822
_cell_angle_beta   60.00952160
_cell_angle_gamma   107.05957667
_symmetry_Int_Tables_number   1
_chemical_formula_structural   Li3MnV3O8
_chemical_formula_sum   'Li6 Mn2 V6 O16'
_cell_volume   300.27537570
_cell_formula_units_Z   2
loop_
 _symmetry_equiv_pos_site_id
 _symmetry_equiv_pos_as_xyz
  1  'x, y, z'
loop_
 _atom_site_type_symbol
 _atom_site_label
 _atom_site_symmetry_multiplicity
 _atom_site_fract_x
 _atom_site_fract_y
 _atom_site_fract_z
 _atom_site_occupancy
  Li  Li0  1  0.50416300  0.25246700  0.74537100  1
  Li  Li1  1  0.49578600  0.74754200  0.25467900  1
  Li  Li2  1  0.00201600  0.25157100  0.74718500  1
  Li  Li3  1  0.99796200  0.74847300  0.25277200  1
  Li  Li4  1  0.00053700  0.24815700  0.24632000  1
  Li  Li5  1  0.99950300  0.75182500  0.75357400  1
  Mn  Mn6  1  0.50480700  0.25081400  0.24343800  1
  Mn  Mn7  1  0.49522900  0.74920200  0.75655100  1
  V  V8  1  0.50000900  0.00007300  0.00008400  1
  V  V9  1  0.49995300  0.49994800  0.99998000  1
  V  V10  1  0.99988400  0.49993200  0.00006200  1
  V  V11  1  0.49990400  0.49993400  0.50017600  1
  V  V12  1  0.50007800  0.00004400  0.49995400  1
  V  V13  1  0.00004000  0.00005300  0.49997400  1
  O  O14  1  0.74723800  0.11421800  0.62139700  1
  O  O15  1  0.73839400  0.61479000  0.13206000  1
  O  O16  1  0.26151900  0.38515700  0.86798800  1
  O  O17  1  0.25280700  0.88579400  0.37854300  1
  O  O18  1  0.27334300  0.12874300  0.58299200  1
  O  O19  1  0.26632400  0.62669500  0.09538200  1
  O  O20  1  0.27342800  0.12867100  0.13668400  1
  O  O21  1  0.26473300  0.62891300  0.64691500  1
  O  O22  1  0.71940800  0.12836700  0.13720400  1
  O  O23  1  0.71397700  0.62882900  0.63900900  1
  O  O24  1  0.28601400  0.37112900  0.36101800  1
  O  O25  1  0.28075100  0.87167500  0.86270300  1
  O  O26  1  0.73523700  0.37104000  0.35315000  1
  O  O27  1  0.72661300  0.87137700  0.86323700  1
  O  O28  1  0.73363900  0.37327000  0.90460900  1
  O  O29  1  0.72669400  0.87127100  0.41699100  1
