# generated using pymatgen
data_LiNi(PO3)3
_symmetry_space_group_name_H-M   'P 1'
_cell_length_a   8.43797000
_cell_length_b   8.53769400
_cell_length_c   8.85187100
_cell_angle_alpha   90.00000000
_cell_angle_beta   90.00000000
_cell_angle_gamma   90.00000000
_symmetry_Int_Tables_number   1
_chemical_formula_structural   LiNi(PO3)3
_chemical_formula_sum   'Li4 Ni4 P12 O36'
_cell_volume   637.69592004
_cell_formula_units_Z   4
loop_
 _symmetry_equiv_pos_site_id
 _symmetry_equiv_pos_as_xyz
  1  'x, y, z'
loop_
 _atom_site_type_symbol
 _atom_site_label
 _atom_site_symmetry_multiplicity
 _atom_site_fract_x
 _atom_site_fract_y
 _atom_site_fract_z
 _atom_site_occupancy
  Li  Li0  1  0.87026500  0.64293200  0.33778400  1
  Li  Li1  1  0.62973500  0.35706800  0.83778400  1
  Li  Li2  1  0.12973500  0.14293200  0.16221600  1
  Li  Li3  1  0.37026500  0.85706800  0.66221600  1
  Ni  Ni4  1  0.65377600  0.63122200  0.61221500  1
  Ni  Ni5  1  0.84622400  0.36877800  0.11221500  1
  Ni  Ni6  1  0.34622400  0.13122200  0.88778500  1
  Ni  Ni7  1  0.15377600  0.86877800  0.38778500  1
  P  P8  1  0.79852000  0.68936700  0.93145200  1
  P  P9  1  0.02758800  0.68423600  0.67709100  1
  P  P10  1  0.18664200  0.52289600  0.19133600  1
  P  P11  1  0.31335800  0.47710400  0.69133600  1
  P  P12  1  0.47241200  0.31576400  0.17709100  1
  P  P13  1  0.70148000  0.31063300  0.43145200  1
  P  P14  1  0.20148000  0.18936700  0.56854800  1
  P  P15  1  0.97241200  0.18423600  0.82290900  1
  P  P16  1  0.81335800  0.02289600  0.30866400  1
  P  P17  1  0.68664200  0.97710400  0.80866400  1
  P  P18  1  0.52758800  0.81576400  0.32290900  1
  P  P19  1  0.29852000  0.81063300  0.06854800  1
  O  O20  1  0.95970200  0.73337900  0.83999700  1
  O  O21  1  0.63055900  0.68659000  0.38483900  1
  O  O22  1  0.84003900  0.62492800  0.08393500  1
  O  O23  1  0.22564100  0.63670000  0.04830100  1
  O  O24  1  0.89410600  0.62876500  0.57844900  1
  O  O25  1  0.41355200  0.61189700  0.63869100  1
  O  O26  1  0.12864600  0.62167300  0.32109500  1
  O  O27  1  0.69035100  0.59139100  0.83420600  1
  O  O28  1  0.13927400  0.54174200  0.73073800  1
  O  O29  1  0.36072600  0.45825800  0.23073800  1
  O  O30  1  0.80964900  0.40860900  0.33420600  1
  O  O31  1  0.37135400  0.37832700  0.82109500  1
  O  O32  1  0.08644800  0.38810300  0.13869100  1
  O  O33  1  0.60589400  0.37123500  0.07844900  1
  O  O34  1  0.27435900  0.36330000  0.54830100  1
  O  O35  1  0.65996100  0.37507200  0.58393500  1
  O  O36  1  0.86944100  0.31341000  0.88483900  1
  O  O37  1  0.54029800  0.26662100  0.33999700  1
  O  O38  1  0.04029800  0.23337900  0.66000300  1
  O  O39  1  0.36944100  0.18659000  0.11516100  1
  O  O40  1  0.15996100  0.12492800  0.41606500  1
  O  O41  1  0.77435900  0.13670000  0.45169900  1
  O  O42  1  0.10589400  0.12876500  0.92155100  1
  O  O43  1  0.58644800  0.11189700  0.86130900  1
  O  O44  1  0.87135400  0.12167300  0.17890500  1
  O  O45  1  0.30964900  0.09139100  0.66579400  1
  O  O46  1  0.86072600  0.04174200  0.76926200  1
  O  O47  1  0.63927400  0.95825800  0.26926200  1
  O  O48  1  0.19035100  0.90860900  0.16579400  1
  O  O49  1  0.62864600  0.87832700  0.67890500  1
  O  O50  1  0.91355200  0.88810300  0.36130900  1
  O  O51  1  0.39410600  0.87123500  0.42155100  1
  O  O52  1  0.72564100  0.86330000  0.95169900  1
  O  O53  1  0.34003900  0.87507200  0.91606500  1
  O  O54  1  0.13055900  0.81341000  0.61516100  1
  O  O55  1  0.45970200  0.76662100  0.16000300  1
