# generated using pymatgen
data_KLi2AlSi4(O5F)2
_symmetry_space_group_name_H-M   'P 1'
_cell_length_a   7.44635564
_cell_length_b   6.36503593
_cell_length_c   32.70286967
_cell_angle_alpha   99.05196238
_cell_angle_beta   92.47051792
_cell_angle_gamma   120.32732062
_symmetry_Int_Tables_number   1
_chemical_formula_structural   KLi2AlSi4(O5F)2
_chemical_formula_sum   'K5 Li10 Al5 Si20 O50 F10'
_cell_volume   1307.49900986
_cell_formula_units_Z   5
loop_
 _symmetry_equiv_pos_site_id
 _symmetry_equiv_pos_as_xyz
  1  'x, y, z'
loop_
 _atom_site_type_symbol
 _atom_site_label
 _atom_site_symmetry_multiplicity
 _atom_site_fract_x
 _atom_site_fract_y
 _atom_site_fract_z
 _atom_site_occupancy
  K  K0  1  0.39050292  0.25967308  0.78761971  1
  K  K1  1  0.50000000  0.50000000  0.60000000  1
  K  K2  1  0.60949708  0.74032692  0.41238029  1
  K  K3  1  0.69317149  0.70739391  0.19735913  1
  K  K4  1  0.30682851  0.29260609  0.00264087  1
  Li  Li5  1  0.24783631  0.68966859  0.82555143  1
  Li  Li6  1  0.14652452  0.17663705  0.90754110  1
  Li  Li7  1  0.94427331  0.12312377  0.63111754  1
  Li  Li8  1  0.24681915  0.33319612  0.48340025  1
  Li  Li9  1  0.05572669  0.87687623  0.56888246  1
  Li  Li10  1  0.85347548  0.82336295  0.29245890  1
  Li  Li11  1  0.22938424  0.85158915  0.19391169  1
  Li  Li12  1  0.75318085  0.66680388  0.71659975  1
  Li  Li13  1  0.75216369  0.31033141  0.37444857  1
  Li  Li14  1  0.77061576  0.14841085  0.00608831  1
  Al  Al15  1  0.31660379  0.61701228  0.72510192  1
  Al  Al16  1  0.42559601  0.92757475  0.27062156  1
  Al  Al17  1  -0.00000000  0.00000000  0.10000000  1
  Al  Al18  1  0.57440399  0.07242525  0.92937844  1
  Al  Al19  1  0.68339621  0.38298772  0.47489808  1
  Si  Si20  1  0.11284313  0.66490378  0.43962621  1
  Si  Si21  1  0.07221788  0.64192506  0.32277332  1
  Si  Si22  1  0.22996850  0.98155026  0.39622369  1
  Si  Si23  1  0.10705957  0.68169301  0.02202722  1
  Si  Si24  1  0.62849132  0.20478928  0.10055633  1
  Si  Si25  1  0.73674151  0.70300206  0.93301505  1
  Si  Si26  1  0.18852325  0.76596580  0.93127402  1
  Si  Si27  1  0.95285627  0.58181155  0.63247724  1
  Si  Si28  1  0.29454862  0.05791977  0.68243281  1
  Si  Si29  1  0.44507787  0.88489755  0.56182917  1
  Si  Si30  1  0.70545138  0.94208023  0.51756719  1
  Si  Si31  1  0.81147675  0.23403420  0.26872598  1
  Si  Si32  1  0.26325849  0.29699794  0.26698495  1
  Si  Si33  1  0.37150868  0.79521072  0.09944367  1
  Si  Si34  1  0.89294043  0.31830699  0.17797278  1
  Si  Si35  1  0.77003150  0.01844974  0.80377631  1
  Si  Si36  1  0.92778212  0.35807494  0.87722668  1
  Si  Si37  1  0.55492213  0.11510245  0.63817083  1
  Si  Si38  1  0.88715687  0.33509622  0.76037379  1
  Si  Si39  1  0.04714373  0.41818845  0.56752276  1
  O  O40  1  0.45106847  0.26005895  0.42859184  1
  O  O41  1  0.19851335  0.75713251  0.13296409  1
  O  O42  1  0.07336370  0.63370104  0.86662702  1
  O  O43  1  0.24675851  0.72910757  0.39663620  1
  O  O44  1  0.70821264  0.93878177  0.95215990  1
  O  O45  1  0.10986954  0.90131782  0.63892240  1
  O  O46  1  0.20266070  0.43243860  0.22961596  1
  O  O47  1  0.07949963  0.44390490  0.92410071  1
  O  O48  1  0.54285469  0.79133173  0.81917452  1
  O  O49  1  0.25793131  0.62027150  0.46936454  1
  O  O50  1  0.27352102  0.63005964  0.05220492  1
  O  O51  1  0.24643885  0.83920476  0.70890279  1
  O  O52  1  0.95193392  0.13084871  0.84735702  1
  O  O53  1  0.56877423  0.88682196  0.60860232  1
  O  O54  1  0.35909929  0.68628805  0.22342468  1
  O  O55  1  0.14086887  0.54895219  0.76635722  1
  O  O56  1  0.18606895  0.68926232  0.55009348  1
  O  O57  1  0.26792646  0.28999138  0.70435148  1
  O  O58  1  0.24967795  0.81822521  0.98690498  1
  O  O59  1  0.13813996  0.49255430  0.61939387  1
  O  O60  1  0.31410521  0.77964954  0.31226575  1
  O  O61  1  0.09242417  0.92607301  0.43746262  1
  O  O62  1  0.12959794  0.94046169  0.14208677  1
  O  O63  1  0.98296964  0.12631172  0.26616681  1
  O  O64  1  0.08019801  0.87007185  0.05829960  1
  O  O65  1  0.01703036  0.87368828  0.93383319  1
  O  O66  1  0.90757583  0.07392699  0.76253738  1
  O  O67  1  0.68589479  0.22035046  0.88773425  1
  O  O68  1  0.73207354  0.71000862  0.49564852  1
  O  O69  1  0.81393105  0.31073768  0.64990652  1
  O  O70  1  0.85913113  0.45104781  0.43364278  1
  O  O71  1  0.64090071  0.31371195  0.97657532  1
  O  O72  1  0.04806608  0.86915129  0.35264298  1
  O  O73  1  0.75356115  0.16079524  0.49109721  1
  O  O74  1  0.72647898  0.36994036  0.14779508  1
  O  O75  1  0.74206869  0.37972850  0.73063546  1
  O  O76  1  0.45714531  0.20866827  0.38082548  1
  O  O77  1  0.91980199  0.12992815  0.14170040  1
  O  O78  1  0.92050037  0.55609510  0.27589929  1
  O  O79  1  0.79733930  0.56756140  0.97038404  1
  O  O80  1  0.89013046  0.09868218  0.56107760  1
  O  O81  1  0.29178736  0.06121823  0.24784010  1
  O  O82  1  0.87040206  0.05953831  0.05791323  1
  O  O83  1  0.75324149  0.27089243  0.80336380  1
  O  O84  1  0.92663630  0.36629896  0.33337298  1
  O  O85  1  0.80148665  0.24286749  0.06703591  1
  O  O86  1  0.86186004  0.50744570  0.58060613  1
  O  O87  1  0.75032205  0.18177479  0.21309502  1
  O  O88  1  0.54893153  0.73994105  0.77140816  1
  O  O89  1  0.43122577  0.11317804  0.59139768  1
  F  F90  1  0.46678337  0.46393897  0.92947736  1
  F  F91  1  0.54078011  0.73916764  0.69923435  1
  F  F92  1  0.69258202  0.65856575  0.88182102  1
  F  F93  1  0.21445342  0.33995277  0.54210341  1
  F  F94  1  0.78554658  0.66004723  0.65789659  1
  F  F95  1  0.30741798  0.34143425  0.31817898  1
  F  F96  1  0.45921989  0.26083236  0.50076565  1
  F  F97  1  0.52185498  0.33396550  0.07794057  1
  F  F98  1  0.53321663  0.53606103  0.27052264  1
  F  F99  1  0.47814502  0.66603450  0.12205943  1
