# generated using pymatgen
data_Li2V3BiO8
_symmetry_space_group_name_H-M   'P 1'
_cell_length_a   8.76468556
_cell_length_b   8.76468556
_cell_length_c   8.73847259
_cell_angle_alpha   89.98508060
_cell_angle_beta   89.98508060
_cell_angle_gamma   90.17940622
_symmetry_Int_Tables_number   1
_chemical_formula_structural   Li2V3BiO8
_chemical_formula_sum   'Li8 V12 Bi4 O32'
_cell_volume   671.28362020
_cell_formula_units_Z   4
loop_
 _symmetry_equiv_pos_site_id
 _symmetry_equiv_pos_as_xyz
  1  'x, y, z'
loop_
 _atom_site_type_symbol
 _atom_site_label
 _atom_site_symmetry_multiplicity
 _atom_site_fract_x
 _atom_site_fract_y
 _atom_site_fract_z
 _atom_site_occupancy
  Li  Li0  1  0.00012200  0.24735500  0.62256800  1
  Li  Li1  1  0.75264500  0.99987800  0.37743200  1
  Li  Li2  1  0.74784800  0.49935800  0.88073700  1
  Li  Li3  1  0.50064200  0.25215200  0.11926300  1
  Li  Li4  1  0.49574100  0.75535400  0.62768800  1
  Li  Li5  1  0.25160700  0.99627000  0.87214600  1
  Li  Li6  1  0.24464600  0.50425900  0.37231200  1
  Li  Li7  1  0.00373000  0.74839300  0.12785400  1
  V  V8  1  0.89391600  0.10608400  0.00000000  1
  V  V9  1  0.87652500  0.85834800  0.76855900  1
  V  V10  1  0.85913800  0.62360000  0.51738700  1
  V  V11  1  0.64139800  0.87652300  0.01377200  1
  V  V12  1  0.62577400  0.63980100  0.26815000  1
  V  V13  1  0.60335100  0.39664900  0.50000000  1
  V  V14  1  0.39008800  0.89165900  0.25135300  1
  V  V15  1  0.37640000  0.14086200  0.48261300  1
  V  V16  1  0.36019900  0.37422600  0.73185000  1
  V  V17  1  0.14165200  0.12347500  0.23144100  1
  V  V18  1  0.12347700  0.35860200  0.98622800  1
  V  V19  1  0.10834100  0.60991200  0.74864700  1
  Bi  Bi20  1  0.87607000  0.36794000  0.25030300  1
  Bi  Bi21  1  0.63206000  0.12393000  0.74969700  1
  Bi  Bi22  1  0.37435900  0.62564100  0.00000000  1
  Bi  Bi23  1  0.12304000  0.87696000  0.50000000  1
  O  O24  1  0.91225200  0.11402800  0.24074600  1
  O  O25  1  0.89927500  0.33944700  0.98392100  1
  O  O26  1  0.87657400  0.62714300  0.73895400  1
  O  O27  1  0.88597200  0.08774800  0.75925400  1
  O  O28  1  0.86178300  0.85361800  0.53887600  1
  O  O29  1  0.86948200  0.87750300  0.99849600  1
  O  O30  1  0.85281100  0.64331900  0.29713600  1
  O  O31  1  0.83676800  0.39832800  0.51499500  1
  O  O32  1  0.66055300  0.10072500  0.01607900  1
  O  O33  1  0.63548100  0.86183700  0.79804700  1
  O  O34  1  0.62911000  0.62508100  0.49654200  1
  O  O35  1  0.63875600  0.64531100  0.03834200  1
  O  O36  1  0.60978000  0.42674300  0.25902300  1
  O  O37  1  0.62252700  0.86372200  0.24344000  1
  O  O38  1  0.60167200  0.16323200  0.48500500  1
  O  O39  1  0.57325700  0.39022000  0.74097700  1
  O  O40  1  0.41433200  0.88707200  0.01635300  1
  O  O41  1  0.39609700  0.66416900  0.26227900  1
  O  O42  1  0.37491900  0.37089000  0.50345800  1
  O  O43  1  0.38583900  0.91623200  0.48869100  1
  O  O44  1  0.35668100  0.14718900  0.70286400  1
  O  O45  1  0.37285700  0.12342600  0.26104600  1
  O  O46  1  0.35468900  0.36124400  0.96165800  1
  O  O47  1  0.33583100  0.60390300  0.73772100  1
  O  O48  1  0.16498400  0.88875600  0.23950200  1
  O  O49  1  0.14638200  0.13821700  0.46112400  1
  O  O50  1  0.13627800  0.37747300  0.75656000  1
  O  O51  1  0.13816300  0.36451900  0.20195300  1
  O  O52  1  0.11292800  0.58566800  0.98364700  1
  O  O53  1  0.12249700  0.13051800  0.00150400  1
  O  O54  1  0.11124400  0.83501600  0.76049800  1
  O  O55  1  0.08376800  0.61416100  0.51130900  1
