# generated using pymatgen
data_Li2Fe3BiO8
_symmetry_space_group_name_H-M   'P 1'
_cell_length_a   8.68846800
_cell_length_b   8.68846800
_cell_length_c   8.68846800
_cell_angle_alpha   90.00000000
_cell_angle_beta   90.00000000
_cell_angle_gamma   90.00000000
_symmetry_Int_Tables_number   1
_chemical_formula_structural   Li2Fe3BiO8
_chemical_formula_sum   'Li8 Fe12 Bi4 O32'
_cell_volume   655.88789819
_cell_formula_units_Z   4
loop_
 _symmetry_equiv_pos_site_id
 _symmetry_equiv_pos_as_xyz
  1  'x, y, z'
loop_
 _atom_site_type_symbol
 _atom_site_label
 _atom_site_symmetry_multiplicity
 _atom_site_fract_x
 _atom_site_fract_y
 _atom_site_fract_z
 _atom_site_occupancy
  Li  Li0  1  0.50113500  0.50113500  0.50113500  1
  Li  Li1  1  0.74886500  0.74886500  0.74886500  1
  Li  Li2  1  0.75113500  0.25113500  0.24886500  1
  Li  Li3  1  0.99886500  0.49886500  0.00113500  1
  Li  Li4  1  0.00113500  0.99886500  0.49886500  1
  Li  Li5  1  0.24886500  0.75113500  0.25113500  1
  Li  Li6  1  0.25113500  0.24886500  0.75113500  1
  Li  Li7  1  0.49886500  0.00113500  0.99886500  1
  Fe  Fe8  1  0.61077200  0.63922800  0.12500000  1
  Fe  Fe9  1  0.62500000  0.88922800  0.36077200  1
  Fe  Fe10  1  0.63922800  0.12500000  0.61077200  1
  Fe  Fe11  1  0.86077200  0.87500000  0.11077200  1
  Fe  Fe12  1  0.87500000  0.11077200  0.86077200  1
  Fe  Fe13  1  0.88922800  0.36077200  0.62500000  1
  Fe  Fe14  1  0.11077200  0.86077200  0.87500000  1
  Fe  Fe15  1  0.12500000  0.61077200  0.63922800  1
  Fe  Fe16  1  0.13922800  0.37500000  0.38922800  1
  Fe  Fe17  1  0.36077200  0.62500000  0.88922800  1
  Fe  Fe18  1  0.37500000  0.38922800  0.13922800  1
  Fe  Fe19  1  0.38922800  0.13922800  0.37500000  1
  Bi  Bi20  1  0.62500000  0.37500000  0.87500000  1
  Bi  Bi21  1  0.87500000  0.62500000  0.37500000  1
  Bi  Bi22  1  0.12500000  0.12500000  0.12500000  1
  Bi  Bi23  1  0.37500000  0.87500000  0.62500000  1
  O  O24  1  0.60493800  0.62196200  0.88773200  1
  O  O25  1  0.61226800  0.39506200  0.12196200  1
  O  O26  1  0.61904500  0.11904500  0.38095500  1
  O  O27  1  0.62803800  0.64506200  0.36226800  1
  O  O28  1  0.62196200  0.88773200  0.60493800  1
  O  O29  1  0.63095500  0.86904500  0.13095500  1
  O  O30  1  0.63773200  0.12803800  0.85493800  1
  O  O31  1  0.64506200  0.36226800  0.62803800  1
  O  O32  1  0.85493800  0.63773200  0.12803800  1
  O  O33  1  0.86226800  0.87196200  0.35493800  1
  O  O34  1  0.86904500  0.13095500  0.63095500  1
  O  O35  1  0.87803800  0.11226800  0.10493800  1
  O  O36  1  0.87196200  0.35493800  0.86226800  1
  O  O37  1  0.88095500  0.88095500  0.88095500  1
  O  O38  1  0.88773200  0.60493800  0.62196200  1
  O  O39  1  0.89506200  0.37803800  0.38773200  1
  O  O40  1  0.10493800  0.87803800  0.11226800  1
  O  O41  1  0.11226800  0.10493800  0.87803800  1
  O  O42  1  0.11904500  0.38095500  0.61904500  1
  O  O43  1  0.12803800  0.85493800  0.63773200  1
  O  O44  1  0.12196200  0.61226800  0.39506200  1
  O  O45  1  0.13095500  0.63095500  0.86904500  1
  O  O46  1  0.13773200  0.37196200  0.14506200  1
  O  O47  1  0.14506200  0.13773200  0.37196200  1
  O  O48  1  0.35493800  0.86226800  0.87196200  1
  O  O49  1  0.36226800  0.62803800  0.64506200  1
  O  O50  1  0.36904500  0.36904500  0.36904500  1
  O  O51  1  0.37803800  0.38773200  0.89506200  1
  O  O52  1  0.37196200  0.14506200  0.13773200  1
  O  O53  1  0.38095500  0.61904500  0.11904500  1
  O  O54  1  0.38773200  0.89506200  0.37803800  1
  O  O55  1  0.39506200  0.12196200  0.61226800  1
