# generated using pymatgen
data_Ba7Li3(RuO5)4
_symmetry_space_group_name_H-M   'P 1'
_cell_length_a   5.83127867
_cell_length_b   5.83127867
_cell_length_c   17.45032360
_cell_angle_alpha   80.41394663
_cell_angle_beta   80.41394663
_cell_angle_gamma   60.20924791
_symmetry_Int_Tables_number   1
_chemical_formula_structural   Ba7Li3(RuO5)4
_chemical_formula_sum   'Ba7 Li3 Ru4 O20'
_cell_volume   505.32937658
_cell_formula_units_Z   1
loop_
 _symmetry_equiv_pos_site_id
 _symmetry_equiv_pos_as_xyz
  1  'x, y, z'
loop_
 _atom_site_type_symbol
 _atom_site_label
 _atom_site_symmetry_multiplicity
 _atom_site_fract_x
 _atom_site_fract_y
 _atom_site_fract_z
 _atom_site_occupancy
  Ba  Ba0  1  0.43093700  0.43030300  0.70952800  1
  Ba  Ba1  1  0.56969700  0.56906300  0.29047200  1
  Ba  Ba2  1  0.94468200  0.05531800  0.00000000  1
  Ba  Ba3  1  0.19187800  0.19145500  0.42558300  1
  Ba  Ba4  1  0.80854500  0.80812200  0.57441700  1
  Ba  Ba5  1  0.27659900  0.28038600  0.15503500  1
  Ba  Ba6  1  0.71961400  0.72340100  0.84496500  1
  Li  Li7  1  0.35219000  0.35983600  0.90872300  1
  Li  Li8  1  0.64016400  0.64781000  0.09127700  1
  Li  Li9  1  0.49980500  0.50019500  0.50000000  1
  Ru  Ru10  1  0.12343900  0.12356000  0.62939400  1
  Ru  Ru11  1  0.87644000  0.87656100  0.37060600  1
  Ru  Ru12  1  0.07053400  0.06754600  0.79345300  1
  Ru  Ru13  1  0.93245400  0.92946600  0.20654700  1
  O  O14  1  0.21623400  0.73109200  0.85153000  1
  O  O15  1  0.21284900  0.21140800  0.84809700  1
  O  O16  1  0.73023400  0.21402200  0.84987700  1
  O  O17  1  0.78597800  0.26976600  0.15012300  1
  O  O18  1  0.78859200  0.78715100  0.15190300  1
  O  O19  1  0.26890800  0.78376600  0.14847000  1
  O  O20  1  0.94666100  0.94342600  0.71170200  1
  O  O21  1  0.39609300  0.94670400  0.71040200  1
  O  O22  1  0.94781800  0.39541400  0.71081900  1
  O  O23  1  0.05657400  0.05333900  0.28829800  1
  O  O24  1  0.60458600  0.05218200  0.28918100  1
  O  O25  1  0.05329600  0.60390700  0.28959800  1
  O  O26  1  0.30184300  0.82246000  0.57287800  1
  O  O27  1  0.30242800  0.30264400  0.57268100  1
  O  O28  1  0.82105100  0.30227200  0.57339000  1
  O  O29  1  0.69772800  0.17894900  0.42661000  1
  O  O30  1  0.69735600  0.69757200  0.42731900  1
  O  O31  1  0.17754000  0.69815700  0.42712200  1
  O  O32  1  0.81128000  0.59693000  0.98833600  1
  O  O33  1  0.40307000  0.18872000  0.01166400  1
