# generated using pymatgen
data_Li9Mn2Co5O16
_symmetry_space_group_name_H-M   'P 1'
_cell_length_a   5.88459100
_cell_length_b   6.44260800
_cell_length_c   7.83622555
_cell_angle_alpha   85.84782417
_cell_angle_beta   76.02758231
_cell_angle_gamma   76.69667615
_symmetry_Int_Tables_number   1
_chemical_formula_structural   Li9Mn2Co5O16
_chemical_formula_sum   'Li9 Mn2 Co5 O16'
_cell_volume   280.51670047
_cell_formula_units_Z   1
loop_
 _symmetry_equiv_pos_site_id
 _symmetry_equiv_pos_as_xyz
  1  'x, y, z'
loop_
 _atom_site_type_symbol
 _atom_site_label
 _atom_site_symmetry_multiplicity
 _atom_site_fract_x
 _atom_site_fract_y
 _atom_site_fract_z
 _atom_site_occupancy
  Li  Li0  1  0.93991500  0.87541300  0.36869300  1
  Li  Li1  1  0.68709400  0.36725500  0.87695100  1
  Li  Li2  1  0.43314800  0.87466600  0.36848600  1
  Li  Li3  1  0.81212800  0.63321000  0.12398900  1
  Li  Li4  1  0.56685200  0.12533400  0.63151400  1
  Li  Li5  1  0.31290600  0.63274500  0.12304900  1
  Li  Li6  1  0.18787200  0.36679000  0.87601100  1
  Li  Li7  1  0.06008500  0.12458700  0.63130700  1
  Li  Li8  1  0.00000000  0.00000000  0.00000000  1
  Mn  Mn9  1  0.88082800  0.75266100  0.75547100  1
  Mn  Mn10  1  0.11917200  0.24733900  0.24452900  1
  Co  Co11  1  0.62309900  0.24728000  0.24561300  1
  Co  Co12  1  0.37690100  0.75272000  0.75438700  1
  Co  Co13  1  0.50000000  0.00000000  0.00000000  1
  Co  Co14  1  0.24827700  0.50104000  0.49824600  1
  Co  Co15  1  0.75172300  0.49896000  0.50175400  1
  O  O16  1  0.14725100  0.79805800  0.56635600  1
  O  O17  1  0.90681800  0.30537000  0.08809500  1
  O  O18  1  0.66831600  0.79160000  0.58288600  1
  O  O19  1  0.01787900  0.54836500  0.31793000  1
  O  O20  1  0.77440900  0.04478900  0.81489900  1
  O  O21  1  0.51978400  0.54218800  0.32142300  1
  O  O22  1  0.38777700  0.29975000  0.06295600  1
  O  O23  1  0.30467700  0.03661100  0.82300800  1
  O  O24  1  0.69532300  0.96338900  0.17699200  1
  O  O25  1  0.48021600  0.45781200  0.67857700  1
  O  O26  1  0.22559100  0.95521100  0.18510100  1
  O  O27  1  0.61222300  0.70025000  0.93704400  1
  O  O28  1  0.33168400  0.20840000  0.41711400  1
  O  O29  1  0.09318200  0.69463000  0.91190500  1
  O  O30  1  0.98212100  0.45163500  0.68207000  1
  O  O31  1  0.85274900  0.20194200  0.43364400  1
