# generated using pymatgen
data_Li2O
_symmetry_space_group_name_H-M   'P 1'
_cell_length_a   10.11815390
_cell_length_b   9.71550938
_cell_length_c   10.05902595
_cell_angle_alpha   96.37023821
_cell_angle_beta   91.51237544
_cell_angle_gamma   91.25258686
_symmetry_Int_Tables_number   1
_chemical_formula_structural   Li2O
_chemical_formula_sum   'Li68 O34'
_cell_volume   982.07908054
_cell_formula_units_Z   34
loop_
 _symmetry_equiv_pos_site_id
 _symmetry_equiv_pos_as_xyz
  1  'x, y, z'
loop_
 _atom_site_type_symbol
 _atom_site_label
 _atom_site_symmetry_multiplicity
 _atom_site_fract_x
 _atom_site_fract_y
 _atom_site_fract_z
 _atom_site_occupancy
  Li  Li0  1  0.90376477  0.72030948  0.88544278  1
  Li  Li1  1  0.16859474  0.39748375  0.01327691  1
  Li  Li2  1  0.80289883  0.31902587  0.43608760  1
  Li  Li3  1  0.17676485  0.52008932  0.80957092  1
  Li  Li4  1  0.76202399  0.70803355  0.08755584  1
  Li  Li5  1  0.97809355  0.92649750  0.96040647  1
  Li  Li6  1  0.11587534  0.25079711  0.63095535  1
  Li  Li7  1  0.45268276  0.82924663  0.90016079  1
  Li  Li8  1  0.22914141  0.63838696  0.62653984  1
  Li  Li9  1  0.84740523  0.47926414  0.19084153  1
  Li  Li10  1  0.67926861  0.30849870  0.92448616  1
  Li  Li11  1  0.81135904  0.07508676  0.91639208  1
  Li  Li12  1  0.46090931  0.55592326  0.91367518  1
  Li  Li13  1  0.25260261  0.13909923  0.40785921  1
  Li  Li14  1  0.24876476  0.38336761  0.51996921  1
  Li  Li15  1  0.79887706  0.56149600  0.42216433  1
  Li  Li16  1  0.56102876  0.67157211  0.34832470  1
  Li  Li17  1  0.44604496  0.04907266  0.00566935  1
  Li  Li18  1  0.31860735  0.56840004  0.17194984  1
  Li  Li19  1  0.76522557  0.07986444  0.43813218  1
  Li  Li20  1  0.21675946  0.02409786  0.99068325  1
  Li  Li21  1  0.23481174  0.71153266  0.96489824  1
  Li  Li22  1  0.40870762  0.37202967  0.68348361  1
  Li  Li23  1  0.61516700  0.51409464  0.15621947  1
  Li  Li24  1  0.20617645  0.99916706  0.58456930  1
  Li  Li25  1  0.42053405  0.98924723  0.67615838  1
  Li  Li26  1  0.67479308  0.56196755  0.88876119  1
  Li  Li27  1  0.24352633  0.15244493  0.80306057  1
  Li  Li28  1  0.89859180  0.74885403  0.27308923  1
  Li  Li29  1  0.55005903  0.06033098  0.29095336  1
  Li  Li30  1  0.47398577  0.77777162  0.12205672  1
  Li  Li31  1  0.56469638  0.91031329  0.48529361  1
  Li  Li32  1  0.08283776  0.46855309  0.25618656  1
  Li  Li33  1  0.66896002  0.86045322  0.90492862  1
  Li  Li34  1  0.03576679  0.62405751  0.04029816  1
  Li  Li35  1  0.99075213  0.59950028  0.69830971  1
  Li  Li36  1  0.10274197  0.77991867  0.45910114  1
  Li  Li37  1  0.95478982  0.09110503  0.72132164  1
  Li  Li38  1  0.04788444  0.17116430  0.93205384  1
  Li  Li39  1  0.90972073  0.43134571  0.89223184  1
  Li  Li40  1  0.77339719  0.67716109  0.66201067  1
  Li  Li41  1  0.66670022  0.92744710  0.70111382  1
  Li  Li42  1  0.69037724  0.41711301  0.71383876  1
  Li  Li43  1  0.77627359  0.17265095  0.65924816  1
  Li  Li44  1  0.54905577  0.16454061  0.75906196  1
  Li  Li45  1  0.59476919  0.39642577  0.35759135  1
  Li  Li46  1  0.88119591  0.28981227  0.03281493  1
  Li  Li47  1  0.80513646  0.22468220  0.21232346  1
  Li  Li48  1  0.20252806  0.85399285  0.78143146  1
  Li  Li49  1  0.35518095  0.96655806  0.20592544  1
  Li  Li50  1  0.98432086  0.84305022  0.71749462  1
  Li  Li51  1  0.99314566  0.02304101  0.42607245  1
  Li  Li52  1  0.32536460  0.27537032  0.20261516  1
  Li  Li53  1  0.44329854  0.72315359  0.61217212  1
  Li  Li54  1  0.68368432  0.83950340  0.28083872  1
  Li  Li55  1  0.31590759  0.82545224  0.40367320  1
  Li  Li56  1  0.80537547  0.81504403  0.49006316  1
  Li  Li57  1  0.90480927  0.96500630  0.18181213  1
  Li  Li58  1  0.08784747  0.21634516  0.17289220  1
  Li  Li59  1  0.02907532  0.29938332  0.42322070  1
  Li  Li60  1  0.02731827  0.54341312  0.47435939  1
  Li  Li61  1  0.33255193  0.53572483  0.38923146  1
  Li  Li62  1  0.59283707  0.23363870  0.50428528  1
  Li  Li63  1  0.38320408  0.34278321  0.95488329  1
  Li  Li64  1  0.91899675  0.36928038  0.65496522  1
  Li  Li65  1  0.58153063  0.24887477  0.17330656  1
  Li  Li66  1  0.13273671  0.81609845  0.22924189  1
  Li  Li67  1  0.56034988  0.55341048  0.56124953  1
  O  O68  1  0.93829689  0.11204533  0.07840333  1
  O  O69  1  0.62467866  0.74903357  0.56203083  1
  O  O70  1  0.92231850  0.42408674  0.35125533  1
  O  O71  1  0.29678482  0.18914861  0.62758434  1
  O  O72  1  0.73571978  0.64764140  0.25866972  1
  O  O73  1  0.18755425  0.64967273  0.31617361  1
  O  O74  1  0.54054234  0.37955516  0.82906214  1
  O  O75  1  0.62412312  0.07694564  0.59289831  1
  O  O76  1  0.29347298  0.52831242  0.97457392  1
  O  O77  1  0.09539754  0.44569930  0.63036334  1
  O  O78  1  0.71543524  0.35189426  0.09877430  1
  O  O79  1  0.43706948  0.13168755  0.17622356  1
  O  O80  1  0.67397814  0.20267628  0.33567497  1
  O  O81  1  0.82747622  0.89245493  0.81821227  1
  O  O82  1  0.32329969  0.87317652  0.02882486  1
  O  O83  1  0.83994979  0.92709951  0.34987170  1
  O  O84  1  0.46734425  0.49941083  0.26483492  1
  O  O85  1  0.23216112  0.22118817  0.98919771  1
  O  O86  1  0.82569826  0.55145522  0.79071544  1
  O  O87  1  0.29878465  0.83580741  0.61705922  1
  O  O88  1  0.84773312  0.24087971  0.83022369  1
  O  O89  1  0.10231677  0.01708574  0.79943597  1
  O  O90  1  0.19001477  0.30097865  0.33275363  1
  O  O91  1  0.68277190  0.42020329  0.53406471  1
  O  O92  1  0.49544653  0.86416359  0.30720630  1
  O  O93  1  0.37887154  0.53012291  0.58197806  1
  O  O94  1  0.93540513  0.18092988  0.55036375  1
  O  O95  1  0.00254666  0.44107187  0.06152109  1
  O  O96  1  0.16671166  0.95616919  0.38548471  1
  O  O97  1  0.94532953  0.78587722  0.09092735  1
  O  O98  1  0.58945213  0.70747611  0.98023248  1
  O  O99  1  0.94551010  0.71089579  0.55127548  1
  O  O100  1  0.09756109  0.70284846  0.83206672  1
  O  O101  1  0.53248550  0.99053815  0.84338640  1
