# generated using pymatgen
data_Li4Zn(PS4)2
_symmetry_space_group_name_H-M   'P 1'
_cell_length_a   6.40872200
_cell_length_b   7.91278495
_cell_length_c   18.47398757
_cell_angle_alpha   89.74205387
_cell_angle_beta   89.76566150
_cell_angle_gamma   89.80263407
_symmetry_Int_Tables_number   1
_chemical_formula_structural   Li4Zn(PS4)2
_chemical_formula_sum   'Li12 Zn3 P6 S24'
_cell_volume   936.80858005
_cell_formula_units_Z   3
loop_
 _symmetry_equiv_pos_site_id
 _symmetry_equiv_pos_as_xyz
  1  'x, y, z'
loop_
 _atom_site_type_symbol
 _atom_site_label
 _atom_site_symmetry_multiplicity
 _atom_site_fract_x
 _atom_site_fract_y
 _atom_site_fract_z
 _atom_site_occupancy
  Li  Li0  1  0.30740100  0.75510900  0.66816600  1
  Li  Li1  1  0.31201400  0.74503100  0.99790300  1
  Li  Li2  1  0.69643200  0.73641100  0.83008900  1
  Li  Li3  1  0.67128000  0.74478100  0.17110100  1
  Li  Li4  1  0.31149900  0.23750700  0.99950700  1
  Li  Li5  1  0.69440300  0.25381800  0.82851000  1
  Li  Li6  1  0.68876100  0.26444300  0.50403600  1
  Li  Li7  1  0.67972900  0.25212800  0.16838300  1
  Li  Li8  1  0.15035100  0.99547300  0.83894300  1
  Li  Li9  1  0.14766200  0.97569500  0.17380300  1
  Li  Li10  1  0.86893900  0.52895400  0.33724000  1
  Li  Li11  1  0.85286600  0.49600800  0.00736400  1
  Zn  Zn12  1  0.69777500  0.75842000  0.49881300  1
  Zn  Zn13  1  0.30164500  0.25244500  0.66406400  1
  Zn  Zn14  1  0.30563300  0.24789700  0.33741200  1
  P  P15  1  0.80159700  0.00128300  0.66312800  1
  P  P16  1  0.82664600  0.01108500  0.33550100  1
  P  P17  1  0.81663000  0.99435800  0.00112400  1
  P  P18  1  0.18252800  0.49027300  0.83213800  1
  P  P19  1  0.19545800  0.50607100  0.49907800  1
  P  P20  1  0.17609900  0.49901800  0.17125700  1
  S  S21  1  0.67838400  0.78464700  0.69965700  1
  S  S22  1  0.67057900  0.79829500  0.37206400  1
  S  S23  1  0.66955200  0.78075800  0.03923900  1
  S  S24  1  0.33075300  0.70632800  0.86618300  1
  S  S25  1  0.34107800  0.71936200  0.53700300  1
  S  S26  1  0.31860300  0.70011200  0.21527300  1
  S  S27  1  0.66291300  0.22467700  0.69630500  1
  S  S28  1  0.67160500  0.23073900  0.37062500  1
  S  S29  1  0.67221200  0.21042200  0.03787300  1
  S  S30  1  0.33305300  0.27631500  0.86793000  1
  S  S31  1  0.31282800  0.27842300  0.53552100  1
  S  S32  1  0.31446400  0.27214300  0.20776200  1
  S  S33  1  0.80143700  0.99421500  0.88946600  1
  S  S34  1  0.82568800  0.00537000  0.55172900  1
  S  S35  1  0.79971200  0.00099000  0.22454300  1
  S  S36  1  0.16779900  0.49611500  0.71993700  1
  S  S37  1  0.22874100  0.51604600  0.38718300  1
  S  S38  1  0.20026200  0.49111300  0.05980400  1
  S  S39  1  0.11031700  0.01159500  0.70383000  1
  S  S40  1  0.12448400  0.00526700  0.37265400  1
  S  S41  1  0.12047100  0.99098800  0.03673100  1
  S  S42  1  0.88418600  0.49240400  0.87303700  1
  S  S43  1  0.89015600  0.51658200  0.53587900  1
  S  S44  1  0.86926400  0.49710500  0.20405800  1
