# generated using pymatgen
data_Li9Mn2Co5O16
_symmetry_space_group_name_H-M   'P 1'
_cell_length_a   7.73583946
_cell_length_b   7.73583946
_cell_length_c   5.87660151
_cell_angle_alpha   68.23220915
_cell_angle_beta   68.23220915
_cell_angle_gamma   97.94704066
_symmetry_Int_Tables_number   1
_chemical_formula_structural   Li9Mn2Co5O16
_chemical_formula_sum   'Li9 Mn2 Co5 O16'
_cell_volume   287.38587923
_cell_formula_units_Z   1
loop_
 _symmetry_equiv_pos_site_id
 _symmetry_equiv_pos_as_xyz
  1  'x, y, z'
loop_
 _atom_site_type_symbol
 _atom_site_label
 _atom_site_symmetry_multiplicity
 _atom_site_fract_x
 _atom_site_fract_y
 _atom_site_fract_z
 _atom_site_occupancy
  Li  Li0  1  0.62295600  0.86717900  0.50473000  1
  Li  Li1  1  0.13282100  0.37704400  0.49527000  1
  Li  Li2  1  0.50000000  0.50000000  0.50000000  1
  Li  Li3  1  0.00000000  0.00000000  0.50000000  1
  Li  Li4  1  0.37704400  0.13282100  0.49527000  1
  Li  Li5  1  0.86717900  0.62295600  0.50473000  1
  Li  Li6  1  0.24858300  0.75141700  0.50000000  1
  Li  Li7  1  0.75141700  0.24858300  0.50000000  1
  Li  Li8  1  0.50000000  0.50000000  0.00000000  1
  Mn  Mn9  1  0.74934700  0.25065300  0.00000000  1
  Mn  Mn10  1  0.25065300  0.74934700  0.00000000  1
  Co  Co11  1  0.62147700  0.86483900  0.00448300  1
  Co  Co12  1  0.13516100  0.37852300  0.99551700  1
  Co  Co13  1  0.00000000  0.00000000  0.00000000  1
  Co  Co14  1  0.37852300  0.13516100  0.99551700  1
  Co  Co15  1  0.86483900  0.62147700  0.00448300  1
  O  O16  1  0.87774800  0.13264700  0.22324400  1
  O  O17  1  0.37017100  0.64198500  0.22991700  1
  O  O18  1  0.75216100  0.75216100  0.24134800  1
  O  O19  1  0.24295600  0.24295600  0.22997500  1
  O  O20  1  0.64198500  0.37017100  0.22991700  1
  O  O21  1  0.13264700  0.87774800  0.22324400  1
  O  O22  1  0.51948200  0.01407400  0.22040300  1
  O  O23  1  0.01407400  0.51948200  0.22040300  1
  O  O24  1  0.35801500  0.62982900  0.77008300  1
  O  O25  1  0.86735300  0.12225200  0.77675600  1
  O  O26  1  0.24783900  0.24783900  0.75865200  1
  O  O27  1  0.75704400  0.75704400  0.77002500  1
  O  O28  1  0.12225200  0.86735300  0.77675600  1
  O  O29  1  0.62982900  0.35801500  0.77008300  1
  O  O30  1  0.98592600  0.48051800  0.77959700  1
  O  O31  1  0.48051800  0.98592600  0.77959700  1
