# generated using pymatgen
data_Li4MnCo2O7
_symmetry_space_group_name_H-M   'P 1'
_cell_length_a   4.99567200
_cell_length_b   5.05542344
_cell_length_c   10.70176960
_cell_angle_alpha   84.02205258
_cell_angle_beta   80.68774357
_cell_angle_gamma   73.59673475
_symmetry_Int_Tables_number   1
_chemical_formula_structural   Li4MnCo2O7
_chemical_formula_sum   'Li8 Mn2 Co4 O14'
_cell_volume   255.36982103
_cell_formula_units_Z   2
loop_
 _symmetry_equiv_pos_site_id
 _symmetry_equiv_pos_as_xyz
  1  'x, y, z'
loop_
 _atom_site_type_symbol
 _atom_site_label
 _atom_site_symmetry_multiplicity
 _atom_site_fract_x
 _atom_site_fract_y
 _atom_site_fract_z
 _atom_site_occupancy
  Li  Li0  1  0.78635200  0.49871800  0.42695800  1
  Li  Li1  1  0.35915900  0.49650400  0.28473300  1
  Li  Li2  1  0.93453300  0.50143800  0.13918700  1
  Li  Li3  1  0.50000000  0.50000000  0.00000000  1
  Li  Li4  1  0.06546700  0.49856200  0.86081300  1
  Li  Li5  1  0.64084100  0.50349600  0.71526700  1
  Li  Li6  1  0.21364800  0.50128200  0.57304200  1
  Li  Li7  1  0.00000000  0.00000000  0.00000000  1
  Mn  Mn8  1  0.71060600  0.00158300  0.57420400  1
  Mn  Mn9  1  0.28939400  0.99841700  0.42579600  1
  Co  Co10  1  0.85975800  0.99861100  0.28191700  1
  Co  Co11  1  0.43218000  0.99114600  0.13467700  1
  Co  Co12  1  0.56782000  0.00885400  0.86532300  1
  Co  Co13  1  0.14024200  0.00138900  0.71808300  1
  O  O14  1  0.47150900  0.76455200  0.56308000  1
  O  O15  1  0.03689500  0.76949700  0.41817900  1
  O  O16  1  0.61993400  0.76858500  0.27595800  1
  O  O17  1  0.20732200  0.77220000  0.14239600  1
  O  O18  1  0.72879600  0.76763700  0.99503200  1
  O  O19  1  0.33770600  0.78269000  0.84706700  1
  O  O20  1  0.90418100  0.76935000  0.71104300  1
  O  O21  1  0.09581900  0.23065000  0.28895700  1
  O  O22  1  0.66229400  0.21731000  0.15293300  1
  O  O23  1  0.27120400  0.23236300  0.00496800  1
  O  O24  1  0.79267800  0.22780000  0.85760400  1
  O  O25  1  0.38006600  0.23141500  0.72404200  1
  O  O26  1  0.96310500  0.23050300  0.58182100  1
  O  O27  1  0.52849100  0.23544800  0.43692000  1
