# generated using pymatgen
data_Li9Mn2Co5O16
_symmetry_space_group_name_H-M   'P 1'
_cell_length_a   3.00781900
_cell_length_b   9.91508048
_cell_length_c   10.31500718
_cell_angle_alpha   73.22722699
_cell_angle_beta   82.59020051
_cell_angle_gamma   87.49900360
_symmetry_Int_Tables_number   1
_chemical_formula_structural   Li9Mn2Co5O16
_chemical_formula_sum   'Li9 Mn2 Co5 O16'
_cell_volume   292.06851139
_cell_formula_units_Z   1
loop_
 _symmetry_equiv_pos_site_id
 _symmetry_equiv_pos_as_xyz
  1  'x, y, z'
loop_
 _atom_site_type_symbol
 _atom_site_label
 _atom_site_symmetry_multiplicity
 _atom_site_fract_x
 _atom_site_fract_y
 _atom_site_fract_z
 _atom_site_occupancy
  Li  Li0  1  0.68013300  0.43911700  0.13040300  1
  Li  Li1  1  0.18353500  0.93885500  0.12595300  1
  Li  Li2  1  0.06485400  0.31835700  0.37629500  1
  Li  Li3  1  0.55591200  0.81057000  0.37111600  1
  Li  Li4  1  0.44408800  0.18943000  0.62888400  1
  Li  Li5  1  0.93514600  0.68164300  0.62370500  1
  Li  Li6  1  0.81646500  0.06114500  0.87404700  1
  Li  Li7  1  0.31986700  0.56088300  0.86959700  1
  Li  Li8  1  0.50000000  0.50000000  0.50000000  1
  Mn  Mn9  1  0.75777400  0.74819300  0.00354500  1
  Mn  Mn10  1  0.24222600  0.25180700  0.99645500  1
  Co  Co11  1  0.10772200  0.61791000  0.26220700  1
  Co  Co12  1  0.61755800  0.12523700  0.25077600  1
  Co  Co13  1  0.00000000  0.00000000  0.50000000  1
  Co  Co14  1  0.89227800  0.38209000  0.73779300  1
  Co  Co15  1  0.38244200  0.87476300  0.74922400  1
  O  O16  1  0.18393200  0.59796500  0.07780100  1
  O  O17  1  0.67284700  0.10010000  0.06708600  1
  O  O18  1  0.55649600  0.47943900  0.31033400  1
  O  O19  1  0.09809700  0.97908800  0.31573300  1
  O  O20  1  0.95994700  0.34394000  0.58265000  1
  O  O21  1  0.47314300  0.85147900  0.56500400  1
  O  O22  1  0.31708300  0.22951200  0.81477700  1
  O  O23  1  0.85899800  0.72688600  0.81874300  1
  O  O24  1  0.14100200  0.27311400  0.18125700  1
  O  O25  1  0.68291700  0.77048800  0.18522300  1
  O  O26  1  0.52685700  0.14852100  0.43499600  1
  O  O27  1  0.04005300  0.65606000  0.41735000  1
  O  O28  1  0.90190300  0.02091200  0.68426700  1
  O  O29  1  0.44350400  0.52056100  0.68966600  1
  O  O30  1  0.32715300  0.89990000  0.93291400  1
  O  O31  1  0.81606800  0.40203500  0.92219900  1
