# generated using pymatgen
data_Li11V6O5F19
_symmetry_space_group_name_H-M   'P 1'
_cell_length_a   5.10903000
_cell_length_b   5.48015024
_cell_length_c   16.24290566
_cell_angle_alpha   99.44621212
_cell_angle_beta   89.96736418
_cell_angle_gamma   90.46081560
_symmetry_Int_Tables_number   1
_chemical_formula_structural   Li11V6O5F19
_chemical_formula_sum   'Li11 V6 O5 F19'
_cell_volume   448.59165520
_cell_formula_units_Z   1
loop_
 _symmetry_equiv_pos_site_id
 _symmetry_equiv_pos_as_xyz
  1  'x, y, z'
loop_
 _atom_site_type_symbol
 _atom_site_label
 _atom_site_symmetry_multiplicity
 _atom_site_fract_x
 _atom_site_fract_y
 _atom_site_fract_z
 _atom_site_occupancy
  Li  Li0  1  0.96843100  0.10714500  0.46007200  1
  Li  Li1  1  0.97333600  0.07627900  0.22446000  1
  Li  Li2  1  0.49351200  0.21576900  0.56398700  1
  Li  Li3  1  0.51713300  0.23560400  0.81043900  1
  Li  Li4  1  0.99757200  0.41940400  0.90050000  1
  Li  Li5  1  0.48040100  0.12834800  0.11066900  1
  Li  Li6  1  0.53659200  0.60593100  0.45902600  1
  Li  Li7  1  0.01424300  0.68637200  0.55937700  1
  Li  Li8  1  0.51735100  0.58159300  0.22686800  1
  Li  Li9  1  0.52586300  0.83131100  0.88990600  1
  Li  Li10  1  0.01561900  0.58497500  0.10456400  1
  V  V11  1  0.52131700  0.16869900  0.32808400  1
  V  V12  1  0.98682000  0.34078500  0.67051800  1
  V  V13  1  0.00568000  0.00046000  0.99772800  1
  V  V14  1  0.50390100  0.49839800  0.00187400  1
  V  V15  1  0.97784600  0.66980300  0.32715100  1
  V  V16  1  0.52206500  0.80612100  0.66614000  1
  O  O17  1  0.79129700  0.37371500  0.29447400  1
  O  O18  1  0.70193700  0.50992700  0.62923700  1
  O  O19  1  0.79467900  0.69512400  0.96688700  1
  O  O20  1  0.20503700  0.31019300  0.03277000  1
  O  O21  1  0.70633400  0.87350900  0.29380800  1
  F  F22  1  0.82621700  0.00411800  0.62439800  1
  F  F23  1  0.70318200  0.18463400  0.94577700  1
  F  F24  1  0.33293000  0.16341900  0.69089000  1
  F  F25  1  0.86214800  0.35186200  0.78404400  1
  F  F26  1  0.84253700  0.01735900  0.11229500  1
  F  F27  1  0.63465300  0.24604700  0.45593000  1
  F  F28  1  0.35936600  0.49377100  0.88345800  1
  F  F29  1  0.33587300  0.17900700  0.21865700  1
  F  F30  1  0.13948200  0.32229600  0.55155100  1
  F  F31  1  0.18042700  0.66128600  0.69519700  1
  F  F32  1  0.30453000  0.49914500  0.37036600  1
  F  F33  1  0.65419200  0.48837600  0.11550800  1
  F  F34  1  0.18203000  0.98394300  0.88954200  1
  F  F35  1  0.87035700  0.74676400  0.45580300  1
  F  F36  1  0.61327600  0.89162800  0.78077900  1
  F  F37  1  0.37198800  0.82246400  0.55227300  1
  F  F38  1  0.15502900  0.67680500  0.21576300  1
  F  F39  1  0.30566300  0.81918600  0.04887700  1
  F  F40  1  0.19517500  0.99795800  0.37043400  1
