# generated using pymatgen
data_Li9Mn7O16
_symmetry_space_group_name_H-M   'P 1'
_cell_length_a   2.88135900
_cell_length_b   8.85699100
_cell_length_c   11.70990112
_cell_angle_alpha   89.13542970
_cell_angle_beta   90.00000000
_cell_angle_gamma   90.00000000
_symmetry_Int_Tables_number   1
_chemical_formula_structural   Li9Mn7O16
_chemical_formula_sum   'Li9 Mn7 O16'
_cell_volume   298.80465437
_cell_formula_units_Z   1
loop_
 _symmetry_equiv_pos_site_id
 _symmetry_equiv_pos_as_xyz
  1  'x, y, z'
loop_
 _atom_site_type_symbol
 _atom_site_label
 _atom_site_symmetry_multiplicity
 _atom_site_fract_x
 _atom_site_fract_y
 _atom_site_fract_z
 _atom_site_occupancy
  Li  Li0  1  0.50000000  0.00587200  0.74242900  1
  Li  Li1  1  0.50000000  0.50000000  0.00000000  1
  Li  Li2  1  0.50000000  0.99412800  0.25757100  1
  Li  Li3  1  0.00000000  0.76892800  0.62205700  1
  Li  Li4  1  0.00000000  0.24592300  0.87561100  1
  Li  Li5  1  0.00000000  0.75407700  0.12438900  1
  Li  Li6  1  0.50000000  0.50000000  0.50000000  1
  Li  Li7  1  0.00000000  0.23107200  0.37794300  1
  Li  Li8  1  0.50000000  0.00000000  0.50000000  1
  Mn  Mn9  1  0.00000000  0.23313800  0.62061900  1
  Mn  Mn10  1  0.00000000  0.76686200  0.37938100  1
  Mn  Mn11  1  0.00000000  0.74986000  0.87108300  1
  Mn  Mn12  1  0.00000000  0.25014000  0.12891700  1
  Mn  Mn13  1  0.50000000  0.49105300  0.74689900  1
  Mn  Mn14  1  0.50000000  0.00000000  0.00000000  1
  Mn  Mn15  1  0.50000000  0.50894700  0.25310100  1
  O  O16  1  0.50000000  0.24340000  0.73481400  1
  O  O17  1  0.50000000  0.74137700  0.98578800  1
  O  O18  1  0.50000000  0.24690700  0.24427400  1
  O  O19  1  0.00000000  0.02701400  0.62406600  1
  O  O20  1  0.00000000  0.49170500  0.86084600  1
  O  O21  1  0.00000000  0.99403100  0.11352400  1
  O  O22  1  0.50000000  0.74807800  0.49061100  1
  O  O23  1  0.00000000  0.52257500  0.36762700  1
  O  O24  1  0.50000000  0.75309300  0.75572600  1
  O  O25  1  0.50000000  0.25862300  0.01421200  1
  O  O26  1  0.50000000  0.75660000  0.26518600  1
  O  O27  1  0.00000000  0.47742500  0.63237300  1
  O  O28  1  0.00000000  0.00596900  0.88647600  1
  O  O29  1  0.00000000  0.50829500  0.13915400  1
  O  O30  1  0.50000000  0.25192200  0.50938900  1
  O  O31  1  0.00000000  0.97298600  0.37593400  1
