# generated using pymatgen
data_Li3Mn8(OF3)4
_symmetry_space_group_name_H-M   'P 1'
_cell_length_a   6.19632335
_cell_length_b   6.43416984
_cell_length_c   10.39253858
_cell_angle_alpha   88.64246214
_cell_angle_beta   107.41042938
_cell_angle_gamma   119.23170308
_symmetry_Int_Tables_number   1
_chemical_formula_structural   Li3Mn8(OF3)4
_chemical_formula_sum   'Li3 Mn8 O4 F12'
_cell_volume   341.25307357
_cell_formula_units_Z   1
loop_
 _symmetry_equiv_pos_site_id
 _symmetry_equiv_pos_as_xyz
  1  'x, y, z'
loop_
 _atom_site_type_symbol
 _atom_site_label
 _atom_site_symmetry_multiplicity
 _atom_site_fract_x
 _atom_site_fract_y
 _atom_site_fract_z
 _atom_site_occupancy
  Li  Li0  1  0.99992500  0.99998100  0.99998800  1
  Li  Li1  1  0.61409300  0.80260300  0.42179400  1
  Li  Li2  1  0.38576200  0.19736500  0.57825200  1
  Mn  Mn3  1  0.50007500  0.49998100  0.99997800  1
  Mn  Mn4  1  0.00017200  0.49999900  0.99984400  1
  Mn  Mn5  1  0.00186100  0.25942500  0.24554600  1
  Mn  Mn6  1  0.99849200  0.74066400  0.75454900  1
  Mn  Mn7  1  0.01126600  0.75264600  0.27518600  1
  Mn  Mn8  1  0.98870700  0.24760700  0.72480000  1
  Mn  Mn9  1  0.50330200  0.25643800  0.24894500  1
  Mn  Mn10  1  0.49669300  0.74354700  0.75094400  1
  O  O11  1  0.24973000  0.36033500  0.10790200  1
  O  O12  1  0.75030000  0.63957800  0.89220300  1
  O  O13  1  0.75852600  0.41790800  0.12837300  1
  O  O14  1  0.24182000  0.58203300  0.87169400  1
  F  F15  1  0.73925700  0.11265000  0.35881000  1
  F  F16  1  0.26064700  0.88737200  0.64117000  1
  F  F17  1  0.24727800  0.12298200  0.37676500  1
  F  F18  1  0.75269600  0.87699200  0.62326800  1
  F  F19  1  0.23119900  0.88815700  0.13444000  1
  F  F20  1  0.79682600  0.90312600  0.13452300  1
  F  F21  1  0.76869700  0.11183700  0.86557400  1
  F  F22  1  0.20300800  0.09684000  0.86548900  1
  F  F23  1  0.73209700  0.60993200  0.37173200  1
  F  F24  1  0.24539200  0.60431600  0.36432100  1
  F  F25  1  0.26781100  0.39001400  0.62824000  1
  F  F26  1  0.75437000  0.39567100  0.63567100  1
