# generated using pymatgen
data_LiMg2In
_symmetry_space_group_name_H-M   'P 1'
_cell_length_a   11.89005557
_cell_length_b   11.89005557
_cell_length_c   11.89005557
_cell_angle_alpha   120.87595904
_cell_angle_beta   120.27346024
_cell_angle_gamma   89.00822885
_symmetry_Int_Tables_number   1
_chemical_formula_structural   LiMg2In
_chemical_formula_sum   'Li1 Mg2 In1'
_cell_volume   1178.04448182
_cell_formula_units_Z   1
loop_
 _symmetry_equiv_pos_site_id
 _symmetry_equiv_pos_as_xyz
  1  'x, y, z'
loop_
 _atom_site_type_symbol
 _atom_site_label
 _atom_site_symmetry_multiplicity
 _atom_site_fract_x
 _atom_site_fract_y
 _atom_site_fract_z
 _atom_site_occupancy
  Li  Li0  1  0.00000000  0.00000000  0.00000000  1
  Mg  Mg1  1  0.00000000  0.24915500  0.24915500  1
  Mg  Mg2  1  0.00000000  0.75084500  0.75084500  1
  In  In3  1  0.00000000  0.50000000  0.50000000  1
