# generated using pymatgen
data_Li3Mn(PO4)2
_symmetry_space_group_name_H-M   'P 1'
_cell_length_a   7.68627039
_cell_length_b   7.64764098
_cell_length_c   11.07922869
_cell_angle_alpha   74.67887439
_cell_angle_beta   76.92651996
_cell_angle_gamma   103.82967593
_symmetry_Int_Tables_number   1
_chemical_formula_structural   Li3Mn(PO4)2
_chemical_formula_sum   'Li12 Mn4 P8 O32'
_cell_volume   580.05957820
_cell_formula_units_Z   4
loop_
 _symmetry_equiv_pos_site_id
 _symmetry_equiv_pos_as_xyz
  1  'x, y, z'
loop_
 _atom_site_type_symbol
 _atom_site_label
 _atom_site_symmetry_multiplicity
 _atom_site_fract_x
 _atom_site_fract_y
 _atom_site_fract_z
 _atom_site_occupancy
  Li  Li0  1  0.99995200  0.99995600  0.00001300  1
  Li  Li1  1  0.50001100  0.50000300  0.99999600  1
  Li  Li2  1  0.24997300  0.74997600  0.00000100  1
  Li  Li3  1  0.74999500  0.25000600  0.99999000  1
  Li  Li4  1  0.51341600  0.75155000  0.21567900  1
  Li  Li5  1  0.01338400  0.25154800  0.21566900  1
  Li  Li6  1  0.98658800  0.74844800  0.78433200  1
  Li  Li7  1  0.48661100  0.24844400  0.78431700  1
  Li  Li8  1  0.99999500  0.99998700  0.50001200  1
  Li  Li9  1  0.50002400  0.50002500  0.49997800  1
  Li  Li10  1  0.25000500  0.74999700  0.50000400  1
  Li  Li11  1  0.74999200  0.25002500  0.50000500  1
  Mn  Mn12  1  0.97574200  0.72014100  0.28275100  1
  Mn  Mn13  1  0.52426900  0.77988600  0.71720400  1
  Mn  Mn14  1  0.47573100  0.22006400  0.28275600  1
  Mn  Mn15  1  0.02437300  0.27992300  0.71720500  1
  P  P16  1  0.28175600  0.02203900  0.10321600  1
  P  P17  1  0.78172600  0.52203100  0.10324500  1
  P  P18  1  0.21824600  0.47794800  0.89677500  1
  P  P19  1  0.71825900  0.97797400  0.89676000  1
  P  P20  1  0.63276700  0.88744100  0.40952400  1
  P  P21  1  0.13275300  0.38744900  0.40951800  1
  P  P22  1  0.86724700  0.61256600  0.59048800  1
  P  P23  1  0.36725200  0.11256600  0.59047900  1
  O  O24  1  0.70905400  0.94506500  0.04100000  1
  O  O25  1  0.20904300  0.44504400  0.04101300  1
  O  O26  1  0.79093100  0.55493600  0.95900500  1
  O  O27  1  0.29092500  0.05493800  0.95898800  1
  O  O28  1  0.43598500  0.18582500  0.11651000  1
  O  O29  1  0.93597000  0.68582200  0.11652700  1
  O  O30  1  0.06403700  0.31417900  0.88346900  1
  O  O31  1  0.56402200  0.81417600  0.88347200  1
  O  O32  1  0.28979500  0.54428100  0.41594100  1
  O  O33  1  0.78979800  0.04430600  0.41593000  1
  O  O34  1  0.21020400  0.95570800  0.58407600  1
  O  O35  1  0.71021100  0.45572500  0.58405700  1
  O  O36  1  0.00211400  0.75275000  0.44745700  1
  O  O37  1  0.50208100  0.25273200  0.44745000  1
  O  O38  1  0.49789700  0.74726400  0.55254200  1
  O  O39  1  0.99791900  0.24727900  0.55256100  1
  O  O40  1  0.07561900  0.00906100  0.18114500  1
  O  O41  1  0.57559700  0.50903400  0.18116900  1
  O  O42  1  0.29217000  0.81955500  0.16573400  1
  O  O43  1  0.79213400  0.31953300  0.16574700  1
  O  O44  1  0.20785200  0.68044600  0.83425700  1
  O  O45  1  0.70783800  0.18046100  0.83426700  1
  O  O46  1  0.42438300  0.49093600  0.81885300  1
  O  O47  1  0.92439900  0.99093300  0.81886000  1
  O  O48  1  0.49046000  0.96069700  0.34256200  1
  O  O49  1  0.99046400  0.46073900  0.34257500  1
  O  O50  1  0.69535700  0.75276100  0.33928900  1
  O  O51  1  0.19534100  0.25277000  0.33928200  1
  O  O52  1  0.80462800  0.74721900  0.66073300  1
  O  O53  1  0.30465100  0.24725400  0.66071200  1
  O  O54  1  0.00953100  0.53929000  0.65745200  1
  O  O55  1  0.50952300  0.03928500  0.65744600  1
