# generated using pymatgen
data_LiCd4(GeO3)5
_symmetry_space_group_name_H-M   'P 1'
_cell_length_a   7.19556400
_cell_length_b   8.03437121
_cell_length_c   12.43557807
_cell_angle_alpha   106.35453201
_cell_angle_beta   92.94950909
_cell_angle_gamma   94.94446191
_symmetry_Int_Tables_number   1
_chemical_formula_structural   LiCd4(GeO3)5
_chemical_formula_sum   'Li2 Cd8 Ge10 O30'
_cell_volume   685.10759372
_cell_formula_units_Z   2
loop_
 _symmetry_equiv_pos_site_id
 _symmetry_equiv_pos_as_xyz
  1  'x, y, z'
loop_
 _atom_site_type_symbol
 _atom_site_label
 _atom_site_symmetry_multiplicity
 _atom_site_fract_x
 _atom_site_fract_y
 _atom_site_fract_z
 _atom_site_occupancy
  Li  Li0  1  0.34111500  0.16338300  0.61263500  1
  Li  Li1  1  0.65888500  0.83661700  0.38736500  1
  Cd  Cd2  1  0.05795000  0.09740200  0.15077600  1
  Cd  Cd3  1  0.94205000  0.90259800  0.84922400  1
  Cd  Cd4  1  0.13376200  0.31845700  0.44372300  1
  Cd  Cd5  1  0.86623800  0.68154300  0.55627700  1
  Cd  Cd6  1  0.18389200  0.53461900  0.73394200  1
  Cd  Cd7  1  0.81610800  0.46538100  0.26605800  1
  Cd  Cd8  1  0.27414600  0.74341400  0.01824100  1
  Cd  Cd9  1  0.72585400  0.25658600  0.98175900  1
  Ge  Ge10  1  0.42846100  0.97285700  0.82573800  1
  Ge  Ge11  1  0.57153900  0.02714300  0.17426200  1
  Ge  Ge12  1  0.35530800  0.77503600  0.55425000  1
  Ge  Ge13  1  0.64469200  0.22496400  0.44575000  1
  Ge  Ge14  1  0.30232800  0.51429800  0.22998600  1
  Ge  Ge15  1  0.69767200  0.48570200  0.77001400  1
  Ge  Ge16  1  0.22083700  0.31836600  0.95892600  1
  Ge  Ge17  1  0.77916300  0.68163400  0.04107400  1
  Ge  Ge18  1  0.10930400  0.85681700  0.35318500  1
  Ge  Ge19  1  0.89069600  0.14318300  0.64681500  1
  O  O20  1  0.42288100  0.95373800  0.67808000  1
  O  O21  1  0.57711900  0.04626200  0.32192000  1
  O  O22  1  0.03484100  0.17521500  0.97651200  1
  O  O23  1  0.96515900  0.82478500  0.02348800  1
  O  O24  1  0.12503600  0.38289000  0.26906100  1
  O  O25  1  0.87496400  0.61711000  0.73093900  1
  O  O26  1  0.27114900  0.91366600  0.47577600  1
  O  O27  1  0.72885100  0.08633400  0.52422400  1
  O  O28  1  0.18021000  0.61497500  0.56338200  1
  O  O29  1  0.81979000  0.38502500  0.43661800  1
  O  O30  1  0.25292900  0.82227800  0.84717500  1
  O  O31  1  0.74707100  0.17772200  0.15282500  1
  O  O32  1  0.35788900  0.43499500  0.08777800  1
  O  O33  1  0.64211100  0.56500500  0.91222200  1
  O  O34  1  0.60600100  0.79836000  0.12116400  1
  O  O35  1  0.39399900  0.20164000  0.87883600  1
  O  O36  1  0.06299700  0.04727400  0.32213900  1
  O  O37  1  0.93700300  0.95272600  0.67786100  1
  O  O38  1  0.22591000  0.72443600  0.23841300  1
  O  O39  1  0.77409000  0.27556400  0.76158700  1
  O  O40  1  0.43539700  0.29357300  0.50475100  1
  O  O41  1  0.56460300  0.70642700  0.49524900  1
  O  O42  1  0.09341000  0.26008200  0.62005600  1
  O  O43  1  0.90659000  0.73991800  0.37994400  1
  O  O44  1  0.35200600  0.02641500  0.10873100  1
  O  O45  1  0.64799400  0.97358500  0.89126900  1
  O  O46  1  0.16107300  0.48648100  0.90435300  1
  O  O47  1  0.83892700  0.51351900  0.09564700  1
  O  O48  1  0.51938700  0.53247900  0.30826900  1
  O  O49  1  0.48061300  0.46752100  0.69173100  1
