# generated using pymatgen
data_LiZnSi2H47C17N4
_symmetry_space_group_name_H-M   'P 1'
_cell_length_a   10.15511342
_cell_length_b   14.24968339
_cell_length_c   21.66484625
_cell_angle_alpha   90.00000000
_cell_angle_beta   100.55189603
_cell_angle_gamma   90.00000000
_symmetry_Int_Tables_number   1
_chemical_formula_structural   LiZnSi2H47C17N4
_chemical_formula_sum   'Li4 Zn4 Si8 H188 C68 N16'
_cell_volume   3082.04260028
_cell_formula_units_Z   4
loop_
 _symmetry_equiv_pos_site_id
 _symmetry_equiv_pos_as_xyz
  1  'x, y, z'
loop_
 _atom_site_type_symbol
 _atom_site_label
 _atom_site_symmetry_multiplicity
 _atom_site_fract_x
 _atom_site_fract_y
 _atom_site_fract_z
 _atom_site_occupancy
  Li  Li0  1  0.27587078  0.02435318  0.81546037  1
  Li  Li1  1  0.72412922  0.52435318  0.68453963  1
  Li  Li2  1  0.72412922  0.97564682  0.18453963  1
  Li  Li3  1  0.27587078  0.47564682  0.31546037  1
  Zn  Zn4  1  0.24862570  0.84800849  0.89048520  1
  Zn  Zn5  1  0.75137430  0.34800849  0.60951480  1
  Zn  Zn6  1  0.75137430  0.15199151  0.10951480  1
  Zn  Zn7  1  0.24862570  0.65199151  0.39048520  1
  Si  Si8  1  0.06455267  0.76906279  0.98385155  1
  Si  Si9  1  0.93544733  0.26906279  0.51614845  1
  Si  Si10  1  0.93544733  0.23093721  0.01614845  1
  Si  Si11  1  0.06455267  0.73093721  0.48385155  1
  Si  Si12  1  0.32543967  0.66765511  0.97357862  1
  Si  Si13  1  0.67456033  0.16765511  0.52642138  1
  Si  Si14  1  0.67456033  0.33234489  0.02642138  1
  Si  Si15  1  0.32543967  0.83234489  0.47357862  1
  H  H16  1  0.17872294  0.76835744  0.77932326  1
  H  H17  1  0.82127706  0.26835744  0.72067674  1
  H  H18  1  0.82127706  0.23164256  0.22067674  1
  H  H19  1  0.17872294  0.73164256  0.27932326  1
  H  H20  1  0.30274385  0.85357498  0.77319529  1
  H  H21  1  0.69725615  0.35357498  0.72680471  1
  H  H22  1  0.69725615  0.14642502  0.22680471  1
  H  H23  1  0.30274385  0.64642502  0.27319529  1
  H  H24  1  0.34880886  0.74466964  0.81060195  1
  H  H25  1  0.65119114  0.24466964  0.68939805  1
  H  H26  1  0.65119114  0.25533036  0.18939805  1
  H  H27  1  0.34880886  0.75533036  0.31060195  1
  H  H28  1  0.27469549  0.98089105  0.97328782  1
  H  H29  1  0.72530451  0.48089105  0.52671218  1
  H  H30  1  0.72530451  0.01910895  0.02671218  1
  H  H31  1  0.27469549  0.51910895  0.47328782  1
  H  H32  1  0.36101825  0.02071269  0.91548037  1
  H  H33  1  0.63898175  0.52071269  0.58451963  1
  H  H34  1  0.63898175  0.97928731  0.08451963  1
  H  H35  1  0.36101825  0.47928731  0.41548037  1
  H  H36  1  0.18275181  0.03125076  0.90492611  1
  H  H37  1  0.81724819  0.53125076  0.59507389  1
  H  H38  1  0.81724819  0.96874924  0.09507389  1
  H  H39  1  0.18275181  0.46874924  0.40492611  1
  H  H40  1  0.91170958  0.81686104  0.88403140  1
  H  H41  1  0.08829042  0.31686104  0.61596860  1
  H  H42  1  0.08829042  0.18313896  0.11596860  1
  H  H43  1  0.91170958  0.68313896  0.38403140  1
  H  H44  1  0.84836220  0.85222444  0.95186341  1
  H  H45  1  0.15163780  0.35222444  0.54813659  1
  H  H46  1  0.15163780  0.14777556  0.04813659  1
  H  H47  1  0.84836220  0.64777556  0.45186341  1
  H  H48  1  0.97888685  0.91798144  0.92756169  1
  H  H49  1  0.02111315  0.41798144  0.57243831  1
  H  H50  1  0.02111315  0.08201856  0.07243831  1
  H  H51  1  0.97888685  0.58201856  0.42756169  1
  H  H52  1  0.02893998  0.60739417  0.02648561  1
  H  H53  1  0.97106002  0.10739417  0.47351439  1
  H  H54  1  0.97106002  0.39260583  0.97351439  1
  H  H55  1  0.02893998  0.89260583  0.52648561  1
  H  H56  1  0.87814191  0.67364715  0.01280466  1
  H  H57  1  0.12185809  0.17364715  0.48719534  1
  H  H58  1  0.12185809  0.32635285  0.98719534  1
  H  H59  1  0.87814191  0.82635285  0.51280466  1
  H  H60  1  0.93774933  0.62090515  0.94888500  1
  H  H61  1  0.06225067  0.12090515  0.55111500  1
  H  H62  1  0.06225067  0.37909485  0.05111500  1
  H  H63  1  0.93774933  0.87909485  0.44888500  1
  H  H64  1  0.15423382  0.89177237  0.06354103  1
  H  H65  1  0.84576618  0.39177237  0.43645897  1
  H  H66  1  0.84576618  0.10822763  0.93645897  1
  H  H67  1  0.15423382  0.60822763  0.56354103  1
  H  H68  1  0.99750078  0.84837496  0.07678908  1
  H  H69  1  0.00249922  0.34837496  0.42321092  1
  H  H70  1  0.00249922  0.15162504  0.92321092  1
  H  H71  1  0.99750078  0.65162504  0.57678908  1
  H  H72  1  0.14606182  0.78058152  0.10058338  1
  H  H73  1  0.85393818  0.28058152  0.39941662  1
  H  H74  1  0.85393818  0.21941848  0.89941662  1
  H  H75  1  0.14606182  0.71941848  0.60058338  1
  H  H76  1  0.52474996  0.77548721  0.98049540  1
  H  H77  1  0.47525004  0.27548721  0.51950460  1
  H  H78  1  0.47525004  0.22451279  0.01950460  1
  H  H79  1  0.52474996  0.72451279  0.48049540  1
  H  H80  1  0.57123119  0.65493198  0.97768219  1
  H  H81  1  0.42876881  0.15493198  0.52231781  1
  H  H82  1  0.42876881  0.34506802  0.02231781  1
  H  H83  1  0.57123119  0.84506802  0.47768219  1
  H  H84  1  0.49434779  0.71370041  0.90788009  1
  H  H85  1  0.50565221  0.21370041  0.59211991  1
  H  H86  1  0.50565221  0.28629959  0.09211991  1
  H  H87  1  0.49434779  0.78629959  0.40788009  1
  H  H88  1  0.27748141  0.56566680  0.87783960  1
  H  H89  1  0.72251859  0.06566680  0.62216040  1
  H  H90  1  0.72251859  0.43433320  0.12216040  1
  H  H91  1  0.27748141  0.93433320  0.37783960  1
  H  H92  1  0.37441327  0.50395476  0.94210480  1
  H  H93  1  0.62558673  0.00395476  0.55789520  1
  H  H94  1  0.62558673  0.49604524  0.05789520  1
  H  H95  1  0.37441327  0.99604524  0.44210480  1
  H  H96  1  0.19948804  0.51943203  0.93878150  1
  H  H97  1  0.80051196  0.01943203  0.56121850  1
  H  H98  1  0.80051196  0.48056797  0.06121850  1
  H  H99  1  0.19948804  0.98056797  0.43878150  1
  H  H100  1  0.26155239  0.59868692  0.07075778  1
  H  H101  1  0.73844761  0.09868692  0.42924222  1
  H  H102  1  0.73844761  0.40131308  0.92924222  1
  H  H103  1  0.26155239  0.90131308  0.57075778  1
  H  H104  1  0.43444138  0.58095277  0.07032039  1
  H  H105  1  0.56555862  0.08095277  0.42967961  1
  H  H106  1  0.56555862  0.41904723  0.92967961  1
  H  H107  1  0.43444138  0.91904723  0.57032039  1
  H  H108  1  0.37643396  0.69288513  0.09070676  1
  H  H109  1  0.62356604  0.19288513  0.40929324  1
  H  H110  1  0.62356604  0.30711487  0.90929324  1
  H  H111  1  0.37643396  0.80711487  0.59070676  1
  H  H112  1  0.99427745  0.98235277  0.64954112  1
  H  H113  1  0.00572255  0.48235277  0.85045888  1
  H  H114  1  0.00572255  0.01764723  0.35045888  1
  H  H115  1  0.99427745  0.51764723  0.14954112  1
  H  H116  1  0.17260478  0.97162411  0.66245626  1
  H  H117  1  0.82739522  0.47162411  0.83754374  1
  H  H118  1  0.82739522  0.02837589  0.33754374  1
  H  H119  1  0.17260478  0.52837589  0.16245626  1
  H  H120  1  0.07736752  0.89626161  0.70319445  1
  H  H121  1  0.92263248  0.39626161  0.79680555  1
  H  H122  1  0.92263248  0.10373839  0.29680555  1
  H  H123  1  0.07736752  0.60373839  0.20319445  1
  H  H124  1  0.97567846  0.95292280  0.78470152  1
  H  H125  1  0.02432154  0.45292280  0.71529848  1
  H  H126  1  0.02432154  0.04707720  0.21529848  1
  H  H127  1  0.97567846  0.54707720  0.28470152  1
  H  H128  1  0.98543609  0.07308188  0.80739920  1
  H  H129  1  0.01456391  0.57308188  0.69260080  1
  H  H130  1  0.01456391  0.92691812  0.19260080  1
  H  H131  1  0.98543609  0.42691812  0.30739920  1
  H  H132  1  0.88695745  0.04000732  0.73361442  1
  H  H133  1  0.11304255  0.54000732  0.76638558  1
  H  H134  1  0.11304255  0.95999268  0.26638558  1
  H  H135  1  0.88695745  0.45999268  0.23361442  1
  H  H136  1  0.18002585  0.12812441  0.68091924  1
  H  H137  1  0.81997415  0.62812441  0.81908076  1
  H  H138  1  0.81997415  0.87187559  0.31908076  1
  H  H139  1  0.18002585  0.37187559  0.18091924  1
  H  H140  1  0.01147848  0.15434293  0.68524564  1
  H  H141  1  0.98852152  0.65434293  0.81475436  1
  H  H142  1  0.98852152  0.84565707  0.31475436  1
  H  H143  1  0.01147848  0.34565707  0.18524564  1
  H  H144  1  0.07152181  0.21312088  0.79216335  1
  H  H145  1  0.92847819  0.71312088  0.70783665  1
  H  H146  1  0.92847819  0.78687912  0.20783665  1
  H  H147  1  0.07152181  0.28687912  0.29216335  1
  H  H148  1  0.15950513  0.27221906  0.74021347  1
  H  H149  1  0.84049487  0.77221906  0.75978653  1
  H  H150  1  0.84049487  0.72778094  0.25978653  1
  H  H151  1  0.15950513  0.22778094  0.24021347  1
  H  H152  1  0.19490799  0.22408108  0.88794611  1
  H  H153  1  0.80509201  0.72408108  0.61205389  1
  H  H154  1  0.80509201  0.77591892  0.11205389  1
  H  H155  1  0.19490799  0.27591892  0.38794611  1
  H  H156  1  0.37272424  0.22332404  0.89938990  1
  H  H157  1  0.62727576  0.72332404  0.60061010  1
  H  H158  1  0.62727576  0.77667596  0.10061010  1
  H  H159  1  0.37272424  0.27667596  0.39938990  1
  H  H160  1  0.28117934  0.31472939  0.85420635  1
  H  H161  1  0.71882066  0.81472939  0.64579365  1
  H  H162  1  0.71882066  0.68527061  0.14579365  1
  H  H163  1  0.28117934  0.18527061  0.35420635  1
  H  H164  1  0.37148901  0.18704194  0.73093107  1
  H  H165  1  0.62851099  0.68704194  0.76906893  1
  H  H166  1  0.62851099  0.81295806  0.26906893  1
  H  H167  1  0.37148901  0.31295806  0.23093107  1
  H  H168  1  0.43168611  0.27006808  0.79019695  1
  H  H169  1  0.56831389  0.77006808  0.70980305  1
  H  H170  1  0.56831389  0.72993192  0.20980305  1
  H  H171  1  0.43168611  0.22993192  0.29019695  1
  H  H172  1  0.53392873  0.14053131  0.86123486  1
  H  H173  1  0.46607127  0.64053131  0.63876514  1
  H  H174  1  0.46607127  0.85946869  0.13876514  1
  H  H175  1  0.53392873  0.35946869  0.36123486  1
  H  H176  1  0.60168905  0.15518142  0.79175042  1
  H  H177  1  0.39831095  0.65518142  0.70824958  1
  H  H178  1  0.39831095  0.84481858  0.20824958  1
  H  H179  1  0.60168905  0.34481858  0.29175042  1
  H  H180  1  0.68202218  0.98517891  0.83134561  1
  H  H181  1  0.31797782  0.48517891  0.66865439  1
  H  H182  1  0.31797782  0.01482109  0.16865439  1
  H  H183  1  0.68202218  0.51482109  0.33134561  1
  H  H184  1  0.57352452  0.98690926  0.88755322  1
  H  H185  1  0.42647548  0.48690926  0.61244678  1
  H  H186  1  0.42647548  0.01309074  0.11244678  1
  H  H187  1  0.57352452  0.51309074  0.38755322  1
  H  H188  1  0.55314627  0.89849215  0.82831648  1
  H  H189  1  0.44685373  0.39849215  0.67168352  1
  H  H190  1  0.44685373  0.10150785  0.17168352  1
  H  H191  1  0.55314627  0.60150785  0.32831648  1
  H  H192  1  0.46501070  0.93577164  0.72175607  1
  H  H193  1  0.53498930  0.43577164  0.77824393  1
  H  H194  1  0.53498930  0.06422836  0.27824393  1
  H  H195  1  0.46501070  0.56422836  0.22175607  1
  H  H196  1  0.42450479  0.05349594  0.69821023  1
  H  H197  1  0.57549521  0.55349594  0.80178977  1
  H  H198  1  0.57549521  0.94650406  0.30178977  1
  H  H199  1  0.42450479  0.44650406  0.19821023  1
  H  H200  1  0.59534029  0.02077395  0.72312110  1
  H  H201  1  0.40465971  0.52077395  0.77687890  1
  H  H202  1  0.40465971  0.97922605  0.27687890  1
  H  H203  1  0.59534029  0.47922605  0.22312110  1
  C  C204  1  0.27190979  0.80040251  0.80493503  1
  C  C205  1  0.72809021  0.30040251  0.69506497  1
  C  C206  1  0.72809021  0.19959749  0.19506497  1
  C  C207  1  0.27190979  0.69959749  0.30493503  1
  C  C208  1  0.26823696  0.98386747  0.92199576  1
  C  C209  1  0.73176304  0.48386747  0.57800424  1
  C  C210  1  0.73176304  0.01613253  0.07800424  1
  C  C211  1  0.26823696  0.51613253  0.42199576  1
  C  C212  1  0.93985499  0.84664276  0.93152579  1
  C  C213  1  0.06014501  0.34664276  0.56847421  1
  C  C214  1  0.06014501  0.15335724  0.06847421  1
  C  C215  1  0.93985499  0.65335724  0.43152579  1
  C  C216  1  0.96923281  0.65713970  0.99399872  1
  C  C217  1  0.03076719  0.15713970  0.50600128  1
  C  C218  1  0.03076719  0.34286030  0.00600128  1
  C  C219  1  0.96923281  0.84286030  0.49399872  1
  C  C220  1  0.09367418  0.82782961  0.06395229  1
  C  C221  1  0.90632582  0.32782961  0.43604771  1
  C  C222  1  0.90632582  0.17217039  0.93604771  1
  C  C223  1  0.09367418  0.67217039  0.56395229  1
  C  C224  1  0.49478774  0.70722225  0.95856901  1
  C  C225  1  0.50521226  0.20722225  0.54143099  1
  C  C226  1  0.50521226  0.29277775  0.04143099  1
  C  C227  1  0.49478774  0.79277775  0.45856901  1
  C  C228  1  0.29058106  0.55330743  0.92876253  1
  C  C229  1  0.70941894  0.05330743  0.57123747  1
  C  C230  1  0.70941894  0.44669257  0.07123747  1
  C  C231  1  0.29058106  0.94669257  0.42876253  1
  C  C232  1  0.35199063  0.63202307  0.05951354  1
  C  C233  1  0.64800937  0.13202307  0.44048646  1
  C  C234  1  0.64800937  0.36797693  0.94048646  1
  C  C235  1  0.35199063  0.86797693  0.55951354  1
  C  C236  1  0.08458387  0.96763336  0.68529207  1
  C  C237  1  0.91541613  0.46763336  0.81470793  1
  C  C238  1  0.91541613  0.03236664  0.31470793  1
  C  C239  1  0.08458387  0.53236664  0.18529207  1
  C  C240  1  0.98014262  0.02515164  0.76750472  1
  C  C241  1  0.01985738  0.52515164  0.73249528  1
  C  C242  1  0.01985738  0.97484836  0.23249528  1
  C  C243  1  0.98014262  0.47484836  0.26750472  1
  C  C244  1  0.10830275  0.13089910  0.71341850  1
  C  C245  1  0.89169725  0.63089910  0.78658150  1
  C  C246  1  0.89169725  0.86910090  0.28658150  1
  C  C247  1  0.10830275  0.36910090  0.21341850  1
  C  C248  1  0.15076312  0.20416880  0.76414936  1
  C  C249  1  0.84923688  0.70416880  0.73585064  1
  C  C250  1  0.84923688  0.79583120  0.23585064  1
  C  C251  1  0.15076312  0.29583120  0.26414936  1
  C  C252  1  0.28137781  0.23882863  0.86561142  1
  C  C253  1  0.71862219  0.73882863  0.63438858  1
  C  C254  1  0.71862219  0.76117137  0.13438858  1
  C  C255  1  0.28137781  0.26117137  0.36561142  1
  C  C256  1  0.39635974  0.19674028  0.78201844  1
  C  C257  1  0.60364026  0.69674028  0.71798156  1
  C  C258  1  0.60364026  0.80325972  0.21798156  1
  C  C259  1  0.39635974  0.30325972  0.28201844  1
  C  C260  1  0.51143636  0.13233587  0.81000956  1
  C  C261  1  0.48856364  0.63233587  0.68999044  1
  C  C262  1  0.48856364  0.86766413  0.18999044  1
  C  C263  1  0.51143636  0.36766413  0.31000956  1
  C  C264  1  0.57808834  0.97257515  0.83820782  1
  C  C265  1  0.42191166  0.47257515  0.66179218  1
  C  C266  1  0.42191166  0.02742485  0.16179218  1
  C  C267  1  0.57808834  0.52742485  0.33820782  1
  C  C268  1  0.49193550  0.00947691  0.73145415  1
  C  C269  1  0.50806450  0.50947691  0.76854585  1
  C  C270  1  0.50806450  0.99052309  0.26854585  1
  C  C271  1  0.49193550  0.49052309  0.23145415  1
  N  N272  1  0.20678833  0.75274299  0.95338459  1
  N  N273  1  0.79321167  0.25274299  0.54661541  1
  N  N274  1  0.79321167  0.24725701  0.04661541  1
  N  N275  1  0.20678833  0.74725701  0.45338459  1
  N  N276  1  0.27445383  0.18108295  0.80892503  1
  N  N277  1  0.72554617  0.68108295  0.69107497  1
  N  N278  1  0.72554617  0.81891705  0.19107497  1
  N  N279  1  0.27445383  0.31891705  0.30892503  1
  N  N280  1  0.09877119  0.03464981  0.73778340  1
  N  N281  1  0.90122881  0.53464981  0.76221660  1
  N  N282  1  0.90122881  0.96535019  0.26221660  1
  N  N283  1  0.09877119  0.46535019  0.23778340  1
  N  N284  1  0.48156326  0.03197424  0.79656857  1
  N  N285  1  0.51843674  0.53197424  0.70343143  1
  N  N286  1  0.51843674  0.96802576  0.20343143  1
  N  N287  1  0.48156326  0.46802576  0.29656857  1
