# generated using pymatgen
data_Li4NbCr(TeO6)2
_symmetry_space_group_name_H-M   'P 1'
_cell_length_a   5.17460600
_cell_length_b   5.43509323
_cell_length_c   7.51726666
_cell_angle_alpha   93.82069088
_cell_angle_beta   90.12520489
_cell_angle_gamma   90.01650849
_symmetry_Int_Tables_number   1
_chemical_formula_structural   Li4NbCr(TeO6)2
_chemical_formula_sum   'Li4 Nb1 Cr1 Te2 O12'
_cell_volume   210.94870170
_cell_formula_units_Z   1
loop_
 _symmetry_equiv_pos_site_id
 _symmetry_equiv_pos_as_xyz
  1  'x, y, z'
loop_
 _atom_site_type_symbol
 _atom_site_label
 _atom_site_symmetry_multiplicity
 _atom_site_fract_x
 _atom_site_fract_y
 _atom_site_fract_z
 _atom_site_occupancy
  Li  Li0  1  0.99776700  0.42871500  0.26357400  1
  Li  Li1  1  0.49902900  0.94328900  0.80220500  1
  Li  Li2  1  0.99545900  0.41719900  0.80516400  1
  Li  Li3  1  0.50371600  0.98037300  0.24833000  1
  Nb  Nb4  1  0.50153500  0.49943000  0.50636600  1
  Cr  Cr5  1  0.99959300  0.99221000  0.00039500  1
  Te  Te6  1  0.00172700  0.99585100  0.50062200  1
  Te  Te7  1  0.50118800  0.50000900  0.00244800  1
  O  O8  1  0.30719900  0.18863500  0.43096100  1
  O  O9  1  0.12681500  0.01033600  0.74015300  1
  O  O10  1  0.32530700  0.81213200  0.04992900  1
  O  O11  1  0.18173300  0.69074700  0.43010800  1
  O  O12  1  0.79310600  0.69052500  0.92759400  1
  O  O13  1  0.37282400  0.50643300  0.74969200  1
  O  O14  1  0.62375600  0.51036500  0.24901400  1
  O  O15  1  0.19176200  0.32077600  0.05161900  1
  O  O16  1  0.82269000  0.31631600  0.55828000  1
  O  O17  1  0.69250600  0.20508400  0.93371500  1
  O  O18  1  0.87757400  0.02525100  0.26008700  1
  O  O19  1  0.68471100  0.82392900  0.56094200  1
