# generated using pymatgen
data_Li5Mn3O8
_symmetry_space_group_name_H-M   'P 1'
_cell_length_a   6.45532809
_cell_length_b   6.45532809
_cell_length_c   9.86194097
_cell_angle_alpha   52.90550492
_cell_angle_beta   52.90550492
_cell_angle_gamma   26.38275557
_symmetry_Int_Tables_number   1
_chemical_formula_structural   Li5Mn3O8
_chemical_formula_sum   'Li5 Mn3 O8'
_cell_volume   143.35641890
_cell_formula_units_Z   1
loop_
 _symmetry_equiv_pos_site_id
 _symmetry_equiv_pos_as_xyz
  1  'x, y, z'
loop_
 _atom_site_type_symbol
 _atom_site_label
 _atom_site_symmetry_multiplicity
 _atom_site_fract_x
 _atom_site_fract_y
 _atom_site_fract_z
 _atom_site_occupancy
  Li  Li0  1  0.11791300  0.11791300  0.14346500  1
  Li  Li1  1  0.88208700  0.88208700  0.85653500  1
  Li  Li2  1  0.61471200  0.61471200  0.62857700  1
  Li  Li3  1  0.38528800  0.38528800  0.37142300  1
  Li  Li4  1  0.00000000  0.00000000  0.50000000  1
  Mn  Mn5  1  0.25708800  0.25708800  0.74057600  1
  Mn  Mn6  1  0.74291200  0.74291200  0.25942400  1
  Mn  Mn7  1  0.50000000  0.50000000  0.00000000  1
  O  O8  1  0.06651100  0.06651100  0.81420000  1
  O  O9  1  0.80318600  0.80318600  0.58588100  1
  O  O10  1  0.57939300  0.57939300  0.30180800  1
  O  O11  1  0.31275800  0.31275800  0.08344200  1
  O  O12  1  0.19681400  0.19681400  0.41411900  1
  O  O13  1  0.93348900  0.93348900  0.18580000  1
  O  O14  1  0.68724200  0.68724200  0.91655800  1
  O  O15  1  0.42060700  0.42060700  0.69819200  1
