# generated using pymatgen
data_Li6V3P8O29
_symmetry_space_group_name_H-M   'P 1'
_cell_length_a   9.78229635
_cell_length_b   9.78229635
_cell_length_c   14.02761419
_cell_angle_alpha   89.68240032
_cell_angle_beta   89.68240032
_cell_angle_gamma   60.28864406
_symmetry_Int_Tables_number   1
_chemical_formula_structural   Li6V3P8O29
_chemical_formula_sum   'Li12 V6 P16 O58'
_cell_volume   1165.85085272
_cell_formula_units_Z   2
loop_
 _symmetry_equiv_pos_site_id
 _symmetry_equiv_pos_as_xyz
  1  'x, y, z'
loop_
 _atom_site_type_symbol
 _atom_site_label
 _atom_site_symmetry_multiplicity
 _atom_site_fract_x
 _atom_site_fract_y
 _atom_site_fract_z
 _atom_site_occupancy
  Li  Li0  1  0.76727300  0.90367900  0.19443000  1
  Li  Li1  1  0.90551000  0.33128700  0.19154600  1
  Li  Li2  1  0.76380600  0.33452800  0.68688100  1
  Li  Li3  1  0.33456000  0.90199800  0.68480000  1
  Li  Li4  1  0.66547200  0.23619500  0.31311900  1
  Li  Li5  1  0.33326100  0.76547900  0.19352000  1
  Li  Li6  1  0.66871300  0.09449000  0.80845400  1
  Li  Li7  1  0.23452100  0.66673900  0.80648000  1
  Li  Li8  1  0.09800200  0.66544000  0.31520000  1
  Li  Li9  1  0.09632100  0.23272700  0.80557000  1
  Li  Li10  1  0.98844500  0.95489900  0.73453500  1
  Li  Li11  1  0.04510100  0.01155500  0.26546500  1
  V  V12  1  0.56256600  0.43743400  0.50000000  1
  V  V13  1  0.43619900  0.56380100  0.00000000  1
  V  V14  1  0.56462700  0.99755300  0.00031200  1
  V  V15  1  0.43600900  0.00407600  0.49642500  1
  V  V16  1  0.99592400  0.56399100  0.50357500  1
  V  V17  1  0.00244700  0.43537300  0.99968800  1
  P  P18  1  0.91578200  0.77855200  0.91103400  1
  P  P19  1  0.77830000  0.91471100  0.41009800  1
  P  P20  1  0.91186100  0.31053500  0.40649100  1
  P  P21  1  0.66322500  0.66891100  0.61789300  1
  P  P22  1  0.66608100  0.66385600  0.11834600  1
  P  P23  1  0.77427700  0.31373200  0.90845900  1
  P  P24  1  0.68626800  0.22572300  0.09154100  1
  P  P25  1  0.31247500  0.91491800  0.90340400  1
  P  P26  1  0.68946500  0.08813900  0.59351000  1
  P  P27  1  0.31268300  0.77751300  0.40842800  1
  P  P28  1  0.22248700  0.68731700  0.59157200  1
  P  P29  1  0.33108900  0.33677500  0.38210700  1
  P  P30  1  0.33614400  0.33391900  0.88165400  1
  P  P31  1  0.08508200  0.68752500  0.09659600  1
  P  P32  1  0.22144800  0.08421800  0.08896600  1
  P  P33  1  0.08528900  0.22170000  0.58990200  1
  O  O34  1  0.99918100  0.76688300  0.18741200  1
  O  O35  1  0.92174000  0.74848200  0.40986500  1
  O  O36  1  0.78093900  0.01406300  0.68328800  1
  O  O37  1  0.74372600  0.91746400  0.90980300  1
  O  O38  1  0.92164400  0.61903000  0.91891500  1
  O  O39  1  0.80944600  0.67111000  0.57048200  1
  O  O40  1  0.91854700  0.46249800  0.41537200  1
  O  O41  1  0.99530500  0.22235300  0.67881600  1
  O  O42  1  0.92065800  0.33639300  0.90958300  1
  O  O43  1  0.67805700  0.80803700  0.07925000  1
  O  O44  1  0.62420200  0.91030600  0.42104400  1
  O  O45  1  0.81132300  0.50989200  0.07865100  1
  O  O46  1  0.66276100  0.66879100  0.72395000  1
  O  O47  1  0.65620300  0.66210500  0.22431500  1
  O  O48  1  0.67489700  0.51315200  0.57846600  1
  O  O49  1  0.47045800  0.91070300  0.92103400  1
  O  O50  1  0.51178500  0.81450300  0.57640900  1
  O  O51  1  0.73994000  0.34071500  0.41113100  1
  O  O52  1  0.79660700  0.20339300  0.00000000  1
  O  O53  1  0.77357100  0.22562900  0.18021800  1
  O  O54  1  0.77437100  0.22642900  0.81978200  1
  O  O55  1  0.62196900  0.47134700  0.92113700  1
  O  O56  1  0.51206000  0.67350300  0.07377000  1
  O  O57  1  0.65928500  0.26006000  0.58886900  1
  O  O58  1  0.46491400  0.61827900  0.41850600  1
  O  O59  1  0.34372500  0.91466100  0.40910400  1
  O  O60  1  0.79920700  0.00195500  0.50202500  1
  O  O61  1  0.77764700  0.00469500  0.32118400  1
  O  O62  1  0.20682800  0.99114100  0.17001400  1
  O  O63  1  0.66360700  0.07934200  0.09041700  1
  O  O64  1  0.52865300  0.37803100  0.07886300  1
  O  O65  1  0.33288500  0.74886900  0.90620500  1
  O  O66  1  0.48684800  0.32510300  0.42153400  1
  O  O67  1  0.38172100  0.53508600  0.58149400  1
  O  O68  1  0.21616800  0.78139100  0.67971500  1
  O  O69  1  0.21860900  0.78383200  0.32028500  1
  O  O70  1  0.20382300  0.79617700  0.50000000  1
  O  O71  1  0.25113100  0.66711500  0.09379500  1
  O  O72  1  0.49010800  0.18867700  0.92134900  1
  O  O73  1  0.53750200  0.08145300  0.58462800  1
  O  O74  1  0.32649700  0.48794000  0.92623000  1
  O  O75  1  0.33789500  0.34379700  0.77568500  1
  O  O76  1  0.33120900  0.33723900  0.27605000  1
  O  O77  1  0.18549700  0.48821500  0.42359100  1
  O  O78  1  0.38097000  0.07835600  0.08108500  1
  O  O79  1  0.32889000  0.19055400  0.42951800  1
  O  O80  1  0.08533900  0.65627500  0.59089600  1
  O  O81  1  0.98826200  0.80177900  0.00926300  1
  O  O82  1  0.00885900  0.79317200  0.82998600  1
  O  O83  1  0.08929700  0.52954200  0.07896600  1
  O  O84  1  0.19196300  0.32194300  0.92075000  1
  O  O85  1  0.08969400  0.37579800  0.57895600  1
  O  O86  1  0.25151800  0.07826000  0.59013500  1
  O  O87  1  0.23311700  0.00081900  0.81258800  1
  O  O88  1  0.19822100  0.01173800  0.99073700  1
  O  O89  1  0.08253600  0.25627400  0.09019700  1
  O  O90  1  0.98593700  0.21906100  0.31671200  1
  O  O91  1  0.99804500  0.20079300  0.49797500  1
