# generated using pymatgen
data_Li9Mn7O16
_symmetry_space_group_name_H-M   'P 1'
_cell_length_a   5.07764700
_cell_length_b   5.10797852
_cell_length_c   12.04711115
_cell_angle_alpha   78.30375662
_cell_angle_beta   81.51293258
_cell_angle_gamma   79.08766816
_symmetry_Int_Tables_number   1
_chemical_formula_structural   Li9Mn7O16
_chemical_formula_sum   'Li9 Mn7 O16'
_cell_volume   298.49541632
_cell_formula_units_Z   1
loop_
 _symmetry_equiv_pos_site_id
 _symmetry_equiv_pos_as_xyz
  1  'x, y, z'
loop_
 _atom_site_type_symbol
 _atom_site_label
 _atom_site_symmetry_multiplicity
 _atom_site_fract_x
 _atom_site_fract_y
 _atom_site_fract_z
 _atom_site_occupancy
  Li  Li0  1  0.74811000  0.18759600  0.81811500  1
  Li  Li1  1  0.74374500  0.43235600  0.55436800  1
  Li  Li2  1  0.25874700  0.31653800  0.69714100  1
  Li  Li3  1  0.25625500  0.56764400  0.44563200  1
  Li  Li4  1  0.74125300  0.68346200  0.30285900  1
  Li  Li5  1  0.73160000  0.93436200  0.05483300  1
  Li  Li6  1  0.26840000  0.06563800  0.94516700  1
  Li  Li7  1  0.25189000  0.81240400  0.18188500  1
  Li  Li8  1  0.50000000  0.50000000  0.00000000  1
  Mn  Mn9  1  0.00318500  0.63133000  0.88359000  1
  Mn  Mn10  1  0.99681500  0.36867000  0.11641000  1
  Mn  Mn11  1  0.00657000  0.87732400  0.63001600  1
  Mn  Mn12  1  0.99343000  0.12267600  0.36998400  1
  Mn  Mn13  1  0.50000000  0.00000000  0.50000000  1
  Mn  Mn14  1  0.49161100  0.24603000  0.23735700  1
  Mn  Mn15  1  0.50838900  0.75397000  0.76264300  1
  O  O16  1  0.89645000  0.30830200  0.97724800  1
  O  O17  1  0.88650900  0.56060400  0.73850100  1
  O  O18  1  0.36680900  0.43664000  0.84095400  1
  O  O19  1  0.36585300  0.68000600  0.58963300  1
  O  O20  1  0.86448700  0.80057700  0.46567000  1
  O  O21  1  0.85694100  0.05187200  0.20935800  1
  O  O22  1  0.34370900  0.16271100  0.09159400  1
  O  O23  1  0.35556800  0.92812600  0.33712900  1
  O  O24  1  0.64443200  0.07187400  0.66287100  1
  O  O25  1  0.63414700  0.31999400  0.41036700  1
  O  O26  1  0.13551300  0.19942300  0.53433000  1
  O  O27  1  0.11349100  0.43939600  0.26149900  1
  O  O28  1  0.63319100  0.56336000  0.15904600  1
  O  O29  1  0.65629100  0.83728900  0.90840600  1
  O  O30  1  0.14305900  0.94812800  0.79064200  1
  O  O31  1  0.10355000  0.69169800  0.02275200  1
