# generated using pymatgen
data_Li(CrS2)2
_symmetry_space_group_name_H-M   'P 1'
_cell_length_a   7.01679619
_cell_length_b   7.01679619
_cell_length_c   7.01679619
_cell_angle_alpha   118.58931817
_cell_angle_beta   118.58931817
_cell_angle_gamma   92.46124799
_symmetry_Int_Tables_number   1
_chemical_formula_structural   Li(CrS2)2
_chemical_formula_sum   'Li2 Cr4 S8'
_cell_volume   249.24771854
_cell_formula_units_Z   2
loop_
 _symmetry_equiv_pos_site_id
 _symmetry_equiv_pos_as_xyz
  1  'x, y, z'
loop_
 _atom_site_type_symbol
 _atom_site_label
 _atom_site_symmetry_multiplicity
 _atom_site_fract_x
 _atom_site_fract_y
 _atom_site_fract_z
 _atom_site_occupancy
  Li  Li0  1  0.00000000  0.00000000  0.00000000  1
  Li  Li1  1  0.75000000  0.25000000  0.50000000  1
  Cr  Cr2  1  0.87500000  0.62500000  0.25000000  1
  Cr  Cr3  1  0.37500000  0.12500000  0.75000000  1
  Cr  Cr4  1  0.37500000  0.62500000  0.75000000  1
  Cr  Cr5  1  0.37500000  0.62500000  0.25000000  1
  S  S6  1  0.59884800  0.37816300  0.22068500  1
  S  S7  1  0.62183700  0.40115200  0.77931500  1
  S  S8  1  0.15747800  0.37816300  0.77931500  1
  S  S9  1  0.62183700  0.84252200  0.22068500  1
  S  S10  1  0.15115200  0.87183700  0.27931500  1
  S  S11  1  0.12816300  0.40747800  0.27931500  1
  S  S12  1  0.59252200  0.87183700  0.72068500  1
  S  S13  1  0.12816300  0.84884800  0.72068500  1
