# generated using pymatgen
data_SrLi2In
_symmetry_space_group_name_H-M   'P 1'
_cell_length_a   12.65018262
_cell_length_b   12.65018262
_cell_length_c   12.65018262
_cell_angle_alpha   120.23841788
_cell_angle_beta   117.96618704
_cell_angle_gamma   91.57298063
_symmetry_Int_Tables_number   1
_chemical_formula_structural   SrLi2In
_chemical_formula_sum   'Sr1 Li2 In1'
_cell_volume   1449.58941446
_cell_formula_units_Z   1
loop_
 _symmetry_equiv_pos_site_id
 _symmetry_equiv_pos_as_xyz
  1  'x, y, z'
loop_
 _atom_site_type_symbol
 _atom_site_label
 _atom_site_symmetry_multiplicity
 _atom_site_fract_x
 _atom_site_fract_y
 _atom_site_fract_z
 _atom_site_occupancy
  Sr  Sr0  1  0.00000000  0.00000000  0.00000000  1
  Li  Li1  1  0.27733500  0.00000000  0.27733500  1
  Li  Li2  1  0.72266500  0.00000000  0.72266500  1
  In  In3  1  0.50000000  0.00000000  0.50000000  1
