# generated using pymatgen
data_Li4P2O7
_symmetry_space_group_name_H-M   'P 1'
_cell_length_a   5.58059800
_cell_length_b   5.82218041
_cell_length_c   9.98866898
_cell_angle_alpha   103.36247434
_cell_angle_beta   97.73722221
_cell_angle_gamma   98.42206706
_symmetry_Int_Tables_number   1
_chemical_formula_structural   Li4P2O7
_chemical_formula_sum   'Li8 P4 O14'
_cell_volume   307.52978406
_cell_formula_units_Z   2
loop_
 _symmetry_equiv_pos_site_id
 _symmetry_equiv_pos_as_xyz
  1  'x, y, z'
loop_
 _atom_site_type_symbol
 _atom_site_label
 _atom_site_symmetry_multiplicity
 _atom_site_fract_x
 _atom_site_fract_y
 _atom_site_fract_z
 _atom_site_occupancy
  Li  Li0  1  0.20265700  0.89733000  0.19276400  1
  Li  Li1  1  0.79734300  0.10267000  0.80723600  1
  Li  Li2  1  0.59625700  0.31421600  0.42144600  1
  Li  Li3  1  0.40374300  0.68578400  0.57855400  1
  Li  Li4  1  0.70919800  0.76134000  0.30451700  1
  Li  Li5  1  0.29080200  0.23866000  0.69548300  1
  Li  Li6  1  0.69833800  0.68787200  0.00042300  1
  Li  Li7  1  0.30166200  0.31212800  0.99957700  1
  P  P8  1  0.83013500  0.28851200  0.13136400  1
  P  P9  1  0.16986500  0.71148800  0.86863600  1
  P  P10  1  0.03361000  0.22026600  0.42582800  1
  P  P11  1  0.96639000  0.77973400  0.57417200  1
  O  O12  1  0.03774800  0.36384200  0.26153800  1
  O  O13  1  0.96225200  0.63615800  0.73846200  1
  O  O14  1  0.64723600  0.46455200  0.13400600  1
  O  O15  1  0.35276400  0.53544800  0.86599400  1
  O  O16  1  0.54313600  0.02337400  0.24713300  1
  O  O17  1  0.45686400  0.97662600  0.75286700  1
  O  O18  1  0.93798300  0.24036600  0.99751600  1
  O  O19  1  0.06201700  0.75963400  0.00248400  1
  O  O20  1  0.67388100  0.02165100  0.12510200  1
  O  O21  1  0.32611900  0.97834900  0.87489800  1
  O  O22  1  0.30112500  0.33113000  0.50869900  1
  O  O23  1  0.69887500  0.66887000  0.49130100  1
  O  O24  1  0.04032600  0.95879200  0.34509000  1
  O  O25  1  0.95967400  0.04120800  0.65491000  1
