# generated using pymatgen
data_Li9Mn2Co5O16
_symmetry_space_group_name_H-M   'P 1'
_cell_length_a   4.98938300
_cell_length_b   5.84950814
_cell_length_c   9.80962431
_cell_angle_alpha   99.42451067
_cell_angle_beta   94.34700514
_cell_angle_gamma   91.11929388
_symmetry_Int_Tables_number   1
_chemical_formula_structural   Li9Mn2Co5O16
_chemical_formula_sum   'Li9 Mn2 Co5 O16'
_cell_volume   281.47273811
_cell_formula_units_Z   1
loop_
 _symmetry_equiv_pos_site_id
 _symmetry_equiv_pos_as_xyz
  1  'x, y, z'
loop_
 _atom_site_type_symbol
 _atom_site_label
 _atom_site_symmetry_multiplicity
 _atom_site_fract_x
 _atom_site_fract_y
 _atom_site_fract_z
 _atom_site_occupancy
  Li  Li0  1  0.89143500  0.81424200  0.27011600  1
  Li  Li1  1  0.12699400  0.69398800  0.73207700  1
  Li  Li2  1  0.38099400  0.57180900  0.26442700  1
  Li  Li3  1  0.87246800  0.31181800  0.26398000  1
  Li  Li4  1  0.12689000  0.18467100  0.73062100  1
  Li  Li5  1  0.38378200  0.05395500  0.26467200  1
  Li  Li6  1  0.60557500  0.93381400  0.73434300  1
  Li  Li7  1  0.62479100  0.43635700  0.73866700  1
  Li  Li8  1  0.25224100  0.87243900  0.49908500  1
  Mn  Mn9  1  0.99893400  0.00022400  0.00016300  1
  Mn  Mn10  1  0.99992600  0.50008300  0.00032100  1
  Co  Co11  1  0.49986100  0.74868900  0.00166900  1
  Co  Co12  1  0.75372000  0.62901100  0.49956000  1
  Co  Co13  1  0.24556900  0.37367900  0.49819800  1
  Co  Co14  1  0.49878400  0.25146900  0.99771600  1
  Co  Co15  1  0.73885000  0.11927200  0.50373200  1
  O  O16  1  0.67246200  0.03470000  0.10530400  1
  O  O17  1  0.91509400  0.89032400  0.61519700  1
  O  O18  1  0.19912500  0.75798200  0.11633600  1
  O  O19  1  0.68237500  0.52867400  0.10444000  1
  O  O20  1  0.93254800  0.42100000  0.61484900  1
  O  O21  1  0.17972200  0.28090400  0.10565700  1
  O  O22  1  0.44746000  0.15927100  0.61913300  1
  O  O23  1  0.45051300  0.63957500  0.61097500  1
  O  O24  1  0.03887300  0.59016100  0.38701400  1
  O  O25  1  0.31565700  0.47115500  0.89447000  1
  O  O26  1  0.57230400  0.35842100  0.38532800  1
  O  O27  1  0.06281900  0.10969100  0.38332300  1
  O  O28  1  0.32336200  0.96504000  0.89310800  1
  O  O29  1  0.58497000  0.83386000  0.38487200  1
  O  O30  1  0.81945900  0.71956600  0.89521400  1
  O  O31  1  0.80244300  0.24415300  0.88543300  1
