# generated using pymatgen
data_Li4Fe3CoO8
_symmetry_space_group_name_H-M   'P 1'
_cell_length_a   5.96757482
_cell_length_b   5.98959100
_cell_length_c   8.33934380
_cell_angle_alpha   89.54837959
_cell_angle_beta   89.98298370
_cell_angle_gamma   89.91293652
_symmetry_Int_Tables_number   1
_chemical_formula_structural   Li4Fe3CoO8
_chemical_formula_sum   'Li8 Fe6 Co2 O16'
_cell_volume   298.06632160
_cell_formula_units_Z   2
loop_
 _symmetry_equiv_pos_site_id
 _symmetry_equiv_pos_as_xyz
  1  'x, y, z'
loop_
 _atom_site_type_symbol
 _atom_site_label
 _atom_site_symmetry_multiplicity
 _atom_site_fract_x
 _atom_site_fract_y
 _atom_site_fract_z
 _atom_site_occupancy
  Li  Li0  1  0.99989900  0.00038600  0.49950900  1
  Li  Li1  1  0.49997900  0.50043900  0.00039800  1
  Li  Li2  1  0.24785100  0.75201500  0.75040300  1
  Li  Li3  1  0.75117000  0.24841100  0.24949500  1
  Li  Li4  1  0.99983800  0.50032700  0.00020900  1
  Li  Li5  1  0.49996500  0.00065100  0.49997800  1
  Li  Li6  1  0.25059000  0.25065300  0.24861100  1
  Li  Li7  1  0.74997400  0.74946900  0.75127300  1
  Fe  Fe8  1  0.75076400  0.24953600  0.75138300  1
  Fe  Fe9  1  0.50035000  0.99915700  0.00006100  1
  Fe  Fe10  1  0.24949300  0.25016100  0.75173900  1
  Fe  Fe11  1  0.24934200  0.75028700  0.24918300  1
  Fe  Fe12  1  0.00024700  0.49941500  0.49948200  1
  Fe  Fe13  1  0.75038400  0.74985700  0.24925600  1
  Co  Co14  1  0.00008400  0.99997100  0.00041100  1
  Co  Co15  1  0.50002900  0.50090100  0.50032800  1
  O  O16  1  0.00039900  0.51466500  0.25443800  1
  O  O17  1  0.50048600  0.01612400  0.75542900  1
  O  O18  1  0.49927300  0.98439300  0.24384900  1
  O  O19  1  0.99960900  0.48403600  0.74497000  1
  O  O20  1  0.24632200  0.26209700  0.50788500  1
  O  O21  1  0.74721400  0.76290300  0.00630900  1
  O  O22  1  0.00047200  0.01181900  0.76846800  1
  O  O23  1  0.50032500  0.51189600  0.26300900  1
  O  O24  1  0.25259200  0.76344800  0.00626200  1
  O  O25  1  0.75415500  0.26235900  0.50734200  1
  O  O26  1  0.25177000  0.23621200  0.99353800  1
  O  O27  1  0.75388100  0.73903800  0.49286900  1
  O  O28  1  0.49974400  0.48773300  0.73494300  1
  O  O29  1  0.99932800  0.98722900  0.23225600  1
  O  O30  1  0.24579900  0.73868400  0.49326700  1
  O  O31  1  0.74867100  0.23572700  0.99344100  1
