# generated using pymatgen
data_Li2HgAs
_symmetry_space_group_name_H-M   'P 1'
_cell_length_a   10.73454674
_cell_length_b   10.73454674
_cell_length_c   10.73454674
_cell_angle_alpha   121.01331607
_cell_angle_beta   119.62585141
_cell_angle_gamma   89.45159079
_symmetry_Int_Tables_number   1
_chemical_formula_structural   Li2HgAs
_chemical_formula_sum   'Li2 Hg1 As1'
_cell_volume   870.22405330
_cell_formula_units_Z   1
loop_
 _symmetry_equiv_pos_site_id
 _symmetry_equiv_pos_as_xyz
  1  'x, y, z'
loop_
 _atom_site_type_symbol
 _atom_site_label
 _atom_site_symmetry_multiplicity
 _atom_site_fract_x
 _atom_site_fract_y
 _atom_site_fract_z
 _atom_site_occupancy
  Li  Li0  1  0.00000000  0.22797700  0.22797700  1
  Li  Li1  1  0.00000000  0.77202300  0.77202300  1
  Hg  Hg2  1  0.00000000  0.50000000  0.50000000  1
  As  As3  1  0.00000000  0.00000000  0.00000000  1
