# generated using pymatgen
data_LiV5O10
_symmetry_space_group_name_H-M   'P 1'
_cell_length_a   7.40036337
_cell_length_b   7.40036337
_cell_length_c   5.51064391
_cell_angle_alpha   80.34347621
_cell_angle_beta   80.34347621
_cell_angle_gamma   138.28665605
_symmetry_Int_Tables_number   1
_chemical_formula_structural   LiV5O10
_chemical_formula_sum   'Li1 V5 O10'
_cell_volume   177.12946828
_cell_formula_units_Z   1
loop_
 _symmetry_equiv_pos_site_id
 _symmetry_equiv_pos_as_xyz
  1  'x, y, z'
loop_
 _atom_site_type_symbol
 _atom_site_label
 _atom_site_symmetry_multiplicity
 _atom_site_fract_x
 _atom_site_fract_y
 _atom_site_fract_z
 _atom_site_occupancy
  Li  Li0  1  0.98557600  0.01442400  0.00000000  1
  V  V1  1  0.59587300  0.40412700  0.00000000  1
  V  V2  1  0.20789800  0.79210200  0.00000000  1
  V  V3  1  0.29128500  0.70871500  0.50000000  1
  V  V4  1  0.89483600  0.10516400  0.50000000  1
  V  V5  1  0.51154300  0.48845700  0.50000000  1
  O  O6  1  0.82112400  0.62444300  0.20811500  1
  O  O7  1  0.41640700  0.01861200  0.19331600  1
  O  O8  1  0.07464300  0.47411800  0.28509500  1
  O  O9  1  0.67166600  0.86071600  0.30715200  1
  O  O10  1  0.28487900  0.27784000  0.28043700  1
  O  O11  1  0.52588200  0.92535700  0.71490500  1
  O  O12  1  0.13928400  0.32833400  0.69284800  1
  O  O13  1  0.72216000  0.71512100  0.71956300  1
  O  O14  1  0.37555700  0.17887600  0.79188500  1
  O  O15  1  0.98138800  0.58359300  0.80668400  1
