# generated using pymatgen
data_Li5Ti2Mn3O10
_symmetry_space_group_name_H-M   'P 1'
_cell_length_a   5.24010883
_cell_length_b   10.57531697
_cell_length_c   7.88360556
_cell_angle_alpha   69.81333327
_cell_angle_beta   101.14259229
_cell_angle_gamma   81.37969435
_symmetry_Int_Tables_number   1
_chemical_formula_structural   Li5Ti2Mn3O10
_chemical_formula_sum   'Li10 Ti4 Mn6 O20'
_cell_volume   391.02688132
_cell_formula_units_Z   2
loop_
 _symmetry_equiv_pos_site_id
 _symmetry_equiv_pos_as_xyz
  1  'x, y, z'
loop_
 _atom_site_type_symbol
 _atom_site_label
 _atom_site_symmetry_multiplicity
 _atom_site_fract_x
 _atom_site_fract_y
 _atom_site_fract_z
 _atom_site_occupancy
  Li  Li0  1  0.77157700  0.44678600  0.95201800  1
  Li  Li1  1  0.27154800  0.94680200  0.45199000  1
  Li  Li2  1  0.74378100  0.64775200  0.13552300  1
  Li  Li3  1  0.24377000  0.14778700  0.63551900  1
  Li  Li4  1  0.75628200  0.74788100  0.75754500  1
  Li  Li5  1  0.25627000  0.24789400  0.25754900  1
  Li  Li6  1  0.23069600  0.55235900  0.05125600  1
  Li  Li7  1  0.73068600  0.05237300  0.55123100  1
  Li  Li8  1  0.25468700  0.35259500  0.86949200  1
  Li  Li9  1  0.75466500  0.85262700  0.36948600  1
  Ti  Ti10  1  0.74022000  0.35886300  0.32881600  1
  Ti  Ti11  1  0.24020800  0.85887200  0.82879700  1
  Ti  Ti12  1  0.26007000  0.64164700  0.67351800  1
  Ti  Ti13  1  0.76005400  0.14164200  0.17349200  1
  Mn  Mn14  1  0.24737600  0.75032100  0.25035300  1
  Mn  Mn15  1  0.74288100  0.94557400  0.95274400  1
  Mn  Mn16  1  0.75522500  0.55529200  0.54956900  1
  Mn  Mn17  1  0.74736500  0.25033200  0.75034600  1
  Mn  Mn18  1  0.24282600  0.44567900  0.45274500  1
  Mn  Mn19  1  0.25522700  0.05528800  0.04957900  1
  O  O20  1  0.51796500  0.53351300  0.29859500  1
  O  O21  1  0.01793500  0.03349700  0.79859600  1
  O  O22  1  0.47166900  0.66404900  0.87839200  1
  O  O23  1  0.97164400  0.16404700  0.37839300  1
  O  O24  1  0.47166300  0.84230300  0.09225000  1
  O  O25  1  0.97165400  0.34231000  0.59225800  1
  O  O26  1  0.96968100  0.24750200  0.98558700  1
  O  O27  1  0.46970300  0.74749300  0.48559400  1
  O  O28  1  0.98111400  0.44366000  0.20916300  1
  O  O29  1  0.48113000  0.94365400  0.70915500  1
  O  O30  1  0.01862200  0.55620900  0.79341300  1
  O  O31  1  0.51863200  0.05620600  0.29342900  1
  O  O32  1  0.02627300  0.75228900  0.01510900  1
  O  O33  1  0.52626000  0.25231200  0.51510100  1
  O  O34  1  0.52469000  0.15783300  0.90896300  1
  O  O35  1  0.02467200  0.65785600  0.40895800  1
  O  O36  1  0.52838500  0.33542900  0.12419000  1
  O  O37  1  0.02837700  0.83542600  0.62420500  1
  O  O38  1  0.48056400  0.46646600  0.70302600  1
  O  O39  1  0.98051800  0.96645200  0.20301700  1
