# generated using pymatgen
data_Li3(NiO2)5
_symmetry_space_group_name_H-M   'P 1'
_cell_length_a   6.51078387
_cell_length_b   7.49192101
_cell_length_c   7.69711912
_cell_angle_alpha   110.10538866
_cell_angle_beta   93.06487911
_cell_angle_gamma   75.94084657
_symmetry_Int_Tables_number   1
_chemical_formula_structural   Li3(NiO2)5
_chemical_formula_sum   'Li6 Ni10 O20'
_cell_volume   341.82572975
_cell_formula_units_Z   2
loop_
 _symmetry_equiv_pos_site_id
 _symmetry_equiv_pos_as_xyz
  1  'x, y, z'
loop_
 _atom_site_type_symbol
 _atom_site_label
 _atom_site_symmetry_multiplicity
 _atom_site_fract_x
 _atom_site_fract_y
 _atom_site_fract_z
 _atom_site_occupancy
  Li  Li0  1  0.45137000  0.84840000  0.05042300  1
  Li  Li1  1  0.95127900  0.34860600  0.55048500  1
  Li  Li2  1  0.05223300  0.64540800  0.45086900  1
  Li  Li3  1  0.55226700  0.14549200  0.95079700  1
  Li  Li4  1  0.84568600  0.05111800  0.64693400  1
  Li  Li5  1  0.34570600  0.55120700  0.14698700  1
  Ni  Ni6  1  0.20031100  0.60250100  0.79910300  1
  Ni  Ni7  1  0.70046700  0.10260500  0.29913500  1
  Ni  Ni8  1  0.00518800  0.00036200  0.00459200  1
  Ni  Ni9  1  0.50520200  0.50032900  0.50462500  1
  Ni  Ni10  1  0.89263800  0.69985500  0.09298800  1
  Ni  Ni11  1  0.39238900  0.19975200  0.59274300  1
  Ni  Ni12  1  0.80130100  0.39906800  0.19988800  1
  Ni  Ni13  1  0.30101200  0.89891500  0.69972300  1
  Ni  Ni14  1  0.59969500  0.80003600  0.40191100  1
  Ni  Ni15  1  0.09984000  0.29994500  0.90180800  1
  O  O16  1  0.85271700  0.22435100  0.94852400  1
  O  O17  1  0.35266800  0.72414000  0.44834800  1
  O  O18  1  0.05377300  0.46388300  0.15541500  1
  O  O19  1  0.55346500  0.96385500  0.65538400  1
  O  O20  1  0.76281700  0.56950000  0.44653100  1
  O  O21  1  0.26269800  0.06929600  0.94631700  1
  O  O22  1  0.63048300  0.62577100  0.15620700  1
  O  O23  1  0.13032300  0.12569400  0.65612600  1
  O  O24  1  0.05960400  0.81911300  0.72864000  1
  O  O25  1  0.55986900  0.31926000  0.22880300  1
  O  O26  1  0.83738900  0.88456800  0.37304200  1
  O  O27  1  0.33745200  0.38455700  0.87293000  1
  O  O28  1  0.44128600  0.68855400  0.77198000  1
  O  O29  1  0.94145300  0.18869000  0.27214600  1
  O  O30  1  0.46240000  0.00897700  0.32672300  1
  O  O31  1  0.96233500  0.50901300  0.82682900  1
  O  O32  1  0.73813800  0.94618800  0.05023400  1
  O  O33  1  0.23790200  0.44611400  0.55015900  1
  O  O34  1  0.66327000  0.27243000  0.54635900  1
  O  O35  1  0.16337800  0.77244900  0.04629200  1
