# generated using pymatgen
data_Li6Mn5SbO12
_symmetry_space_group_name_H-M   'P 1'
_cell_length_a   5.53623161
_cell_length_b   11.40900792
_cell_length_c   9.08619347
_cell_angle_alpha   113.44402082
_cell_angle_beta   89.99707183
_cell_angle_gamma   84.47616283
_symmetry_Int_Tables_number   1
_chemical_formula_structural   Li6Mn5SbO12
_chemical_formula_sum   'Li12 Mn10 Sb2 O24'
_cell_volume   523.62625788
_cell_formula_units_Z   2
loop_
 _symmetry_equiv_pos_site_id
 _symmetry_equiv_pos_as_xyz
  1  'x, y, z'
loop_
 _atom_site_type_symbol
 _atom_site_label
 _atom_site_symmetry_multiplicity
 _atom_site_fract_x
 _atom_site_fract_y
 _atom_site_fract_z
 _atom_site_occupancy
  Li  Li0  1  0.39949800  0.71605300  0.85565100  1
  Li  Li1  1  0.89875200  0.71624700  0.36021600  1
  Li  Li2  1  0.10140900  0.28372700  0.64439900  1
  Li  Li3  1  0.60071600  0.28391700  0.13937200  1
  Li  Li4  1  0.60391000  0.28509900  0.81347200  1
  Li  Li5  1  0.10567600  0.28683800  0.31100700  1
  Li  Li6  1  0.89563600  0.71371900  0.02364500  1
  Li  Li7  1  0.39498600  0.71442300  0.52895600  1
  Li  Li8  1  0.60611900  0.28668400  0.47528800  1
  Li  Li9  1  0.10338200  0.28515300  0.97182200  1
  Li  Li10  1  0.89542300  0.71428000  0.68547100  1
  Li  Li11  1  0.39509100  0.71386400  0.18955700  1
  Mn  Mn12  1  0.75009900  0.49988800  0.75002500  1
  Mn  Mn13  1  0.74969200  0.49966100  0.41534900  1
  Mn  Mn14  1  0.25032500  0.50031400  0.91844200  1
  Mn  Mn15  1  0.49986900  0.00027000  0.16792900  1
  Mn  Mn16  1  0.99991000  0.99974000  0.66671000  1
  Mn  Mn17  1  0.24990300  0.50008800  0.24973000  1
  Mn  Mn18  1  0.75008400  0.50050800  0.08171100  1
  Mn  Mn19  1  0.25002400  0.49950000  0.58397500  1
  Mn  Mn20  1  0.99979500  0.00038400  0.33273700  1
  Mn  Mn21  1  0.50010400  0.99983900  0.83356700  1
  Sb  Sb22  1  0.49984400  0.99996300  0.50519000  1
  Sb  Sb23  1  0.99999700  0.99998100  0.99513400  1
  O  O24  1  0.39684200  0.39141300  0.69744500  1
  O  O25  1  0.89623900  0.39175000  0.19379100  1
  O  O26  1  0.10368600  0.60817300  0.80531500  1
  O  O27  1  0.60310000  0.60855000  0.30300500  1
  O  O28  1  0.34111400  0.90059400  0.93477200  1
  O  O29  1  0.84070400  0.90042900  0.46623600  1
  O  O30  1  0.15863100  0.09934600  0.56576900  1
  O  O31  1  0.65926900  0.09951100  0.03399300  1
  O  O32  1  0.88045500  0.89654900  0.77564900  1
  O  O33  1  0.37048600  0.89255300  0.29802900  1
  O  O34  1  0.62939600  0.10772000  0.40616500  1
  O  O35  1  0.11929800  0.10281500  0.87840600  1
  O  O36  1  0.87025500  0.89272400  0.09471400  1
  O  O37  1  0.38075200  0.89671500  0.62169600  1
  O  O38  1  0.61948400  0.10308400  0.72463300  1
  O  O39  1  0.12950100  0.10785200  0.20203200  1
  O  O40  1  0.59119200  0.61618800  0.98696200  1
  O  O41  1  0.09438200  0.61570800  0.48813000  1
  O  O42  1  0.90680200  0.38389700  0.87090200  1
  O  O43  1  0.40858200  0.38418700  0.37205100  1
  O  O44  1  0.59405500  0.61587400  0.62789600  1
  O  O45  1  0.09113500  0.61608300  0.12852700  1
  O  O46  1  0.90784100  0.38426300  0.51151100  1
  O  O47  1  0.40652200  0.38388900  0.01302100  1
