# generated using pymatgen
data_Na3LiFe4(SiO3)8
_symmetry_space_group_name_H-M   'P 1'
_cell_length_a   8.86536100
_cell_length_b   5.36360300
_cell_length_c   9.59558372
_cell_angle_alpha   76.10847183
_cell_angle_beta   90.00000000
_cell_angle_gamma   90.00000000
_symmetry_Int_Tables_number   1
_chemical_formula_structural   Na3LiFe4(SiO3)8
_chemical_formula_sum   'Na3 Li1 Fe4 Si8 O24'
_cell_volume   442.92759549
_cell_formula_units_Z   1
loop_
 _symmetry_equiv_pos_site_id
 _symmetry_equiv_pos_as_xyz
  1  'x, y, z'
loop_
 _atom_site_type_symbol
 _atom_site_label
 _atom_site_symmetry_multiplicity
 _atom_site_fract_x
 _atom_site_fract_y
 _atom_site_fract_z
 _atom_site_occupancy
  Na  Na0  1  0.29669800  0.00000000  0.00000000  1
  Na  Na1  1  0.20327400  0.00000000  0.50000000  1
  Na  Na2  1  0.70360700  0.50000000  0.00000000  1
  Li  Li3  1  0.78185100  0.50000000  0.50000000  1
  Fe  Fe4  1  0.40006500  0.50000000  0.50000000  1
  Fe  Fe5  1  0.90017100  0.00000000  0.00000000  1
  Fe  Fe6  1  0.60280400  0.00000000  0.50000000  1
  Fe  Fe7  1  0.09987900  0.50000000  0.00000000  1
  Si  Si8  1  0.08799000  0.69897300  0.29240800  1
  Si  Si9  1  0.59079900  0.19941200  0.79008000  1
  Si  Si10  1  0.08799000  0.30102700  0.70759200  1
  Si  Si11  1  0.59079900  0.80058800  0.20992000  1
  Si  Si12  1  0.91025100  0.79849900  0.70678100  1
  Si  Si13  1  0.41083700  0.30205700  0.20957700  1
  Si  Si14  1  0.91025100  0.20150100  0.29321900  1
  Si  Si15  1  0.41083700  0.69794300  0.79042300  1
  O  O16  1  0.99423300  0.92064700  0.35248900  1
  O  O17  1  0.49477800  0.41717700  0.85162200  1
  O  O18  1  0.99423300  0.07935300  0.64751100  1
  O  O19  1  0.49477800  0.58282300  0.14837800  1
  O  O20  1  0.00250200  0.57854400  0.64453500  1
  O  O21  1  0.50590400  0.08097400  0.14990600  1
  O  O22  1  0.00250200  0.42145600  0.35546500  1
  O  O23  1  0.50590400  0.91902600  0.85009400  1
  O  O24  1  0.25548900  0.69196000  0.35995400  1
  O  O25  1  0.75617900  0.19152400  0.86092600  1
  O  O26  1  0.25548900  0.30804000  0.64004600  1
  O  O27  1  0.75617900  0.80847600  0.13907400  1
  O  O28  1  0.74532500  0.79622800  0.63546700  1
  O  O29  1  0.24455500  0.30775600  0.14012400  1
  O  O30  1  0.74532500  0.20377200  0.36453300  1
  O  O31  1  0.24455500  0.69224400  0.85987600  1
  O  O32  1  0.07822600  0.77378500  0.11540800  1
  O  O33  1  0.58604000  0.27967600  0.61321000  1
  O  O34  1  0.07822600  0.22621500  0.88459200  1
  O  O35  1  0.58604000  0.72032400  0.38679000  1
  O  O36  1  0.92095400  0.72471900  0.88372200  1
  O  O37  1  0.42176300  0.22480800  0.38597800  1
  O  O38  1  0.92095400  0.27528100  0.11627800  1
  O  O39  1  0.42176300  0.77519200  0.61402200  1
