# generated using pymatgen
data_Li4V3Ni(PO4)4
_symmetry_space_group_name_H-M   'P 1'
_cell_length_a   6.07463400
_cell_length_b   4.75658600
_cell_length_c   10.42929134
_cell_angle_alpha   89.91186395
_cell_angle_beta   90.00000000
_cell_angle_gamma   90.00000000
_symmetry_Int_Tables_number   1
_chemical_formula_structural   Li4V3Ni(PO4)4
_chemical_formula_sum   'Li4 V3 Ni1 P4 O16'
_cell_volume   301.34900063
_cell_formula_units_Z   1
loop_
 _symmetry_equiv_pos_site_id
 _symmetry_equiv_pos_as_xyz
  1  'x, y, z'
loop_
 _atom_site_type_symbol
 _atom_site_label
 _atom_site_symmetry_multiplicity
 _atom_site_fract_x
 _atom_site_fract_y
 _atom_site_fract_z
 _atom_site_occupancy
  Li  Li0  1  0.24924000  0.00021900  0.00198700  1
  Li  Li1  1  0.75076000  0.00021900  0.00198700  1
  Li  Li2  1  0.74940300  0.49960900  0.49884100  1
  Li  Li3  1  0.25059700  0.49960900  0.49884100  1
  V  V4  1  0.00000000  0.48474800  0.77490600  1
  V  V5  1  0.50000000  0.51729300  0.22535900  1
  V  V6  1  0.50000000  0.98348400  0.72358000  1
  Ni  Ni7  1  0.00000000  0.01605100  0.27632700  1
  P  P8  1  0.50000000  0.08187200  0.40585900  1
  P  P9  1  0.50000000  0.41322600  0.90825100  1
  P  P10  1  0.00000000  0.58816200  0.09635300  1
  P  P11  1  0.00000000  0.91594700  0.58868500  1
  O  O12  1  0.50000000  0.20924000  0.54328200  1
  O  O13  1  0.29466200  0.21467700  0.33528200  1
  O  O14  1  0.70533800  0.21467700  0.33528200  1
  O  O15  1  0.00000000  0.23874800  0.59472700  1
  O  O16  1  0.00000000  0.26479000  0.10292100  1
  O  O17  1  0.29664500  0.27670000  0.83806300  1
  O  O18  1  0.70335500  0.27670000  0.83806300  1
  O  O19  1  0.50000000  0.29150600  0.04602300  1
  O  O20  1  0.00000000  0.70525300  0.95685500  1
  O  O21  1  0.79831200  0.72920100  0.16575800  1
  O  O22  1  0.20168800  0.72920100  0.16575800  1
  O  O23  1  0.50000000  0.73629200  0.90395900  1
  O  O24  1  0.50000000  0.75933200  0.40521100  1
  O  O25  1  0.79722000  0.77762600  0.65897700  1
  O  O26  1  0.20278000  0.77762600  0.65897700  1
  O  O27  1  0.00000000  0.79799100  0.44988800  1
