# generated using pymatgen
data_Li7Mn4CoO12
_symmetry_space_group_name_H-M   'P 1'
_cell_length_a   5.87178589
_cell_length_b   14.71975454
_cell_length_c   5.86568074
_cell_angle_alpha   100.12475345
_cell_angle_beta   119.25534147
_cell_angle_gamma   84.36356798
_symmetry_Int_Tables_number   1
_chemical_formula_structural   Li7Mn4CoO12
_chemical_formula_sum   'Li14 Mn8 Co2 O24'
_cell_volume   435.38057613
_cell_formula_units_Z   2
loop_
 _symmetry_equiv_pos_site_id
 _symmetry_equiv_pos_as_xyz
  1  'x, y, z'
loop_
 _atom_site_type_symbol
 _atom_site_label
 _atom_site_symmetry_multiplicity
 _atom_site_fract_x
 _atom_site_fract_y
 _atom_site_fract_z
 _atom_site_occupancy
  Li  Li0  1  0.16758700  0.32541900  0.49669400  1
  Li  Li1  1  0.16454400  0.33131300  0.00354200  1
  Li  Li2  1  0.66147900  0.83701600  0.74815300  1
  Li  Li3  1  0.65987800  0.83851900  0.25151000  1
  Li  Li4  1  0.16824000  0.83452400  0.25091300  1
  Li  Li5  1  0.16760900  0.83384500  0.75023900  1
  Li  Li6  1  0.34442300  0.16815200  0.26737000  1
  Li  Li7  1  0.34570200  0.16764900  0.76373700  1
  Li  Li8  1  0.98843500  0.49747600  0.73591200  1
  Li  Li9  1  0.98698000  0.49701500  0.23409900  1
  Li  Li10  1  0.84017000  0.67383700  0.51012500  1
  Li  Li11  1  0.84466800  0.67750700  0.02032300  1
  Li  Li12  1  0.49435900  0.99355700  0.48890800  1
  Li  Li13  1  0.49325100  0.99285900  0.98668900  1
  Mn  Mn14  1  0.01296600  0.99268200  0.49477700  1
  Mn  Mn15  1  0.32363000  0.67322800  0.50176500  1
  Mn  Mn16  1  0.83573700  0.16680900  0.75320800  1
  Mn  Mn17  1  0.49786400  0.50151800  0.24975900  1
  Mn  Mn18  1  0.01255800  0.99272100  0.99362300  1
  Mn  Mn19  1  0.32637800  0.67310400  0.00432100  1
  Mn  Mn20  1  0.83929300  0.16503800  0.25293200  1
  Mn  Mn21  1  0.49704200  0.50102700  0.74853300  1
  Co  Co22  1  0.66585300  0.33291000  0.00213700  1
  Co  Co23  1  0.65802900  0.33176800  0.49662700  1
  O  O24  1  0.14565800  0.07266700  0.34672400  1
  O  O25  1  0.14676900  0.07265700  0.84640100  1
  O  O26  1  0.19582100  0.58980700  0.15019900  1
  O  O27  1  0.19900800  0.59155000  0.65338300  1
  O  O28  1  0.98952900  0.24876300  0.64197400  1
  O  O29  1  0.99346100  0.24450200  0.13906900  1
  O  O30  1  0.33495800  0.42169000  0.35424500  1
  O  O31  1  0.34618100  0.43060900  0.89410300  1
  O  O32  1  0.80141700  0.41739800  0.84371400  1
  O  O33  1  0.80237700  0.42435000  0.36518600  1
  O  O34  1  0.51039400  0.25000300  0.63420900  1
  O  O35  1  0.52097100  0.25290400  0.15717200  1
  O  O36  1  0.63147600  0.57755600  0.59959300  1
  O  O37  1  0.64290300  0.58432500  0.13636400  1
  O  O38  1  0.70061800  0.08318400  0.37413600  1
  O  O39  1  0.69729000  0.08339900  0.87043200  1
  O  O40  1  0.48165400  0.74108100  0.36151100  1
  O  O41  1  0.48622400  0.73876400  0.86035400  1
  O  O42  1  0.85186000  0.92462300  0.63499600  1
  O  O43  1  0.85123200  0.92495800  0.13420800  1
  O  O44  1  0.31077600  0.92202600  0.61249100  1
  O  O45  1  0.31057800  0.92220100  0.11261000  1
  O  O46  1  0.02696100  0.74149500  0.38675200  1
  O  O47  1  0.02520900  0.73999600  0.88428300  1
