# generated using pymatgen
data_LiOsN2
_symmetry_space_group_name_H-M   'P 1'
_cell_length_a   5.69077588
_cell_length_b   6.52407920
_cell_length_c   5.44365550
_cell_angle_alpha   90.00000000
_cell_angle_beta   90.00000000
_cell_angle_gamma   90.00000000
_symmetry_Int_Tables_number   1
_chemical_formula_structural   LiOsN2
_chemical_formula_sum   'Li4 Os4 N8'
_cell_volume   202.10699269
_cell_formula_units_Z   4
loop_
 _symmetry_equiv_pos_site_id
 _symmetry_equiv_pos_as_xyz
  1  'x, y, z'
loop_
 _atom_site_type_symbol
 _atom_site_label
 _atom_site_symmetry_multiplicity
 _atom_site_fract_x
 _atom_site_fract_y
 _atom_site_fract_z
 _atom_site_occupancy
  Li  Li0  1  0.58085642  0.37737193  0.00535762  1
  Li  Li1  1  0.41914358  0.62262807  0.50535762  1
  Li  Li2  1  0.91914358  0.87737193  0.50535762  1
  Li  Li3  1  0.08085642  0.12262807  0.00535762  1
  Os  Os4  1  0.57084083  0.87534338  0.00638815  1
  Os  Os5  1  0.42915917  0.12465662  0.50638815  1
  Os  Os6  1  0.92915917  0.37534338  0.50638815  1
  Os  Os7  1  0.07084083  0.62465662  0.00638815  1
  N  N8  1  0.61123039  0.35588493  0.40465270  1
  N  N9  1  0.38876961  0.64411507  0.90465270  1
  N  N10  1  0.88876961  0.85588493  0.90465270  1
  N  N11  1  0.11123039  0.14411507  0.40465270  1
  N  N12  1  0.56687528  0.89347795  0.35360153  1
  N  N13  1  0.43312472  0.10652205  0.85360153  1
  N  N14  1  0.93312472  0.39347795  0.85360153  1
  N  N15  1  0.06687528  0.60652205  0.35360153  1
