# generated using pymatgen
data_Li5Mn2CoO8
_symmetry_space_group_name_H-M   'P 1'
_cell_length_a   2.87898775
_cell_length_b   10.11967369
_cell_length_c   9.79667770
_cell_angle_alpha   100.76088487
_cell_angle_beta   89.99617617
_cell_angle_gamma   90.00236804
_symmetry_Int_Tables_number   1
_chemical_formula_structural   Li5Mn2CoO8
_chemical_formula_sum   'Li10 Mn4 Co2 O16'
_cell_volume   280.40135351
_cell_formula_units_Z   2
loop_
 _symmetry_equiv_pos_site_id
 _symmetry_equiv_pos_as_xyz
  1  'x, y, z'
loop_
 _atom_site_type_symbol
 _atom_site_label
 _atom_site_symmetry_multiplicity
 _atom_site_fract_x
 _atom_site_fract_y
 _atom_site_fract_z
 _atom_site_occupancy
  Li  Li0  1  0.49998400  0.25016500  0.99974500  1
  Li  Li1  1  0.00000700  0.24979600  0.50025000  1
  Li  Li2  1  0.50007900  0.13794000  0.25505500  1
  Li  Li3  1  0.99998400  0.14039800  0.75668400  1
  Li  Li4  1  0.00005500  0.35979600  0.24302000  1
  Li  Li5  1  0.49990700  0.36190900  0.74508700  1
  Li  Li6  1  0.49989700  0.62504300  0.24541800  1
  Li  Li7  1  0.00001900  0.62652400  0.74599500  1
  Li  Li8  1  0.00000500  0.87339900  0.25398400  1
  Li  Li9  1  0.50009200  0.87500700  0.75455000  1
  Mn  Mn10  1  0.50004800  0.00469200  0.50602800  1
  Mn  Mn11  1  0.49982500  0.49525600  0.49396200  1
  Mn  Mn12  1  0.00020900  0.00924900  0.00686700  1
  Mn  Mn13  1  0.00002000  0.49083100  0.99312600  1
  Co  Co14  1  0.99998600  0.74994700  0.49998800  1
  Co  Co15  1  0.49997300  0.75009400  0.99999600  1
  O  O16  1  0.00006300  0.17336800  0.12148600  1
  O  O17  1  0.50002000  0.16884000  0.62102300  1
  O  O18  1  0.49999500  0.33108700  0.37907200  1
  O  O19  1  0.99991500  0.32678700  0.87852500  1
  O  O20  1  0.49991700  0.44566300  0.10673300  1
  O  O21  1  0.99995200  0.44949800  0.60703500  1
  O  O22  1  0.00006800  0.05034600  0.39304600  1
  O  O23  1  0.50008300  0.05447400  0.89324800  1
  O  O24  1  0.99989300  0.68168700  0.11383700  1
  O  O25  1  0.49997700  0.68766000  0.60625700  1
  O  O26  1  0.50000600  0.81214900  0.39375500  1
  O  O27  1  0.00005900  0.81846500  0.88618000  1
  O  O28  1  0.50004100  0.94170700  0.11456200  1
  O  O29  1  0.00003800  0.93117300  0.60940800  1
  O  O30  1  0.99996100  0.56859800  0.39065400  1
  O  O31  1  0.49992400  0.55845200  0.88542300  1
