# generated using pymatgen
data_LiCo2P2O9
_symmetry_space_group_name_H-M   'P 1'
_cell_length_a   6.06033200
_cell_length_b   7.37680700
_cell_length_c   13.61366100
_cell_angle_alpha   90.00000000
_cell_angle_beta   90.00000000
_cell_angle_gamma   90.00000000
_symmetry_Int_Tables_number   1
_chemical_formula_structural   LiCo2P2O9
_chemical_formula_sum   'Li4 Co8 P8 O36'
_cell_volume   608.61096076
_cell_formula_units_Z   4
loop_
 _symmetry_equiv_pos_site_id
 _symmetry_equiv_pos_as_xyz
  1  'x, y, z'
loop_
 _atom_site_type_symbol
 _atom_site_label
 _atom_site_symmetry_multiplicity
 _atom_site_fract_x
 _atom_site_fract_y
 _atom_site_fract_z
 _atom_site_occupancy
  Li  Li0  1  0.75000000  0.94198500  0.77443700  1
  Li  Li1  1  0.75000000  0.55801500  0.27443700  1
  Li  Li2  1  0.25000000  0.44198500  0.72556300  1
  Li  Li3  1  0.25000000  0.05801500  0.22556300  1
  Co  Co4  1  0.75000000  0.34747100  0.87798600  1
  Co  Co5  1  0.25000000  0.65252900  0.12201400  1
  Co  Co6  1  0.25000000  0.84747100  0.62201400  1
  Co  Co7  1  0.75000000  0.15252900  0.37798600  1
  Co  Co8  1  0.50000000  0.00000000  0.00000000  1
  Co  Co9  1  0.50000000  0.50000000  0.50000000  1
  Co  Co10  1  0.00000000  0.50000000  0.50000000  1
  Co  Co11  1  0.00000000  0.00000000  0.00000000  1
  P  P12  1  0.25000000  0.35434400  0.93674500  1
  P  P13  1  0.75000000  0.64565600  0.06325500  1
  P  P14  1  0.75000000  0.85434400  0.56325500  1
  P  P15  1  0.25000000  0.14565600  0.43674500  1
  P  P16  1  0.75000000  0.40346800  0.69485100  1
  P  P17  1  0.75000000  0.09653200  0.19485100  1
  P  P18  1  0.25000000  0.90346800  0.80514900  1
  P  P19  1  0.25000000  0.59653200  0.30514900  1
  O  O20  1  0.03635000  0.57834900  0.36674400  1
  O  O21  1  0.53635000  0.42165100  0.63325600  1
  O  O22  1  0.96365000  0.07834900  0.13325600  1
  O  O23  1  0.46365000  0.92165100  0.86674400  1
  O  O24  1  0.96365000  0.42165100  0.63325600  1
  O  O25  1  0.46365000  0.57834900  0.36674400  1
  O  O26  1  0.03635000  0.92165100  0.86674400  1
  O  O27  1  0.53635000  0.07834900  0.13325600  1
  O  O28  1  0.25000000  0.33360900  0.49376100  1
  O  O29  1  0.75000000  0.66639100  0.50623900  1
  O  O30  1  0.75000000  0.83360900  0.00623900  1
  O  O31  1  0.25000000  0.16639100  0.99376100  1
  O  O32  1  0.75000000  0.13988800  0.95871800  1
  O  O33  1  0.25000000  0.86011200  0.04128200  1
  O  O34  1  0.25000000  0.63988800  0.54128200  1
  O  O35  1  0.75000000  0.36011200  0.45871800  1
  O  O36  1  0.75000000  0.22064800  0.75404600  1
  O  O37  1  0.25000000  0.77935200  0.24595400  1
  O  O38  1  0.25000000  0.72064800  0.74595400  1
  O  O39  1  0.75000000  0.27935200  0.25404600  1
  O  O40  1  0.44427000  0.14608500  0.36439600  1
  O  O41  1  0.94427000  0.85391500  0.63560400  1
  O  O42  1  0.55573000  0.64608500  0.13560400  1
  O  O43  1  0.05573000  0.35391500  0.86439600  1
  O  O44  1  0.55573000  0.85391500  0.63560400  1
  O  O45  1  0.05573000  0.14608500  0.36439600  1
  O  O46  1  0.44427000  0.35391500  0.86439600  1
  O  O47  1  0.94427000  0.64608500  0.13560400  1
  O  O48  1  0.75000000  0.48803000  0.99323900  1
  O  O49  1  0.25000000  0.03927200  0.71720700  1
  O  O50  1  0.25000000  0.46072800  0.21720700  1
  O  O51  1  0.75000000  0.53927200  0.78279300  1
  O  O52  1  0.75000000  0.01197000  0.49323900  1
  O  O53  1  0.25000000  0.98803000  0.50676100  1
  O  O54  1  0.25000000  0.51197000  0.00676100  1
  O  O55  1  0.75000000  0.96072800  0.28279300  1
