# generated using pymatgen
data_Li7Mn5O12
_symmetry_space_group_name_H-M   'P 1'
_cell_length_a   6.01920659
_cell_length_b   7.77472001
_cell_length_c   10.17241003
_cell_angle_alpha   106.92976589
_cell_angle_beta   91.27502826
_cell_angle_gamma   103.48250736
_symmetry_Int_Tables_number   1
_chemical_formula_structural   Li7Mn5O12
_chemical_formula_sum   'Li14 Mn10 O24'
_cell_volume   440.77953584
_cell_formula_units_Z   2
loop_
 _symmetry_equiv_pos_site_id
 _symmetry_equiv_pos_as_xyz
  1  'x, y, z'
loop_
 _atom_site_type_symbol
 _atom_site_label
 _atom_site_symmetry_multiplicity
 _atom_site_fract_x
 _atom_site_fract_y
 _atom_site_fract_z
 _atom_site_occupancy
  Li  Li0  1  0.58329000  0.33349500  0.25021000  1
  Li  Li1  1  0.08341000  0.33311900  0.74974900  1
  Li  Li2  1  0.08341800  0.33344600  0.25016500  1
  Li  Li3  1  0.58322000  0.33319500  0.74981800  1
  Li  Li4  1  0.83333300  0.33333100  0.99999600  1
  Li  Li5  1  0.33332200  0.33331200  0.50001500  1
  Li  Li6  1  0.41695300  0.66341500  0.24807200  1
  Li  Li7  1  0.91697800  0.66335400  0.74779800  1
  Li  Li8  1  0.74968800  0.00329200  0.25220700  1
  Li  Li9  1  0.24971400  0.00330600  0.75193200  1
  Li  Li10  1  0.91711500  0.65978000  0.24451700  1
  Li  Li11  1  0.41708400  0.65963000  0.74411400  1
  Li  Li12  1  0.24958200  0.00701000  0.25589700  1
  Li  Li13  1  0.74957600  0.00694300  0.75550700  1
  Mn  Mn14  1  0.33333200  0.33333100  0.99999900  1
  Mn  Mn15  1  0.49414100  0.00652800  0.50421600  1
  Mn  Mn16  1  0.17253100  0.66017100  0.49578400  1
  Mn  Mn17  1  0.00070800  0.00504300  0.50159600  1
  Mn  Mn18  1  0.66599200  0.66164600  0.49838900  1
  Mn  Mn19  1  0.83334500  0.33331500  0.50001900  1
  Mn  Mn20  1  0.99405800  0.00655700  0.00416800  1
  Mn  Mn21  1  0.67263000  0.66011000  0.99583000  1
  Mn  Mn22  1  0.50071100  0.00512300  0.00161000  1
  Mn  Mn23  1  0.16595800  0.66154700  0.99839200  1
  O  O24  1  0.14797200  0.49127700  0.10726800  1
  O  O25  1  0.64792800  0.49127200  0.60737400  1
  O  O26  1  0.01873000  0.17541300  0.39260600  1
  O  O27  1  0.51870800  0.17538500  0.89272200  1
  O  O28  1  0.94717000  0.83903000  0.11869800  1
  O  O29  1  0.44752500  0.83926600  0.61888600  1
  O  O30  1  0.21893200  0.82725100  0.38105300  1
  O  O31  1  0.71947000  0.82761100  0.88128000  1
  O  O32  1  0.61191600  0.50185300  0.11216200  1
  O  O33  1  0.11192400  0.50192800  0.61222100  1
  O  O34  1  0.55477400  0.16479300  0.38777400  1
  O  O35  1  0.05474300  0.16481100  0.88784700  1
  O  O36  1  0.45624500  0.82317200  0.10665100  1
  O  O37  1  0.95601900  0.82332000  0.60682400  1
  O  O38  1  0.71079000  0.84318900  0.39310800  1
  O  O39  1  0.21044400  0.84348500  0.89334200  1
  O  O40  1  0.27812300  0.17745000  0.12126200  1
  O  O41  1  0.77870400  0.17777900  0.62141800  1
  O  O42  1  0.88815600  0.48899700  0.37864800  1
  O  O43  1  0.38858200  0.48924600  0.87874900  1
  O  O44  1  0.78235600  0.14894200  0.11224500  1
  O  O45  1  0.28197800  0.14925600  0.61244900  1
  O  O46  1  0.38443400  0.51753300  0.38764800  1
  O  O47  1  0.88429000  0.51774200  0.88776800  1
