# generated using pymatgen
data_Li4TiNi3O8
_symmetry_space_group_name_H-M   'P 1'
_cell_length_a   5.84046744
_cell_length_b   10.19687174
_cell_length_c   5.94194753
_cell_angle_alpha   106.96566848
_cell_angle_beta   119.92010502
_cell_angle_gamma   90.64662076
_symmetry_Int_Tables_number   1
_chemical_formula_structural   Li4TiNi3O8
_chemical_formula_sum   'Li8 Ti2 Ni6 O16'
_cell_volume   288.06117643
_cell_formula_units_Z   2
loop_
 _symmetry_equiv_pos_site_id
 _symmetry_equiv_pos_as_xyz
  1  'x, y, z'
loop_
 _atom_site_type_symbol
 _atom_site_label
 _atom_site_symmetry_multiplicity
 _atom_site_fract_x
 _atom_site_fract_y
 _atom_site_fract_z
 _atom_site_occupancy
  Li  Li0  1  0.24993600  0.75001200  0.50004300  1
  Li  Li1  1  0.75000300  0.24996200  0.49998000  1
  Li  Li2  1  0.99574900  0.99595600  0.49337200  1
  Li  Li3  1  0.50416100  0.50397800  0.50658100  1
  Li  Li4  1  0.49838400  0.99985900  0.49696800  1
  Li  Li5  1  0.00151100  0.50008600  0.50294200  1
  Li  Li6  1  0.75000600  0.75000100  0.50001000  1
  Li  Li7  1  0.24994300  0.24994800  0.49994400  1
  Ti  Ti8  1  0.49346300  0.50427600  0.01256900  1
  Ti  Ti9  1  0.00643600  0.99572100  0.98724700  1
  Ni  Ni10  1  0.25007800  0.75006700  0.00012500  1
  Ni  Ni11  1  0.74987900  0.74996100  0.99983700  1
  Ni  Ni12  1  0.24998700  0.25003900  0.00002800  1
  Ni  Ni13  1  0.75011900  0.25003600  0.00006900  1
  Ni  Ni14  1  0.99591100  0.49946500  0.00165000  1
  Ni  Ni15  1  0.50429400  0.00056600  0.99860100  1
  O  O16  1  0.87432000  0.63092900  0.78442100  1
  O  O17  1  0.39277300  0.13773900  0.78758900  1
  O  O18  1  0.10716400  0.36222200  0.21228700  1
  O  O19  1  0.62580700  0.86902300  0.21541900  1
  O  O20  1  0.64025400  0.88570400  0.75577200  1
  O  O21  1  0.13739400  0.38545100  0.76129600  1
  O  O22  1  0.36268400  0.11455700  0.23876500  1
  O  O23  1  0.85959500  0.61432700  0.24418400  1
  O  O24  1  0.86958700  0.12907500  0.21638200  1
  O  O25  1  0.37514300  0.61896100  0.23902700  1
  O  O26  1  0.12472300  0.88107700  0.76101000  1
  O  O27  1  0.63063100  0.37098300  0.78383500  1
  O  O28  1  0.40081500  0.62291700  0.77537400  1
  O  O29  1  0.90559900  0.12605300  0.76802600  1
  O  O30  1  0.59451300  0.37396700  0.23205400  1
  O  O31  1  0.09914000  0.87708200  0.22459000  1
