# generated using pymatgen
data_Li4MnCo2O7
_symmetry_space_group_name_H-M   'P 1'
_cell_length_a   16.98880516
_cell_length_b   16.98880516
_cell_length_c   5.17737885
_cell_angle_alpha   86.59881744
_cell_angle_beta   86.59881744
_cell_angle_gamma   9.75251387
_symmetry_Int_Tables_number   1
_chemical_formula_structural   Li4MnCo2O7
_chemical_formula_sum   'Li8 Mn2 Co4 O14'
_cell_volume   252.67321211
_cell_formula_units_Z   2
loop_
 _symmetry_equiv_pos_site_id
 _symmetry_equiv_pos_as_xyz
  1  'x, y, z'
loop_
 _atom_site_type_symbol
 _atom_site_label
 _atom_site_symmetry_multiplicity
 _atom_site_fract_x
 _atom_site_fract_y
 _atom_site_fract_z
 _atom_site_occupancy
  Li  Li0  1  0.49727000  0.49727000  0.50373600  1
  Li  Li1  1  0.07029800  0.07029800  0.63523000  1
  Li  Li2  1  0.64316500  0.64316500  0.78399100  1
  Li  Li3  1  0.21370100  0.21370100  0.93080000  1
  Li  Li4  1  0.78727600  0.78727600  0.07343200  1
  Li  Li5  1  0.92760100  0.92760100  0.36651900  1
  Li  Li6  1  0.36043400  0.36043400  0.21835100  1
  Li  Li7  1  0.42870700  0.42870700  0.85103600  1
  Mn  Mn8  1  0.99683300  0.99683300  0.98854300  1
  Mn  Mn9  1  0.14300000  0.14300000  0.28571800  1
  Co  Co10  1  0.57045800  0.57045800  0.12814000  1
  Co  Co11  1  0.71553400  0.71553400  0.44010300  1
  Co  Co12  1  0.28672800  0.28672800  0.57573000  1
  Co  Co13  1  0.86183700  0.86183700  0.73355900  1
  O  O14  1  0.46779800  0.46779800  0.15958800  1
  O  O15  1  0.03581900  0.03581900  0.28877500  1
  O  O16  1  0.60893100  0.60893100  0.43446300  1
  O  O17  1  0.18204100  0.18204100  0.61186600  1
  O  O18  1  0.75527100  0.75527100  0.72987600  1
  O  O19  1  0.88811500  0.88811500  0.02113400  1
  O  O20  1  0.32021800  0.32021800  0.85117400  1
  O  O21  1  0.53148700  0.53148700  0.84006100  1
  O  O22  1  0.10406700  0.10406700  0.95704900  1
  O  O23  1  0.67736200  0.67736200  0.13383400  1
  O  O24  1  0.25238200  0.25238200  0.28415700  1
  O  O25  1  0.81710400  0.81710400  0.42641900  1
  O  O26  1  0.96696400  0.96696400  0.70520300  1
  O  O27  1  0.38959900  0.38959900  0.54151500  1
