# generated using pymatgen
data_Li9Mn2Co5O16
_symmetry_space_group_name_H-M   'P 1'
_cell_length_a   4.99331900
_cell_length_b   5.11529533
_cell_length_c   11.49783540
_cell_angle_alpha   80.40578345
_cell_angle_beta   84.63168280
_cell_angle_gamma   79.76576199
_symmetry_Int_Tables_number   1
_chemical_formula_structural   Li9Mn2Co5O16
_chemical_formula_sum   'Li9 Mn2 Co5 O16'
_cell_volume   284.34672814
_cell_formula_units_Z   1
loop_
 _symmetry_equiv_pos_site_id
 _symmetry_equiv_pos_as_xyz
  1  'x, y, z'
loop_
 _atom_site_type_symbol
 _atom_site_label
 _atom_site_symmetry_multiplicity
 _atom_site_fract_x
 _atom_site_fract_y
 _atom_site_fract_z
 _atom_site_occupancy
  Li  Li0  1  0.74027600  0.56399400  0.93144500  1
  Li  Li1  1  0.74268900  0.81982900  0.68071600  1
  Li  Li2  1  0.26764900  0.68092700  0.80252300  1
  Li  Li3  1  0.26514500  0.93104300  0.56447200  1
  Li  Li4  1  0.74771200  0.07432100  0.44449300  1
  Li  Li5  1  0.74893300  0.31178100  0.19526400  1
  Li  Li6  1  0.24583300  0.43452500  0.06062700  1
  Li  Li7  1  0.25255900  0.19017100  0.32288200  1
  Li  Li8  1  0.50434400  0.37522000  0.62762100  1
  Mn  Mn9  1  0.99575700  0.99771500  0.99659500  1
  Mn  Mn10  1  0.00264800  0.25103100  0.74753100  1
  Co  Co11  1  0.99478900  0.50526300  0.50800700  1
  Co  Co12  1  0.99887400  0.74698000  0.25404500  1
  Co  Co13  1  0.50357900  0.62810300  0.38125700  1
  Co  Co14  1  0.49323600  0.86582100  0.12393100  1
  Co  Co15  1  0.49773200  0.12275000  0.87322400  1
  O  O16  1  0.87417600  0.68043800  0.08585400  1
  O  O17  1  0.86719300  0.93223300  0.85064500  1
  O  O18  1  0.35763700  0.80631900  0.96613700  1
  O  O19  1  0.36609600  0.04507700  0.73321900  1
  O  O20  1  0.90359800  0.16306900  0.60688500  1
  O  O21  1  0.86405900  0.42360100  0.34830200  1
  O  O22  1  0.36188200  0.55303900  0.20905600  1
  O  O23  1  0.36882000  0.32333300  0.46216400  1
  O  O24  1  0.63882700  0.43134200  0.78840300  1
  O  O25  1  0.64777800  0.72086500  0.52738800  1
  O  O26  1  0.11073900  0.56894300  0.66502600  1
  O  O27  1  0.14200200  0.82994600  0.40004400  1
  O  O28  1  0.62910700  0.94203700  0.27620900  1
  O  O29  1  0.62721100  0.18836800  0.02318800  1
  O  O30  1  0.12699200  0.31051100  0.90205500  1
  O  O31  1  0.11212800  0.08140700  0.14079100  1
