# generated using pymatgen
data_LiBP2Pb4O11
_symmetry_space_group_name_H-M   'P 1'
_cell_length_a   6.64782300
_cell_length_b   12.80206400
_cell_length_c   25.79404700
_cell_angle_alpha   90.00000000
_cell_angle_beta   90.00000000
_cell_angle_gamma   90.00000000
_symmetry_Int_Tables_number   1
_chemical_formula_structural   LiBP2Pb4O11
_chemical_formula_sum   'Li8 B8 P16 Pb32 O88'
_cell_volume   2195.22443691
_cell_formula_units_Z   8
loop_
 _symmetry_equiv_pos_site_id
 _symmetry_equiv_pos_as_xyz
  1  'x, y, z'
loop_
 _atom_site_type_symbol
 _atom_site_label
 _atom_site_symmetry_multiplicity
 _atom_site_fract_x
 _atom_site_fract_y
 _atom_site_fract_z
 _atom_site_occupancy
  Li  Li0  1  0.47240100  0.24417400  0.37328100  1
  Li  Li1  1  0.02759900  0.74417400  0.62671900  1
  Li  Li2  1  0.97240100  0.75582600  0.12671900  1
  Li  Li3  1  0.52759900  0.25582600  0.87328100  1
  Li  Li4  1  0.52759900  0.75582600  0.62671900  1
  Li  Li5  1  0.97240100  0.25582600  0.37328100  1
  Li  Li6  1  0.02759900  0.24417400  0.87328100  1
  Li  Li7  1  0.47240100  0.74417400  0.12671900  1
  B  B8  1  0.53018600  0.24155900  0.62090400  1
  B  B9  1  0.96981400  0.74155900  0.37909600  1
  B  B10  1  0.03018600  0.75844100  0.87909600  1
  B  B11  1  0.46981400  0.25844100  0.12090400  1
  B  B12  1  0.46981400  0.75844100  0.37909600  1
  B  B13  1  0.03018600  0.25844100  0.62090400  1
  B  B14  1  0.96981400  0.24155900  0.12090400  1
  B  B15  1  0.53018600  0.74155900  0.87909600  1
  P  P16  1  0.71461800  0.38154200  0.29699600  1
  P  P17  1  0.78538200  0.88154200  0.70300400  1
  P  P18  1  0.21461800  0.61845800  0.20300400  1
  P  P19  1  0.28538200  0.11845800  0.79699600  1
  P  P20  1  0.28538200  0.61845800  0.70300400  1
  P  P21  1  0.21461800  0.11845800  0.29699600  1
  P  P22  1  0.78538200  0.38154200  0.79699600  1
  P  P23  1  0.71461800  0.88154200  0.20300400  1
  P  P24  1  0.21617000  0.40742800  0.44495000  1
  P  P25  1  0.28383000  0.90742800  0.55505000  1
  P  P26  1  0.71617000  0.59257200  0.05505000  1
  P  P27  1  0.78383000  0.09257200  0.94495000  1
  P  P28  1  0.78383000  0.59257200  0.55505000  1
  P  P29  1  0.71617000  0.09257200  0.44495000  1
  P  P30  1  0.28383000  0.40742800  0.94495000  1
  P  P31  1  0.21617000  0.90742800  0.05505000  1
  Pb  Pb32  1  0.29104000  0.18028200  0.50953800  1
  Pb  Pb33  1  0.20896000  0.68028200  0.49046200  1
  Pb  Pb34  1  0.79104000  0.81971800  0.99046200  1
  Pb  Pb35  1  0.70896000  0.31971800  0.00953800  1
  Pb  Pb36  1  0.70896000  0.81971800  0.49046200  1
  Pb  Pb37  1  0.79104000  0.31971800  0.50953800  1
  Pb  Pb38  1  0.20896000  0.18028200  0.00953800  1
  Pb  Pb39  1  0.29104000  0.68028200  0.99046200  1
  Pb  Pb40  1  0.30495400  0.03190300  0.66827500  1
  Pb  Pb41  1  0.19504600  0.53190300  0.33172500  1
  Pb  Pb42  1  0.80495400  0.96809700  0.83172500  1
  Pb  Pb43  1  0.69504600  0.46809700  0.16827500  1
  Pb  Pb44  1  0.69504600  0.96809700  0.33172500  1
  Pb  Pb45  1  0.80495400  0.46809700  0.66827500  1
  Pb  Pb46  1  0.19504600  0.03190300  0.16827500  1
  Pb  Pb47  1  0.30495400  0.53190300  0.83172500  1
  Pb  Pb48  1  0.69292300  0.16241100  0.22193600  1
  Pb  Pb49  1  0.80707700  0.66241100  0.77806400  1
  Pb  Pb50  1  0.19292300  0.83758900  0.27806400  1
  Pb  Pb51  1  0.30707700  0.33758900  0.72193600  1
  Pb  Pb52  1  0.30707700  0.83758900  0.77806400  1
  Pb  Pb53  1  0.19292300  0.33758900  0.22193600  1
  Pb  Pb54  1  0.80707700  0.16241100  0.72193600  1
  Pb  Pb55  1  0.69292300  0.66241100  0.27806400  1
  Pb  Pb56  1  0.69256600  0.53494300  0.41613800  1
  Pb  Pb57  1  0.80743400  0.03494300  0.58386200  1
  Pb  Pb58  1  0.19256600  0.46505700  0.08386200  1
  Pb  Pb59  1  0.30743400  0.96505700  0.91613800  1
  Pb  Pb60  1  0.30743400  0.46505700  0.58386200  1
  Pb  Pb61  1  0.19256600  0.96505700  0.41613800  1
  Pb  Pb62  1  0.80743400  0.53494300  0.91613800  1
  Pb  Pb63  1  0.69256600  0.03494300  0.08386200  1
  O  O64  1  0.29870700  0.52163200  0.43981800  1
  O  O65  1  0.20129300  0.02163200  0.56018200  1
  O  O66  1  0.79870700  0.47836800  0.06018200  1
  O  O67  1  0.70129300  0.97836800  0.93981800  1
  O  O68  1  0.70129300  0.47836800  0.56018200  1
  O  O69  1  0.79870700  0.97836800  0.43981800  1
  O  O70  1  0.20129300  0.52163200  0.93981800  1
  O  O71  1  0.29870700  0.02163200  0.06018200  1
  O  O72  1  0.60727100  0.47626200  0.32385000  1
  O  O73  1  0.89272900  0.97626200  0.67615000  1
  O  O74  1  0.10727100  0.52373800  0.17615000  1
  O  O75  1  0.39272900  0.02373800  0.82385000  1
  O  O76  1  0.39272900  0.52373800  0.67615000  1
  O  O77  1  0.10727100  0.02373800  0.32385000  1
  O  O78  1  0.89272900  0.47626200  0.82385000  1
  O  O79  1  0.60727100  0.97626200  0.17615000  1
  O  O80  1  0.59747800  0.35204500  0.24570200  1
  O  O81  1  0.90252200  0.85204500  0.75429800  1
  O  O82  1  0.09747800  0.64795500  0.25429800  1
  O  O83  1  0.40252200  0.14795500  0.74570200  1
  O  O84  1  0.40252200  0.64795500  0.75429800  1
  O  O85  1  0.09747800  0.14795500  0.24570200  1
  O  O86  1  0.90252200  0.35204500  0.74570200  1
  O  O87  1  0.59747800  0.85204500  0.25429800  1
  O  O88  1  0.92866300  0.41838600  0.28015600  1
  O  O89  1  0.57133700  0.91838600  0.71984400  1
  O  O90  1  0.42866300  0.58161400  0.21984400  1
  O  O91  1  0.07133700  0.08161400  0.78015600  1
  O  O92  1  0.07133700  0.58161400  0.71984400  1
  O  O93  1  0.42866300  0.08161400  0.28015600  1
  O  O94  1  0.57133700  0.41838600  0.78015600  1
  O  O95  1  0.92866300  0.91838600  0.21984400  1
  O  O96  1  0.13605000  0.38797700  0.50200500  1
  O  O97  1  0.36395000  0.88797700  0.49799500  1
  O  O98  1  0.63605000  0.61202300  0.99799500  1
  O  O99  1  0.86395000  0.11202300  0.00200500  1
  O  O100  1  0.86395000  0.61202300  0.49799500  1
  O  O101  1  0.63605000  0.11202300  0.50200500  1
  O  O102  1  0.36395000  0.38797700  0.00200500  1
  O  O103  1  0.13605000  0.88797700  0.99799500  1
  O  O104  1  0.03725600  0.39456200  0.40687900  1
  O  O105  1  0.46274400  0.89456200  0.59312100  1
  O  O106  1  0.53725600  0.60543800  0.09312100  1
  O  O107  1  0.96274400  0.10543800  0.90687900  1
  O  O108  1  0.96274400  0.60543800  0.59312100  1
  O  O109  1  0.53725600  0.10543800  0.40687900  1
  O  O110  1  0.46274400  0.39456200  0.90687900  1
  O  O111  1  0.03725600  0.89456200  0.09312100  1
  O  O112  1  0.44744400  0.27959400  0.57493100  1
  O  O113  1  0.05255600  0.77959400  0.42506900  1
  O  O114  1  0.94744400  0.72040600  0.92506900  1
  O  O115  1  0.55255600  0.22040600  0.07493100  1
  O  O116  1  0.55255600  0.72040600  0.42506900  1
  O  O117  1  0.94744400  0.22040600  0.57493100  1
  O  O118  1  0.05255600  0.27959400  0.07493100  1
  O  O119  1  0.44744400  0.77959400  0.92506900  1
  O  O120  1  0.71980800  0.28532100  0.33281600  1
  O  O121  1  0.78019200  0.78532100  0.66718400  1
  O  O122  1  0.21980800  0.71467900  0.16718400  1
  O  O123  1  0.28019200  0.21467900  0.83281600  1
  O  O124  1  0.28019200  0.71467900  0.66718400  1
  O  O125  1  0.21980800  0.21467900  0.33281600  1
  O  O126  1  0.78019200  0.28532100  0.83281600  1
  O  O127  1  0.71980800  0.78532100  0.16718400  1
  O  O128  1  0.56354100  0.13508800  0.62914800  1
  O  O129  1  0.93645900  0.63508800  0.37085200  1
  O  O130  1  0.06354100  0.86491200  0.87085200  1
  O  O131  1  0.43645900  0.36491200  0.12914800  1
  O  O132  1  0.43645900  0.86491200  0.37085200  1
  O  O133  1  0.06354100  0.36491200  0.62914800  1
  O  O134  1  0.93645900  0.13508800  0.12914800  1
  O  O135  1  0.56354100  0.63508800  0.87085200  1
  O  O136  1  0.07726100  0.18988100  0.66056800  1
  O  O137  1  0.42273900  0.68988100  0.33943200  1
  O  O138  1  0.57726100  0.81011900  0.83943200  1
  O  O139  1  0.92273900  0.31011900  0.16056800  1
  O  O140  1  0.92273900  0.81011900  0.33943200  1
  O  O141  1  0.57726100  0.31011900  0.66056800  1
  O  O142  1  0.42273900  0.18988100  0.16056800  1
  O  O143  1  0.07726100  0.68988100  0.83943200  1
  O  O144  1  0.38965000  0.32945900  0.43506300  1
  O  O145  1  0.11035000  0.82945900  0.56493700  1
  O  O146  1  0.88965000  0.67054100  0.06493700  1
  O  O147  1  0.61035000  0.17054100  0.93506300  1
  O  O148  1  0.61035000  0.67054100  0.56493700  1
  O  O149  1  0.88965000  0.17054100  0.43506300  1
  O  O150  1  0.11035000  0.32945900  0.93506300  1
  O  O151  1  0.38965000  0.82945900  0.06493700  1
