# generated using pymatgen
data_Li2Mn3FeO8
_symmetry_space_group_name_H-M   'P 1'
_cell_length_a   5.80569203
_cell_length_b   5.94740072
_cell_length_c   9.47358590
_cell_angle_alpha   89.93534354
_cell_angle_beta   90.04396034
_cell_angle_gamma   60.83586386
_symmetry_Int_Tables_number   1
_chemical_formula_structural   Li2Mn3FeO8
_chemical_formula_sum   'Li4 Mn6 Fe2 O16'
_cell_volume   285.64203320
_cell_formula_units_Z   2
loop_
 _symmetry_equiv_pos_site_id
 _symmetry_equiv_pos_as_xyz
  1  'x, y, z'
loop_
 _atom_site_type_symbol
 _atom_site_label
 _atom_site_symmetry_multiplicity
 _atom_site_fract_x
 _atom_site_fract_y
 _atom_site_fract_z
 _atom_site_occupancy
  Li  Li0  1  0.66612900  0.66834600  0.88873300  1
  Li  Li1  1  0.33278400  0.33269400  0.38860000  1
  Li  Li2  1  0.99971000  0.00743900  0.99846900  1
  Li  Li3  1  0.00090000  0.99280500  0.49923900  1
  Mn  Mn4  1  0.33988500  0.82986300  0.21341200  1
  Mn  Mn5  1  0.83079200  0.33936300  0.21832700  1
  Mn  Mn6  1  0.83203800  0.82988800  0.21273700  1
  Mn  Mn7  1  0.16883600  0.17017200  0.71333500  1
  Mn  Mn8  1  0.16967900  0.65849600  0.71876300  1
  Mn  Mn9  1  0.65937100  0.17092800  0.71358700  1
  Fe  Fe10  1  0.33668400  0.32695000  0.99454400  1
  Fe  Fe11  1  0.66263500  0.67307900  0.49358500  1
  O  O12  1  0.65167300  0.69763500  0.10054100  1
  O  O13  1  0.34709500  0.30448800  0.60044100  1
  O  O14  1  0.01569300  0.96996800  0.31380100  1
  O  O15  1  0.98524000  0.02812600  0.81256000  1
  O  O16  1  0.32288900  0.84287200  0.60510500  1
  O  O17  1  0.83823900  0.32117200  0.59817100  1
  O  O18  1  0.16633500  0.15813300  0.10711500  1
  O  O19  1  0.83276700  0.84132500  0.60635700  1
  O  O20  1  0.16065100  0.68073800  0.09874000  1
  O  O21  1  0.67924800  0.15761900  0.10567800  1
  O  O22  1  0.51161300  0.52852300  0.33465400  1
  O  O23  1  0.52110900  0.96044800  0.33354800  1
  O  O24  1  0.95962500  0.52884300  0.33450300  1
  O  O25  1  0.04040200  0.46932000  0.83531400  1
  O  O26  1  0.47957400  0.03978400  0.83356400  1
  O  O27  1  0.48810200  0.47128400  0.83441800  1
