# generated using pymatgen
data_LiV(PO3)4
_symmetry_space_group_name_H-M   'P 1'
_cell_length_a   10.48555800
_cell_length_b   9.09849800
_cell_length_c   9.54888327
_cell_angle_alpha   89.02827136
_cell_angle_beta   90.00000000
_cell_angle_gamma   90.00000000
_symmetry_Int_Tables_number   1
_chemical_formula_structural   LiV(PO3)4
_chemical_formula_sum   'Li4 V4 P16 O48'
_cell_volume   910.85945905
_cell_formula_units_Z   4
loop_
 _symmetry_equiv_pos_site_id
 _symmetry_equiv_pos_as_xyz
  1  'x, y, z'
loop_
 _atom_site_type_symbol
 _atom_site_label
 _atom_site_symmetry_multiplicity
 _atom_site_fract_x
 _atom_site_fract_y
 _atom_site_fract_z
 _atom_site_occupancy
  Li  Li0  1  0.18445200  0.11047500  0.74997500  1
  Li  Li1  1  0.32947500  0.38134400  0.25049200  1
  Li  Li2  1  0.82947500  0.61865600  0.74950800  1
  Li  Li3  1  0.68445200  0.88952500  0.25002500  1
  V  V4  1  0.28732700  0.74319800  0.26206400  1
  V  V5  1  0.78732700  0.25680200  0.73793600  1
  V  V6  1  0.71151600  0.25401000  0.23703300  1
  V  V7  1  0.21151600  0.74599000  0.76296700  1
  P  P8  1  0.88805900  0.06113600  0.45491500  1
  P  P9  1  0.51708000  0.24616000  0.51815200  1
  P  P10  1  0.61103400  0.74643600  0.54924600  1
  P  P11  1  0.98180500  0.24501400  0.01478400  1
  P  P12  1  0.88787900  0.73681100  0.05234800  1
  P  P13  1  0.89391800  0.46081900  0.46698300  1
  P  P14  1  0.01708000  0.75384000  0.48184800  1
  P  P15  1  0.38805900  0.93886400  0.54508500  1
  P  P16  1  0.60542700  0.45979600  0.95483700  1
  P  P17  1  0.39391800  0.53918100  0.53301700  1
  P  P18  1  0.11103400  0.25356400  0.45075400  1
  P  P19  1  0.61232800  0.05761300  0.96569800  1
  P  P20  1  0.38787900  0.26318900  0.94765200  1
  P  P21  1  0.48180500  0.75498600  0.98521600  1
  P  P22  1  0.10542700  0.54020400  0.04516300  1
  P  P23  1  0.11232800  0.94238700  0.03430200  1
  O  O24  1  0.13138500  0.59603800  0.89860900  1
  O  O25  1  0.53389800  0.59055000  0.56985900  1
  O  O26  1  0.12167100  0.75202400  0.37520100  1
  O  O27  1  0.20914700  0.57181700  0.15197500  1
  O  O28  1  0.70914700  0.42818300  0.84802500  1
  O  O29  1  0.27776100  0.92502900  0.64841500  1
  O  O30  1  0.37464600  0.75069500  0.88181900  1
  O  O31  1  0.44830400  0.74733500  0.13928300  1
  O  O32  1  0.42830700  0.10650300  0.54297600  1
  O  O33  1  0.37284000  0.26534300  0.10128900  1
  O  O34  1  0.05251800  0.73822400  0.63508500  1
  O  O35  1  0.07445600  0.11017700  0.04894900  1
  O  O36  1  0.47014800  0.40920100  0.89728200  1
  O  O37  1  0.94830400  0.25266500  0.86071700  1
  O  O38  1  0.55251800  0.26177600  0.36491500  1
  O  O39  1  0.86200900  0.43355600  0.62118600  1
  O  O40  1  0.62167100  0.24797600  0.62479900  1
  O  O41  1  0.48985100  0.13559100  0.90516800  1
  O  O42  1  0.98985100  0.86440900  0.09483200  1
  O  O43  1  0.63522300  0.08332800  0.12105400  1
  O  O44  1  0.21936000  0.26217600  0.35226500  1
  O  O45  1  0.28097800  0.24793900  0.84802600  1
  O  O46  1  0.00656100  0.13980200  0.38289600  1
  O  O47  1  0.36200900  0.56644400  0.37881400  1
  O  O48  1  0.08665600  0.36744600  0.04878900  1
  O  O49  1  0.87284000  0.73465700  0.89871100  1
  O  O50  1  0.86250600  0.11118300  0.60123500  1
  O  O51  1  0.29896400  0.59613300  0.63658200  1
  O  O52  1  0.41058200  0.36619600  0.55669300  1
  O  O53  1  0.72135300  0.09250000  0.86841400  1
  O  O54  1  0.57445600  0.88982300  0.95105100  1
  O  O55  1  0.78097800  0.75206100  0.15197400  1
  O  O56  1  0.22135300  0.90750000  0.13158600  1
  O  O57  1  0.87464600  0.24930500  0.11818100  1
  O  O58  1  0.03389800  0.40945000  0.43014100  1
  O  O59  1  0.92830700  0.89349700  0.45702400  1
  O  O60  1  0.13522300  0.91667200  0.87894600  1
  O  O61  1  0.71936000  0.73782400  0.64773500  1
  O  O62  1  0.79896400  0.40386700  0.36341800  1
  O  O63  1  0.36250600  0.88881700  0.39876500  1
  O  O64  1  0.91058200  0.63380400  0.44330700  1
  O  O65  1  0.12349200  0.21885000  0.60143900  1
  O  O66  1  0.63138500  0.40396200  0.10139100  1
  O  O67  1  0.50656100  0.86019800  0.61710400  1
  O  O68  1  0.62349200  0.78115000  0.39856100  1
  O  O69  1  0.58665600  0.63255400  0.95121100  1
  O  O70  1  0.77776100  0.07497100  0.35158500  1
  O  O71  1  0.97014800  0.59079900  0.10271800  1
