# generated using pymatgen
data_Li3MnFeCo(PO4)3
_symmetry_space_group_name_H-M   'P 1'
_cell_length_a   6.08241000
_cell_length_b   10.43479100
_cell_length_c   14.30836787
_cell_angle_alpha   89.97067611
_cell_angle_beta   90.00000000
_cell_angle_gamma   90.00000000
_symmetry_Int_Tables_number   1
_chemical_formula_structural   Li3MnFeCo(PO4)3
_chemical_formula_sum   'Li12 Mn4 Fe4 Co4 P12 O48'
_cell_volume   908.13306186
_cell_formula_units_Z   4
loop_
 _symmetry_equiv_pos_site_id
 _symmetry_equiv_pos_as_xyz
  1  'x, y, z'
loop_
 _atom_site_type_symbol
 _atom_site_label
 _atom_site_symmetry_multiplicity
 _atom_site_fract_x
 _atom_site_fract_y
 _atom_site_fract_z
 _atom_site_occupancy
  Li  Li0  1  0.75023400  0.00254700  0.66631600  1
  Li  Li1  1  0.25002200  0.00169600  0.99973200  1
  Li  Li2  1  0.74997800  0.00169600  0.99973200  1
  Li  Li3  1  0.25036100  0.00192100  0.33340400  1
  Li  Li4  1  0.74963900  0.00192100  0.33340400  1
  Li  Li5  1  0.24976600  0.00254700  0.66631600  1
  Li  Li6  1  0.24919700  0.49713900  0.50058000  1
  Li  Li7  1  0.75080300  0.49713900  0.50058000  1
  Li  Li8  1  0.24986600  0.49827400  0.16689300  1
  Li  Li9  1  0.75013400  0.49827400  0.16689300  1
  Li  Li10  1  0.25013700  0.49749900  0.83262700  1
  Li  Li11  1  0.74986300  0.49749900  0.83262700  1
  Mn  Mn12  1  0.50000000  0.78160500  0.15994500  1
  Mn  Mn13  1  0.50000000  0.78106000  0.49462200  1
  Mn  Mn14  1  0.50000000  0.78078300  0.82637600  1
  Mn  Mn15  1  0.00000000  0.71926900  0.32677300  1
  Fe  Fe16  1  0.00000000  0.72045500  0.66158000  1
  Fe  Fe17  1  0.00000000  0.71815000  0.99248500  1
  Fe  Fe18  1  0.50000000  0.28046000  0.00872800  1
  Fe  Fe19  1  0.50000000  0.27977000  0.34195700  1
  Co  Co20  1  0.50000000  0.27916000  0.67502400  1
  Co  Co21  1  0.00000000  0.21976800  0.83796600  1
  Co  Co22  1  0.00000000  0.21938800  0.50652000  1
  Co  Co23  1  0.00000000  0.21852600  0.17226600  1
  P  P24  1  0.00000000  0.90839300  0.80564700  1
  P  P25  1  0.00000000  0.90861600  0.13753500  1
  P  P26  1  0.00000000  0.90954600  0.47270900  1
  P  P27  1  0.50000000  0.59074000  0.30539700  1
  P  P28  1  0.50000000  0.58846000  0.64026700  1
  P  P29  1  0.50000000  0.59175300  0.97326300  1
  P  P30  1  0.00000000  0.40276800  0.36077400  1
  P  P31  1  0.00000000  0.40386100  0.02705300  1
  P  P32  1  0.00000000  0.40303300  0.69354800  1
  P  P33  1  0.50000000  0.09961000  0.86000900  1
  P  P34  1  0.50000000  0.09697700  0.19429300  1
  P  P35  1  0.50000000  0.09840300  0.52853100  1
  O  O36  1  0.50000000  0.95945300  0.23699300  1
  O  O37  1  0.50000000  0.96059300  0.57103700  1
  O  O38  1  0.50000000  0.96066000  0.90008500  1
  O  O39  1  0.00000000  0.90439800  0.58004200  1
  O  O40  1  0.00000000  0.90338900  0.91284700  1
  O  O41  1  0.00000000  0.90489900  0.24499800  1
  O  O42  1  0.20204800  0.83830500  0.09227100  1
  O  O43  1  0.79795200  0.83830500  0.09227100  1
  O  O44  1  0.20247900  0.83951000  0.42748900  1
  O  O45  1  0.79752100  0.83951000  0.42748900  1
  O  O46  1  0.20087100  0.83733900  0.75953800  1
  O  O47  1  0.79912900  0.83733900  0.75953800  1
  O  O48  1  0.70330900  0.65894600  0.59523600  1
  O  O49  1  0.29669100  0.65894600  0.59523600  1
  O  O50  1  0.70237100  0.66156900  0.26081700  1
  O  O51  1  0.29762900  0.66156900  0.26081700  1
  O  O52  1  0.70331600  0.66372200  0.92960800  1
  O  O53  1  0.29668400  0.66372200  0.92960800  1
  O  O54  1  0.50000000  0.59404200  0.41296700  1
  O  O55  1  0.50000000  0.59373700  0.08053800  1
  O  O56  1  0.50000000  0.59405200  0.74755300  1
  O  O57  1  0.00000000  0.54033800  0.40282500  1
  O  O58  1  0.00000000  0.54195300  0.06850200  1
  O  O59  1  0.00000000  0.54112400  0.73491800  1
  O  O60  1  0.50000000  0.45315000  0.26405800  1
  O  O61  1  0.50000000  0.45497200  0.93071300  1
  O  O62  1  0.50000000  0.44902100  0.60055000  1
  O  O63  1  0.00000000  0.40055900  0.25339900  1
  O  O64  1  0.00000000  0.40061100  0.91977300  1
  O  O65  1  0.00000000  0.40039300  0.58607500  1
  O  O66  1  0.20238400  0.33315100  0.07253900  1
  O  O67  1  0.20253600  0.33192300  0.40573200  1
  O  O68  1  0.20323400  0.33235800  0.73888600  1
  O  O69  1  0.79676600  0.33235800  0.73888600  1
  O  O70  1  0.79761600  0.33315100  0.07253900  1
  O  O71  1  0.79746400  0.33192300  0.40573200  1
  O  O72  1  0.70494100  0.16805600  0.90484700  1
  O  O73  1  0.29505900  0.16805600  0.90484700  1
  O  O74  1  0.70463900  0.16753500  0.23804900  1
  O  O75  1  0.70416200  0.16938500  0.57240100  1
  O  O76  1  0.29536100  0.16753500  0.23804900  1
  O  O77  1  0.29583800  0.16938500  0.57240100  1
  O  O78  1  0.50000000  0.10385200  0.75192200  1
  O  O79  1  0.50000000  0.09745700  0.42097000  1
  O  O80  1  0.50000000  0.09677500  0.08679100  1
  O  O81  1  0.00000000  0.04677900  0.76544300  1
  O  O82  1  0.00000000  0.04743800  0.09749200  1
  O  O83  1  0.00000000  0.04805500  0.43230800  1
