# generated using pymatgen
data_NaLiHg2
_symmetry_space_group_name_H-M   'P 1'
_cell_length_a   11.92732996
_cell_length_b   11.92732996
_cell_length_c   11.92732996
_cell_angle_alpha   120.59219140
_cell_angle_beta   119.81194906
_cell_angle_gamma   89.65169525
_symmetry_Int_Tables_number   1
_chemical_formula_structural   NaLiHg2
_chemical_formula_sum   'Na1 Li1 Hg2'
_cell_volume   1196.05777294
_cell_formula_units_Z   1
loop_
 _symmetry_equiv_pos_site_id
 _symmetry_equiv_pos_as_xyz
  1  'x, y, z'
loop_
 _atom_site_type_symbol
 _atom_site_label
 _atom_site_symmetry_multiplicity
 _atom_site_fract_x
 _atom_site_fract_y
 _atom_site_fract_z
 _atom_site_occupancy
  Na  Na0  1  0.00000000  0.50000000  0.50000000  1
  Li  Li1  1  0.00000000  0.00000000  0.00000000  1
  Hg  Hg2  1  0.00000000  0.23321400  0.23321400  1
  Hg  Hg3  1  0.00000000  0.76678600  0.76678600  1
