# generated using pymatgen
data_Li2Mn3SbO8
_symmetry_space_group_name_H-M   'P 1'
_cell_length_a   5.96178874
_cell_length_b   10.86683510
_cell_length_c   6.16630569
_cell_angle_alpha   73.54698602
_cell_angle_beta   58.87758559
_cell_angle_gamma   71.63193267
_symmetry_Int_Tables_number   1
_chemical_formula_structural   Li2Mn3SbO8
_chemical_formula_sum   'Li4 Mn6 Sb2 O16'
_cell_volume   320.98379968
_cell_formula_units_Z   2
loop_
 _symmetry_equiv_pos_site_id
 _symmetry_equiv_pos_as_xyz
  1  'x, y, z'
loop_
 _atom_site_type_symbol
 _atom_site_label
 _atom_site_symmetry_multiplicity
 _atom_site_fract_x
 _atom_site_fract_y
 _atom_site_fract_z
 _atom_site_occupancy
  Li  Li0  1  0.44071900  0.69774100  0.43077900  1
  Li  Li1  1  0.94050100  0.19786000  0.93090600  1
  Li  Li2  1  0.05929400  0.80215200  0.06924300  1
  Li  Li3  1  0.55937000  0.30226800  0.56914000  1
  Mn  Mn4  1  0.49941600  0.99989000  0.50041600  1
  Mn  Mn5  1  0.50015800  0.00006400  0.00004400  1
  Mn  Mn6  1  0.50024900  0.49996500  0.99991900  1
  Mn  Mn7  1  0.00035500  0.49999000  0.99980600  1
  Mn  Mn8  1  0.00017300  0.50005300  0.49989600  1
  Mn  Mn9  1  0.99980800  0.00003900  0.49961400  1
  Sb  Sb10  1  0.24996600  0.24997900  0.25019100  1
  Sb  Sb11  1  0.74999300  0.74998700  0.75010600  1
  O  O12  1  0.36990000  0.90674300  0.36149500  1
  O  O13  1  0.87045800  0.40675100  0.86134300  1
  O  O14  1  0.13008900  0.59329700  0.13831200  1
  O  O15  1  0.62948300  0.09324100  0.63856200  1
  O  O16  1  0.60702800  0.13424500  0.12952800  1
  O  O17  1  0.10717100  0.63433400  0.62938600  1
  O  O18  1  0.14991600  0.12357700  0.58965800  1
  O  O19  1  0.65043000  0.62354000  0.08944700  1
  O  O20  1  0.15024600  0.12365400  0.13646100  1
  O  O21  1  0.65061200  0.62361900  0.63626100  1
  O  O22  1  0.34982300  0.37636300  0.36359700  1
  O  O23  1  0.84978700  0.87645400  0.86341500  1
  O  O24  1  0.35000400  0.37641800  0.91050900  1
  O  O25  1  0.84936000  0.87635900  0.41055300  1
  O  O26  1  0.89295400  0.36577300  0.37053000  1
  O  O27  1  0.39273700  0.86564400  0.87088300  1
