# generated using pymatgen
data_Li4Nb2V3Co3O16
_symmetry_space_group_name_H-M   'P 1'
_cell_length_a   5.97526600
_cell_length_b   5.99027558
_cell_length_c   9.78316281
_cell_angle_alpha   90.33468402
_cell_angle_beta   89.88852597
_cell_angle_gamma   119.75460951
_symmetry_Int_Tables_number   1
_chemical_formula_structural   Li4Nb2V3Co3O16
_chemical_formula_sum   'Li4 Nb2 V3 Co3 O16'
_cell_volume   304.00090213
_cell_formula_units_Z   1
loop_
 _symmetry_equiv_pos_site_id
 _symmetry_equiv_pos_as_xyz
  1  'x, y, z'
loop_
 _atom_site_type_symbol
 _atom_site_label
 _atom_site_symmetry_multiplicity
 _atom_site_fract_x
 _atom_site_fract_y
 _atom_site_fract_z
 _atom_site_occupancy
  Li  Li0  1  0.33154100  0.65804300  0.10009200  1
  Li  Li1  1  0.00469500  0.01261000  0.00641800  1
  Li  Li2  1  0.00298200  0.01228100  0.50979200  1
  Li  Li3  1  0.65532200  0.30869300  0.60040500  1
  Nb  Nb4  1  0.34330000  0.68856700  0.49991200  1
  Nb  Nb5  1  0.66830700  0.34311500  0.00022400  1
  V  V6  1  0.17804100  0.35954200  0.76657500  1
  V  V7  1  0.34753200  0.18122500  0.28322600  1
  V  V8  1  0.82925700  0.18229100  0.27509100  1
  Co  Co9  1  0.17297600  0.83322100  0.79129600  1
  Co  Co10  1  0.66071300  0.83465000  0.79135500  1
  Co  Co11  1  0.82914600  0.65961200  0.28548600  1
  O  O12  1  0.17065100  0.84183900  0.40885900  1
  O  O13  1  0.46961200  0.94086300  0.65392300  1
  O  O14  1  0.31167500  0.62244500  0.89318200  1
  O  O15  1  0.01296800  0.02591100  0.70125500  1
  O  O16  1  0.99756800  0.01734900  0.19784600  1
  O  O17  1  0.66615300  0.83621300  0.40921700  1
  O  O18  1  0.02602500  0.48859100  0.65937200  1
  O  O19  1  0.46025600  0.48717100  0.65873900  1
  O  O20  1  0.83662200  0.67216100  0.91447300  1
  O  O21  1  0.16756000  0.34337500  0.40721900  1
  O  O22  1  0.51203400  0.47070800  0.15731000  1
  O  O23  1  0.96338600  0.47177600  0.15770200  1
  O  O24  1  0.67076500  0.30882000  0.39531700  1
  O  O25  1  0.33914500  0.17997900  0.90648500  1
  O  O26  1  0.52861700  0.03581100  0.15577300  1
  O  O27  1  0.84285100  0.18314100  0.90561500  1
