# generated using pymatgen
data_Li4Co3O7
_symmetry_space_group_name_H-M   'P 1'
_cell_length_a   5.08958100
_cell_length_b   6.44909773
_cell_length_c   7.72597878
_cell_angle_alpha   87.08714478
_cell_angle_beta   78.37790619
_cell_angle_gamma   83.57451169
_symmetry_Int_Tables_number   1
_chemical_formula_structural   Li4Co3O7
_chemical_formula_sum   'Li8 Co6 O14'
_cell_volume   246.72767824
_cell_formula_units_Z   2
loop_
 _symmetry_equiv_pos_site_id
 _symmetry_equiv_pos_as_xyz
  1  'x, y, z'
loop_
 _atom_site_type_symbol
 _atom_site_label
 _atom_site_symmetry_multiplicity
 _atom_site_fract_x
 _atom_site_fract_y
 _atom_site_fract_z
 _atom_site_occupancy
  Li  Li0  1  0.65131300  0.72268400  0.21076200  1
  Li  Li1  1  0.34868700  0.27731600  0.78923800  1
  Li  Li2  1  0.07417100  0.85693800  0.35298700  1
  Li  Li3  1  0.50000000  0.00000000  0.50000000  1
  Li  Li4  1  0.21604500  0.57325600  0.07172500  1
  Li  Li5  1  0.92582900  0.14306200  0.64701300  1
  Li  Li6  1  0.78395500  0.42674400  0.92827500  1
  Li  Li7  1  0.00000000  0.00000000  0.00000000  1
  Co  Co8  1  0.57475000  0.85892300  0.86200800  1
  Co  Co9  1  0.42525000  0.14107700  0.13799200  1
  Co  Co10  1  0.28531400  0.43232900  0.42898800  1
  Co  Co11  1  0.71468600  0.56767100  0.57101200  1
  Co  Co12  1  0.13880000  0.72025800  0.72218400  1
  Co  Co13  1  0.86120000  0.27974200  0.27781600  1
  O  O14  1  0.86652000  0.72451000  0.95009700  1
  O  O15  1  0.61091700  0.30207800  0.53610800  1
  O  O16  1  0.34836300  0.87539400  0.09468400  1
  O  O17  1  0.73074900  0.02455500  0.24495900  1
  O  O18  1  0.46764200  0.59419100  0.81932800  1
  O  O19  1  0.19043800  0.15228700  0.37527100  1
  O  O20  1  0.04171300  0.43578300  0.67367400  1
  O  O21  1  0.38908300  0.69792200  0.46389200  1
  O  O22  1  0.13348000  0.27549000  0.04990300  1
  O  O23  1  0.80956200  0.84771300  0.62472900  1
  O  O24  1  0.26925100  0.97544500  0.75504100  1
  O  O25  1  0.95828700  0.56421700  0.32632600  1
  O  O26  1  0.65163700  0.12460600  0.90531600  1
  O  O27  1  0.53235800  0.40580900  0.18067200  1
