# generated using pymatgen
data_LiY2Hg
_symmetry_space_group_name_H-M   'P 1'
_cell_length_a   12.53693245
_cell_length_b   12.53693245
_cell_length_c   12.53693245
_cell_angle_alpha   121.34464911
_cell_angle_beta   119.58402042
_cell_angle_gamma   89.20447067
_symmetry_Int_Tables_number   1
_chemical_formula_structural   LiY2Hg
_chemical_formula_sum   'Li1 Y2 Hg1'
_cell_volume   1383.00663327
_cell_formula_units_Z   1
loop_
 _symmetry_equiv_pos_site_id
 _symmetry_equiv_pos_as_xyz
  1  'x, y, z'
loop_
 _atom_site_type_symbol
 _atom_site_label
 _atom_site_symmetry_multiplicity
 _atom_site_fract_x
 _atom_site_fract_y
 _atom_site_fract_z
 _atom_site_occupancy
  Li  Li0  1  0.00000000  0.00000000  0.00000000  1
  Y  Y1  1  0.00000000  0.25749200  0.25749200  1
  Y  Y2  1  0.00000000  0.74250800  0.74250800  1
  Hg  Hg3  1  0.00000000  0.50000000  0.50000000  1
