# generated using pymatgen
data_Li9Mn2Co5O16
_symmetry_space_group_name_H-M   'P 1'
_cell_length_a   6.64162589
_cell_length_b   6.64162589
_cell_length_c   15.35251548
_cell_angle_alpha   87.75038641
_cell_angle_beta   87.75038641
_cell_angle_gamma   25.21826659
_symmetry_Int_Tables_number   1
_chemical_formula_structural   Li9Mn2Co5O16
_chemical_formula_sum   'Li9 Mn2 Co5 O16'
_cell_volume   288.30714564
_cell_formula_units_Z   1
loop_
 _symmetry_equiv_pos_site_id
 _symmetry_equiv_pos_as_xyz
  1  'x, y, z'
loop_
 _atom_site_type_symbol
 _atom_site_label
 _atom_site_symmetry_multiplicity
 _atom_site_fract_x
 _atom_site_fract_y
 _atom_site_fract_z
 _atom_site_occupancy
  Li  Li0  1  0.69290000  0.69290000  0.93532300  1
  Li  Li1  1  0.05863100  0.05863100  0.81572600  1
  Li  Li2  1  0.43587900  0.43587900  0.69275200  1
  Li  Li3  1  0.31426500  0.31426500  0.05778200  1
  Li  Li4  1  0.93522900  0.93522900  0.18843700  1
  Li  Li5  1  0.56265700  0.56265700  0.30900800  1
  Li  Li6  1  0.81295600  0.81295600  0.56195300  1
  Li  Li7  1  0.18911600  0.18911600  0.43481100  1
  Li  Li8  1  0.37437100  0.37437100  0.87801700  1
  Mn  Mn9  1  0.99402800  0.99402800  0.99690600  1
  Mn  Mn10  1  0.12832900  0.12832900  0.62621200  1
  Co  Co11  1  0.76492600  0.76492600  0.75974400  1
  Co  Co12  1  0.49998200  0.49998200  0.49861300  1
  Co  Co13  1  0.87142200  0.87142200  0.37520000  1
  Co  Co14  1  0.24871300  0.24871300  0.24953600  1
  Co  Co15  1  0.62608100  0.62608100  0.12377400  1
  O  O16  1  0.52849000  0.52849000  0.91729800  1
  O  O17  1  0.90103100  0.90103100  0.77540200  1
  O  O18  1  0.26763800  0.26763800  0.65923600  1
  O  O19  1  0.14547400  0.14547400  0.03618200  1
  O  O20  1  0.77573000  0.77573000  0.16055200  1
  O  O21  1  0.40171100  0.40171100  0.28795600  1
  O  O22  1  0.65545000  0.65545000  0.54278000  1
  O  O23  1  0.02544400  0.02544400  0.41608600  1
  O  O24  1  0.85699000  0.85699000  0.97217900  1
  O  O25  1  0.21685000  0.21685000  0.83672700  1
  O  O26  1  0.59534600  0.59534600  0.70591000  1
  O  O27  1  0.47422300  0.47422300  0.08429600  1
  O  O28  1  0.09654100  0.09654100  0.21286000  1
  O  O29  1  0.72090800  0.72090800  0.34129800  1
  O  O30  1  0.98255300  0.98255300  0.58375200  1
  O  O31  1  0.34613500  0.34613500  0.46369200  1
