# generated using pymatgen
data_Li2Ti2V3O10
_symmetry_space_group_name_H-M   'P 1'
_cell_length_a   5.21626032
_cell_length_b   9.87026492
_cell_length_c   8.41245456
_cell_angle_alpha   68.77799270
_cell_angle_beta   94.61739201
_cell_angle_gamma   77.57037302
_symmetry_Int_Tables_number   1
_chemical_formula_structural   Li2Ti2V3O10
_chemical_formula_sum   'Li4 Ti4 V6 O20'
_cell_volume   388.27097418
_cell_formula_units_Z   2
loop_
 _symmetry_equiv_pos_site_id
 _symmetry_equiv_pos_as_xyz
  1  'x, y, z'
loop_
 _atom_site_type_symbol
 _atom_site_label
 _atom_site_symmetry_multiplicity
 _atom_site_fract_x
 _atom_site_fract_y
 _atom_site_fract_z
 _atom_site_occupancy
  Li  Li0  1  0.75105700  0.47710700  0.91807800  1
  Li  Li1  1  0.23848900  0.96782600  0.42623000  1
  Li  Li2  1  0.26153800  0.53217900  0.07380100  1
  Li  Li3  1  0.74887400  0.02294400  0.58193800  1
  Ti  Ti4  1  0.78631900  0.34831300  0.33420400  1
  Ti  Ti5  1  0.27651200  0.84624000  0.83994100  1
  Ti  Ti6  1  0.22343600  0.65375400  0.66002300  1
  Ti  Ti7  1  0.71376000  0.15167000  0.16583200  1
  V  V8  1  0.24994100  0.75004200  0.25001000  1
  V  V9  1  0.26560100  0.42207900  0.46428000  1
  V  V10  1  0.23454400  0.07782500  0.03570000  1
  V  V11  1  0.75011300  0.24995900  0.75005200  1
  V  V12  1  0.76262600  0.92973600  0.96824800  1
  V  V13  1  0.73742100  0.57023100  0.53174300  1
  O  O14  1  0.51246800  0.53320900  0.32426600  1
  O  O15  1  0.01724900  0.04622200  0.82613300  1
  O  O16  1  0.48276000  0.45379500  0.67381200  1
  O  O17  1  0.98748500  0.96678100  0.17572300  1
  O  O18  1  0.41899100  0.64042800  0.86445700  1
  O  O19  1  0.90570400  0.14047000  0.37299500  1
  O  O20  1  0.59435200  0.35951000  0.12706600  1
  O  O21  1  0.08083800  0.85961800  0.63546900  1
  O  O22  1  0.44645100  0.87095300  0.07810300  1
  O  O23  1  0.95679200  0.35624900  0.56795900  1
  O  O24  1  0.54319500  0.14375000  0.93206000  1
  O  O25  1  0.05353900  0.62908900  0.42183900  1
  O  O26  1  0.96784200  0.24773200  0.97067600  1
  O  O27  1  0.43627300  0.74821900  0.46850900  1
  O  O28  1  0.06368600  0.75183000  0.03147700  1
  O  O29  1  0.53221500  0.25218900  0.52941200  1
  O  O30  1  0.06650200  0.42335500  0.25933400  1
  O  O31  1  0.55448800  0.92455400  0.76684900  1
  O  O32  1  0.94534700  0.57544100  0.73313400  1
  O  O33  1  0.43359300  0.07670000  0.24064500  1
