# generated using pymatgen
data_Li9Mn7O16
_symmetry_space_group_name_H-M   'P 1'
_cell_length_a   2.87714800
_cell_length_b   9.75802000
_cell_length_c   10.69339543
_cell_angle_alpha   83.04713593
_cell_angle_beta   90.00000000
_cell_angle_gamma   90.00000000
_symmetry_Int_Tables_number   1
_chemical_formula_structural   Li9Mn7O16
_chemical_formula_sum   'Li9 Mn7 O16'
_cell_volume   298.01214463
_cell_formula_units_Z   1
loop_
 _symmetry_equiv_pos_site_id
 _symmetry_equiv_pos_as_xyz
  1  'x, y, z'
loop_
 _atom_site_type_symbol
 _atom_site_label
 _atom_site_symmetry_multiplicity
 _atom_site_fract_x
 _atom_site_fract_y
 _atom_site_fract_z
 _atom_site_occupancy
  Li  Li0  1  0.50000000  0.24729200  0.62872400  1
  Li  Li1  1  0.50000000  0.75270800  0.37127600  1
  Li  Li2  1  0.50000000  0.24281600  0.12313300  1
  Li  Li3  1  0.00000000  0.25299200  0.37073300  1
  Li  Li4  1  0.00000000  0.75561500  0.12072100  1
  Li  Li5  1  0.00000000  0.24438500  0.87927900  1
  Li  Li6  1  0.50000000  0.75718400  0.87686700  1
  Li  Li7  1  0.00000000  0.74700800  0.62926700  1
  Li  Li8  1  0.50000000  0.00000000  0.00000000  1
  Mn  Mn9  1  0.00000000  0.99315000  0.76339400  1
  Mn  Mn10  1  0.00000000  0.00685000  0.23660600  1
  Mn  Mn11  1  0.00000000  0.50000000  0.50000000  1
  Mn  Mn12  1  0.00000000  0.50000000  0.00000000  1
  Mn  Mn13  1  0.50000000  0.50198600  0.24967700  1
  Mn  Mn14  1  0.50000000  0.49801400  0.75032300  1
  Mn  Mn15  1  0.50000000  0.00000000  0.50000000  1
  O  O16  1  0.50000000  0.11283700  0.80491100  1
  O  O17  1  0.50000000  0.61827300  0.55194700  1
  O  O18  1  0.50000000  0.11340700  0.30527100  1
  O  O19  1  0.00000000  0.10721500  0.56746300  1
  O  O20  1  0.00000000  0.61837800  0.30361000  1
  O  O21  1  0.00000000  0.11175600  0.08429700  1
  O  O22  1  0.50000000  0.61853600  0.05196300  1
  O  O23  1  0.00000000  0.61419300  0.80192700  1
  O  O24  1  0.50000000  0.38172700  0.44805300  1
  O  O25  1  0.50000000  0.88716300  0.19508900  1
  O  O26  1  0.50000000  0.38146400  0.94803700  1
  O  O27  1  0.00000000  0.38580700  0.19807300  1
  O  O28  1  0.00000000  0.88824400  0.91570300  1
  O  O29  1  0.00000000  0.38162200  0.69639000  1
  O  O30  1  0.50000000  0.88659300  0.69472900  1
  O  O31  1  0.00000000  0.89278500  0.43253700  1
