# generated using pymatgen
data_Li7Co5O12
_symmetry_space_group_name_H-M   'P 1'
_cell_length_a   4.95937685
_cell_length_b   9.62676828
_cell_length_c   8.53231889
_cell_angle_alpha   89.90470011
_cell_angle_beta   90.23239243
_cell_angle_gamma   99.20377265
_symmetry_Int_Tables_number   1
_chemical_formula_structural   Li7Co5O12
_chemical_formula_sum   'Li14 Co10 O24'
_cell_volume   402.10861760
_cell_formula_units_Z   2
loop_
 _symmetry_equiv_pos_site_id
 _symmetry_equiv_pos_as_xyz
  1  'x, y, z'
loop_
 _atom_site_type_symbol
 _atom_site_label
 _atom_site_symmetry_multiplicity
 _atom_site_fract_x
 _atom_site_fract_y
 _atom_site_fract_z
 _atom_site_occupancy
  Li  Li0  1  0.49954200  0.50004400  0.33101600  1
  Li  Li1  1  0.49999800  0.99994200  0.83322100  1
  Li  Li2  1  0.25105300  0.24208200  0.83205600  1
  Li  Li3  1  0.25125800  0.74333000  0.33141000  1
  Li  Li4  1  0.74948200  0.75761900  0.83378100  1
  Li  Li5  1  0.74880800  0.25678400  0.33223600  1
  Li  Li6  1  0.25220100  0.75737600  0.99629200  1
  Li  Li7  1  0.25920000  0.25682800  0.49775800  1
  Li  Li8  1  0.25817300  0.25738600  0.16896300  1
  Li  Li9  1  0.25404100  0.75796500  0.67179500  1
  Li  Li10  1  0.74597100  0.24247000  0.99635400  1
  Li  Li11  1  0.74120100  0.74328600  0.49800600  1
  Li  Li12  1  0.74112200  0.74267000  0.16875900  1
  Li  Li13  1  0.74727500  0.24238500  0.67216700  1
  Co  Co14  1  0.00000200  0.00002400  0.33323900  1
  Co  Co15  1  0.00236100  0.49959300  0.49974200  1
  Co  Co16  1  0.99982200  0.00003500  0.99865000  1
  Co  Co17  1  0.99757100  0.50038800  0.17229500  1
  Co  Co18  1  0.00017300  0.99999500  0.66789800  1
  Co  Co19  1  0.00287800  0.49985200  0.83481800  1
  Co  Co20  1  0.49704600  0.50034200  0.00205700  1
  Co  Co21  1  0.50007300  0.00001400  0.50429000  1
  Co  Co22  1  0.50236200  0.49951300  0.66105200  1
  Co  Co23  1  0.49993500  0.00006100  0.16231300  1
  O  O24  1  0.38282100  0.61202500  0.82834700  1
  O  O25  1  0.39217700  0.11285100  0.33299200  1
  O  O26  1  0.61784100  0.38903600  0.83208000  1
  O  O27  1  0.60787800  0.88723100  0.33356800  1
  O  O28  1  0.89203300  0.61304100  0.33243400  1
  O  O29  1  0.89184900  0.11463100  0.83290400  1
  O  O30  1  0.10756200  0.38717200  0.33156500  1
  O  O31  1  0.10820600  0.88535500  0.83362900  1
  O  O32  1  0.36304200  0.11101900  0.01608700  1
  O  O33  1  0.36395000  0.61026700  0.51441500  1
  O  O34  1  0.34638100  0.61151000  0.15370100  1
  O  O35  1  0.36344200  0.11033300  0.65008200  1
  O  O36  1  0.63629700  0.88932800  0.01646900  1
  O  O37  1  0.64081600  0.38937800  0.51506300  1
  O  O38  1  0.64767100  0.38879500  0.15445200  1
  O  O39  1  0.63720200  0.88940600  0.65048200  1
  O  O40  1  0.85697800  0.61091600  0.00814000  1
  O  O41  1  0.86394600  0.10788900  0.49913700  1
  O  O42  1  0.86571100  0.61080300  0.66421600  1
  O  O43  1  0.86457600  0.10712200  0.16734900  1
  O  O44  1  0.13132000  0.38887800  0.00517400  1
  O  O45  1  0.13558900  0.89220100  0.49922800  1
  O  O46  1  0.14529700  0.38793200  0.66081800  1
  O  O47  1  0.13586500  0.89289500  0.16749900  1
