# generated using pymatgen
data_Li4MnCo2O7
_symmetry_space_group_name_H-M   'P 1'
_cell_length_a   7.77857889
_cell_length_b   7.77857889
_cell_length_c   12.91777841
_cell_angle_alpha   61.97508042
_cell_angle_beta   61.97508042
_cell_angle_gamma   21.56938615
_symmetry_Int_Tables_number   1
_chemical_formula_structural   Li4MnCo2O7
_chemical_formula_sum   'Li8 Mn2 Co4 O14'
_cell_volume   252.34070075
_cell_formula_units_Z   2
loop_
 _symmetry_equiv_pos_site_id
 _symmetry_equiv_pos_as_xyz
  1  'x, y, z'
loop_
 _atom_site_type_symbol
 _atom_site_label
 _atom_site_symmetry_multiplicity
 _atom_site_fract_x
 _atom_site_fract_y
 _atom_site_fract_z
 _atom_site_occupancy
  Li  Li0  1  0.00000000  0.00000000  0.50000000  1
  Li  Li1  1  0.28655300  0.28655300  0.07009000  1
  Li  Li2  1  0.57302800  0.57302800  0.65221600  1
  Li  Li3  1  0.42697200  0.42697200  0.34778400  1
  Li  Li4  1  0.71344700  0.71344700  0.92991000  1
  Li  Li5  1  0.87201600  0.87201600  0.19507600  1
  Li  Li6  1  0.12798400  0.12798400  0.80492400  1
  Li  Li7  1  0.50000000  0.50000000  0.00000000  1
  Mn  Mn8  1  0.35924200  0.35924200  0.71642400  1
  Mn  Mn9  1  0.64075800  0.64075800  0.28357600  1
  Co  Co10  1  0.93100700  0.93100700  0.87432000  1
  Co  Co11  1  0.21605300  0.21605300  0.42776000  1
  Co  Co12  1  0.78394700  0.78394700  0.57224000  1
  Co  Co13  1  0.06899300  0.06899300  0.12568000  1
  O  O14  1  0.95447200  0.95447200  0.67867000  1
  O  O15  1  0.23565700  0.23565700  0.25592700  1
  O  O16  1  0.53181800  0.53181800  0.82016400  1
  O  O17  1  0.38352800  0.38352800  0.54840700  1
  O  O18  1  0.66815900  0.66815900  0.12570900  1
  O  O19  1  0.81332600  0.81332600  0.39975300  1
  O  O20  1  0.11039400  0.11039400  0.97114800  1
  O  O21  1  0.04552800  0.04552800  0.32133000  1
  O  O22  1  0.33184100  0.33184100  0.87429100  1
  O  O23  1  0.61647200  0.61647200  0.45159300  1
  O  O24  1  0.46818200  0.46818200  0.17983600  1
  O  O25  1  0.76434300  0.76434300  0.74407300  1
  O  O26  1  0.88960600  0.88960600  0.02885200  1
  O  O27  1  0.18667400  0.18667400  0.60024700  1
