# generated using pymatgen
data_Li2MnV3O8
_symmetry_space_group_name_H-M   'P 1'
_cell_length_a   5.96760651
_cell_length_b   5.96775318
_cell_length_c   10.47772473
_cell_angle_alpha   89.99982696
_cell_angle_beta   106.54289521
_cell_angle_gamma   60.00164229
_symmetry_Int_Tables_number   1
_chemical_formula_structural   Li2MnV3O8
_chemical_formula_sum   'Li4 Mn2 V6 O16'
_cell_volume   305.19342891
_cell_formula_units_Z   2
loop_
 _symmetry_equiv_pos_site_id
 _symmetry_equiv_pos_as_xyz
  1  'x, y, z'
loop_
 _atom_site_type_symbol
 _atom_site_label
 _atom_site_symmetry_multiplicity
 _atom_site_fract_x
 _atom_site_fract_y
 _atom_site_fract_z
 _atom_site_occupancy
  Li  Li0  1  0.12055200  0.93971000  0.18090800  1
  Li  Li1  1  0.12076500  0.43960400  0.68122800  1
  Li  Li2  1  0.50168000  0.74915600  0.75244100  1
  Li  Li3  1  0.50113800  0.24945100  0.25167600  1
  Mn  Mn4  1  0.87850500  0.06079500  0.81777500  1
  Mn  Mn5  1  0.87917800  0.56040500  0.31870200  1
  V  V6  1  0.49231400  0.50504300  0.50124300  1
  V  V7  1  0.50695400  0.00466600  0.00094400  1
  V  V8  1  0.50381300  0.99118100  0.50125100  1
  V  V9  1  0.48929900  0.50600800  0.00095500  1
  V  V10  1  0.00623200  0.00266600  0.50123900  1
  V  V11  1  0.00565600  0.48835200  0.00095900  1
  O  O12  1  0.25938300  0.87031300  0.38903000  1
  O  O13  1  0.25933400  0.37033500  0.88895500  1
  O  O14  1  0.73940200  0.63029100  0.10912800  1
  O  O15  1  0.73906800  0.13046200  0.60865400  1
  O  O16  1  0.70819100  0.66109400  0.60449200  1
  O  O17  1  0.70805600  0.13121600  0.10454400  1
  O  O18  1  0.26558400  0.63070100  0.60448800  1
  O  O19  1  0.23574200  0.16071600  0.10454500  1
  O  O20  1  0.23518700  0.10366100  0.60448300  1
  O  O21  1  0.26525600  0.60353300  0.10453900  1
  O  O22  1  0.73379200  0.40128500  0.89481500  1
  O  O23  1  0.76007800  0.90098400  0.39446600  1
  O  O24  1  0.75979300  0.83893900  0.89481700  1
  O  O25  1  0.73343100  0.36557900  0.39446800  1
  O  O26  1  0.29611900  0.86492600  0.89480600  1
  O  O27  1  0.29550100  0.33892600  0.39446100  1
