# generated using pymatgen
data_Li2GaAg
_symmetry_space_group_name_H-M   'P 1'
_cell_length_a   10.87749067
_cell_length_b   10.87749067
_cell_length_c   10.87749067
_cell_angle_alpha   120.71997106
_cell_angle_beta   119.61650065
_cell_angle_gamma   89.71152311
_symmetry_Int_Tables_number   1
_chemical_formula_structural   Li2GaAg
_chemical_formula_sum   'Li2 Ga1 Ag1'
_cell_volume   907.62985063
_cell_formula_units_Z   1
loop_
 _symmetry_equiv_pos_site_id
 _symmetry_equiv_pos_as_xyz
  1  'x, y, z'
loop_
 _atom_site_type_symbol
 _atom_site_label
 _atom_site_symmetry_multiplicity
 _atom_site_fract_x
 _atom_site_fract_y
 _atom_site_fract_z
 _atom_site_occupancy
  Li  Li0  1  0.00000000  0.25842500  0.25842500  1
  Li  Li1  1  0.00000000  0.74157500  0.74157500  1
  Ga  Ga2  1  0.00000000  0.00000000  0.00000000  1
  Ag  Ag3  1  0.00000000  0.50000000  0.50000000  1
