# generated using pymatgen
data_Li4Co3O7
_symmetry_space_group_name_H-M   'P 1'
_cell_length_a   10.48400019
_cell_length_b   10.48400019
_cell_length_c   5.16209655
_cell_angle_alpha   85.27644714
_cell_angle_beta   85.27644714
_cell_angle_gamma   151.86151507
_symmetry_Int_Tables_number   1
_chemical_formula_structural   Li4Co3O7
_chemical_formula_sum   'Li8 Co6 O14'
_cell_volume   251.76218658
_cell_formula_units_Z   2
loop_
 _symmetry_equiv_pos_site_id
 _symmetry_equiv_pos_as_xyz
  1  'x, y, z'
loop_
 _atom_site_type_symbol
 _atom_site_label
 _atom_site_symmetry_multiplicity
 _atom_site_fract_x
 _atom_site_fract_y
 _atom_site_fract_z
 _atom_site_occupancy
  Li  Li0  1  0.85676300  0.14323700  0.50000000  1
  Li  Li1  1  0.28631100  0.71368900  0.50000000  1
  Li  Li2  1  0.71368900  0.28631100  0.50000000  1
  Li  Li3  1  0.14323700  0.85676300  0.50000000  1
  Li  Li4  1  0.56876900  0.43123100  0.50000000  1
  Li  Li5  1  0.00000000  0.00000000  0.50000000  1
  Li  Li6  1  0.43123100  0.56876900  0.50000000  1
  Li  Li7  1  0.50000000  0.50000000  0.00000000  1
  Co  Co8  1  0.92992200  0.07007800  0.00000000  1
  Co  Co9  1  0.07007800  0.92992200  0.00000000  1
  Co  Co10  1  0.36033700  0.63966300  0.00000000  1
  Co  Co11  1  0.78518400  0.21481600  0.00000000  1
  Co  Co12  1  0.21481600  0.78518400  0.00000000  1
  Co  Co13  1  0.63966300  0.36033700  0.00000000  1
  O  O14  1  0.61688500  0.90308000  0.22995000  1
  O  O15  1  0.04988000  0.47832500  0.22639100  1
  O  O16  1  0.47832500  0.04988000  0.22639100  1
  O  O17  1  0.90308000  0.61688500  0.22995000  1
  O  O18  1  0.32152200  0.16938800  0.22536000  1
  O  O19  1  0.77689300  0.77689300  0.23398800  1
  O  O20  1  0.16938800  0.32152200  0.22536000  1
  O  O21  1  0.09692000  0.38311500  0.77005000  1
  O  O22  1  0.52167500  0.95012000  0.77360900  1
  O  O23  1  0.95012000  0.52167500  0.77360900  1
  O  O24  1  0.38311500  0.09692000  0.77005000  1
  O  O25  1  0.83061200  0.67847800  0.77464000  1
  O  O26  1  0.22310700  0.22310700  0.76601200  1
  O  O27  1  0.67847800  0.83061200  0.77464000  1
