# generated using pymatgen
data_LiMnO4
_symmetry_space_group_name_H-M   'P 1'
_cell_length_a   5.07546303
_cell_length_b   5.07546303
_cell_length_c   6.58266700
_cell_angle_alpha   90.00000000
_cell_angle_beta   90.00000000
_cell_angle_gamma   113.82272681
_symmetry_Int_Tables_number   1
_chemical_formula_structural   LiMnO4
_chemical_formula_sum   'Li2 Mn2 O8'
_cell_volume   155.12405668
_cell_formula_units_Z   2
loop_
 _symmetry_equiv_pos_site_id
 _symmetry_equiv_pos_as_xyz
  1  'x, y, z'
loop_
 _atom_site_type_symbol
 _atom_site_label
 _atom_site_symmetry_multiplicity
 _atom_site_fract_x
 _atom_site_fract_y
 _atom_site_fract_z
 _atom_site_occupancy
  Li  Li0  1  0.00000000  0.00000000  0.00000000  1
  Li  Li1  1  0.00000000  0.00000000  0.50000000  1
  Mn  Mn2  1  0.35417900  0.64582100  0.75000000  1
  Mn  Mn3  1  0.64582100  0.35417900  0.25000000  1
  O  O4  1  0.24507500  0.75492500  0.94912000  1
  O  O5  1  0.70574800  0.77675600  0.75000000  1
  O  O6  1  0.75492500  0.24507500  0.05088000  1
  O  O7  1  0.75492500  0.24507500  0.44912000  1
  O  O8  1  0.24507500  0.75492500  0.55088000  1
  O  O9  1  0.77675600  0.70574800  0.25000000  1
  O  O10  1  0.22324400  0.29425200  0.75000000  1
  O  O11  1  0.29425200  0.22324400  0.25000000  1
