# generated using pymatgen
data_Li2Fe2(MoO4)3
_symmetry_space_group_name_H-M   'P 1'
_cell_length_a   5.23245000
_cell_length_b   10.73514800
_cell_length_c   20.97365736
_cell_angle_alpha   59.24633170
_cell_angle_beta   90.00000000
_cell_angle_gamma   90.00000000
_symmetry_Int_Tables_number   1
_chemical_formula_structural   Li2Fe2(MoO4)3
_chemical_formula_sum   'Li8 Fe8 Mo12 O48'
_cell_volume   1012.44009952
_cell_formula_units_Z   4
loop_
 _symmetry_equiv_pos_site_id
 _symmetry_equiv_pos_as_xyz
  1  'x, y, z'
loop_
 _atom_site_type_symbol
 _atom_site_label
 _atom_site_symmetry_multiplicity
 _atom_site_fract_x
 _atom_site_fract_y
 _atom_site_fract_z
 _atom_site_occupancy
  Li  Li0  1  0.99491100  0.04928300  0.20062300  1
  Li  Li1  1  0.49689800  0.95196800  0.30083500  1
  Li  Li2  1  0.50310200  0.95196800  0.80083500  1
  Li  Li3  1  0.00508900  0.04928300  0.70062300  1
  Li  Li4  1  0.50261700  0.95239300  0.47131900  1
  Li  Li5  1  0.49738300  0.95239300  0.97131900  1
  Li  Li6  1  0.85569500  0.49998600  0.24916100  1
  Li  Li7  1  0.14430500  0.49998600  0.74916100  1
  Fe  Fe8  1  0.00139700  0.04398400  0.02647100  1
  Fe  Fe9  1  0.00151600  0.39745800  0.52791800  1
  Fe  Fe10  1  0.50117700  0.60534300  0.97243300  1
  Fe  Fe11  1  0.99860300  0.04398400  0.52647100  1
  Fe  Fe12  1  0.49882300  0.60534300  0.47243300  1
  Fe  Fe13  1  0.99848400  0.39745800  0.02791800  1
  Fe  Fe14  1  0.35223700  0.49846100  0.25038500  1
  Fe  Fe15  1  0.64776300  0.49846100  0.75038500  1
  Mo  Mo16  1  0.02742100  0.12909800  0.34355200  1
  Mo  Mo17  1  0.52779500  0.87168600  0.15613000  1
  Mo  Mo18  1  0.46876900  0.31503600  0.65676100  1
  Mo  Mo19  1  0.96971300  0.68406500  0.84321200  1
  Mo  Mo20  1  0.47220500  0.87168600  0.65613000  1
  Mo  Mo21  1  0.97257900  0.12909800  0.84355200  1
  Mo  Mo22  1  0.03028700  0.68406500  0.34321200  1
  Mo  Mo23  1  0.53123100  0.31503600  0.15676100  1
  Mo  Mo24  1  0.53126600  0.30674800  0.44194100  1
  Mo  Mo25  1  0.03114000  0.69274600  0.05833900  1
  Mo  Mo26  1  0.96886000  0.69274600  0.55833900  1
  Mo  Mo27  1  0.46873400  0.30674800  0.94194100  1
  O  O28  1  0.10958100  0.32081000  0.29485200  1
  O  O29  1  0.59834700  0.67926600  0.20505700  1
  O  O30  1  0.39823900  0.40986600  0.70458200  1
  O  O31  1  0.89320600  0.59053800  0.79532700  1
  O  O32  1  0.40165300  0.67926600  0.70505700  1
  O  O33  1  0.89041900  0.32081000  0.79485200  1
  O  O34  1  0.10679400  0.59053800  0.29532700  1
  O  O35  1  0.60176100  0.40986600  0.20458200  1
  O  O36  1  0.83258900  0.08972500  0.28610500  1
  O  O37  1  0.33448700  0.91080800  0.21328300  1
  O  O38  1  0.66594800  0.16392600  0.71206900  1
  O  O39  1  0.16562400  0.83581800  0.78712000  1
  O  O40  1  0.66551300  0.91080800  0.71328300  1
  O  O41  1  0.16741100  0.08972500  0.78610500  1
  O  O42  1  0.83437600  0.83581800  0.28712000  1
  O  O43  1  0.33405200  0.16392600  0.21206900  1
  O  O44  1  0.81300700  0.24724200  0.50320900  1
  O  O45  1  0.30749600  0.75027100  0.99779000  1
  O  O46  1  0.69250400  0.75027100  0.49779000  1
  O  O47  1  0.18699300  0.24724200  0.00320900  1
  O  O48  1  0.83834800  0.08675900  0.42552500  1
  O  O49  1  0.33188700  0.91577200  0.07647800  1
  O  O50  1  0.66302300  0.43396600  0.57452200  1
  O  O51  1  0.16392200  0.56447200  0.92546400  1
  O  O52  1  0.66811300  0.91577200  0.57647800  1
  O  O53  1  0.16165200  0.08675900  0.92552500  1
  O  O54  1  0.83607800  0.56447200  0.42546400  1
  O  O55  1  0.33697700  0.43396600  0.07452200  1
  O  O56  1  0.60490900  0.40497100  0.34527400  1
  O  O57  1  0.11212000  0.59518900  0.15474000  1
  O  O58  1  0.88788000  0.59518900  0.65474000  1
  O  O59  1  0.39509100  0.40497100  0.84527400  1
  O  O60  1  0.33486000  0.42246700  0.46214100  1
  O  O61  1  0.83355800  0.57640900  0.03808300  1
  O  O62  1  0.16198400  0.84615000  0.53856900  1
  O  O63  1  0.66708000  0.15576000  0.96240400  1
  O  O64  1  0.16644200  0.57640900  0.53808300  1
  O  O65  1  0.66514000  0.42246700  0.96214100  1
  O  O66  1  0.33292000  0.15576000  0.46240400  1
  O  O67  1  0.83801600  0.84615000  0.03856900  1
  O  O68  1  0.30219800  0.01452700  0.37281400  1
  O  O69  1  0.81126300  0.98773600  0.12554500  1
  O  O70  1  0.18716200  0.26078500  0.62574300  1
  O  O71  1  0.68873100  0.73851000  0.87422500  1
  O  O72  1  0.18873700  0.98773600  0.62554500  1
  O  O73  1  0.69780200  0.01452700  0.87281400  1
  O  O74  1  0.31126900  0.73851000  0.37422500  1
  O  O75  1  0.81283800  0.26078500  0.12574300  1
