# generated using pymatgen
data_Li32Mn13Cr3O48
_symmetry_space_group_name_H-M   'P 1'
_cell_length_a   5.00619000
_cell_length_b   8.69457052
_cell_length_c   19.42995975
_cell_angle_alpha   98.44501824
_cell_angle_beta   94.69589344
_cell_angle_gamma   89.98010529
_symmetry_Int_Tables_number   1
_chemical_formula_structural   Li32Mn13Cr3O48
_chemical_formula_sum   'Li32 Mn13 Cr3 O48'
_cell_volume   833.68497174
_cell_formula_units_Z   1
loop_
 _symmetry_equiv_pos_site_id
 _symmetry_equiv_pos_as_xyz
  1  'x, y, z'
loop_
 _atom_site_type_symbol
 _atom_site_label
 _atom_site_symmetry_multiplicity
 _atom_site_fract_x
 _atom_site_fract_y
 _atom_site_fract_z
 _atom_site_occupancy
  Li  Li0  1  0.99239500  0.16827300  0.24973900  1
  Li  Li1  1  0.87271100  0.37430200  0.37516400  1
  Li  Li2  1  0.75171900  0.24836100  0.00011500  1
  Li  Li3  1  0.74212300  0.92049400  0.00001800  1
  Li  Li4  1  0.99070100  0.16922500  0.75046000  1
  Li  Li5  1  0.75653500  0.58023600  0.50004700  1
  Li  Li6  1  0.87794300  0.37550000  0.87477900  1
  Li  Li7  1  0.74917300  0.25102500  0.49979000  1
  Li  Li8  1  0.74385400  0.91924000  0.50017800  1
  Li  Li9  1  0.62491300  0.12492800  0.12494200  1
  Li  Li10  1  0.75650800  0.58075900  0.99983300  1
  Li  Li11  1  0.50927200  0.33072500  0.24944400  1
  Li  Li12  1  0.62738600  0.12429500  0.62474600  1
  Li  Li13  1  0.50001100  0.99977600  0.24989200  1
  Li  Li14  1  0.48983700  0.66905000  0.24977000  1
  Li  Li15  1  0.50776400  0.33393400  0.74996300  1
  Li  Li16  1  0.37471000  0.87386800  0.37479200  1
  Li  Li17  1  0.49841200  0.99888800  0.74977900  1
  Li  Li18  1  0.25011300  0.74991700  0.00003900  1
  Li  Li19  1  0.49063900  0.66722000  0.74930300  1
  Li  Li20  1  0.24122100  0.42000500  0.00073200  1
  Li  Li21  1  0.37599000  0.87543900  0.87527300  1
  Li  Li22  1  0.25528100  0.07899900  0.49949000  1
  Li  Li23  1  0.25255500  0.75088200  0.50023500  1
  Li  Li24  1  0.12481200  0.62518300  0.12504400  1
  Li  Li25  1  0.24200600  0.42015200  0.50038300  1
  Li  Li26  1  0.00903100  0.83052300  0.25042400  1
  Li  Li27  1  0.25832500  0.08028900  0.99973500  1
  Li  Li28  1  0.12549900  0.62430100  0.62527200  1
  Li  Li29  1  0.99873600  0.50184700  0.24978700  1
  Li  Li30  1  0.00834400  0.83208400  0.75038000  1
  Li  Li31  1  0.00312300  0.49937300  0.75024000  1
  Mn  Mn32  1  0.87298500  0.70983000  0.37449900  1
  Mn  Mn33  1  0.87566700  0.04146700  0.37497200  1
  Mn  Mn34  1  0.87355600  0.70856900  0.87507700  1
  Mn  Mn35  1  0.87695300  0.04036200  0.87569400  1
  Mn  Mn36  1  0.62550900  0.79146900  0.12484600  1
  Mn  Mn37  1  0.62457800  0.45852600  0.12483600  1
  Mn  Mn38  1  0.62492500  0.79149500  0.62518100  1
  Mn  Mn39  1  0.62657100  0.46019000  0.62577000  1
  Mn  Mn40  1  0.37628700  0.20718400  0.37559200  1
  Mn  Mn41  1  0.37327100  0.54247100  0.87428400  1
  Mn  Mn42  1  0.12469000  0.95837000  0.12492100  1
  Mn  Mn43  1  0.12549800  0.29133500  0.12490700  1
  Mn  Mn44  1  0.12275800  0.95693300  0.62452200  1
  Cr  Cr45  1  0.37061800  0.53932800  0.37503800  1
  Cr  Cr46  1  0.37971600  0.21024800  0.87480500  1
  Cr  Cr47  1  0.13141200  0.28945300  0.62507300  1
  O  O48  1  0.96454500  0.10641800  0.06932700  1
  O  O49  1  0.92841700  0.78526700  0.06903700  1
  O  O50  1  0.92804500  0.42734500  0.06813100  1
  O  O51  1  0.96197500  0.10202200  0.56852800  1
  O  O52  1  0.82187500  0.96455000  0.18080800  1
  O  O53  1  0.82210700  0.32273300  0.18173100  1
  O  O54  1  0.92842500  0.78403300  0.56928600  1
  O  O55  1  0.92777600  0.42654300  0.56835000  1
  O  O56  1  0.78520800  0.64345500  0.18049500  1
  O  O57  1  0.71247800  0.85757800  0.31922000  1
  O  O58  1  0.82071300  0.96496300  0.68094900  1
  O  O59  1  0.82184500  0.32345300  0.68171800  1
  O  O60  1  0.67703000  0.53652100  0.31919900  1
  O  O61  1  0.67834800  0.17766400  0.31827800  1
  O  O62  1  0.78764800  0.64463300  0.68089500  1
  O  O63  1  0.71445100  0.85652600  0.81942800  1
  O  O64  1  0.46391400  0.60628400  0.06905000  1
  O  O65  1  0.57274100  0.71426300  0.43102700  1
  O  O66  1  0.57172600  0.07142300  0.43167900  1
  O  O67  1  0.67799600  0.53516600  0.81942500  1
  O  O68  1  0.67459100  0.17603400  0.81819700  1
  O  O69  1  0.42799500  0.92745000  0.06828700  1
  O  O70  1  0.42817400  0.28519800  0.06905300  1
  O  O71  1  0.53776600  0.38983300  0.43148900  1
  O  O72  1  0.46417700  0.60707000  0.56934500  1
  O  O73  1  0.57150000  0.71452700  0.93084100  1
  O  O74  1  0.57724200  0.07025500  0.93260600  1
  O  O75  1  0.32222100  0.82255700  0.18155500  1
  O  O76  1  0.32189600  0.46457400  0.18080400  1
  O  O77  1  0.42778600  0.92782800  0.56851400  1
  O  O78  1  0.42456700  0.28717200  0.56950700  1
  O  O79  1  0.53120600  0.39234900  0.93061200  1
  O  O80  1  0.28597100  0.14363000  0.18077600  1
  O  O81  1  0.21798600  0.35693700  0.31950000  1
  O  O82  1  0.32220900  0.82224700  0.68182800  1
  O  O83  1  0.32719800  0.46798300  0.68161000  1
  O  O84  1  0.17304800  0.67974900  0.31749200  1
  O  O85  1  0.17783900  0.03502900  0.31911300  1
  O  O86  1  0.28133900  0.14401500  0.68069500  1
  O  O87  1  0.21137200  0.36015300  0.81807900  1
  O  O88  1  0.07603700  0.57479600  0.43157100  1
  O  O89  1  0.07173300  0.21500400  0.43082400  1
  O  O90  1  0.17787500  0.67880900  0.81839300  1
  O  O91  1  0.17783200  0.03632900  0.81902100  1
  O  O92  1  0.03621800  0.89391800  0.43054800  1
  O  O93  1  0.07132800  0.57226100  0.93171900  1
  O  O94  1  0.07158500  0.21424600  0.93078900  1
  O  O95  1  0.03741400  0.89288300  0.93086200  1
