# generated using pymatgen
data_Li4MnCo2O7
_symmetry_space_group_name_H-M   'P 1'
_cell_length_a   6.70235558
_cell_length_b   6.70235558
_cell_length_c   14.52424445
_cell_angle_alpha   68.08427564
_cell_angle_beta   68.08427564
_cell_angle_gamma   24.92207160
_symmetry_Int_Tables_number   1
_chemical_formula_structural   Li4MnCo2O7
_chemical_formula_sum   'Li8 Mn2 Co4 O14'
_cell_volume   254.05515428
_cell_formula_units_Z   2
loop_
 _symmetry_equiv_pos_site_id
 _symmetry_equiv_pos_as_xyz
  1  'x, y, z'
loop_
 _atom_site_type_symbol
 _atom_site_label
 _atom_site_symmetry_multiplicity
 _atom_site_fract_x
 _atom_site_fract_y
 _atom_site_fract_z
 _atom_site_occupancy
  Li  Li0  1  0.28151800  0.28151800  0.07099500  1
  Li  Li1  1  0.85442800  0.85442800  0.22102100  1
  Li  Li2  1  0.42472700  0.42472700  0.36415300  1
  Li  Li3  1  0.72086900  0.72086900  0.92124500  1
  Li  Li4  1  0.14493000  0.14493000  0.77945800  1
  Li  Li5  1  0.00295500  0.00295500  0.50122600  1
  Li  Li6  1  0.57235700  0.57235700  0.63911300  1
  Li  Li7  1  0.71347400  0.71347400  0.43005300  1
  Mn  Mn8  1  0.00041300  0.00041300  0.99717500  1
  Mn  Mn9  1  0.57381900  0.57381900  0.14645900  1
  Co  Co10  1  0.15251300  0.15251300  0.29732300  1
  Co  Co11  1  0.27440700  0.27440700  0.56486300  1
  Co  Co12  1  0.86059500  0.86059500  0.70817500  1
  Co  Co13  1  0.42304400  0.42304400  0.85549800  1
  O  O14  1  0.44667800  0.44667800  0.09843100  1
  O  O15  1  0.00630200  0.00630200  0.23750900  1
  O  O16  1  0.57316400  0.57316400  0.38501000  1
  O  O17  1  0.85708900  0.85708900  0.95998800  1
  O  O18  1  0.29122900  0.29122900  0.81398000  1
  O  O19  1  0.15055500  0.15055500  0.53947500  1
  O  O20  1  0.72659400  0.72659400  0.66756800  1
  O  O21  1  0.13761800  0.13761800  0.05115900  1
  O  O22  1  0.69753400  0.69753400  0.18406800  1
  O  O23  1  0.28055000  0.28055000  0.31554300  1
  O  O24  1  0.56351100  0.56351100  0.90140800  1
  O  O25  1  0.99387200  0.99387200  0.75685200  1
  O  O26  1  0.85135200  0.85135200  0.47662200  1
  O  O27  1  0.42390000  0.42390000  0.61562900  1
