# generated using pymatgen
data_Li3MnV(PO4)3
_symmetry_space_group_name_H-M   'P 1'
_cell_length_a   8.65645700
_cell_length_b   8.67394906
_cell_length_c   15.12546254
_cell_angle_alpha   89.41363356
_cell_angle_beta   105.53075435
_cell_angle_gamma   118.72760994
_symmetry_Int_Tables_number   1
_chemical_formula_structural   Li3MnV(PO4)3
_chemical_formula_sum   'Li12 Mn4 V4 P12 O48'
_cell_volume   950.07420032
_cell_formula_units_Z   4
loop_
 _symmetry_equiv_pos_site_id
 _symmetry_equiv_pos_as_xyz
  1  'x, y, z'
loop_
 _atom_site_type_symbol
 _atom_site_label
 _atom_site_symmetry_multiplicity
 _atom_site_fract_x
 _atom_site_fract_y
 _atom_site_fract_z
 _atom_site_occupancy
  Li  Li0  1  0.75510700  0.70227600  0.31555200  1
  Li  Li1  1  0.70960900  0.81538800  0.55217800  1
  Li  Li2  1  0.71705700  0.31149500  0.05164900  1
  Li  Li3  1  0.25099500  0.82696600  0.18522000  1
  Li  Li4  1  0.67984300  0.78780300  0.83075000  1
  Li  Li5  1  0.67883500  0.29062300  0.32772200  1
  Li  Li6  1  0.22260100  0.74151500  0.63399700  1
  Li  Li7  1  0.21631200  0.22802300  0.13312500  1
  Li  Li8  1  0.74447000  0.18114700  0.81660100  1
  Li  Li9  1  0.25018800  0.32022200  0.68974500  1
  Li  Li10  1  0.18102100  0.64193500  0.97862400  1
  Li  Li11  1  0.17605700  0.13400100  0.47969100  1
  Mn  Mn12  1  0.85917700  0.71483600  0.07357700  1
  Mn  Mn13  1  0.35551600  0.96888200  0.81959400  1
  Mn  Mn14  1  0.85609900  0.21845900  0.57242000  1
  Mn  Mn15  1  0.13677400  0.77524100  0.42390100  1
  V  V16  1  0.64374000  0.53118100  0.68153500  1
  V  V17  1  0.35397400  0.46677600  0.31972700  1
  V  V18  1  0.63924800  0.02367400  0.17971100  1
  V  V19  1  0.14020700  0.28644000  0.92330500  1
  P  P20  1  0.95028000  0.99194800  0.73353400  1
  P  P21  1  0.94871700  0.48451800  0.23341500  1
  P  P22  1  0.25569500  0.97941500  0.02155900  1
  P  P23  1  0.53178700  0.89728700  0.37500100  1
  P  P24  1  0.45425500  0.59496200  0.12327900  1
  P  P25  1  0.75428400  0.52254200  0.47646700  1
  P  P26  1  0.25544400  0.47955600  0.52465700  1
  P  P27  1  0.53887000  0.39679500  0.87570800  1
  P  P28  1  0.45682200  0.10103500  0.62723700  1
  P  P29  1  0.75855400  0.02068200  0.97927700  1
  P  P30  1  0.04497600  0.51894500  0.76430900  1
  P  P31  1  0.04121000  0.01118700  0.26525000  1
  O  O32  1  0.83962500  0.97240500  0.24148100  1
  O  O33  1  0.91762000  0.54005800  0.13356200  1
  O  O34  1  0.92390100  0.59165300  0.30367700  1
  O  O35  1  0.67085800  0.98314100  0.47092200  1
  O  O36  1  0.92043000  0.70376300  0.46892500  1
  O  O37  1  0.64899000  0.64395600  0.12365000  1
  O  O38  1  0.44195600  0.76282800  0.14585700  1
  O  O39  1  0.54205800  0.72964000  0.34907600  1
  O  O40  1  0.79178300  0.79875900  0.72660500  1
  O  O41  1  0.79190200  0.28952100  0.22348100  1
  O  O42  1  0.10297200  0.79545900  0.03660600  1
  O  O43  1  0.33094500  0.84481400  0.36957400  1
  O  O44  1  0.06110100  0.90026200  0.19439900  1
  O  O45  1  0.29620700  0.99414700  0.53920900  1
  O  O46  1  0.81284500  0.87346100  0.99613200  1
  O  O47  1  0.69751400  0.57113100  0.55546900  1
  O  O48  1  0.29950400  0.49435900  0.03136500  1
  O  O49  1  0.42712100  0.97808700  0.70567500  1
  O  O50  1  0.61226900  0.95064400  0.88229200  1
  O  O51  1  0.80554000  0.37368400  0.49134900  1
  O  O52  1  0.69174400  0.06197100  0.05594900  1
  O  O53  1  0.08156400  0.96372300  0.36586100  1
  O  O54  1  0.41132100  0.46915400  0.19853900  1
  O  O55  1  0.60105900  0.45299100  0.38081400  1
  O  O56  1  0.84536000  0.48371000  0.73971900  1
  O  O57  1  0.14285300  0.50930500  0.26105700  1
  O  O58  1  0.41854100  0.55872800  0.61579900  1
  O  O59  1  0.41811500  0.05828900  0.11317000  1
  O  O60  1  0.90661500  0.04299700  0.63317100  1
  O  O61  1  0.58991000  0.52984300  0.80428500  1
  O  O62  1  0.30506600  0.92790400  0.93951400  1
  O  O63  1  0.19376000  0.62092400  0.50989500  1
  O  O64  1  0.57506300  0.02664100  0.30122400  1
  O  O65  1  0.30770700  0.43313400  0.44306900  1
  O  O66  1  0.19394100  0.11943500  0.00544100  1
  O  O67  1  0.93750000  0.10492400  0.80728800  1
  O  O68  1  0.67733600  0.48066800  0.97208600  1
  O  O69  1  0.92349400  0.20313100  0.97515500  1
  O  O70  1  0.65010400  0.15006900  0.62427800  1
  O  O71  1  0.18727200  0.71433600  0.76151400  1
  O  O72  1  0.18092100  0.20647300  0.26331700  1
  O  O73  1  0.44719100  0.26937000  0.65099200  1
  O  O74  1  0.54748600  0.22639600  0.85132200  1
  O  O75  1  0.10049700  0.29510600  0.53779200  1
  O  O76  1  0.33850400  0.34487100  0.86766900  1
  O  O77  1  0.06337000  0.40622900  0.69394900  1
  O  O78  1  0.08683900  0.47362000  0.86495000  1
  O  O79  1  0.14182800  0.01553400  0.75355900  1
