# generated using pymatgen
data_Li7V3P8O29
_symmetry_space_group_name_H-M   'P 1'
_cell_length_a   9.86192100
_cell_length_b   9.86806455
_cell_length_c   13.95768774
_cell_angle_alpha   89.85024178
_cell_angle_beta   90.38262226
_cell_angle_gamma   119.73230284
_symmetry_Int_Tables_number   1
_chemical_formula_structural   Li7V3P8O29
_chemical_formula_sum   'Li14 V6 P16 O58'
_cell_volume   1179.48652703
_cell_formula_units_Z   2
loop_
 _symmetry_equiv_pos_site_id
 _symmetry_equiv_pos_as_xyz
  1  'x, y, z'
loop_
 _atom_site_type_symbol
 _atom_site_label
 _atom_site_symmetry_multiplicity
 _atom_site_fract_x
 _atom_site_fract_y
 _atom_site_fract_z
 _atom_site_occupancy
  Li  Li0  1  0.91316800  0.68811300  0.43562300  1
  Li  Li1  1  0.31509000  0.22881300  0.43708700  1
  Li  Li2  1  0.66757500  0.33714800  0.61376200  1
  Li  Li3  1  0.67283100  0.34444700  0.11538100  1
  Li  Li4  1  0.31948800  0.08834700  0.94167800  1
  Li  Li5  1  0.90702900  0.22910600  0.93892700  1
  Li  Li6  1  0.22282200  0.91270500  0.55732700  1
  Li  Li7  1  0.77632500  0.08993100  0.43281200  1
  Li  Li8  1  0.09152800  0.76763000  0.06532300  1
  Li  Li9  1  0.34053500  0.67076600  0.88785800  1
  Li  Li10  1  0.68034800  0.77558700  0.55902500  1
  Li  Li11  1  0.08975600  0.31490700  0.55936400  1
  Li  Li12  1  0.22438700  0.31962300  0.06259800  1
  Li  Li13  1  0.91221500  0.93264500  0.99363500  1
  V  V14  1  0.43684400  0.00061900  0.75047700  1
  V  V15  1  0.56807000  0.99480500  0.24741200  1
  V  V16  1  0.00097200  0.56729800  0.25197500  1
  V  V17  1  0.99989800  0.43351100  0.75139200  1
  V  V18  1  0.57038900  0.56643100  0.75443500  1
  V  V19  1  0.43639700  0.43809100  0.24716300  1
  P  P20  1  0.77499200  0.69034800  0.15750800  1
  P  P21  1  0.90977800  0.67946900  0.65958600  1
  P  P22  1  0.32349500  0.23302500  0.65735700  1
  P  P23  1  0.66133700  0.32801100  0.87557900  1
  P  P24  1  0.66540800  0.33274000  0.37267100  1
  P  P25  1  0.31977000  0.09094800  0.15743700  1
  P  P26  1  0.23729300  0.91781800  0.34226800  1
  P  P27  1  0.90633100  0.22662600  0.15873200  1
  P  P28  1  0.09270600  0.77442200  0.84572100  1
  P  P29  1  0.76670300  0.08991600  0.65341800  1
  P  P30  1  0.68975400  0.91217400  0.83910000  1
  P  P31  1  0.33870800  0.66764400  0.62814700  1
  P  P32  1  0.33344200  0.66588700  0.12673600  1
  P  P33  1  0.68019400  0.76566700  0.34252100  1
  P  P34  1  0.09162900  0.32187900  0.34210600  1
  P  P35  1  0.23274700  0.31984800  0.84316800  1
  O  O36  1  0.75550000  0.75504400  0.43439700  1
  O  O37  1  0.74955800  0.67207400  0.65950300  1
  O  O38  1  0.01118700  0.78183100  0.93437400  1
  O  O39  1  0.91774900  0.66660400  0.15797800  1
  O  O40  1  0.62546800  0.52556100  0.16773300  1
  O  O41  1  0.65820200  0.47327600  0.82982500  1
  O  O42  1  0.48875700  0.37487200  0.67258300  1
  O  O43  1  0.24526900  0.23813600  0.93152500  1
  O  O44  1  0.33515900  0.25413000  0.15461100  1
  O  O45  1  0.81298800  0.48579900  0.33995300  1
  O  O46  1  0.88060600  0.51175500  0.67490000  1
  O  O47  1  0.51723300  0.33345900  0.32618400  1
  O  O48  1  0.64205600  0.32160200  0.98198200  1
  O  O49  1  0.64899300  0.32675400  0.48021700  1
  O  O50  1  0.51292300  0.18017000  0.83120400  1
  O  O51  1  0.88662100  0.37109800  0.16547400  1
  O  O52  1  0.81123900  0.32829300  0.84335100  1
  O  O53  1  0.33329100  0.08149100  0.65717000  1
  O  O54  1  0.21707000  0.00826200  0.25121200  1
  O  O55  1  0.25698200  0.01108400  0.43188100  1
  O  O56  1  0.23231000  0.99684200  0.07026400  1
  O  O57  1  0.48370000  0.10958200  0.17044300  1
  O  O58  1  0.67094800  0.18602300  0.33506800  1
  O  O59  1  0.25661900  0.92268200  0.83996800  1
  O  O60  1  0.62760000  0.11823800  0.67431800  1
  O  O61  1  0.91818500  0.24833700  0.65505500  1
  O  O62  1  0.00110100  0.78402800  0.75148400  1
  O  O63  1  0.00246400  0.75651300  0.57069900  1
  O  O64  1  0.00198900  0.23827700  0.43096500  1
  O  O65  1  0.09051200  0.75790700  0.34468000  1
  O  O66  1  0.38570400  0.90807300  0.32026400  1
  O  O67  1  0.74184500  0.07996300  0.16525400  1
  O  O68  1  0.34512700  0.81990900  0.67548600  1
  O  O69  1  0.52805900  0.90426300  0.83426700  1
  O  O70  1  0.79443900  0.00848400  0.91962800  1
  O  O71  1  0.74350900  0.99847700  0.56291700  1
  O  O72  1  0.77909800  0.98986700  0.74019600  1
  O  O73  1  0.66628300  0.91525800  0.33992900  1
  O  O74  1  0.18507100  0.66812200  0.16057700  1
  O  O75  1  0.11237800  0.62955900  0.83435000  1
  O  O76  1  0.48009400  0.80634400  0.17060500  1
  O  O77  1  0.33491500  0.65617900  0.01928900  1
  O  O78  1  0.35462600  0.68781100  0.52272400  1
  O  O79  1  0.48411600  0.66130000  0.67299300  1
  O  O80  1  0.10760400  0.48185300  0.32765300  1
  O  O81  1  0.18790100  0.52167500  0.66346400  1
  O  O82  1  0.66264900  0.74588400  0.83959000  1
  O  O83  1  0.79408600  0.78395400  0.25662100  1
  O  O84  1  0.77259300  0.78557800  0.07599600  1
  O  O85  1  0.52017300  0.61997900  0.32455700  1
  O  O86  1  0.32892500  0.51056400  0.16717800  1
  O  O87  1  0.37549300  0.48529500  0.82936000  1
  O  O88  1  0.08283500  0.33052100  0.84378900  1
  O  O89  1  0.99195400  0.22189300  0.06996500  1
  O  O90  1  0.99798700  0.21352300  0.25021100  1
  O  O91  1  0.25193600  0.32986300  0.33867100  1
  O  O92  1  0.24427500  0.24717600  0.56861300  1
  O  O93  1  0.21926800  0.21793300  0.74971000  1
