# generated using pymatgen
data_LiV3OF11
_symmetry_space_group_name_H-M   'P 1'
_cell_length_a   5.23996300
_cell_length_b   5.44368173
_cell_length_c   15.42757813
_cell_angle_alpha   99.98891259
_cell_angle_beta   89.92283351
_cell_angle_gamma   90.81204552
_symmetry_Int_Tables_number   1
_chemical_formula_structural   LiV3OF11
_chemical_formula_sum   'Li2 V6 O2 F22'
_cell_volume   433.35226741
_cell_formula_units_Z   2
loop_
 _symmetry_equiv_pos_site_id
 _symmetry_equiv_pos_as_xyz
  1  'x, y, z'
loop_
 _atom_site_type_symbol
 _atom_site_label
 _atom_site_symmetry_multiplicity
 _atom_site_fract_x
 _atom_site_fract_y
 _atom_site_fract_z
 _atom_site_occupancy
  Li  Li0  1  0.96762700  0.70098600  0.73411400  1
  Li  Li1  1  0.03237300  0.29901400  0.26588600  1
  V  V2  1  0.01371100  0.19327000  0.83773000  1
  V  V3  1  0.50000000  0.00000000  0.50000000  1
  V  V4  1  0.51942000  0.33931600  0.16287500  1
  V  V5  1  0.98628900  0.80673000  0.16227000  1
  V  V6  1  0.48058000  0.66068400  0.83712500  1
  V  V7  1  0.00000000  0.50000000  0.50000000  1
  O  O8  1  0.18780100  0.46450800  0.80825400  1
  O  O9  1  0.81219900  0.53549200  0.19174600  1
  F  F10  1  0.30564100  0.62059300  0.14108900  1
  F  F11  1  0.69435900  0.37940700  0.85891100  1
  F  F12  1  0.07750700  0.92973200  0.27780900  1
  F  F13  1  0.41491500  0.06735600  0.61263400  1
  F  F14  1  0.08572100  0.22512300  0.95014000  1
  F  F15  1  0.58508500  0.93264400  0.38736600  1
  F  F16  1  0.57250800  0.24872800  0.04937500  1
  F  F17  1  0.92249300  0.07026800  0.72219100  1
  F  F18  1  0.19640300  0.78510900  0.47564400  1
  F  F19  1  0.29820800  0.94627600  0.80909900  1
  F  F20  1  0.19330900  0.12132300  0.14600900  1
  F  F21  1  0.69976700  0.70959400  0.52370500  1
  F  F22  1  0.80669100  0.87867700  0.85399100  1
  F  F23  1  0.38871500  0.40573200  0.27628200  1
  F  F24  1  0.08980200  0.57462700  0.61524500  1
  F  F25  1  0.42749200  0.75127200  0.95062500  1
  F  F26  1  0.91427900  0.77487700  0.04986000  1
  F  F27  1  0.91019800  0.42537300  0.38475500  1
  F  F28  1  0.61128500  0.59426800  0.72371800  1
  F  F29  1  0.30023300  0.29040600  0.47629500  1
  F  F30  1  0.70179200  0.05372400  0.19090100  1
  F  F31  1  0.80359700  0.21489100  0.52435600  1
