# generated using pymatgen
data_Li3MnCo3O8
_symmetry_space_group_name_H-M   'P 1'
_cell_length_a   5.80664778
_cell_length_b   10.28184938
_cell_length_c   5.84586525
_cell_angle_alpha   73.60264718
_cell_angle_beta   60.78792614
_cell_angle_gamma   74.36468661
_symmetry_Int_Tables_number   1
_chemical_formula_structural   Li3MnCo3O8
_chemical_formula_sum   'Li6 Mn2 Co6 O16'
_cell_volume   288.59811785
_cell_formula_units_Z   2
loop_
 _symmetry_equiv_pos_site_id
 _symmetry_equiv_pos_as_xyz
  1  'x, y, z'
loop_
 _atom_site_type_symbol
 _atom_site_label
 _atom_site_symmetry_multiplicity
 _atom_site_fract_x
 _atom_site_fract_y
 _atom_site_fract_z
 _atom_site_occupancy
  Li  Li0  1  0.75546400  0.74979200  0.75068200  1
  Li  Li1  1  0.24453200  0.25017100  0.24945200  1
  Li  Li2  1  0.25158500  0.74819600  0.24490100  1
  Li  Li3  1  0.74851000  0.25181000  0.75498500  1
  Li  Li4  1  0.75994800  0.74776400  0.24236200  1
  Li  Li5  1  0.24011200  0.25220900  0.75759500  1
  Mn  Mn6  1  0.49992700  0.49998300  0.49999800  1
  Mn  Mn7  1  0.99987700  0.00005900  0.00014000  1
  Co  Co8  1  0.99998300  0.49999900  0.49998900  1
  Co  Co9  1  0.50004800  0.99997500  0.99997500  1
  Co  Co10  1  0.50003900  0.50000000  0.99995800  1
  Co  Co11  1  0.00003000  0.00000500  0.50004100  1
  Co  Co12  1  0.99998000  0.49997900  0.00003100  1
  Co  Co13  1  0.49998300  0.99998900  0.50004500  1
  O  O14  1  0.88557700  0.88675400  0.35680900  1
  O  O15  1  0.37353400  0.38677600  0.85355700  1
  O  O16  1  0.62643700  0.61319200  0.14642400  1
  O  O17  1  0.11445100  0.11325100  0.64320800  1
  O  O18  1  0.11284500  0.60479400  0.15415400  1
  O  O19  1  0.61966300  0.10666600  0.66696700  1
  O  O20  1  0.38041400  0.89333800  0.33299200  1
  O  O21  1  0.88719600  0.39519400  0.84576300  1
  O  O22  1  0.88130500  0.88611200  0.87657500  1
  O  O23  1  0.34576600  0.39324700  0.39437000  1
  O  O24  1  0.35743200  0.89283100  0.88998400  1
  O  O25  1  0.86039600  0.39275500  0.38881600  1
  O  O26  1  0.13953300  0.60725700  0.61116100  1
  O  O27  1  0.64249600  0.10722300  0.11006100  1
  O  O28  1  0.65420100  0.60674400  0.60555400  1
  O  O29  1  0.11873400  0.11393600  0.12345200  1
