# generated using pymatgen
data_Li9Mn2Co5O16
_symmetry_space_group_name_H-M   'P 1'
_cell_length_a   2.94340000
_cell_length_b   9.86558832
_cell_length_c   10.51337776
_cell_angle_alpha   72.78278167
_cell_angle_beta   83.19274782
_cell_angle_gamma   87.24637455
_symmetry_Int_Tables_number   1
_chemical_formula_structural   Li9Mn2Co5O16
_chemical_formula_sum   'Li9 Mn2 Co5 O16'
_cell_volume   289.52837765
_cell_formula_units_Z   1
loop_
 _symmetry_equiv_pos_site_id
 _symmetry_equiv_pos_as_xyz
  1  'x, y, z'
loop_
 _atom_site_type_symbol
 _atom_site_label
 _atom_site_symmetry_multiplicity
 _atom_site_fract_x
 _atom_site_fract_y
 _atom_site_fract_z
 _atom_site_occupancy
  Li  Li0  1  0.92514000  0.68720700  0.13091900  1
  Li  Li1  1  0.42091200  0.17896400  0.13141000  1
  Li  Li2  1  0.31668300  0.56359600  0.37936800  1
  Li  Li3  1  0.81519300  0.05611000  0.36710300  1
  Li  Li4  1  0.68949900  0.43599600  0.62400100  1
  Li  Li5  1  0.19068100  0.93745800  0.62244600  1
  Li  Li6  1  0.06936000  0.31767600  0.87159200  1
  Li  Li7  1  0.56776700  0.81551400  0.87422000  1
  Li  Li8  1  0.38759800  0.88434000  0.24979300  1
  Mn  Mn9  1  0.99075700  0.99735000  0.00681000  1
  Mn  Mn10  1  0.12505200  0.62423900  0.74601300  1
  Co  Co11  1  0.49811400  0.49885600  0.99986400  1
  Co  Co12  1  0.87203800  0.37540400  0.25144900  1
  Co  Co13  1  0.76602500  0.75496700  0.48799500  1
  Co  Co14  1  0.24888700  0.24997400  0.50269600  1
  Co  Co15  1  0.61773700  0.12283700  0.75134900  1
  O  O16  1  0.48946200  0.86196100  0.05517300  1
  O  O17  1  0.95854600  0.35735600  0.05958900  1
  O  O18  1  0.83087000  0.71857100  0.33443600  1
  O  O19  1  0.33135300  0.22979700  0.31178100  1
  O  O20  1  0.19520100  0.60281700  0.56519900  1
  O  O21  1  0.71607400  0.10504500  0.56912700  1
  O  O22  1  0.56157800  0.47338000  0.81191400  1
  O  O23  1  0.05286100  0.97775900  0.81796800  1
  O  O24  1  0.41564600  0.52415900  0.18967700  1
  O  O25  1  0.91882300  0.03287000  0.17016200  1
  O  O26  1  0.78532200  0.39439900  0.44105800  1
  O  O27  1  0.31175900  0.89487600  0.44309500  1
  O  O28  1  0.18582600  0.26824500  0.69058300  1
  O  O29  1  0.69114200  0.77389300  0.67469400  1
  O  O30  1  0.50397000  0.13595700  0.93614900  1
  O  O31  1  0.05012400  0.64842600  0.93236800  1
