# generated using pymatgen
data_Li2Al2CrSbO8
_symmetry_space_group_name_H-M   'P 1'
_cell_length_a   5.81787869
_cell_length_b   5.81787869
_cell_length_c   9.55486017
_cell_angle_alpha   89.78119033
_cell_angle_beta   89.78119033
_cell_angle_gamma   60.28925034
_symmetry_Int_Tables_number   1
_chemical_formula_structural   Li2Al2CrSbO8
_chemical_formula_sum   'Li4 Al4 Cr2 Sb2 O16'
_cell_volume   280.89145010
_cell_formula_units_Z   2
loop_
 _symmetry_equiv_pos_site_id
 _symmetry_equiv_pos_as_xyz
  1  'x, y, z'
loop_
 _atom_site_type_symbol
 _atom_site_label
 _atom_site_symmetry_multiplicity
 _atom_site_fract_x
 _atom_site_fract_y
 _atom_site_fract_z
 _atom_site_occupancy
  Li  Li0  1  0.66848200  0.66848200  0.44432200  1
  Li  Li1  1  0.33234500  0.33234500  0.94795800  1
  Li  Li2  1  0.00020900  0.00020900  0.03548800  1
  Li  Li3  1  0.99831700  0.99831700  0.52988600  1
  Al  Al4  1  0.82976300  0.82976300  0.75895100  1
  Al  Al5  1  0.17081000  0.65955500  0.25883500  1
  Al  Al6  1  0.65955500  0.17081000  0.25883500  1
  Al  Al7  1  0.17062300  0.17062300  0.25898200  1
  Cr  Cr8  1  0.83019900  0.33978400  0.75849800  1
  Cr  Cr9  1  0.33978400  0.83019900  0.75849800  1
  Sb  Sb10  1  0.66814800  0.66814800  0.03496600  1
  Sb  Sb11  1  0.33346400  0.33346400  0.52895400  1
  O  O12  1  0.99025800  0.99025800  0.84925000  1
  O  O13  1  0.99983500  0.99983500  0.34044400  1
  O  O14  1  0.83651300  0.32859600  0.14671100  1
  O  O15  1  0.32859600  0.83651300  0.14671100  1
  O  O16  1  0.83613000  0.83613000  0.14785200  1
  O  O17  1  0.15772600  0.66960400  0.64156600  1
  O  O18  1  0.66960400  0.15772600  0.64156600  1
  O  O19  1  0.16263000  0.16263000  0.63715800  1
  O  O20  1  0.67600300  0.67600300  0.65366200  1
  O  O21  1  0.33410800  0.33410800  0.15919300  1
  O  O22  1  0.52256700  0.96591000  0.88759400  1
  O  O23  1  0.96591000  0.52256700  0.88759400  1
  O  O24  1  0.51682100  0.51682100  0.89052500  1
  O  O25  1  0.48152600  0.03666100  0.38246200  1
  O  O26  1  0.03666100  0.48152600  0.38246200  1
  O  O27  1  0.48320400  0.48320400  0.38327500  1
