# generated using pymatgen
data_Li7Mn5O12
_symmetry_space_group_name_H-M   'P 1'
_cell_length_a   6.49858371
_cell_length_b   10.39716354
_cell_length_c   6.90296758
_cell_angle_alpha   88.43537851
_cell_angle_beta   95.60886151
_cell_angle_gamma   72.51816628
_symmetry_Int_Tables_number   1
_chemical_formula_structural   Li7Mn5O12
_chemical_formula_sum   'Li14 Mn10 O24'
_cell_volume   441.94973463
_cell_formula_units_Z   2
loop_
 _symmetry_equiv_pos_site_id
 _symmetry_equiv_pos_as_xyz
  1  'x, y, z'
loop_
 _atom_site_type_symbol
 _atom_site_label
 _atom_site_symmetry_multiplicity
 _atom_site_fract_x
 _atom_site_fract_y
 _atom_site_fract_z
 _atom_site_occupancy
  Li  Li0  1  0.41523600  0.24851800  0.41800700  1
  Li  Li1  1  0.91817100  0.75145400  0.91527100  1
  Li  Li2  1  0.79546600  0.87340500  0.30525900  1
  Li  Li3  1  0.29699500  0.37228600  0.80806800  1
  Li  Li4  1  0.03629400  0.62777300  0.52534800  1
  Li  Li5  1  0.53796000  0.12657100  0.02799300  1
  Li  Li6  1  0.97574200  0.36562600  0.45992600  1
  Li  Li7  1  0.46316400  0.87703900  0.94665400  1
  Li  Li8  1  0.87034400  0.12290300  0.38670200  1
  Li  Li9  1  0.35762500  0.63438000  0.87348300  1
  Li  Li10  1  0.12554000  0.86654900  0.63592600  1
  Li  Li11  1  0.61733100  0.37306000  0.11941200  1
  Li  Li12  1  0.20798000  0.13349600  0.69740500  1
  Li  Li13  1  0.71590800  0.62700700  0.21396400  1
  Mn  Mn14  1  0.16645300  0.50001400  0.16670400  1
  Mn  Mn15  1  0.00223600  0.99870100  0.99007000  1
  Mn  Mn16  1  0.49674500  0.49962600  0.49882800  1
  Mn  Mn17  1  0.33112400  0.00128100  0.34321900  1
  Mn  Mn18  1  0.83641300  0.50042100  0.83451700  1
  Mn  Mn19  1  0.66675900  0.99995500  0.66668800  1
  Mn  Mn20  1  0.74734700  0.25281200  0.74103600  1
  Mn  Mn21  1  0.24331200  0.75176400  0.23870700  1
  Mn  Mn22  1  0.58602000  0.74717400  0.59229300  1
  Mn  Mn23  1  0.08990100  0.24827500  0.09465300  1
  O  O24  1  0.23358600  0.44994000  0.44795900  1
  O  O25  1  0.73427300  0.94825400  0.94635700  1
  O  O26  1  0.59920900  0.05170400  0.38694600  1
  O  O27  1  0.09962300  0.55009600  0.88541000  1
  O  O28  1  0.42351600  0.92810000  0.65655300  1
  O  O29  1  0.91937000  0.43075100  0.15507100  1
  O  O30  1  0.90990100  0.07189300  0.67676100  1
  O  O31  1  0.41381300  0.56925700  0.17826100  1
  O  O32  1  0.07895400  0.92884900  0.31267600  1
  O  O33  1  0.58481800  0.42654100  0.81392000  1
  O  O34  1  0.74840600  0.57343100  0.51938600  1
  O  O35  1  0.25445700  0.07118000  0.02062900  1
  O  O36  1  0.50372600  0.18212100  0.72858000  1
  O  O37  1  0.99530200  0.68017100  0.22500200  1
  O  O38  1  0.82968100  0.81781800  0.60475200  1
  O  O39  1  0.33791400  0.31987100  0.10835700  1
  O  O40  1  0.15091700  0.17443100  0.39499100  1
  O  O41  1  0.64925400  0.68287500  0.86356300  1
  O  O42  1  0.68402700  0.31710100  0.46974000  1
  O  O43  1  0.18254600  0.82554100  0.93835600  1
  O  O44  1  0.33437700  0.68207000  0.56762600  1
  O  O45  1  0.82399600  0.19020800  0.02900000  1
  O  O46  1  0.50934700  0.80976600  0.30429800  1
  O  O47  1  0.99891900  0.31793900  0.76567500  1
