# generated using pymatgen
data_Li2TlZn
_symmetry_space_group_name_H-M   'P 1'
_cell_length_a   11.23326336
_cell_length_b   11.23326336
_cell_length_c   11.23326336
_cell_angle_alpha   119.57561969
_cell_angle_beta   118.67239168
_cell_angle_gamma   91.52581679
_symmetry_Int_Tables_number   1
_chemical_formula_structural   Li2TlZn
_chemical_formula_sum   'Li2 Tl1 Zn1'
_cell_volume   1015.11712675
_cell_formula_units_Z   1
loop_
 _symmetry_equiv_pos_site_id
 _symmetry_equiv_pos_as_xyz
  1  'x, y, z'
loop_
 _atom_site_type_symbol
 _atom_site_label
 _atom_site_symmetry_multiplicity
 _atom_site_fract_x
 _atom_site_fract_y
 _atom_site_fract_z
 _atom_site_occupancy
  Li  Li0  1  0.00000000  0.24725300  0.24725300  1
  Li  Li1  1  0.00000000  0.75274700  0.75274700  1
  Tl  Tl2  1  0.00000000  0.50000000  0.50000000  1
  Zn  Zn3  1  0.00000000  0.00000000  0.00000000  1
