# generated using pymatgen
data_Li7Mn5O12
_symmetry_space_group_name_H-M   'P 1'
_cell_length_a   6.03377778
_cell_length_b   8.70614643
_cell_length_c   9.83396194
_cell_angle_alpha   69.01616221
_cell_angle_beta   94.28203982
_cell_angle_gamma   70.16654563
_symmetry_Int_Tables_number   1
_chemical_formula_structural   Li7Mn5O12
_chemical_formula_sum   'Li14 Mn10 O24'
_cell_volume   442.25623356
_cell_formula_units_Z   2
loop_
 _symmetry_equiv_pos_site_id
 _symmetry_equiv_pos_as_xyz
  1  'x, y, z'
loop_
 _atom_site_type_symbol
 _atom_site_label
 _atom_site_symmetry_multiplicity
 _atom_site_fract_x
 _atom_site_fract_y
 _atom_site_fract_z
 _atom_site_occupancy
  Li  Li0  1  0.83334300  0.33332500  0.33335100  1
  Li  Li1  1  0.83335600  0.83331700  0.83330800  1
  Li  Li2  1  0.08817900  0.83641300  0.33124800  1
  Li  Li3  1  0.07276700  0.33291200  0.84269100  1
  Li  Li4  1  0.57847600  0.83026200  0.33541300  1
  Li  Li5  1  0.59393200  0.33376400  0.82393800  1
  Li  Li6  1  0.75826000  0.00149000  0.50485900  1
  Li  Li7  1  0.76643900  0.50945100  0.99057000  1
  Li  Li8  1  0.90025400  0.15720800  0.67609600  1
  Li  Li9  1  0.90840100  0.66514000  0.16181100  1
  Li  Li10  1  0.43304600  0.15697500  0.66778700  1
  Li  Li11  1  0.42733000  0.65551000  0.16371600  1
  Li  Li12  1  0.23933700  0.01117400  0.50296000  1
  Li  Li13  1  0.23357000  0.50968500  0.99889000  1
  Mn  Mn14  1  0.33330900  0.83332000  0.83334100  1
  Mn  Mn15  1  0.33328900  0.33327200  0.33333900  1
  Mn  Mn16  1  0.99953100  0.99992800  0.99649500  1
  Mn  Mn17  1  0.00367300  0.50073400  0.49614700  1
  Mn  Mn18  1  0.66297900  0.16605400  0.17047800  1
  Mn  Mn19  1  0.66705600  0.66668800  0.67020000  1
  Mn  Mn20  1  0.50713800  0.99657100  0.99657000  1
  Mn  Mn21  1  0.50957200  0.50035500  0.49554600  1
  Mn  Mn22  1  0.15721900  0.16634600  0.17117200  1
  Mn  Mn23  1  0.15960300  0.67015700  0.66994000  1
  O  O24  1  0.26670600  0.93560700  0.16304100  1
  O  O25  1  0.30090800  0.44036400  0.64176600  1
  O  O26  1  0.39999000  0.73100000  0.50362900  1
  O  O27  1  0.36577700  0.22631800  0.02490200  1
  O  O28  1  0.96332600  0.09564700  0.31010500  1
  O  O29  1  0.94487900  0.58286500  0.82322600  1
  O  O30  1  0.72185500  0.08376800  0.84349600  1
  O  O31  1  0.70335000  0.57103600  0.35653500  1
  O  O32  1  0.60608900  0.26368100  0.49286000  1
  O  O33  1  0.60605100  0.75778800  0.99582300  1
  O  O34  1  0.06058600  0.90888700  0.67088600  1
  O  O35  1  0.06055200  0.40293200  0.17380000  1
  O  O36  1  0.76982500  0.92618500  0.16245900  1
  O  O37  1  0.77351000  0.42651000  0.65840600  1
  O  O38  1  0.89687500  0.74054900  0.50416200  1
  O  O39  1  0.89312700  0.24015500  0.00825600  1
  O  O40  1  0.42892400  0.09686200  0.33382900  1
  O  O41  1  0.43052500  0.59635200  0.83328800  1
  O  O42  1  0.23614600  0.07031800  0.83341700  1
  O  O43  1  0.23768900  0.56978400  0.33281700  1
  O  O44  1  0.14288500  0.27529500  0.48117900  1
  O  O45  1  0.14298500  0.77117300  0.98242200  1
  O  O46  1  0.52361900  0.89548800  0.68430200  1
  O  O47  1  0.52376200  0.39138100  0.18552800  1
