# generated using pymatgen
data_Li9Mn2Co5O16
_symmetry_space_group_name_H-M   'P 1'
_cell_length_a   5.05897000
_cell_length_b   5.11135533
_cell_length_c   11.80329098
_cell_angle_alpha   91.73733227
_cell_angle_beta   93.07170272
_cell_angle_gamma   108.65643293
_symmetry_Int_Tables_number   1
_chemical_formula_structural   Li9Mn2Co5O16
_chemical_formula_sum   'Li9 Mn2 Co5 O16'
_cell_volume   288.39505009
_cell_formula_units_Z   1
loop_
 _symmetry_equiv_pos_site_id
 _symmetry_equiv_pos_as_xyz
  1  'x, y, z'
loop_
 _atom_site_type_symbol
 _atom_site_label
 _atom_site_symmetry_multiplicity
 _atom_site_fract_x
 _atom_site_fract_y
 _atom_site_fract_z
 _atom_site_occupancy
  Li  Li0  1  0.99732300  0.50077900  0.13035000  1
  Li  Li1  1  0.49897900  0.50292600  0.25785900  1
  Li  Li2  1  0.99448900  0.48967500  0.38381600  1
  Li  Li3  1  0.50044800  0.49576000  0.49666000  1
  Li  Li4  1  0.00396500  0.50220400  0.62294800  1
  Li  Li5  1  0.50325300  0.50114300  0.74811500  1
  Li  Li6  1  0.00960900  0.50806900  0.86505100  1
  Li  Li7  1  0.49291900  0.49694900  0.99839700  1
  Li  Li8  1  0.49869200  0.00594200  0.37617900  1
  Mn  Mn9  1  0.99843400  0.99749200  0.99899500  1
  Mn  Mn10  1  0.49479500  0.99681200  0.13025900  1
  Co  Co11  1  0.00378400  0.00859800  0.25387400  1
  Co  Co12  1  0.99485700  0.99993300  0.49324200  1
  Co  Co13  1  0.50668000  0.00207200  0.61947700  1
  Co  Co14  1  0.00045100  0.99911400  0.74378800  1
  Co  Co15  1  0.50078000  0.00143700  0.87142500  1
  O  O16  1  0.24559500  0.76513700  0.00565900  1
  O  O17  1  0.74022700  0.77282200  0.13664900  1
  O  O18  1  0.25771300  0.79345300  0.24032400  1
  O  O19  1  0.77272200  0.75935700  0.38822600  1
  O  O20  1  0.24838200  0.77820500  0.50672800  1
  O  O21  1  0.75496600  0.75909100  0.63067200  1
  O  O22  1  0.26604000  0.77068700  0.75410900  1
  O  O23  1  0.74943800  0.77453400  0.87699100  1
  O  O24  1  0.75325800  0.22897000  0.24397700  1
  O  O25  1  0.23306600  0.24162700  0.36962600  1
  O  O26  1  0.76380800  0.22176300  0.50528000  1
  O  O27  1  0.23381900  0.22376300  0.61630700  1
  O  O28  1  0.74205900  0.23446200  0.74758400  1
  O  O29  1  0.25414400  0.22730500  0.86560300  1
  O  O30  1  0.72635400  0.20836900  0.00496300  1
  O  O31  1  0.25895000  0.23155000  0.11686500  1
