# generated using pymatgen
data_Li3V24O58
_symmetry_space_group_name_H-M   'P 1'
_cell_length_a   7.35105900
_cell_length_b   10.33080580
_cell_length_c   14.48693763
_cell_angle_alpha   102.68294967
_cell_angle_beta   97.24413696
_cell_angle_gamma   89.97748834
_symmetry_Int_Tables_number   1
_chemical_formula_structural   Li3V24O58
_chemical_formula_sum   'Li3 V24 O58'
_cell_volume   1064.33707062
_cell_formula_units_Z   1
loop_
 _symmetry_equiv_pos_site_id
 _symmetry_equiv_pos_as_xyz
  1  'x, y, z'
loop_
 _atom_site_type_symbol
 _atom_site_label
 _atom_site_symmetry_multiplicity
 _atom_site_fract_x
 _atom_site_fract_y
 _atom_site_fract_z
 _atom_site_occupancy
  Li  Li0  1  0.98897800  0.65665700  0.98423000  1
  Li  Li1  1  0.13158000  0.52220900  0.52290900  1
  Li  Li2  1  0.51390200  0.34632800  0.01817600  1
  V  V3  1  0.20995000  0.14164000  0.82805500  1
  V  V4  1  0.70571700  0.14377300  0.83180300  1
  V  V5  1  0.46960200  0.91634000  0.87449800  1
  V  V6  1  0.96749000  0.91183400  0.87087100  1
  V  V7  1  0.19400500  0.46368700  0.78226800  1
  V  V8  1  0.69716400  0.46652100  0.78181300  1
  V  V9  1  0.92824700  0.66008800  0.70486400  1
  V  V10  1  0.42442300  0.65874800  0.70552700  1
  V  V11  1  0.15114900  0.21247600  0.60489800  1
  V  V12  1  0.65273500  0.21265000  0.61054300  1
  V  V13  1  0.41285800  0.97679800  0.64589100  1
  V  V14  1  0.91038500  0.97660900  0.64263000  1
  V  V15  1  0.08843500  0.02403200  0.35613800  1
  V  V16  1  0.59012800  0.02716000  0.35537800  1
  V  V17  1  0.34808900  0.78831500  0.39273900  1
  V  V18  1  0.84787600  0.78932800  0.39147500  1
  V  V19  1  0.07311900  0.33780700  0.29188600  1
  V  V20  1  0.57384100  0.34266600  0.29726100  1
  V  V21  1  0.30551400  0.53464800  0.21811900  1
  V  V22  1  0.80278000  0.53387600  0.21754300  1
  V  V23  1  0.02939000  0.08451000  0.12103700  1
  V  V24  1  0.53109000  0.07891900  0.12345200  1
  V  V25  1  0.28984200  0.85825400  0.17257700  1
  V  V26  1  0.79548800  0.85662500  0.16956600  1
  O  O27  1  0.25490500  0.23879200  0.93314400  1
  O  O28  1  0.70121500  0.24497300  0.93594900  1
  O  O29  1  0.00040700  0.00411200  0.00141100  1
  O  O30  1  0.49929600  0.99918600  0.00185100  1
  O  O31  1  0.21232500  0.50404200  0.89733900  1
  O  O32  1  0.73652100  0.50588300  0.89673500  1
  O  O33  1  0.44198600  0.09624200  0.79581800  1
  O  O34  1  0.95804900  0.09433600  0.80239300  1
  O  O35  1  0.47044700  0.75990500  0.87821100  1
  O  O36  1  0.97055200  0.75316000  0.87948400  1
  O  O37  1  0.22253600  0.96430600  0.86032100  1
  O  O38  1  0.70769600  0.96315700  0.86075100  1
  O  O39  1  0.18745900  0.28078300  0.75419600  1
  O  O40  1  0.68933500  0.28365500  0.75098200  1
  O  O41  1  0.43853600  0.48928000  0.75417600  1
  O  O42  1  0.93772300  0.48760300  0.74967400  1
  O  O43  1  0.66138300  0.01793400  0.67145000  1
  O  O44  1  0.17227300  0.02444400  0.66289300  1
  O  O45  1  0.18633300  0.63605400  0.73940700  1
  O  O46  1  0.68164000  0.63322000  0.73159000  1
  O  O47  1  0.42712000  0.84145800  0.72006600  1
  O  O48  1  0.93183800  0.83833500  0.72167600  1
  O  O49  1  0.41226500  0.15666900  0.61166100  1
  O  O50  1  0.89420700  0.15691300  0.61302900  1
  O  O51  1  0.15051900  0.37011100  0.59762900  1
  O  O52  1  0.64774100  0.36135600  0.59290200  1
  O  O53  1  0.37878500  0.60966500  0.59077100  1
  O  O54  1  0.91903000  0.61007100  0.59005300  1
  O  O55  1  0.11593100  0.12065100  0.46903000  1
  O  O56  1  0.61956200  0.11928100  0.46712500  1
  O  O57  1  0.38607700  0.88177100  0.53495100  1
  O  O58  1  0.88159000  0.88034300  0.53056000  1
  O  O59  1  0.60285700  0.38943800  0.41093900  1
  O  O60  1  0.10109400  0.39058000  0.40699400  1
  O  O61  1  0.34054100  0.63369400  0.40267000  1
  O  O62  1  0.85866500  0.63903800  0.40726400  1
  O  O63  1  0.08790600  0.84486700  0.38701500  1
  O  O64  1  0.60538700  0.84287500  0.38734200  1
  O  O65  1  0.07072400  0.16186300  0.27823600  1
  O  O66  1  0.56758100  0.15755900  0.28122800  1
  O  O67  1  0.31700800  0.36470300  0.26307400  1
  O  O68  1  0.81416200  0.36467900  0.26321400  1
  O  O69  1  0.34409900  0.97628000  0.33670500  1
  O  O70  1  0.82300800  0.98087600  0.32886000  1
  O  O71  1  0.06083900  0.51035700  0.24333000  1
  O  O72  1  0.56258200  0.51378000  0.25233700  1
  O  O73  1  0.81132900  0.71649900  0.24899400  1
  O  O74  1  0.31187800  0.71905200  0.24507600  1
  O  O75  1  0.78382900  0.03975800  0.14240800  1
  O  O76  1  0.28606200  0.03866500  0.14280200  1
  O  O77  1  0.03033600  0.24245800  0.11993900  1
  O  O78  1  0.52895700  0.23827500  0.11950200  1
  O  O79  1  0.54081600  0.90079400  0.19223200  1
  O  O80  1  0.05916300  0.90918400  0.20670900  1
  O  O81  1  0.29161100  0.49382200  0.10300800  1
  O  O82  1  0.75880400  0.49422200  0.10249100  1
  O  O83  1  0.80142100  0.75705800  0.06483000  1
  O  O84  1  0.23968400  0.76273400  0.06704000  1
