# generated using pymatgen
data_Li6V3P8O29
_symmetry_space_group_name_H-M   'P 1'
_cell_length_a   9.81043000
_cell_length_b   9.82803205
_cell_length_c   14.02815445
_cell_angle_alpha   89.14543240
_cell_angle_beta   88.99648306
_cell_angle_gamma   60.22158341
_symmetry_Int_Tables_number   1
_chemical_formula_structural   Li6V3P8O29
_chemical_formula_sum   'Li12 V6 P16 O58'
_cell_volume   1173.74403390
_cell_formula_units_Z   2
loop_
 _symmetry_equiv_pos_site_id
 _symmetry_equiv_pos_as_xyz
  1  'x, y, z'
loop_
 _atom_site_type_symbol
 _atom_site_label
 _atom_site_symmetry_multiplicity
 _atom_site_fract_x
 _atom_site_fract_y
 _atom_site_fract_z
 _atom_site_occupancy
  Li  Li0  1  0.08748400  0.67912500  0.56116000  1
  Li  Li1  1  0.32732300  0.32267500  0.38834700  1
  Li  Li2  1  0.32300900  0.33023800  0.88962800  1
  Li  Li3  1  0.22666500  0.69199600  0.06462600  1
  Li  Li4  1  0.68426900  0.09010500  0.06762600  1
  Li  Li5  1  0.33974000  0.76344100  0.43949800  1
  Li  Li6  1  0.67676900  0.23443200  0.56099400  1
  Li  Li7  1  0.31127000  0.91340300  0.93655600  1
  Li  Li8  1  0.77483600  0.31861100  0.94288700  1
  Li  Li9  1  0.89710100  0.33615400  0.43694700  1
  Li  Li10  1  0.90679200  0.77898700  0.94574100  1
  Li  Li11  1  0.00026600  0.00257400  0.49331200  1
  V  V12  1  0.43516500  0.56999400  0.24682200  1
  V  V13  1  0.56625400  0.43142600  0.75000200  1
  V  V14  1  0.43415000  0.00183200  0.74308400  1
  V  V15  1  0.56854000  0.99127500  0.25716000  1
  V  V16  1  0.00166400  0.43205300  0.24779500  1
  V  V17  1  0.99689900  0.56360900  0.74818500  1
  P  P18  1  0.08810200  0.22472500  0.83528400  1
  P  P19  1  0.21694600  0.08405900  0.33880400  1
  P  P20  1  0.09224200  0.68205400  0.34441100  1
  P  P21  1  0.33734300  0.33438700  0.12951000  1
  P  P22  1  0.33290900  0.33702500  0.62820200  1
  P  P23  1  0.22892000  0.67535900  0.84402700  1
  P  P24  1  0.31773000  0.76887300  0.66006600  1
  P  P25  1  0.67529500  0.08908600  0.84513900  1
  P  P26  1  0.32061000  0.91735000  0.15335000  1
  P  P27  1  0.67872200  0.22701300  0.34135100  1
  P  P28  1  0.77280900  0.31816400  0.15881500  1
  P  P29  1  0.66803200  0.66202700  0.37264900  1
  P  P30  1  0.66356100  0.66698500  0.86909300  1
  P  P31  1  0.91558600  0.31341200  0.65210800  1
  P  P32  1  0.77903100  0.91983600  0.65910400  1
  P  P33  1  0.91332000  0.76921000  0.16183600  1
  O  O34  1  0.98288600  0.23318500  0.55901200  1
  O  O35  1  0.07758500  0.25295600  0.34245300  1
  O  O36  1  0.25422100  0.99201200  0.05999800  1
  O  O37  1  0.25475000  0.07977800  0.83782200  1
  O  O38  1  0.11033300  0.37167100  0.82266000  1
  O  O39  1  0.18843800  0.33803200  0.17791800  1
  O  O40  1  0.10254800  0.52047500  0.33593900  1
  O  O41  1  0.00333900  0.75923900  0.07126000  1
  O  O42  1  0.07705400  0.66547900  0.84576800  1
  O  O43  1  0.32589400  0.19342000  0.67137000  1
  O  O44  1  0.37034700  0.09533200  0.33428500  1
  O  O45  1  0.18621900  0.49112000  0.66745900  1
  O  O46  1  0.33101000  0.33698200  0.02247800  1
  O  O47  1  0.33354000  0.34263200  0.52113300  1
  O  O48  1  0.33228600  0.48915400  0.16318400  1
  O  O49  1  0.51003600  0.11234100  0.82586700  1
  O  O50  1  0.48474000  0.18618900  0.16909100  1
  O  O51  1  0.26228700  0.65721100  0.33706800  1
  O  O52  1  0.21146000  0.78491600  0.75285400  1
  O  O53  1  0.23237300  0.76843900  0.57148400  1
  O  O54  1  0.24914400  0.75021500  0.93145500  1
  O  O55  1  0.36906100  0.50834800  0.82525400  1
  O  O56  1  0.48844700  0.32697200  0.66552200  1
  O  O57  1  0.33479700  0.75210700  0.16177800  1
  O  O58  1  0.51698000  0.37601900  0.32919100  1
  O  O59  1  0.65422200  0.08507100  0.34170800  1
  O  O60  1  0.20094800  0.01630000  0.23839600  1
  O  O61  1  0.20572000  0.98503800  0.41794300  1
  O  O62  1  0.79890600  0.01314900  0.57991400  1
  O  O63  1  0.34620400  0.90731500  0.66284600  1
  O  O64  1  0.47323200  0.61197200  0.67342500  1
  O  O65  1  0.66015500  0.25434800  0.84317100  1
  O  O66  1  0.51508000  0.67219200  0.33259300  1
  O  O67  1  0.62014000  0.47759500  0.17818000  1
  O  O68  1  0.75555300  0.24469300  0.06979500  1
  O  O69  1  0.76740000  0.22950500  0.42833500  1
  O  O70  1  0.78692900  0.20810000  0.24895400  1
  O  O71  1  0.74847000  0.33420100  0.66547100  1
  O  O72  1  0.51834300  0.81655100  0.82632700  1
  O  O73  1  0.47926100  0.90552100  0.17622800  1
  O  O74  1  0.66324200  0.51703500  0.83245400  1
  O  O75  1  0.67144700  0.66994500  0.97482900  1
  O  O76  1  0.66891700  0.65556800  0.47884400  1
  O  O77  1  0.81666600  0.51159400  0.33049700  1
  O  O78  1  0.61916700  0.92603900  0.66404900  1
  O  O79  1  0.67301800  0.80914700  0.32947200  1
  O  O80  1  0.91466200  0.34043000  0.16063600  1
  O  O81  1  0.01585400  0.20102600  0.73834800  1
  O  O82  1  0.98772000  0.23620800  0.91837100  1
  O  O83  1  0.91362600  0.46995900  0.66530900  1
  O  O84  1  0.81604500  0.66253400  0.82284100  1
  O  O85  1  0.89809500  0.62292100  0.17798700  1
  O  O86  1  0.75155100  0.91908000  0.16376900  1
  O  O87  1  0.74555900  0.00289900  0.93690500  1
  O  O88  1  0.79287900  0.99273000  0.76029200  1
  O  O89  1  0.91712600  0.75041600  0.65993300  1
  O  O90  1  0.01667500  0.77170400  0.43387800  1
  O  O91  1  0.00591000  0.78543900  0.25165800  1
