# generated using pymatgen
data_LiTiNF6
_symmetry_space_group_name_H-M   'P 1'
_cell_length_a   7.51531400
_cell_length_b   9.82760100
_cell_length_c   13.78757100
_cell_angle_alpha   90.00000000
_cell_angle_beta   90.00000000
_cell_angle_gamma   90.00000000
_symmetry_Int_Tables_number   1
_chemical_formula_structural   LiTiNF6
_chemical_formula_sum   'Li8 Ti8 N8 F48'
_cell_volume   1018.31562691
_cell_formula_units_Z   8
loop_
 _symmetry_equiv_pos_site_id
 _symmetry_equiv_pos_as_xyz
  1  'x, y, z'
loop_
 _atom_site_type_symbol
 _atom_site_label
 _atom_site_symmetry_multiplicity
 _atom_site_fract_x
 _atom_site_fract_y
 _atom_site_fract_z
 _atom_site_occupancy
  Li  Li0  1  0.71158000  0.94668700  0.62869600  1
  Li  Li1  1  0.78842000  0.44668700  0.87130400  1
  Li  Li2  1  0.21158000  0.05331300  0.87130400  1
  Li  Li3  1  0.28842000  0.55331300  0.62869600  1
  Li  Li4  1  0.28842000  0.05331300  0.37130400  1
  Li  Li5  1  0.21158000  0.55331300  0.12869600  1
  Li  Li6  1  0.78842000  0.94668700  0.12869600  1
  Li  Li7  1  0.71158000  0.44668700  0.37130400  1
  Ti  Ti8  1  0.71747600  0.07323900  0.87238400  1
  Ti  Ti9  1  0.78252400  0.57323900  0.62761600  1
  Ti  Ti10  1  0.21747600  0.92676100  0.62761600  1
  Ti  Ti11  1  0.28252400  0.42676100  0.87238400  1
  Ti  Ti12  1  0.28252400  0.92676100  0.12761600  1
  Ti  Ti13  1  0.21747600  0.42676100  0.37238400  1
  Ti  Ti14  1  0.78252400  0.07323900  0.37238400  1
  Ti  Ti15  1  0.71747600  0.57323900  0.12761600  1
  N  N16  1  0.00000000  0.25000000  0.66613700  1
  N  N17  1  0.50000000  0.75000000  0.83386300  1
  N  N18  1  0.00000000  0.75000000  0.33386300  1
  N  N19  1  0.50000000  0.25000000  0.16613700  1
  N  N20  1  0.50000000  0.25000000  0.71175600  1
  N  N21  1  0.00000000  0.75000000  0.78824400  1
  N  N22  1  0.50000000  0.75000000  0.28824400  1
  N  N23  1  0.00000000  0.25000000  0.21175600  1
  F  F24  1  0.66569200  0.88047900  0.82189200  1
  F  F25  1  0.83430800  0.38047900  0.67810800  1
  F  F26  1  0.16569200  0.11952100  0.67810800  1
  F  F27  1  0.33430800  0.61952100  0.82189200  1
  F  F28  1  0.33430800  0.11952100  0.17810800  1
  F  F29  1  0.16569200  0.61952100  0.32189200  1
  F  F30  1  0.83430800  0.88047900  0.32189200  1
  F  F31  1  0.66569200  0.38047900  0.17810800  1
  F  F32  1  0.47393800  0.08851100  0.86724700  1
  F  F33  1  0.02606200  0.58851100  0.63275300  1
  F  F34  1  0.97393800  0.91148900  0.63275300  1
  F  F35  1  0.52606200  0.41148900  0.86724700  1
  F  F36  1  0.52606200  0.91148900  0.13275300  1
  F  F37  1  0.97393800  0.41148900  0.36724700  1
  F  F38  1  0.02606200  0.08851100  0.36724700  1
  F  F39  1  0.47393800  0.58851100  0.13275300  1
  F  F40  1  0.78308400  0.24790700  0.89954500  1
  F  F41  1  0.71691600  0.74790700  0.60045500  1
  F  F42  1  0.28308400  0.75209300  0.60045500  1
  F  F43  1  0.21691600  0.25209300  0.89954500  1
  F  F44  1  0.21691600  0.75209300  0.10045500  1
  F  F45  1  0.28308400  0.25209300  0.39954500  1
  F  F46  1  0.71691600  0.24790700  0.39954500  1
  F  F47  1  0.78308400  0.74790700  0.10045500  1
  F  F48  1  0.68996200  0.13367100  0.72711100  1
  F  F49  1  0.81003800  0.63367100  0.77288900  1
  F  F50  1  0.18996200  0.86632900  0.77288900  1
  F  F51  1  0.31003800  0.36632900  0.72711100  1
  F  F52  1  0.31003800  0.86632900  0.27288900  1
  F  F53  1  0.18996200  0.36632900  0.22711100  1
  F  F54  1  0.81003800  0.13367100  0.22711100  1
  F  F55  1  0.68996200  0.63367100  0.27288900  1
  F  F56  1  0.72900600  0.02031300  0.99911700  1
  F  F57  1  0.77099400  0.52031300  0.50088300  1
  F  F58  1  0.22900600  0.97968700  0.50088300  1
  F  F59  1  0.27099400  0.47968700  0.99911700  1
  F  F60  1  0.27099400  0.97968700  0.00088300  1
  F  F61  1  0.22900600  0.47968700  0.49911700  1
  F  F62  1  0.77099400  0.02031300  0.49911700  1
  F  F63  1  0.72900600  0.52031300  0.00088300  1
  F  F64  1  0.95182400  0.02782100  0.84721600  1
  F  F65  1  0.54817600  0.52782100  0.65278400  1
  F  F66  1  0.45182400  0.97217900  0.65278400  1
  F  F67  1  0.04817600  0.47217900  0.84721600  1
  F  F68  1  0.04817600  0.97217900  0.15278400  1
  F  F69  1  0.45182400  0.47217900  0.34721600  1
  F  F70  1  0.54817600  0.02782100  0.34721600  1
  F  F71  1  0.95182400  0.52782100  0.15278400  1
