# generated using pymatgen
data_LiV2FeO7
_symmetry_space_group_name_H-M   'P 1'
_cell_length_a   13.66713499
_cell_length_b   8.30825222
_cell_length_c   14.59003274
_cell_angle_alpha   90.00000000
_cell_angle_beta   96.37761388
_cell_angle_gamma   90.00000000
_symmetry_Int_Tables_number   1
_chemical_formula_structural   LiV2FeO7
_chemical_formula_sum   'Li12 V24 Fe12 O84'
_cell_volume   1646.44563436
_cell_formula_units_Z   12
loop_
 _symmetry_equiv_pos_site_id
 _symmetry_equiv_pos_as_xyz
  1  'x, y, z'
loop_
 _atom_site_type_symbol
 _atom_site_label
 _atom_site_symmetry_multiplicity
 _atom_site_fract_x
 _atom_site_fract_y
 _atom_site_fract_z
 _atom_site_occupancy
  Li  Li0  1  0.63751386  0.67683272  0.71154997  1
  Li  Li1  1  0.63751386  0.32316728  0.21154997  1
  Li  Li2  1  0.13751386  0.17683272  0.71154997  1
  Li  Li3  1  0.13751386  0.82316728  0.21154997  1
  Li  Li4  1  0.33669208  0.30543510  0.03489156  1
  Li  Li5  1  0.33669208  0.69456490  0.53489156  1
  Li  Li6  1  0.83669208  0.80543510  0.03489156  1
  Li  Li7  1  0.83669208  0.19456490  0.53489156  1
  Li  Li8  1  0.52471346  0.18460134  0.37784256  1
  Li  Li9  1  0.52471346  0.81539866  0.87784256  1
  Li  Li10  1  0.02471346  0.68460134  0.37784256  1
  Li  Li11  1  0.02471346  0.31539866  0.87784256  1
  V  V12  1  0.42420087  0.02638793  0.17669129  1
  V  V13  1  0.42420087  0.97361207  0.67669129  1
  V  V14  1  0.92420087  0.52638793  0.17669129  1
  V  V15  1  0.92420087  0.47361207  0.67669129  1
  V  V16  1  0.70397843  0.96248290  0.35639324  1
  V  V17  1  0.70397843  0.03751710  0.85639324  1
  V  V18  1  0.20397843  0.46248290  0.35639324  1
  V  V19  1  0.20397843  0.53751710  0.85639324  1
  V  V20  1  0.57422816  0.45820987  0.51522919  1
  V  V21  1  0.57422816  0.54179013  0.01522919  1
  V  V22  1  0.07422816  0.95820987  0.51522919  1
  V  V23  1  0.07422816  0.04179013  0.01522919  1
  V  V24  1  0.62701937  0.95432087  0.56687094  1
  V  V25  1  0.62701937  0.04567913  0.06687094  1
  V  V26  1  0.12701937  0.45432087  0.56687094  1
  V  V27  1  0.12701937  0.54567913  0.06687094  1
  V  V28  1  0.27428444  0.97369084  0.40392181  1
  V  V29  1  0.27428444  0.02630916  0.90392181  1
  V  V30  1  0.77428444  0.47369084  0.40392181  1
  V  V31  1  0.77428444  0.52630916  0.90392181  1
  V  V32  1  0.40598014  0.45957986  0.24029335  1
  V  V33  1  0.40598014  0.54042014  0.74029335  1
  V  V34  1  0.90598014  0.95957986  0.24029335  1
  V  V35  1  0.90598014  0.04042014  0.74029335  1
  Fe  Fe36  1  0.49715244  0.79963504  0.36923666  1
  Fe  Fe37  1  0.49715244  0.20036496  0.86923666  1
  Fe  Fe38  1  0.99715244  0.29963504  0.36923666  1
  Fe  Fe39  1  0.99715244  0.70036496  0.86923666  1
  Fe  Fe40  1  0.85054175  0.82524932  0.54089400  1
  Fe  Fe41  1  0.85054175  0.17475068  0.04089400  1
  Fe  Fe42  1  0.35054175  0.32524932  0.54089400  1
  Fe  Fe43  1  0.35054175  0.67475068  0.04089400  1
  Fe  Fe44  1  0.70026600  0.30734015  0.71009173  1
  Fe  Fe45  1  0.70026600  0.69265985  0.21009173  1
  Fe  Fe46  1  0.20026600  0.80734015  0.71009173  1
  Fe  Fe47  1  0.20026600  0.19265985  0.21009173  1
  O  O48  1  0.47956858  0.32202552  0.48506473  1
  O  O49  1  0.47956858  0.67797448  0.98506473  1
  O  O50  1  0.97956858  0.82202552  0.48506473  1
  O  O51  1  0.97956858  0.17797448  0.98506473  1
  O  O52  1  0.32301688  0.15006380  0.14631596  1
  O  O53  1  0.32301688  0.84993620  0.64631596  1
  O  O54  1  0.82301688  0.65006380  0.14631596  1
  O  O55  1  0.82301688  0.34993620  0.64631596  1
  O  O56  1  0.23672741  0.99332031  0.28722938  1
  O  O57  1  0.23672741  0.00667969  0.78722938  1
  O  O58  1  0.73672741  0.49332031  0.28722938  1
  O  O59  1  0.73672741  0.50667969  0.78722938  1
  O  O60  1  0.39440452  0.48587889  0.12035967  1
  O  O61  1  0.39440452  0.51412111  0.62035967  1
  O  O62  1  0.89440452  0.98587889  0.12035967  1
  O  O63  1  0.89440452  0.01412111  0.62035967  1
  O  O64  1  0.42282196  0.64243123  0.29261199  1
  O  O65  1  0.42282196  0.35756877  0.79261199  1
  O  O66  1  0.92282196  0.14243123  0.29261199  1
  O  O67  1  0.92282196  0.85756877  0.79261199  1
  O  O68  1  0.29501409  0.16079271  0.44873119  1
  O  O69  1  0.29501409  0.83920729  0.94873119  1
  O  O70  1  0.79501409  0.66079271  0.44873119  1
  O  O71  1  0.79501409  0.33920729  0.94873119  1
  O  O72  1  0.52709908  0.88484558  0.62402270  1
  O  O73  1  0.52709908  0.11515442  0.12402270  1
  O  O74  1  0.02709908  0.38484558  0.62402270  1
  O  O75  1  0.02709908  0.61515442  0.12402270  1
  O  O76  1  0.62197840  0.79201308  0.30509886  1
  O  O77  1  0.62197840  0.20798692  0.80509886  1
  O  O78  1  0.12197840  0.29201308  0.30509886  1
  O  O79  1  0.12197840  0.70798692  0.80509886  1
  O  O80  1  0.59227521  0.96881140  0.44282631  1
  O  O81  1  0.59227521  0.03118860  0.94282631  1
  O  O82  1  0.09227521  0.46881140  0.44282631  1
  O  O83  1  0.09227521  0.53118860  0.94282631  1
  O  O84  1  0.67479310  0.13599955  0.30622879  1
  O  O85  1  0.67479310  0.86400045  0.80622879  1
  O  O86  1  0.17479310  0.63599955  0.30622879  1
  O  O87  1  0.17479310  0.36400045  0.80622879  1
  O  O88  1  0.66216270  0.13855735  0.60927135  1
  O  O89  1  0.66216270  0.86144265  0.10927135  1
  O  O90  1  0.16216270  0.63855735  0.60927135  1
  O  O91  1  0.16216270  0.36144265  0.10927135  1
  O  O92  1  0.67405207  0.38258068  0.45731417  1
  O  O93  1  0.67405207  0.61741932  0.95731417  1
  O  O94  1  0.17405207  0.88258068  0.45731417  1
  O  O95  1  0.17405207  0.11741932  0.95731417  1
  O  O96  1  0.29313439  0.37065225  0.27863763  1
  O  O97  1  0.29313439  0.62934775  0.77863763  1
  O  O98  1  0.79313439  0.87065225  0.27863763  1
  O  O99  1  0.79313439  0.12934775  0.77863763  1
  O  O100  1  0.50429377  0.34229483  0.27333634  1
  O  O101  1  0.50429377  0.65770517  0.77333634  1
  O  O102  1  0.00429377  0.84229483  0.27333634  1
  O  O103  1  0.00429377  0.15770517  0.77333634  1
  O  O104  1  0.45465289  0.00332984  0.29406903  1
  O  O105  1  0.45465289  0.99667016  0.79406903  1
  O  O106  1  0.95465289  0.50332984  0.29406903  1
  O  O107  1  0.95465289  0.49667016  0.79406903  1
  O  O108  1  0.54177753  0.64454749  0.47293773  1
  O  O109  1  0.54177753  0.35545251  0.97293773  1
  O  O110  1  0.04177753  0.14454749  0.47293773  1
  O  O111  1  0.04177753  0.85545251  0.97293773  1
  O  O112  1  0.40404052  0.84259906  0.12953045  1
  O  O113  1  0.40404052  0.15740094  0.62953045  1
  O  O114  1  0.90404052  0.34259906  0.12953045  1
  O  O115  1  0.90404052  0.65740094  0.62953045  1
  O  O116  1  0.78843556  -0.00164578  0.45440254  1
  O  O117  1  0.78843556  0.00164578  0.95440254  1
  O  O118  1  0.28843556  0.49835422  0.45440254  1
  O  O119  1  0.28843556  0.50164578  0.95440254  1
  O  O120  1  0.61418790  0.46420728  0.63309233  1
  O  O121  1  0.61418790  0.53579272  0.13309233  1
  O  O122  1  0.11418790  0.96420728  0.63309233  1
  O  O123  1  0.11418790  0.03579272  0.13309233  1
  O  O124  1  0.37632016  0.85229162  0.43449479  1
  O  O125  1  0.37632016  0.14770838  0.93449479  1
  O  O126  1  0.87632016  0.35229162  0.43449479  1
  O  O127  1  0.87632016  0.64770838  0.93449479  1
  O  O128  1  0.71810226  0.81730895  0.59723774  1
  O  O129  1  0.71810226  0.18269105  0.09723774  1
  O  O130  1  0.21810226  0.31730895  0.59723774  1
  O  O131  1  0.21810226  0.68269105  0.09723774  1
