# generated using pymatgen
data_Li3(CoO2)4
_symmetry_space_group_name_H-M   'P 1'
_cell_length_a   5.74196968
_cell_length_b   5.88533761
_cell_length_c   10.02225742
_cell_angle_alpha   106.06481661
_cell_angle_beta   91.10010218
_cell_angle_gamma   119.03886638
_symmetry_Int_Tables_number   1
_chemical_formula_structural   Li3(CoO2)4
_chemical_formula_sum   'Li6 Co8 O16'
_cell_volume   279.75607854
_cell_formula_units_Z   2
loop_
 _symmetry_equiv_pos_site_id
 _symmetry_equiv_pos_as_xyz
  1  'x, y, z'
loop_
 _atom_site_type_symbol
 _atom_site_label
 _atom_site_symmetry_multiplicity
 _atom_site_fract_x
 _atom_site_fract_y
 _atom_site_fract_z
 _atom_site_occupancy
  Li  Li0  1  0.25066600  0.00196700  0.75232100  1
  Li  Li1  1  0.74947200  0.99976500  0.24626200  1
  Li  Li2  1  0.50408500  0.00699200  0.01119300  1
  Li  Li3  1  0.99538100  0.99200100  0.49358600  1
  Li  Li4  1  0.75007200  0.00357900  0.75598200  1
  Li  Li5  1  0.25584500  0.00032300  0.24032400  1
  Co  Co6  1  0.74707400  0.50015300  0.74754700  1
  Co  Co7  1  0.99769800  0.49936000  0.50113400  1
  Co  Co8  1  0.49621500  0.49694600  0.50036400  1
  Co  Co9  1  0.75248400  0.49583000  0.25136600  1
  Co  Co10  1  0.24783900  0.50449900  0.74926200  1
  Co  Co11  1  0.24926400  0.49798600  0.24881200  1
  Co  Co12  1  0.50248900  0.50012000  0.00094400  1
  Co  Co13  1  0.00484000  0.50389900  0.00053000  1
  O  O14  1  0.63929200  0.27756800  0.86509500  1
  O  O15  1  0.13420300  0.28208400  0.39140900  1
  O  O16  1  0.37521300  0.74069400  0.12460600  1
  O  O17  1  0.85451800  0.70841000  0.61760400  1
  O  O18  1  0.40068900  0.27490500  0.13130300  1
  O  O19  1  0.89512300  0.29647500  0.63301100  1
  O  O20  1  0.86319500  0.71652000  0.12618700  1
  O  O21  1  0.33574000  0.71443300  0.62530100  1
  O  O22  1  0.88910300  0.28161300  0.13609200  1
  O  O23  1  0.39092200  0.29990200  0.63552600  1
  O  O24  1  0.09914400  0.70937000  0.85828600  1
  O  O25  1  0.61128400  0.70068900  0.36936100  1
  O  O26  1  0.14220600  0.28664600  0.87463700  1
  O  O27  1  0.66110700  0.28434100  0.37614700  1
  O  O28  1  0.60857700  0.71226900  0.85761800  1
  O  O29  1  0.09625700  0.71066100  0.37819000  1
