# generated using pymatgen
data_Li9Mn2Co5O16
_symmetry_space_group_name_H-M   'P 1'
_cell_length_a   5.94107924
_cell_length_b   5.94107924
_cell_length_c   9.76159201
_cell_angle_alpha   81.95227984
_cell_angle_beta   81.95227984
_cell_angle_gamma   58.39368305
_symmetry_Int_Tables_number   1
_chemical_formula_structural   Li9Mn2Co5O16
_chemical_formula_sum   'Li9 Mn2 Co5 O16'
_cell_volume   289.64380029
_cell_formula_units_Z   1
loop_
 _symmetry_equiv_pos_site_id
 _symmetry_equiv_pos_as_xyz
  1  'x, y, z'
loop_
 _atom_site_type_symbol
 _atom_site_label
 _atom_site_symmetry_multiplicity
 _atom_site_fract_x
 _atom_site_fract_y
 _atom_site_fract_z
 _atom_site_occupancy
  Li  Li0  1  0.74848400  0.25151600  0.00000000  1
  Li  Li1  1  0.25151600  0.74848400  0.00000000  1
  Li  Li2  1  0.37642400  0.37642400  0.25759100  1
  Li  Li3  1  0.87308000  0.87308000  0.25673500  1
  Li  Li4  1  0.00000000  0.50000000  0.50000000  1
  Li  Li5  1  0.50000000  0.00000000  0.50000000  1
  Li  Li6  1  0.62357600  0.62357600  0.74240900  1
  Li  Li7  1  0.12692000  0.12692000  0.74326500  1
  Li  Li8  1  0.50000000  0.50000000  0.50000000  1
  Mn  Mn9  1  0.25303100  0.25303100  0.99880800  1
  Mn  Mn10  1  0.74696900  0.74696900  0.00119200  1
  Co  Co11  1  0.86490400  0.37346300  0.25857000  1
  Co  Co12  1  0.37346300  0.86490400  0.25857000  1
  Co  Co13  1  0.00000000  0.00000000  0.50000000  1
  Co  Co14  1  0.13509600  0.62653700  0.74143000  1
  Co  Co15  1  0.62653700  0.13509600  0.74143000  1
  O  O16  1  0.94471200  0.44427900  0.88555700  1
  O  O17  1  0.44427900  0.94471200  0.88555700  1
  O  O18  1  0.56722600  0.56722600  0.12714200  1
  O  O19  1  0.07526100  0.07526100  0.13288000  1
  O  O20  1  0.17978500  0.71657300  0.38020500  1
  O  O21  1  0.71657300  0.17978500  0.38020500  1
  O  O22  1  0.82712200  0.82712200  0.61624600  1
  O  O23  1  0.31440700  0.31440700  0.64169700  1
  O  O24  1  0.55572100  0.05528800  0.11444300  1
  O  O25  1  0.05528800  0.55572100  0.11444300  1
  O  O26  1  0.17287800  0.17287800  0.38375400  1
  O  O27  1  0.68559300  0.68559300  0.35830300  1
  O  O28  1  0.82021500  0.28342700  0.61979500  1
  O  O29  1  0.28342700  0.82021500  0.61979500  1
  O  O30  1  0.43277400  0.43277400  0.87285800  1
  O  O31  1  0.92473900  0.92473900  0.86712000  1
