# generated using pymatgen
data_Li9Co7O16
_symmetry_space_group_name_H-M   'P 1'
_cell_length_a   2.99594900
_cell_length_b   5.09345992
_cell_length_c   19.51408412
_cell_angle_alpha   91.69875845
_cell_angle_beta   92.97663410
_cell_angle_gamma   104.06283852
_symmetry_Int_Tables_number   1
_chemical_formula_structural   Li9Co7O16
_chemical_formula_sum   'Li9 Co7 O16'
_cell_volume   288.19107195
_cell_formula_units_Z   1
loop_
 _symmetry_equiv_pos_site_id
 _symmetry_equiv_pos_as_xyz
  1  'x, y, z'
loop_
 _atom_site_type_symbol
 _atom_site_label
 _atom_site_symmetry_multiplicity
 _atom_site_fract_x
 _atom_site_fract_y
 _atom_site_fract_z
 _atom_site_occupancy
  Li  Li0  1  0.93043100  0.18890600  0.68623500  1
  Li  Li1  1  0.56515700  0.31211100  0.81310900  1
  Li  Li2  1  0.18347600  0.43688200  0.93600300  1
  Li  Li3  1  0.81652400  0.56311800  0.06399700  1
  Li  Li4  1  0.43484300  0.68788900  0.18689100  1
  Li  Li5  1  0.06956900  0.81109400  0.31376500  1
  Li  Li6  1  0.68532800  0.92890400  0.43751400  1
  Li  Li7  1  0.31467200  0.07109600  0.56248600  1
  Li  Li8  1  0.00000000  0.50000000  0.50000000  1
  Co  Co9  1  0.62382700  0.62264000  0.62002800  1
  Co  Co10  1  0.37617300  0.37736000  0.37997200  1
  Co  Co11  1  0.25022500  0.74981800  0.74906100  1
  Co  Co12  1  0.87016200  0.87610300  0.87344400  1
  Co  Co13  1  0.50000000  0.00000000  0.00000000  1
  Co  Co14  1  0.12983800  0.12389700  0.12655600  1
  Co  Co15  1  0.74977500  0.25018200  0.25093900  1
  O  O16  1  0.30311400  0.88727800  0.65852200  1
  O  O17  1  0.87942700  0.01206200  0.78360500  1
  O  O18  1  0.55802500  0.13615800  0.90617200  1
  O  O19  1  0.15532600  0.25985400  0.03484000  1
  O  O20  1  0.82404100  0.38992700  0.15917200  1
  O  O21  1  0.38613000  0.50798900  0.28675400  1
  O  O22  1  0.03980900  0.63023100  0.40371000  1
  O  O23  1  0.66124400  0.77541500  0.54111900  1
  O  O24  1  0.61387000  0.49201100  0.71324600  1
  O  O25  1  0.17595900  0.61007300  0.84082800  1
  O  O26  1  0.84467400  0.74014600  0.96516000  1
  O  O27  1  0.44197500  0.86384200  0.09382800  1
  O  O28  1  0.12057300  0.98793800  0.21639500  1
  O  O29  1  0.69688600  0.11272200  0.34147800  1
  O  O30  1  0.33875600  0.22458500  0.45888100  1
  O  O31  1  0.96019100  0.36976900  0.59629000  1
