# generated using pymatgen
data_LiF3
_symmetry_space_group_name_H-M   'P 1'
_cell_length_a   4.41830716
_cell_length_b   4.41830716
_cell_length_c   4.65302100
_cell_angle_alpha   90.00000000
_cell_angle_beta   90.00000000
_cell_angle_gamma   119.99998742
_symmetry_Int_Tables_number   1
_chemical_formula_structural   LiF3
_chemical_formula_sum   'Li2 F6'
_cell_volume   78.66426853
_cell_formula_units_Z   2
loop_
 _symmetry_equiv_pos_site_id
 _symmetry_equiv_pos_as_xyz
  1  'x, y, z'
loop_
 _atom_site_type_symbol
 _atom_site_label
 _atom_site_symmetry_multiplicity
 _atom_site_fract_x
 _atom_site_fract_y
 _atom_site_fract_z
 _atom_site_occupancy
  Li  Li0  1  0.66666700  0.33333300  0.25000000  1
  Li  Li1  1  0.33333300  0.66666700  0.75000000  1
  F  F2  1  0.83123400  0.16876600  0.75000000  1
  F  F3  1  0.33753200  0.16876600  0.75000000  1
  F  F4  1  0.83123400  0.66246800  0.75000000  1
  F  F5  1  0.16876600  0.83123400  0.25000000  1
  F  F6  1  0.66246800  0.83123400  0.25000000  1
  F  F7  1  0.16876600  0.33753200  0.25000000  1
