# generated using pymatgen
data_Li9Mn2Co5O16
_symmetry_space_group_name_H-M   'P 1'
_cell_length_a   4.99354600
_cell_length_b   6.49653077
_cell_length_c   9.06866891
_cell_angle_alpha   97.91908583
_cell_angle_beta   97.78240884
_cell_angle_gamma   96.74360289
_symmetry_Int_Tables_number   1
_chemical_formula_structural   Li9Mn2Co5O16
_chemical_formula_sum   'Li9 Mn2 Co5 O16'
_cell_volume   285.91551539
_cell_formula_units_Z   1
loop_
 _symmetry_equiv_pos_site_id
 _symmetry_equiv_pos_as_xyz
  1  'x, y, z'
loop_
 _atom_site_type_symbol
 _atom_site_label
 _atom_site_symmetry_multiplicity
 _atom_site_fract_x
 _atom_site_fract_y
 _atom_site_fract_z
 _atom_site_occupancy
  Li  Li0  1  0.74509100  0.31859200  0.19755200  1
  Li  Li1  1  0.76346900  0.80652600  0.66747100  1
  Li  Li2  1  0.23787700  0.19940500  0.32269400  1
  Li  Li3  1  0.24533500  0.67811000  0.80509500  1
  Li  Li4  1  0.76529400  0.07279400  0.44653700  1
  Li  Li5  1  0.75127300  0.55302900  0.92738500  1
  Li  Li6  1  0.24092300  0.43876700  0.06270200  1
  Li  Li7  1  0.25188600  0.93239900  0.56419100  1
  Li  Li8  1  0.00351500  0.50080100  0.50013800  1
  Mn  Mn9  1  0.99924100  0.99762800  0.00093000  1
  Mn  Mn10  1  0.49749500  0.87180000  0.13016500  1
  Co  Co11  1  0.49141700  0.37960600  0.61537400  1
  Co  Co12  1  0.99589500  0.74890600  0.26070400  1
  Co  Co13  1  0.00807300  0.25086600  0.74274600  1
  Co  Co14  1  0.50506200  0.62544000  0.37772200  1
  Co  Co15  1  0.50145000  0.12924500  0.86726700  1
  O  O16  1  0.85848000  0.26008500  0.97421300  1
  O  O17  1  0.84290300  0.77035500  0.45656500  1
  O  O18  1  0.36684900  0.13353000  0.09201800  1
  O  O19  1  0.39504500  0.65345200  0.57145100  1
  O  O20  1  0.85661000  0.00628600  0.22444400  1
  O  O21  1  0.86653900  0.50349200  0.71756600  1
  O  O22  1  0.36518200  0.39870900  0.83178000  1
  O  O23  1  0.37053200  0.88431200  0.32700100  1
  O  O24  1  0.60530200  0.36989600  0.40474800  1
  O  O25  1  0.62900300  0.84921200  0.93472500  1
  O  O26  1  0.14779500  0.22047200  0.53507100  1
  O  O27  1  0.14028900  0.73797300  0.03442500  1
  O  O28  1  0.64733100  0.10829000  0.66913900  1
  O  O29  1  0.62260200  0.61143300  0.17531800  1
  O  O30  1  0.13871400  0.50268500  0.28165900  1
  O  O31  1  0.14352800  0.98590100  0.78120400  1
