# generated using pymatgen
data_Li13Mn6(PO4)8
_symmetry_space_group_name_H-M   'P 1'
_cell_length_a   8.06687294
_cell_length_b   7.98274153
_cell_length_c   11.53602319
_cell_angle_alpha   105.52950982
_cell_angle_beta   75.59661697
_cell_angle_gamma   74.79025088
_symmetry_Int_Tables_number   1
_chemical_formula_structural   Li13Mn6(PO4)8
_chemical_formula_sum   'Li13 Mn6 P8 O32'
_cell_volume   648.75619045
_cell_formula_units_Z   1
loop_
 _symmetry_equiv_pos_site_id
 _symmetry_equiv_pos_as_xyz
  1  'x, y, z'
loop_
 _atom_site_type_symbol
 _atom_site_label
 _atom_site_symmetry_multiplicity
 _atom_site_fract_x
 _atom_site_fract_y
 _atom_site_fract_z
 _atom_site_occupancy
  Li  Li0  1  0.99498156  0.99841885  0.48611728  1
  Li  Li1  1  0.53300010  0.18803602  0.71155035  1
  Li  Li2  1  0.26244986  0.28643888  0.63140843  1
  Li  Li3  1  0.23891554  0.21159376  0.38084749  1
  Li  Li4  1  0.63242867  0.39517426  0.86121949  1
  Li  Li5  1  0.27073143  0.24358589  0.98582613  1
  Li  Li6  1  0.49589864  0.50213459  0.51316007  1
  Li  Li7  1  0.05721206  0.72808069  0.72195774  1
  Li  Li8  1  0.77842684  0.73934327  0.98013668  1
  Li  Li9  1  0.38280160  0.58264428  0.10906165  1
  Li  Li10  1  0.77185883  0.77631867  0.63377632  1
  Li  Li11  1  0.73809018  0.72671167  0.38045538  1
  Li  Li12  1  0.00198113  0.99326713  0.99201067  1
  Mn  Mn13  1  0.51784852  0.24956481  0.21062894  1
  Mn  Mn14  1  0.95202184  0.28384992  0.28070161  1
  Mn  Mn15  1  0.42616626  0.82497390  0.29782342  1
  Mn  Mn16  1  0.99756321  0.76042331  0.20482617  1
  Mn  Mn17  1  0.00430934  0.23479050  0.78794163  1
  Mn  Mn18  1  0.48208449  0.75406815  0.79102086  1
  P  P19  1  0.72152866  0.02771224  0.90006467  1
  P  P20  1  0.62597882  0.13314016  0.40926106  1
  P  P21  1  0.22040781  0.53114641  0.90249119  1
  P  P22  1  0.87758073  0.38026979  0.60433973  1
  P  P23  1  0.11879047  0.61618815  0.40024900  1
  P  P24  1  0.77467726  0.47431587  0.09579954  1
  P  P25  1  0.38293843  0.87258721  0.59724794  1
  P  P26  1  0.27508339  0.97561977  0.09796483  1
  O  O27  1  0.22445957  0.04362168  0.61064280  1
  O  O28  1  0.91745087  0.02923942  0.83973942  1
  O  O29  1  0.56947299  0.18984684  0.89717611  1
  O  O30  1  0.50441513  0.06654085  0.33371446  1
  O  O31  1  0.22566737  0.33455447  0.82399927  1
  O  O32  1  0.51043964  0.24983348  0.55080863  1
  O  O33  1  0.80645305  0.26054315  0.67990690  1
  O  O34  1  0.27611952  0.16894783  0.17698368  1
  O  O35  1  0.70469137  0.03114070  0.03895161  1
  O  O36  1  0.01505564  0.44251930  0.66341237  1
  O  O37  1  0.79302015  0.46832074  0.95585772  1
  O  O38  1  0.68646092  0.26968002  0.34617703  1
  O  O39  1  0.98156884  0.24994152  0.46098083  1
  O  O40  1  0.41310319  0.53795229  0.84237995  1
  O  O41  1  0.06362776  0.69310354  0.90603857  1
  O  O42  1  0.27916551  0.45041220  0.39114804  1
  O  O43  1  0.97891185  0.55137747  0.34217411  1
  O  O44  1  0.71625927  0.54681162  0.61470784  1
  O  O45  1  0.92703164  0.31129490  0.09673366  1
  O  O46  1  0.01307776  0.75637058  0.53846280  1
  O  O47  1  0.58053902  0.47098300  0.15996016  1
  O  O48  1  0.31549093  0.74302021  0.66274628  1
  O  O49  1  0.20131521  0.53059990  0.04167137  1
  O  O50  1  0.29166260  0.97608728  0.96028161  1
  O  O51  1  0.72064938  0.83399179  0.82402981  1
  O  O52  1  0.19143029  0.72336793  0.31316481  1
  O  O53  1  0.49333994  0.74933654  0.45339962  1
  O  O54  1  0.77757666  0.66788360  0.17268572  1
  O  O55  1  0.51665671  0.93400695  0.66208326  1
  O  O56  1  0.42452962  0.80816991  0.09701693  1
  O  O57  1  0.07567523  0.97583561  0.15636587  1
  O  O58  1  0.78949568  0.96325952  0.39309449  1
