# generated using pymatgen
data_Li3Rh(N3O8)2
_symmetry_space_group_name_H-M   'P 1'
_cell_length_a   11.91483600
_cell_length_b   7.06361800
_cell_length_c   9.82669178
_cell_angle_alpha   89.90063440
_cell_angle_beta   90.00000000
_cell_angle_gamma   90.00000000
_symmetry_Int_Tables_number   1
_chemical_formula_structural   Li3Rh(N3O8)2
_chemical_formula_sum   'Li6 Rh2 N12 O32'
_cell_volume   827.03131603
_cell_formula_units_Z   2
loop_
 _symmetry_equiv_pos_site_id
 _symmetry_equiv_pos_as_xyz
  1  'x, y, z'
loop_
 _atom_site_type_symbol
 _atom_site_label
 _atom_site_symmetry_multiplicity
 _atom_site_fract_x
 _atom_site_fract_y
 _atom_site_fract_z
 _atom_site_occupancy
  Li  Li0  1  0.69359700  0.57352700  0.99515200  1
  Li  Li1  1  0.30640300  0.42647300  0.00484800  1
  Li  Li2  1  0.80640300  0.57352700  0.49515200  1
  Li  Li3  1  0.19359700  0.42647300  0.50484800  1
  Li  Li4  1  0.00000000  0.50000000  0.00000000  1
  Li  Li5  1  0.50000000  0.50000000  0.50000000  1
  Rh  Rh6  1  0.00000000  0.00000000  0.00000000  1
  Rh  Rh7  1  0.50000000  0.00000000  0.50000000  1
  N  N8  1  0.14651400  0.16223700  0.99990100  1
  N  N9  1  0.85348600  0.83776300  0.00009900  1
  N  N10  1  0.35348600  0.16223700  0.49990100  1
  N  N11  1  0.64651400  0.83776300  0.50009900  1
  N  N12  1  0.92518500  0.16410300  0.15570200  1
  N  N13  1  0.07496400  0.83564000  0.15660300  1
  N  N14  1  0.57496400  0.16436000  0.34339700  1
  N  N15  1  0.42518500  0.83589700  0.34429800  1
  N  N16  1  0.07481500  0.83589700  0.84429800  1
  N  N17  1  0.92503600  0.16436000  0.84339700  1
  N  N18  1  0.42503600  0.83564000  0.65660300  1
  N  N19  1  0.57481500  0.16410300  0.65570200  1
  O  O20  1  0.88261300  0.07474900  0.25013000  1
  O  O21  1  0.11833600  0.92418800  0.24990900  1
  O  O22  1  0.61833600  0.07581200  0.25009100  1
  O  O23  1  0.38261300  0.92525100  0.24987000  1
  O  O24  1  0.11738700  0.92525100  0.74987000  1
  O  O25  1  0.88166400  0.07581200  0.75009100  1
  O  O26  1  0.38166400  0.92418800  0.74990900  1
  O  O27  1  0.61738700  0.07474900  0.75013000  1
  O  O28  1  0.66103500  0.29852600  0.99979400  1
  O  O29  1  0.33896500  0.70147400  0.00020600  1
  O  O30  1  0.83896500  0.29852600  0.49979400  1
  O  O31  1  0.16103500  0.70147400  0.50020600  1
  O  O32  1  0.92738100  0.33941500  0.14970400  1
  O  O33  1  0.07180000  0.65967800  0.15035000  1
  O  O34  1  0.57180000  0.34032200  0.34965000  1
  O  O35  1  0.42738100  0.66058500  0.35029600  1
  O  O36  1  0.07261900  0.66058500  0.85029600  1
  O  O37  1  0.92820000  0.34032200  0.84965000  1
  O  O38  1  0.42820000  0.65967800  0.65035000  1
  O  O39  1  0.57261900  0.33941500  0.64970400  1
  O  O40  1  0.14402300  0.34144600  0.99923900  1
  O  O41  1  0.85597700  0.65855400  0.00076100  1
  O  O42  1  0.35597700  0.34144600  0.49923900  1
  O  O43  1  0.64402300  0.65855400  0.50076100  1
  O  O44  1  0.23775600  0.08034900  0.00086400  1
  O  O45  1  0.76224400  0.91965100  0.99913600  1
  O  O46  1  0.26224400  0.08034900  0.50086400  1
  O  O47  1  0.73775600  0.91965100  0.49913600  1
  O  O48  1  0.63518500  0.64212900  0.17316000  1
  O  O49  1  0.13518500  0.35787100  0.32684000  1
  O  O50  1  0.36481500  0.35787100  0.82684000  1
  O  O51  1  0.86481500  0.64212900  0.67316000  1
