# generated using pymatgen
data_Li2FeO3
_symmetry_space_group_name_H-M   'P 1'
_cell_length_a   5.07692133
_cell_length_b   8.92514286
_cell_length_c   5.00710634
_cell_angle_alpha   87.62853365
_cell_angle_beta   79.49810039
_cell_angle_gamma   104.62742019
_symmetry_Int_Tables_number   1
_chemical_formula_structural   Li2FeO3
_chemical_formula_sum   'Li8 Fe4 O12'
_cell_volume   214.93932400
_cell_formula_units_Z   4
loop_
 _symmetry_equiv_pos_site_id
 _symmetry_equiv_pos_as_xyz
  1  'x, y, z'
loop_
 _atom_site_type_symbol
 _atom_site_label
 _atom_site_symmetry_multiplicity
 _atom_site_fract_x
 _atom_site_fract_y
 _atom_site_fract_z
 _atom_site_occupancy
  Li  Li0  1  0.00003400  0.50000600  0.00002600  1
  Li  Li1  1  0.99996700  0.99999400  0.49997500  1
  Li  Li2  1  0.50000000  0.75000000  0.75000000  1
  Li  Li3  1  0.50000000  0.25000000  0.25000100  1
  Li  Li4  1  0.99806200  0.17383300  0.00689400  1
  Li  Li5  1  0.99809200  0.67382100  0.50690600  1
  Li  Li6  1  0.00191000  0.82617800  0.99309400  1
  Li  Li7  1  0.00193700  0.32616800  0.49310600  1
  Fe  Fe8  1  0.50106700  0.08589000  0.74632400  1
  Fe  Fe9  1  0.49893800  0.41411000  0.75366900  1
  Fe  Fe10  1  0.50110200  0.58589700  0.24629000  1
  Fe  Fe11  1  0.49889500  0.91410000  0.25371000  1
  O  O12  1  0.73273900  0.61724200  0.89888900  1
  O  O13  1  0.73270000  0.11723200  0.39891900  1
  O  O14  1  0.26729500  0.38276800  0.10108400  1
  O  O15  1  0.26726300  0.88275800  0.60111300  1
  O  O16  1  0.72966800  0.29676900  0.86007200  1
  O  O17  1  0.72965000  0.79675300  0.36008000  1
  O  O18  1  0.27460700  0.52968100  0.60410800  1
  O  O19  1  0.27456400  0.02967500  0.10409800  1
  O  O20  1  0.27035100  0.70324800  0.13991900  1
  O  O21  1  0.27033000  0.20323000  0.63993000  1
  O  O22  1  0.72543100  0.47032800  0.39590300  1
  O  O23  1  0.72539800  0.97032000  0.89589100  1
