# generated using pymatgen
data_Li4V3P8O29
_symmetry_space_group_name_H-M   'P 1'
_cell_length_a   9.77924900
_cell_length_b   9.79398043
_cell_length_c   14.23851213
_cell_angle_alpha   89.95442337
_cell_angle_beta   90.72042774
_cell_angle_gamma   119.85566548
_symmetry_Int_Tables_number   1
_chemical_formula_structural   Li4V3P8O29
_chemical_formula_sum   'Li8 V6 P16 O58'
_cell_volume   1182.62439194
_cell_formula_units_Z   2
loop_
 _symmetry_equiv_pos_site_id
 _symmetry_equiv_pos_as_xyz
  1  'x, y, z'
loop_
 _atom_site_type_symbol
 _atom_site_label
 _atom_site_symmetry_multiplicity
 _atom_site_fract_x
 _atom_site_fract_y
 _atom_site_fract_z
 _atom_site_occupancy
  Li  Li0  1  0.77321700  0.08997400  0.06082500  1
  Li  Li1  1  0.32041200  0.22723900  0.06561200  1
  Li  Li2  1  0.67133100  0.90476900  0.44084900  1
  Li  Li3  1  0.32638800  0.09450600  0.55660100  1
  Li  Li4  1  0.69112900  0.77345100  0.93749600  1
  Li  Li5  1  0.22291100  0.90778500  0.94668300  1
  Li  Li6  1  0.09402800  0.32355000  0.94187000  1
  Li  Li7  1  0.00190000  0.00614100  0.49270900  1
  V  V8  1  0.56758000  0.00056300  0.25056500  1
  V  V9  1  0.43124600  0.99804700  0.75141100  1
  V  V10  1  0.56784800  0.56257600  0.74526200  1
  V  V11  1  0.43404000  0.44109700  0.25580600  1
  V  V12  1  0.99968000  0.56513600  0.25522600  1
  V  V13  1  0.99854900  0.43861900  0.74120100  1
  P  P14  1  0.91617900  0.68644000  0.83956300  1
  P  P15  1  0.78072800  0.69669300  0.33570200  1
  P  P16  1  0.91971500  0.22180800  0.34206200  1
  P  P17  1  0.66548000  0.33338600  0.13345900  1
  P  P18  1  0.66153100  0.33057800  0.62950200  1
  P  P19  1  0.77340600  0.09305600  0.83762500  1
  P  P20  1  0.68406900  0.91091700  0.65830700  1
  P  P21  1  0.32143500  0.23394600  0.84622200  1
  P  P22  1  0.67887200  0.76709900  0.15328500  1
  P  P23  1  0.31553500  0.09076800  0.34170800  1
  P  P24  1  0.22539100  0.90661700  0.16407200  1
  P  P25  1  0.33529800  0.66879800  0.37144200  1
  P  P26  1  0.33317700  0.66243600  0.86619000  1
  P  P27  1  0.08040300  0.77903400  0.65506900  1
  P  P28  1  0.22129700  0.30564400  0.66340200  1
  P  P29  1  0.08628500  0.31814700  0.15896100  1
  O  O30  1  0.00414400  0.79513700  0.56939400  1
  O  O31  1  0.91501200  0.65649200  0.33536700  1
  O  O32  1  0.74228600  0.75431700  0.06168000  1
  O  O33  1  0.74530000  0.65918000  0.83799700  1
  O  O34  1  0.91114100  0.52763500  0.81939700  1
  O  O35  1  0.81516900  0.47413600  0.18369900  1
  O  O36  1  0.92512400  0.38276000  0.33190000  1
  O  O37  1  0.00175300  0.24309300  0.06786300  1
  O  O38  1  0.91977000  0.25988900  0.83720200  1
  O  O39  1  0.66873600  0.48151100  0.67786700  1
  O  O40  1  0.61938600  0.53889700  0.32841700  1
  O  O41  1  0.81092600  0.32960500  0.67517400  1
  O  O42  1  0.66805200  0.33770100  0.02891600  1
  O  O43  1  0.66793700  0.34274200  0.52591500  1
  O  O44  1  0.66804600  0.18192000  0.16903300  1
  O  O45  1  0.47983000  0.38158000  0.82317400  1
  O  O46  1  0.51751400  0.33620000  0.17342100  1
  O  O47  1  0.74382400  0.08618100  0.33571600  1
  O  O48  1  0.79566400  0.00549400  0.74815100  1
  O  O49  1  0.76771900  0.97553500  0.56868800  1
  O  O50  1  0.76200700  0.00467700  0.92636800  1
  O  O51  1  0.62074300  0.10104600  0.81953000  1
  O  O52  1  0.50957400  0.18592800  0.66643100  1
  O  O53  1  0.66297900  0.91676500  0.16051100  1
  O  O54  1  0.46971100  0.08936800  0.33101100  1
  O  O55  1  0.34638800  0.26223300  0.32690600  1
  O  O56  1  0.79866600  0.78502000  0.23744700  1
  O  O57  1  0.79346300  0.80175000  0.41485500  1
  O  O58  1  0.20830700  0.20165800  0.58382600  1
  O  O59  1  0.65602600  0.74006800  0.67312000  1
  O  O60  1  0.52858400  0.90990100  0.67114600  1
  O  O61  1  0.33618200  0.08392500  0.84372800  1
  O  O62  1  0.48896000  0.81310200  0.33523000  1
  O  O63  1  0.37907500  0.90041100  0.18124000  1
  O  O64  1  0.23640000  0.99443800  0.07505400  1
  O  O65  1  0.22905400  0.02660200  0.43098900  1
  O  O66  1  0.20416300  0.99777000  0.25196300  1
  O  O67  1  0.25517700  0.91503300  0.66586000  1
  O  O68  1  0.48166300  0.66253100  0.82381800  1
  O  O69  1  0.52032300  0.61888400  0.17896700  1
  O  O70  1  0.33105600  0.81408300  0.83152700  1
  O  O71  1  0.33263200  0.65242000  0.97068800  1
  O  O72  1  0.33137100  0.65581400  0.47522200  1
  O  O73  1  0.18841000  0.66937100  0.32519400  1
  O  O74  1  0.38210100  0.46245100  0.67195600  1
  O  O75  1  0.33067100  0.51755700  0.32330900  1
  O  O76  1  0.08219200  0.73946900  0.16833700  1
  O  O77  1  0.99650500  0.79300600  0.74825300  1
  O  O78  1  0.00661100  0.76982700  0.92522000  1
  O  O79  1  0.08038500  0.61860900  0.66906300  1
  O  O80  1  0.18274600  0.51587800  0.82127500  1
  O  O81  1  0.09315500  0.47607100  0.17858600  1
  O  O82  1  0.25438700  0.33942200  0.16111500  1
  O  O83  1  0.25088700  0.24939500  0.93617100  1
  O  O84  1  0.20234800  0.21439700  0.76130000  1
  O  O85  1  0.08597900  0.34484700  0.66564700  1
  O  O86  1  0.00024700  0.19812400  0.42370800  1
  O  O87  1  0.99340500  0.20292300  0.24387700  1
