# generated using pymatgen
data_Li3V3P8O29
_symmetry_space_group_name_H-M   'P 1'
_cell_length_a   9.74523200
_cell_length_b   9.76860511
_cell_length_c   14.44056986
_cell_angle_alpha   90.15786967
_cell_angle_beta   90.51201804
_cell_angle_gamma   119.78791297
_symmetry_Int_Tables_number   1
_chemical_formula_structural   Li3V3P8O29
_chemical_formula_sum   'Li6 V6 P16 O58'
_cell_volume   1192.97574796
_cell_formula_units_Z   2
loop_
 _symmetry_equiv_pos_site_id
 _symmetry_equiv_pos_as_xyz
  1  'x, y, z'
loop_
 _atom_site_type_symbol
 _atom_site_label
 _atom_site_symmetry_multiplicity
 _atom_site_fract_x
 _atom_site_fract_y
 _atom_site_fract_z
 _atom_site_occupancy
  Li  Li0  1  0.08765000  0.32030900  0.44938300  1
  Li  Li1  1  0.69102000  0.91847500  0.93512800  1
  Li  Li2  1  0.22774100  0.90985400  0.45232800  1
  Li  Li3  1  0.28640600  0.07613800  0.04698200  1
  Li  Li4  1  0.77753200  0.69158500  0.05099400  1
  Li  Li5  1  0.94719600  0.97696000  0.51163600  1
  V  V6  1  0.56918300  0.00617300  0.74429400  1
  V  V7  1  0.43809400  0.99953100  0.25330800  1
  V  V8  1  0.00161400  0.43574600  0.24463500  1
  V  V9  1  0.99948000  0.56383300  0.75385800  1
  V  V10  1  0.43474800  0.43302800  0.74660900  1
  V  V11  1  0.56253500  0.56620700  0.25865000  1
  P  P12  1  0.23091300  0.31577800  0.15874200  1
  P  P13  1  0.08414100  0.31009300  0.65927000  1
  P  P14  1  0.69404100  0.77632600  0.66100400  1
  P  P15  1  0.34187300  0.67152700  0.86622100  1
  P  P16  1  0.32967200  0.66670900  0.36748000  1
  P  P17  1  0.67940700  0.90688000  0.15755800  1
  P  P18  1  0.78472000  0.08696700  0.33662500  1
  P  P19  1  0.08672300  0.77468100  0.15933200  1
  P  P20  1  0.91751300  0.22410500  0.84026100  1
  P  P21  1  0.21985200  0.90820400  0.66158400  1
  P  P22  1  0.31863500  0.09231300  0.83696700  1
  P  P23  1  0.66895600  0.33653700  0.63273600  1
  P  P24  1  0.66121300  0.33342100  0.13652500  1
  P  P25  1  0.30699400  0.22359500  0.34043000  1
  P  P26  1  0.91947000  0.69188000  0.33984400  1
  P  P27  1  0.77216700  0.68192400  0.84020900  1
  O  O28  1  0.21201600  0.21903400  0.42124600  1
  O  O29  1  0.25784300  0.34509200  0.66828600  1
  O  O30  1  0.99998800  0.22018900  0.92486700  1
  O  O31  1  0.08710400  0.34357200  0.16753600  1
  O  O32  1  0.38203000  0.47613100  0.18209400  1
  O  O33  1  0.35064200  0.53124000  0.81688100  1
  O  O34  1  0.54098300  0.61553000  0.66851100  1
  O  O35  1  0.76188500  0.75774000  0.92862600  1
  O  O36  1  0.65981100  0.73992100  0.16835600  1
  O  O37  1  0.18709300  0.51430900  0.32426200  1
  O  O38  1  0.08218200  0.46605400  0.67305900  1
  O  O39  1  0.48305800  0.67288800  0.32608100  1
  O  O40  1  0.34543900  0.66636500  0.96876900  1
  O  O41  1  0.32540600  0.66806400  0.46999000  1
  O  O42  1  0.48690400  0.82551900  0.82806300  1
  O  O43  1  0.09544800  0.62089200  0.17683700  1
  O  O44  1  0.18715200  0.66005600  0.82302900  1
  O  O45  1  0.65117800  0.91004500  0.66993100  1
  O  O46  1  0.79921500  0.01150900  0.23954200  1
  O  O47  1  0.80114200  0.00422000  0.41761900  1
  O  O48  1  0.73778000  0.97574900  0.06560400  1
  O  O49  1  0.51926700  0.89969500  0.18279100  1
  O  O50  1  0.32499800  0.81527200  0.32634200  1
  O  O51  1  0.74312500  0.08296200  0.83398600  1
  O  O52  1  0.38033600  0.91090200  0.67392600  1
  O  O53  1  0.08295600  0.73741900  0.67232300  1
  O  O54  1  0.99366300  0.19992400  0.74535300  1
  O  O55  1  0.01313600  0.22627700  0.56957400  1
  O  O56  1  0.00403300  0.78827400  0.42258500  1
  O  O57  1  0.92015600  0.26201000  0.33315300  1
  O  O58  1  0.62106800  0.08231900  0.32632700  1
  O  O59  1  0.25697600  0.91966700  0.16400700  1
  O  O60  1  0.66992500  0.18571300  0.67513300  1
  O  O61  1  0.47797600  0.09841100  0.81726200  1
  O  O62  1  0.24649300  0.01234200  0.92481800  1
  O  O63  1  0.20908500  0.97992300  0.57270000  1
  O  O64  1  0.20452100  0.00112100  0.74930400  1
  O  O65  1  0.34143900  0.08373000  0.33897500  1
  O  O66  1  0.81461600  0.33810500  0.17888800  1
  O  O67  1  0.91226100  0.37972100  0.82332600  1
  O  O68  1  0.51793100  0.18204500  0.18153000  1
  O  O69  1  0.65489700  0.32844800  0.03423200  1
  O  O70  1  0.67144800  0.33393800  0.53036700  1
  O  O71  1  0.51821200  0.33080400  0.67487200  1
  O  O72  1  0.92202400  0.53588300  0.32530200  1
  O  O73  1  0.81383900  0.48135500  0.68041400  1
  O  O74  1  0.34487300  0.26173900  0.82914100  1
  O  O75  1  0.20949200  0.20290200  0.24615800  1
  O  O76  1  0.23855100  0.23780200  0.07344900  1
  O  O77  1  0.46688300  0.38217700  0.32908900  1
  O  O78  1  0.66124800  0.48038600  0.17928700  1
  O  O79  1  0.62165300  0.52263200  0.82105900  1
  O  O80  1  0.91737900  0.65805100  0.83653000  1
  O  O81  1  0.99763100  0.76814100  0.07440000  1
  O  O82  1  0.00060400  0.79535500  0.24857200  1
  O  O83  1  0.74446000  0.65462700  0.33278900  1
  O  O84  1  0.79510300  0.80039000  0.57999500  1
  O  O85  1  0.79308100  0.79770800  0.75637300  1
