# generated using pymatgen
data_Li7Mn2Fe6(PO4)8
_symmetry_space_group_name_H-M   'P 1'
_cell_length_a   7.73785800
_cell_length_b   7.76191128
_cell_length_c   10.40472837
_cell_angle_alpha   90.25169613
_cell_angle_beta   90.28596443
_cell_angle_gamma   103.77172167
_symmetry_Int_Tables_number   1
_chemical_formula_structural   Li7Mn2Fe6(PO4)8
_chemical_formula_sum   'Li7 Mn2 Fe6 P8 O32'
_cell_volume   606.93121507
_cell_formula_units_Z   1
loop_
 _symmetry_equiv_pos_site_id
 _symmetry_equiv_pos_as_xyz
  1  'x, y, z'
loop_
 _atom_site_type_symbol
 _atom_site_label
 _atom_site_symmetry_multiplicity
 _atom_site_fract_x
 _atom_site_fract_y
 _atom_site_fract_z
 _atom_site_occupancy
  Li  Li0  1  0.74995100  0.74545600  0.49703500  1
  Li  Li1  1  0.49538200  0.99996400  0.49682300  1
  Li  Li2  1  0.25105700  0.25226600  0.49574800  1
  Li  Li3  1  0.00213300  0.50082700  0.49609900  1
  Li  Li4  1  0.75279100  0.24692300  0.00688600  1
  Li  Li5  1  0.49953700  0.49654400  0.00239200  1
  Li  Li6  1  0.23982200  0.75568500  0.00086500  1
  Mn  Mn7  1  0.38446800  0.13614200  0.78362500  1
  Mn  Mn8  1  0.88805900  0.63836800  0.78397100  1
  Fe  Fe9  1  0.88259900  0.12997200  0.72577900  1
  Fe  Fe10  1  0.39093300  0.64067800  0.71845200  1
  Fe  Fe11  1  0.61046800  0.36058300  0.27935700  1
  Fe  Fe12  1  0.11117800  0.86455600  0.27604100  1
  Fe  Fe13  1  0.11033900  0.35751400  0.21769300  1
  Fe  Fe14  1  0.61229700  0.86295700  0.21842300  1
  P  P15  1  0.67095000  0.91958400  0.90698900  1
  P  P16  1  0.16844800  0.42083600  0.90064200  1
  P  P17  1  0.66611000  0.40990600  0.59227900  1
  P  P18  1  0.16073500  0.91574600  0.59146300  1
  P  P19  1  0.83471400  0.08522600  0.41018900  1
  P  P20  1  0.33415000  0.58545500  0.40691000  1
  P  P21  1  0.33314000  0.08365600  0.09508600  1
  P  P22  1  0.83452100  0.58120100  0.09671300  1
  O  O23  1  0.28031700  0.02166800  0.95656300  1
  O  O24  1  0.77056300  0.52035500  0.95787000  1
  O  O25  1  0.00390300  0.26490700  0.88326100  1
  O  O26  1  0.51120900  0.75894600  0.89857400  1
  O  O27  1  0.64401900  0.09070000  0.83158100  1
  O  O28  1  0.33854100  0.38755400  0.83378500  1
  O  O29  1  0.83365400  0.89105000  0.82527500  1
  O  O30  1  0.14000300  0.59357500  0.83463800  1
  O  O31  1  0.11759300  0.08181900  0.66348600  1
  O  O32  1  0.83243400  0.36683200  0.66383800  1
  O  O33  1  0.63371300  0.57636900  0.66574900  1
  O  O34  1  0.32774600  0.88357200  0.66498700  1
  O  O35  1  0.50329300  0.25221400  0.59285800  1
  O  O36  1  0.00220400  0.75377000  0.59249600  1
  O  O37  1  0.77689400  0.02727800  0.55203000  1
  O  O38  1  0.27186700  0.52268300  0.54490900  1
  O  O39  1  0.22596700  0.98128300  0.45565800  1
  O  O40  1  0.73132400  0.47561600  0.45616300  1
  O  O41  1  0.99545900  0.24507400  0.40679400  1
  O  O42  1  0.49550300  0.74603400  0.40735500  1
  O  O43  1  0.37043900  0.41834400  0.33627400  1
  O  O44  1  0.16634400  0.62031500  0.33580100  1
  O  O45  1  0.66454100  0.11827000  0.34221000  1
  O  O46  1  0.86636600  0.91538300  0.34167500  1
  O  O47  1  0.17348900  0.12134500  0.17259400  1
  O  O48  1  0.86422400  0.40951100  0.16624700  1
  O  O49  1  0.66734100  0.61919700  0.16674900  1
  O  O50  1  0.37008900  0.91584900  0.16619000  1
  O  O51  1  0.49553600  0.24534200  0.09725800  1
  O  O52  1  0.99875900  0.73465200  0.10063400  1
  O  O53  1  0.22077100  0.47058200  0.04211800  1
  O  O54  1  0.72210900  0.97986400  0.04491900  1
