# generated using pymatgen
data_LiMnSiO4
_symmetry_space_group_name_H-M   'P 1'
_cell_length_a   18.89746418
_cell_length_b   8.12071820
_cell_length_c   5.55014572
_cell_angle_alpha   89.99967115
_cell_angle_beta   89.97633873
_cell_angle_gamma   89.99953806
_symmetry_Int_Tables_number   1
_chemical_formula_structural   LiMnSiO4
_chemical_formula_sum   'Li12 Mn12 Si12 O48'
_cell_volume   851.73073577
_cell_formula_units_Z   12
loop_
 _symmetry_equiv_pos_site_id
 _symmetry_equiv_pos_as_xyz
  1  'x, y, z'
loop_
 _atom_site_type_symbol
 _atom_site_label
 _atom_site_symmetry_multiplicity
 _atom_site_fract_x
 _atom_site_fract_y
 _atom_site_fract_z
 _atom_site_occupancy
  Li  Li0  1  0.08296592  0.57588659  0.00728369  1
  Li  Li1  1  0.08364126  0.07890005  0.50039796  1
  Li  Li2  1  0.24957851  0.92195454  0.01742717  1
  Li  Li3  1  0.25041475  0.42194891  0.51748670  1
  Li  Li4  1  0.41636700  0.57890531  0.00046340  1
  Li  Li5  1  0.41702689  0.07588717  0.50733821  1
  Li  Li6  1  0.58296208  0.92408172  0.00733935  1
  Li  Li7  1  0.58363653  0.42108743  0.50040777  1
  Li  Li8  1  0.74957616  0.57807145  0.01742594  1
  Li  Li9  1  0.75041208  0.07806828  0.51748141  1
  Li  Li10  1  0.91636506  0.92108345  0.00037676  1
  Li  Li11  1  0.91702938  0.42411587  0.50734398  1
  Mn  Mn12  1  0.99953528  0.24903467  0.99049355  1
  Mn  Mn13  1  0.00042959  0.75091726  0.49059182  1
  Mn  Mn14  1  0.16693497  0.75011301  0.51021329  1
  Mn  Mn15  1  0.16676475  0.24998421  0.01694928  1
  Mn  Mn16  1  0.33322181  0.74993030  0.51677321  1
  Mn  Mn17  1  0.33304775  0.25006495  0.01040762  1
  Mn  Mn18  1  0.49954182  0.25092098  0.99052086  1
  Mn  Mn19  1  0.50046001  0.74903554  0.49065764  1
  Mn  Mn20  1  0.66691026  0.74994011  0.51016352  1
  Mn  Mn21  1  0.66673414  0.25023642  0.01679046  1
  Mn  Mn22  1  0.83322338  0.75009444  0.51675539  1
  Mn  Mn23  1  0.83306212  0.24990066  0.01034247  1
  Si  Si24  1  0.08325966  0.90384508  0.99474656  1
  Si  Si25  1  0.08362249  0.40458213  0.50414138  1
  Si  Si26  1  0.24978980  0.59618518  0.01827294  1
  Si  Si27  1  0.25022514  0.09618878  0.51833001  1
  Si  Si28  1  0.41638990  0.90455597  0.00421429  1
  Si  Si29  1  0.41673208  0.40381757  0.49479848  1
  Si  Si30  1  0.58325151  0.59615124  0.99479403  1
  Si  Si31  1  0.58360034  0.09538471  0.50415404  1
  Si  Si32  1  0.74978618  0.90384037  0.01823870  1
  Si  Si33  1  0.75022604  0.40384095  0.51829175  1
  Si  Si34  1  0.91638972  0.59544015  0.00414946  1
  Si  Si35  1  0.91675557  0.09615537  0.49472617  1
  O  O36  1  0.98842444  0.98374723  0.49169165  1
  O  O37  1  0.01157907  0.01617738  0.99167276  1
  O  O38  1  0.01231488  0.51794663  0.49605826  1
  O  O39  1  0.08102932  0.27724992  0.73987724  1
  O  O40  1  0.08576989  0.27779735  0.26653717  1
  O  O41  1  0.08361447  0.77370025  0.22417291  1
  O  O42  1  0.08314506  0.78115650  0.74964251  1
  O  O43  1  0.15448786  0.01720712  0.00620793  1
  O  O44  1  0.15516130  0.51699536  0.51506892  1
  O  O45  1  0.17840291  0.48302908  0.01588347  1
  O  O46  1  0.17876042  0.98335080  0.50782423  1
  O  O47  1  0.25097200  0.22659872  0.28940672  1
  O  O48  1  0.24938467  0.21967550  0.76341963  1
  O  O49  1  0.24909660  0.72661882  0.78931041  1
  O  O50  1  0.25058444  0.71970277  0.26338923  1
  O  O51  1  0.32124218  0.48329592  0.00786977  1
  O  O52  1  0.32160247  0.98299239  0.51593161  1
  O  O53  1  0.34483509  0.01698000  0.01512048  1
  O  O54  1  0.34551500  0.51718862  0.50620861  1
  O  O55  1  0.41690869  0.28111947  0.24969475  1
  O  O56  1  0.41636327  0.27368142  0.72425313  1
  O  O57  1  0.41428571  0.77776654  0.76665190  1
  O  O58  1  0.41893848  0.77723999  0.24001361  1
  O  O59  1  0.48768570  0.01798326  0.99611634  1
  O  O60  1  0.48842522  0.51618579  0.49177895  1
  O  O61  1  0.51157672  0.48380306  0.99172671  1
  O  O62  1  0.51230257  0.98198330  0.49615803  1
  O  O63  1  0.58102972  0.22273724  0.73990598  1
  O  O64  1  0.58574378  0.22218483  0.26652965  1
  O  O65  1  0.58360124  0.72624858  0.22424635  1
  O  O66  1  0.58312475  0.71881787  0.74973333  1
  O  O67  1  0.65447824  0.48280574  0.00622558  1
  O  O68  1  0.65515723  0.98299453  0.51503859  1
  O  O69  1  0.67839706  0.01699498  0.01587618  1
  O  O70  1  0.67875270  0.51668099  0.50780999  1
  O  O71  1  0.74938542  0.28035762  0.76340451  1
  O  O72  1  0.75096518  0.27341823  0.28937758  1
  O  O73  1  0.75059937  0.78031926  0.26332324  1
  O  O74  1  0.74908108  0.77341771  0.78925725  1
  O  O75  1  0.82124040  0.01672465  0.00780614  1
  O  O76  1  0.82159225  0.51701874  0.51591474  1
  O  O77  1  0.84482878  0.48302398  0.01506474  1
  O  O78  1  0.84551428  0.98280252  0.50619420  1
  O  O79  1  0.91691547  0.21887577  0.24964059  1
  O  O80  1  0.91638137  0.22630515  0.72420040  1
  O  O81  1  0.91429679  0.72219754  0.76651946  1
  O  O82  1  0.91894757  0.72275207  0.23990010  1
  O  O83  1  0.98768799  0.48199798  0.99604922  1
