# generated using pymatgen
data_Li6V3P8O29
_symmetry_space_group_name_H-M   'P 1'
_cell_length_a   9.81205900
_cell_length_b   9.82615146
_cell_length_c   14.01012214
_cell_angle_alpha   90.05349215
_cell_angle_beta   89.97682015
_cell_angle_gamma   119.79194760
_symmetry_Int_Tables_number   1
_chemical_formula_structural   Li6V3P8O29
_chemical_formula_sum   'Li12 V6 P16 O58'
_cell_volume   1172.25648114
_cell_formula_units_Z   2
loop_
 _symmetry_equiv_pos_site_id
 _symmetry_equiv_pos_as_xyz
  1  'x, y, z'
loop_
 _atom_site_type_symbol
 _atom_site_label
 _atom_site_symmetry_multiplicity
 _atom_site_fract_x
 _atom_site_fract_y
 _atom_site_fract_z
 _atom_site_occupancy
  Li  Li0  1  0.77654600  0.69720800  0.93773700  1
  Li  Li1  1  0.90395800  0.66626200  0.44094500  1
  Li  Li2  1  0.33450800  0.23329200  0.44353900  1
  Li  Li3  1  0.66744300  0.32687000  0.11182500  1
  Li  Li4  1  0.31814800  0.08935100  0.93428000  1
  Li  Li5  1  0.91473400  0.22333200  0.94098500  1
  Li  Li6  1  0.76400000  0.09487600  0.44029100  1
  Li  Li7  1  0.09164900  0.77562200  0.05711600  1
  Li  Li8  1  0.66458900  0.76532000  0.56236700  1
  Li  Li9  1  0.10018800  0.33250700  0.56173000  1
  Li  Li10  1  0.22372500  0.31550900  0.05851600  1
  Li  Li11  1  0.03470600  0.98455000  0.51019500  1
  V  V12  1  0.43186700  0.99600200  0.74670800  1
  V  V13  1  0.56424000  0.99916300  0.24856600  1
  V  V14  1  0.00053400  0.56705700  0.25351600  1
  V  V15  1  0.99970100  0.43598600  0.74804700  1
  V  V16  1  0.56499800  0.56904800  0.75291700  1
  V  V17  1  0.43636800  0.43661200  0.25091500  1
  P  P18  1  0.77048200  0.67714100  0.15687300  1
  P  P19  1  0.90989400  0.68636200  0.65792200  1
  P  P20  1  0.31766500  0.22894900  0.66076000  1
  P  P21  1  0.66802800  0.33526600  0.87081800  1
  P  P22  1  0.66553700  0.33236100  0.37160600  1
  P  P23  1  0.31901200  0.08927800  0.15515500  1
  P  P24  1  0.22519600  0.91783400  0.34115400  1
  P  P25  1  0.90888400  0.23103300  0.15900200  1
  P  P26  1  0.08845600  0.76958000  0.83949900  1
  P  P27  1  0.77248200  0.08461700  0.65465500  1
  P  P28  1  0.68514400  0.91684200  0.84006600  1
  P  P29  1  0.33090800  0.66403600  0.62944100  1
  P  P30  1  0.33180100  0.66693900  0.13093100  1
  P  P31  1  0.68723900  0.77277400  0.34021300  1
  P  P32  1  0.08675500  0.31409800  0.34284200  1
  P  P33  1  0.23037600  0.32005700  0.84272700  1
  O  O34  1  0.77303500  0.76892300  0.42910300  1
  O  O35  1  0.74066600  0.66167600  0.66462400  1
  O  O36  1  0.99892900  0.75838100  0.92949400  1
  O  O37  1  0.92117200  0.66155800  0.16070400  1
  O  O38  1  0.62729400  0.51000800  0.17567200  1
  O  O39  1  0.67323700  0.48911000  0.83440900  1
  O  O40  1  0.47043600  0.38417000  0.67007600  1
  O  O41  1  0.24727800  0.24413800  0.93205500  1
  O  O42  1  0.32941300  0.25115100  0.15673100  1
  O  O43  1  0.81034100  0.48827500  0.33339800  1
  O  O44  1  0.90793200  0.52994900  0.66735200  1
  O  O45  1  0.51124900  0.32679700  0.33041900  1
  O  O46  1  0.67793000  0.33827900  0.97848700  1
  O  O47  1  0.66113900  0.32925000  0.47816900  1
  O  O48  1  0.51697200  0.18782100  0.83472600  1
  O  O49  1  0.88838000  0.37640200  0.17719000  1
  O  O50  1  0.81751200  0.33485600  0.82763400  1
  O  O51  1  0.34480400  0.08807900  0.66622000  1
  O  O52  1  0.20532000  0.99015900  0.24094300  1
  O  O53  1  0.20613900  0.00992000  0.42082800  1
  O  O54  1  0.24958900  0.99981400  0.06408900  1
  O  O55  1  0.48700800  0.11611700  0.17390000  1
  O  O56  1  0.67363600  0.18800200  0.32942800  1
  O  O57  1  0.25194600  0.91843600  0.83940500  1
  O  O58  1  0.62089300  0.08986600  0.66803600  1
  O  O59  1  0.91882600  0.24946900  0.65722300  1
  O  O60  1  0.99849100  0.79327000  0.74952200  1
  O  O61  1  0.98354100  0.77506500  0.56727100  1
  O  O62  1  0.99771800  0.22746500  0.43136200  1
  O  O63  1  0.08387300  0.74796800  0.34135900  1
  O  O64  1  0.38394400  0.92406100  0.33579500  1
  O  O65  1  0.74512400  0.08738700  0.16004300  1
  O  O66  1  0.32143000  0.80434400  0.67259100  1
  O  O67  1  0.52561500  0.90929300  0.82273200  1
  O  O68  1  0.77270100  0.01136000  0.92436900  1
  O  O69  1  0.77517200  0.99818300  0.56497600  1
  O  O70  1  0.78872500  0.99056600  0.74414900  1
  O  O71  1  0.66928400  0.91958700  0.33951900  1
  O  O72  1  0.18331800  0.66669900  0.17193700  1
  O  O73  1  0.10119800  0.62203100  0.82304900  1
  O  O74  1  0.47450500  0.81601700  0.17836200  1
  O  O75  1  0.33206100  0.66444400  0.02500500  1
  O  O76  1  0.32504000  0.64870800  0.52314300  1
  O  O77  1  0.48591600  0.67480200  0.66966100  1
  O  O78  1  0.08692500  0.47049300  0.32946200  1
  O  O79  1  0.18303600  0.50751700  0.67167600  1
  O  O80  1  0.66005800  0.74789700  0.84229400  1
  O  O81  1  0.79078300  0.78750500  0.24706900  1
  O  O82  1  0.75800000  0.74792000  0.06623900  1
  O  O83  1  0.52807000  0.62129200  0.32806900  1
  O  O84  1  0.33747000  0.51886400  0.17288300  1
  O  O85  1  0.37840000  0.48002700  0.82367100  1
  O  O86  1  0.08229800  0.33487200  0.84353900  1
  O  O87  1  0.00355900  0.25068000  0.07043800  1
  O  O88  1  0.00251700  0.21224100  0.24888400  1
  O  O89  1  0.25355200  0.33785400  0.34344300  1
  O  O90  1  0.22351800  0.21722300  0.57151000  1
  O  O91  1  0.20916000  0.20939700  0.75217500  1
