# generated using pymatgen
data_Li6V3P8O29
_symmetry_space_group_name_H-M   'P 1'
_cell_length_a   9.77236500
_cell_length_b   9.79924723
_cell_length_c   14.00852486
_cell_angle_alpha   89.90562059
_cell_angle_beta   89.88595664
_cell_angle_gamma   60.49732091
_symmetry_Int_Tables_number   1
_chemical_formula_structural   Li6V3P8O29
_chemical_formula_sum   'Li12 V6 P16 O58'
_cell_volume   1167.53282005
_cell_formula_units_Z   2
loop_
 _symmetry_equiv_pos_site_id
 _symmetry_equiv_pos_as_xyz
  1  'x, y, z'
loop_
 _atom_site_type_symbol
 _atom_site_label
 _atom_site_symmetry_multiplicity
 _atom_site_fract_x
 _atom_site_fract_y
 _atom_site_fract_z
 _atom_site_occupancy
  Li  Li0  1  0.23840500  0.09682200  0.55933200  1
  Li  Li1  1  0.09979800  0.66343000  0.56304600  1
  Li  Li2  1  0.23481500  0.66508200  0.06003500  1
  Li  Li3  1  0.66948200  0.09572700  0.05773400  1
  Li  Li4  1  0.67044300  0.23416700  0.55925500  1
  Li  Li5  1  0.32295000  0.91038700  0.93902100  1
  Li  Li6  1  0.76588400  0.32355600  0.93775500  1
  Li  Li7  1  0.67426900  0.66169100  0.11017900  1
  Li  Li8  1  0.90684400  0.33196500  0.43692400  1
  Li  Li9  1  0.76516600  0.90383100  0.44165100  1
  Li  Li10  1  0.99908000  0.99979200  0.99812700  1
  Li  Li11  1  0.05605100  0.95713600  0.49210300  1
  V  V12  1  0.43628200  0.56502600  0.25626700  1
  V  V13  1  0.55972800  0.44100000  0.74800900  1
  V  V14  1  0.43348700  0.00201700  0.75137300  1
  V  V15  1  0.56076100  0.99934900  0.25001600  1
  V  V16  1  0.00466000  0.43639100  0.24431900  1
  V  V17  1  0.99777000  0.56574600  0.75390500  1
  P  P18  1  0.08266700  0.22072900  0.84095600  1
  P  P19  1  0.22108900  0.08766100  0.34111100  1
  P  P20  1  0.08237000  0.69039200  0.34485900  1
  P  P21  1  0.33943500  0.33282700  0.13083200  1
  P  P22  1  0.33235100  0.33452300  0.63114900  1
  P  P23  1  0.22588200  0.68768300  0.84342900  1
  P  P24  1  0.30527300  0.78096500  0.65986200  1
  P  P25  1  0.68800300  0.08959300  0.84412500  1
  P  P26  1  0.31023700  0.90792000  0.15726300  1
  P  P27  1  0.68669100  0.22609500  0.34286500  1
  P  P28  1  0.77465200  0.31660700  0.15787600  1
  P  P29  1  0.67274400  0.66375200  0.36833600  1
  P  P30  1  0.66279600  0.66773200  0.86981300  1
  P  P31  1  0.91607300  0.31226900  0.65482900  1
  P  P32  1  0.77379800  0.91257800  0.66086800  1
  P  P33  1  0.91142700  0.78326500  0.15907800  1
  O  O34  1  0.00173600  0.22984900  0.56427700  1
  O  O35  1  0.08158900  0.25619300  0.33544200  1
  O  O36  1  0.22952700  0.98841000  0.06686600  1
  O  O37  1  0.25488700  0.08100100  0.84009200  1
  O  O38  1  0.08149700  0.37690200  0.83308700  1
  O  O39  1  0.19086100  0.33460000  0.17458100  1
  O  O40  1  0.07625000  0.53766100  0.33221300  1
  O  O41  1  0.01115500  0.78836600  0.07962600  1
  O  O42  1  0.08628700  0.65618900  0.83453900  1
  O  O43  1  0.32310300  0.18972300  0.67242100  1
  O  O44  1  0.38041800  0.08396400  0.33108900  1
  O  O45  1  0.18823500  0.48828900  0.66870100  1
  O  O46  1  0.34715900  0.33491200  0.02506400  1
  O  O47  1  0.34166000  0.32778600  0.52452300  1
  O  O48  1  0.34014600  0.47992900  0.17458200  1
  O  O49  1  0.53282300  0.08756700  0.83062100  1
  O  O50  1  0.48720900  0.18075200  0.17235800  1
  O  O51  1  0.25016900  0.66082200  0.33868300  1
  O  O52  1  0.20725500  0.80424700  0.75775000  1
  O  O53  1  0.19873100  0.79321000  0.57920900  1
  O  O54  1  0.21909700  0.77365300  0.93438400  1
  O  O55  1  0.38054900  0.53281300  0.83170100  1
  O  O56  1  0.48697000  0.32805400  0.67330900  1
  O  O57  1  0.33281100  0.74086100  0.16140700  1
  O  O58  1  0.52867900  0.37785000  0.33252400  1
  O  O59  1  0.66577900  0.08023500  0.34209700  1
  O  O60  1  0.20419500  0.99824300  0.24889800  1
  O  O61  1  0.20908800  0.01122100  0.43156200  1
  O  O62  1  0.77204700  0.00045200  0.57121600  1
  O  O63  1  0.33620000  0.92155200  0.65880000  1
  O  O64  1  0.46004100  0.62486500  0.66669100  1
  O  O65  1  0.66198500  0.25784200  0.83709100  1
  O  O66  1  0.52283900  0.66699400  0.32386800  1
  O  O67  1  0.62371500  0.47834100  0.16870200  1
  O  O68  1  0.77237800  0.22761100  0.07030900  1
  O  O69  1  0.77657800  0.22651500  0.43077700  1
  O  O70  1  0.79184600  0.20930800  0.24967400  1
  O  O71  1  0.74713300  0.33964500  0.65558000  1
  O  O72  1  0.50701900  0.81259200  0.83453800  1
  O  O73  1  0.47627300  0.89348100  0.17097400  1
  O  O74  1  0.66782500  0.51501300  0.82676500  1
  O  O75  1  0.66207700  0.65682700  0.97705200  1
  O  O76  1  0.67726800  0.66462500  0.47434900  1
  O  O77  1  0.81572500  0.51318900  0.32517900  1
  O  O78  1  0.61739100  0.91068400  0.67420600  1
  O  O79  1  0.67509400  0.81299100  0.32590000  1
  O  O80  1  0.91632300  0.34341400  0.15817300  1
  O  O81  1  0.00841600  0.19808100  0.74218700  1
  O  O82  1  0.99185500  0.20182300  0.92129900  1
  O  O83  1  0.91764200  0.46742900  0.67204600  1
  O  O84  1  0.80417600  0.67426500  0.82589500  1
  O  O85  1  0.89884000  0.63057200  0.16654300  1
  O  O86  1  0.74156200  0.92239100  0.15515900  1
  O  O87  1  0.77512600  0.01396200  0.93435300  1
  O  O88  1  0.79677700  0.99794900  0.75217400  1
  O  O89  1  0.91646900  0.74520900  0.66013500  1
  O  O90  1  0.00144000  0.77780100  0.43593700  1
  O  O91  1  0.98181400  0.80492800  0.25857700  1
