# generated using pymatgen
data_Li9Mn2Co5O16
_symmetry_space_group_name_H-M   'P 1'
_cell_length_a   5.79421100
_cell_length_b   6.60290662
_cell_length_c   7.79187735
_cell_angle_alpha   85.85740696
_cell_angle_beta   78.55291634
_cell_angle_gamma   77.20015165
_symmetry_Int_Tables_number   1
_chemical_formula_structural   Li9Mn2Co5O16
_chemical_formula_sum   'Li9 Mn2 Co5 O16'
_cell_volume   284.79149590
_cell_formula_units_Z   1
loop_
 _symmetry_equiv_pos_site_id
 _symmetry_equiv_pos_as_xyz
  1  'x, y, z'
loop_
 _atom_site_type_symbol
 _atom_site_label
 _atom_site_symmetry_multiplicity
 _atom_site_fract_x
 _atom_site_fract_y
 _atom_site_fract_z
 _atom_site_occupancy
  Li  Li0  1  0.81428300  0.61694200  0.12772800  1
  Li  Li1  1  0.94087100  0.87092500  0.38231300  1
  Li  Li2  1  0.68639200  0.38265100  0.86765400  1
  Li  Li3  1  0.55752000  0.12946200  0.62188600  1
  Li  Li4  1  0.43384700  0.87209200  0.38222800  1
  Li  Li5  1  0.31059700  0.61603300  0.13115500  1
  Li  Li6  1  0.19042600  0.37905000  0.86347100  1
  Li  Li7  1  0.06576300  0.13685800  0.62242200  1
  Li  Li8  1  0.24830000  0.49708100  0.49889100  1
  Mn  Mn9  1  0.00140300  0.00058700  0.00230500  1
  Mn  Mn10  1  0.61712500  0.25533400  0.25549700  1
  Co  Co11  1  0.12466500  0.24988400  0.25209100  1
  Co  Co12  1  0.37574900  0.74174900  0.74068200  1
  Co  Co13  1  0.50241400  0.99957600  0.99563100  1
  Co  Co14  1  0.75265300  0.50210200  0.49889400  1
  Co  Co15  1  0.88414400  0.73809800  0.74278000  1
  O  O16  1  0.72704300  0.95740800  0.17813600  1
  O  O17  1  0.84298100  0.19463400  0.41821700  1
  O  O18  1  0.58934100  0.70323900  0.92358800  1
  O  O19  1  0.48149900  0.44577300  0.68191400  1
  O  O20  1  0.34875500  0.18918600  0.41368900  1
  O  O21  1  0.21484100  0.95711600  0.17340300  1
  O  O22  1  0.08798000  0.71129900  0.93845200  1
  O  O23  1  0.95898800  0.45043700  0.69015000  1
  O  O24  1  0.90941700  0.28949500  0.07829800  1
  O  O25  1  0.02243500  0.53415200  0.31707600  1
  O  O26  1  0.78323900  0.05753000  0.83572500  1
  O  O27  1  0.66127800  0.80575300  0.56420900  1
  O  O28  1  0.53937000  0.53789300  0.30804900  1
  O  O29  1  0.40471100  0.30158100  0.08389600  1
  O  O30  1  0.26903500  0.05790400  0.82906200  1
  O  O31  1  0.15293400  0.81817800  0.58050700  1
