# generated using pymatgen
data_Li2V2(SiO3)3
_symmetry_space_group_name_H-M   'P 1'
_cell_length_a   10.12366365
_cell_length_b   10.12370359
_cell_length_c   12.46262732
_cell_angle_alpha   89.99964587
_cell_angle_beta   89.99984919
_cell_angle_gamma   119.99957011
_symmetry_Int_Tables_number   1
_chemical_formula_structural   Li2V2(SiO3)3
_chemical_formula_sum   'Li12 V12 Si18 O54'
_cell_volume   1106.16331138
_cell_formula_units_Z   6
loop_
 _symmetry_equiv_pos_site_id
 _symmetry_equiv_pos_as_xyz
  1  'x, y, z'
loop_
 _atom_site_type_symbol
 _atom_site_label
 _atom_site_symmetry_multiplicity
 _atom_site_fract_x
 _atom_site_fract_y
 _atom_site_fract_z
 _atom_site_occupancy
  Li  Li0  1  0.15658316  0.99949086  0.17061725  1
  Li  Li1  1  0.20686723  0.75785769  0.01337541  1
  Li  Li2  1  0.24216923  0.44898754  0.68006765  1
  Li  Li3  1  0.00049918  0.15708894  0.83729865  1
  Li  Li4  1  0.55094248  0.79310969  0.34671941  1
  Li  Li5  1  0.16447409  0.01232158  0.66952940  1
  Li  Li6  1  0.31019211  0.26799335  0.78211641  1
  Li  Li7  1  0.84288595  0.84339530  0.50397212  1
  Li  Li8  1  0.84781354  0.83555344  0.00285554  1
  Li  Li9  1  0.73201296  0.04217025  0.44880200  1
  Li  Li10  1  0.95780051  0.68984520  0.11546765  1
  Li  Li11  1  0.98770317  0.15213787  0.33620402  1
  V  V12  1  0.33369263  0.84715070  0.49135666  1
  V  V13  1  0.15283628  0.48654491  0.15804364  1
  V  V14  1  0.51345685  0.66630823  0.82471876  1
  V  V15  1  0.33382953  0.32644954  0.24553286  1
  V  V16  1  0.36851031  0.33419406  0.00300213  1
  V  V17  1  0.49996139  0.16163429  0.84416507  1
  V  V18  1  0.66172228  0.50004111  0.17750467  1
  V  V19  1  0.99258351  0.66611561  0.57884604  1
  V  V20  1  0.96566053  0.63147682  0.33632743  1
  V  V21  1  0.66580218  0.03432370  0.66965398  1
  V  V22  1  0.67357301  0.00739347  0.91219806  1
  V  V23  1  0.83837039  0.33833649  0.51082275  1
  Si  Si24  1  0.13558558  0.95173575  0.91852113  1
  Si  Si25  1  0.29500209  0.81804701  0.76946483  1
  Si  Si26  1  0.18563139  0.50110067  0.88597704  1
  Si  Si27  1  0.31544767  0.81435500  0.21929450  1
  Si  Si28  1  0.04826721  0.18387414  0.58520290  1
  Si  Si29  1  0.18196452  0.47696709  0.43611921  1
  Si  Si30  1  0.17980143  0.01924078  0.42998182  1
  Si  Si31  1  0.49891026  0.68455046  0.55264032  1
  Si  Si32  1  0.52302850  0.70499729  0.10280289  1
  Si  Si33  1  0.62009817  0.49398094  0.44829244  1
  Si  Si34  1  0.47358571  0.19966918  0.57854697  1
  Si  Si35  1  0.81612217  0.86438631  0.25188118  1
  Si  Si36  1  0.83943894  0.82019459  0.76331573  1
  Si  Si37  1  0.72608793  0.52642680  0.91187694  1
  Si  Si38  1  0.50603271  0.12611593  0.11496424  1
  Si  Si39  1  0.87388297  0.37990025  0.78162287  1
  Si  Si40  1  0.80033971  0.27391993  0.24523428  1
  Si  Si41  1  0.98077231  0.16056542  0.09663864  1
  O  O42  1  0.10357588  0.83265442  0.43835399  1
  O  O43  1  0.07425467  0.88551969  0.03674120  1
  O  O44  1  0.19704728  0.84006973  0.86786419  1
  O  O45  1  0.13228626  0.69207346  0.20939189  1
  O  O46  1  0.05671297  0.53144928  0.45213626  1
  O  O47  1  0.03321496  0.37770620  0.81744724  1
  O  O48  1  0.22104441  0.81046494  0.65227009  1
  O  O49  1  0.14731249  0.54904389  0.99823171  1
  O  O50  1  0.34449435  0.96678265  0.15076804  1
  O  O51  1  0.27972147  0.65265734  0.80457763  1
  O  O52  1  0.15996965  0.35700545  0.53453486  1
  O  O53  1  0.40165904  0.85263443  0.33156381  1
  O  O54  1  0.11450543  0.18876871  0.70342734  1
  O  O55  1  0.18955096  0.41057943  0.31892766  1
  O  O56  1  0.47473252  0.94328814  0.78547391  1
  O  O57  1  0.37291698  0.72027101  0.13789841  1
  O  O58  1  0.30794103  0.44024116  0.87609916  1
  O  O59  1  0.16736693  0.27094495  0.10502066  1
  O  O60  1  0.07805990  0.06329079  0.51239809  1
  O  O61  1  0.34735092  0.62706900  0.47124171  1
  O  O62  1  0.19385632  0.09789755  0.31533684  1
  O  O63  1  0.45096178  0.59831378  0.66490572  1
  O  O64  1  0.55977382  0.86771542  0.54274437  1
  O  O65  1  0.58945296  0.77897911  0.98562031  1
  O  O66  1  0.26991079  0.12712098  0.90437446  1
  O  O67  1  0.46856478  0.52527465  0.11881219  1
  O  O68  1  0.64299105  0.80296545  0.20121693  1
  O  O69  1  0.62227919  0.65549146  0.48411296  1
  O  O70  1  0.34524747  0.07103243  0.49134892  1
  O  O71  1  0.72907380  0.89640535  0.77167703  1
  O  O72  1  0.54713665  0.44479676  0.32969031  1
  O  O73  1  0.39099311  0.16614408  0.69446681  1
  O  O74  1  0.81127133  0.92573804  0.37011093  1
  O  O75  1  0.50868904  0.36691391  0.53618633  1
  O  O76  1  0.46709794  0.26405002  0.13102914  1
  O  O77  1  0.55648970  0.38126682  0.90155905  1
  O  O78  1  0.72578557  0.65474945  0.82467136  1
  O  O79  1  0.55522994  0.10234153  0.99636056  1
  O  O80  1  0.77515076  0.60900508  0.02779807  1
  O  O81  1  0.90401079  0.80612512  0.64866528  1
  O  O82  1  0.85719990  0.73006704  0.23768997  1
  O  O83  1  0.61872817  0.17520952  0.56821748  1
  O  O84  1  0.79696417  0.53292823  0.46435872  1
  O  O85  1  0.98524125  0.92195730  0.84570250  1
  O  O86  1  0.63309360  0.14176410  0.20286652  1
  O  O87  1  0.85822101  0.49130725  0.86951590  1
  O  O88  1  0.82479556  0.44352455  0.23489462  1
  O  O89  1  0.73595772  0.20303487  0.79769596  1
  O  O90  1  0.83387485  0.22481920  0.36114219  1
  O  O91  1  0.89765272  0.45285813  0.66301571  1
  O  O92  1  0.87287151  0.14279573  0.57104162  1
  O  O93  1  0.92896127  0.27421933  0.15799985  1
  O  O94  1  0.90210039  0.09595002  0.98199270  1
  O  O95  1  0.93671224  0.01477289  0.17907238  1
