# generated using pymatgen
data_Li4Co3O7
_symmetry_space_group_name_H-M   'P 1'
_cell_length_a   2.98618700
_cell_length_b   5.07164184
_cell_length_c   16.97811660
_cell_angle_alpha   85.12721752
_cell_angle_beta   88.25625768
_cell_angle_gamma   75.39895518
_symmetry_Int_Tables_number   1
_chemical_formula_structural   Li4Co3O7
_chemical_formula_sum   'Li8 Co6 O14'
_cell_volume   247.91705579
_cell_formula_units_Z   2
loop_
 _symmetry_equiv_pos_site_id
 _symmetry_equiv_pos_as_xyz
  1  'x, y, z'
loop_
 _atom_site_type_symbol
 _atom_site_label
 _atom_site_symmetry_multiplicity
 _atom_site_fract_x
 _atom_site_fract_y
 _atom_site_fract_z
 _atom_site_occupancy
  Li  Li0  1  0.64949500  0.21643000  0.78644100  1
  Li  Li1  1  0.06798500  0.35919700  0.64258100  1
  Li  Li2  1  0.50000000  0.50000000  0.50000000  1
  Li  Li3  1  0.93201500  0.64080300  0.35741900  1
  Li  Li4  1  0.35050500  0.78357000  0.21355900  1
  Li  Li5  1  0.79382000  0.91546900  0.07151000  1
  Li  Li6  1  0.20618000  0.08453100  0.92849000  1
  Li  Li7  1  0.50000000  0.50000000  0.00000000  1
  Co  Co8  1  0.93218500  0.64127900  0.86299800  1
  Co  Co9  1  0.06781500  0.35872100  0.13700200  1
  Co  Co10  1  0.34548000  0.78616000  0.71528300  1
  Co  Co11  1  0.77957100  0.92686700  0.57239300  1
  Co  Co12  1  0.22042900  0.07313300  0.42760700  1
  Co  Co13  1  0.65452000  0.21384000  0.28471700  1
  O  O14  1  0.26826100  0.90784600  0.81777200  1
  O  O15  1  0.67126700  0.05825900  0.67703000  1
  O  O16  1  0.15014200  0.20137200  0.53223100  1
  O  O17  1  0.59482500  0.34179300  0.38815100  1
  O  O18  1  0.98870900  0.46988700  0.24423800  1
  O  O19  1  0.40421500  0.61712400  0.11009300  1
  O  O20  1  0.85585300  0.78532300  0.95362500  1
  O  O21  1  0.01129100  0.53011300  0.75576200  1
  O  O22  1  0.40517500  0.65820700  0.61184900  1
  O  O23  1  0.84985800  0.79862800  0.46776900  1
  O  O24  1  0.32873300  0.94174100  0.32297000  1
  O  O25  1  0.73173900  0.09215400  0.18222800  1
  O  O26  1  0.14414700  0.21467700  0.04637500  1
  O  O27  1  0.59578500  0.38287600  0.88990700  1
