# generated using pymatgen
data_Li5Fe3(SbO5)2
_symmetry_space_group_name_H-M   'P 1'
_cell_length_a   5.38470990
_cell_length_b   10.63360725
_cell_length_c   8.25148317
_cell_angle_alpha   108.68761279
_cell_angle_beta   102.48545890
_cell_angle_gamma   99.81934457
_symmetry_Int_Tables_number   1
_chemical_formula_structural   Li5Fe3(SbO5)2
_chemical_formula_sum   'Li10 Fe6 Sb4 O20'
_cell_volume   422.03258037
_cell_formula_units_Z   2
loop_
 _symmetry_equiv_pos_site_id
 _symmetry_equiv_pos_as_xyz
  1  'x, y, z'
loop_
 _atom_site_type_symbol
 _atom_site_label
 _atom_site_symmetry_multiplicity
 _atom_site_fract_x
 _atom_site_fract_y
 _atom_site_fract_z
 _atom_site_occupancy
  Li  Li0  1  0.49878400  0.24588000  0.49839800  1
  Li  Li1  1  0.50172400  0.74865900  0.50172600  1
  Li  Li2  1  0.22357000  0.44158000  0.40627300  1
  Li  Li3  1  0.24491800  0.94723000  0.40676700  1
  Li  Li4  1  0.77377400  0.05786300  0.59204500  1
  Li  Li5  1  0.76675800  0.54311100  0.58704100  1
  Li  Li6  1  0.39799500  0.15150500  0.79839200  1
  Li  Li7  1  0.40149100  0.64942500  0.79855400  1
  Li  Li8  1  0.58383200  0.34579600  0.19940700  1
  Li  Li9  1  0.59592600  0.85223300  0.19584700  1
  Fe  Fe10  1  0.99564900  0.74766700  0.99584100  1
  Fe  Fe11  1  0.69503000  0.44811000  0.89589400  1
  Fe  Fe12  1  0.30344100  0.05286200  0.10895700  1
  Fe  Fe13  1  0.00117700  0.25093900  0.00380700  1
  Fe  Fe14  1  0.69554100  0.94684600  0.88832800  1
  Fe  Fe15  1  0.30187900  0.55179100  0.11173900  1
  Sb  Sb16  1  0.10519600  0.35479500  0.70450600  1
  Sb  Sb17  1  0.10264200  0.85153700  0.69785900  1
  Sb  Sb18  1  0.89887900  0.14171600  0.29326500  1
  Sb  Sb19  1  0.89597300  0.64830900  0.30075700  1
  O  O20  1  0.05839100  0.03414800  0.84150400  1
  O  O21  1  0.06167800  0.54218200  0.85968300  1
  O  O22  1  0.93772100  0.46393500  0.15903900  1
  O  O23  1  0.92404000  0.93494400  0.11826600  1
  O  O24  1  0.32888300  0.35283900  0.93896500  1
  O  O25  1  0.32542900  0.83726700  0.91811900  1
  O  O26  1  0.66151000  0.15570600  0.04898500  1
  O  O27  1  0.66761300  0.65604800  0.07714300  1
  O  O28  1  0.16976700  0.17358100  0.58218500  1
  O  O29  1  0.13527700  0.66220900  0.53917600  1
  O  O30  1  0.87495100  0.36125600  0.48346900  1
  O  O31  1  0.87110200  0.84082600  0.45724700  1
  O  O32  1  0.25529200  0.25642700  0.23953200  1
  O  O33  1  0.21255000  0.74042500  0.24963500  1
  O  O34  1  0.78521500  0.26041400  0.75522600  1
  O  O35  1  0.78182000  0.75215200  0.73839500  1
  O  O36  1  0.43470500  0.45684400  0.67337300  1
  O  O37  1  0.42956700  0.94225800  0.65683600  1
  O  O38  1  0.52871300  0.04012500  0.33439600  1
  O  O39  1  0.57159400  0.55855900  0.34342300  1
