# generated using pymatgen
data_SrLi2Si
_symmetry_space_group_name_H-M   'P 1'
_cell_length_a   12.49361954
_cell_length_b   12.49361954
_cell_length_c   12.49361954
_cell_angle_alpha   121.49107365
_cell_angle_beta   119.04308824
_cell_angle_gamma   89.55120062
_symmetry_Int_Tables_number   1
_chemical_formula_structural   SrLi2Si
_chemical_formula_sum   'Sr1 Li2 Si1'
_cell_volume   1372.55061510
_cell_formula_units_Z   1
loop_
 _symmetry_equiv_pos_site_id
 _symmetry_equiv_pos_as_xyz
  1  'x, y, z'
loop_
 _atom_site_type_symbol
 _atom_site_label
 _atom_site_symmetry_multiplicity
 _atom_site_fract_x
 _atom_site_fract_y
 _atom_site_fract_z
 _atom_site_occupancy
  Sr  Sr0  1  0.00000000  0.50000000  0.50000000  1
  Li  Li1  1  0.00000000  0.20053200  0.20053200  1
  Li  Li2  1  0.00000000  0.79946800  0.79946800  1
  Si  Si3  1  0.00000000  0.00000000  0.00000000  1
