# generated using pymatgen
data_Li3MnCo3O8
_symmetry_space_group_name_H-M   'P 1'
_cell_length_a   5.72208272
_cell_length_b   5.91194097
_cell_length_c   10.22456702
_cell_angle_alpha   106.81765160
_cell_angle_beta   90.84512878
_cell_angle_gamma   119.07174265
_symmetry_Int_Tables_number   1
_chemical_formula_structural   Li3MnCo3O8
_chemical_formula_sum   'Li6 Mn2 Co6 O16'
_cell_volume   284.34486145
_cell_formula_units_Z   2
loop_
 _symmetry_equiv_pos_site_id
 _symmetry_equiv_pos_as_xyz
  1  'x, y, z'
loop_
 _atom_site_type_symbol
 _atom_site_label
 _atom_site_symmetry_multiplicity
 _atom_site_fract_x
 _atom_site_fract_y
 _atom_site_fract_z
 _atom_site_occupancy
  Li  Li0  1  0.74914700  0.49782700  0.24309500  1
  Li  Li1  1  0.25200600  0.50332700  0.75590500  1
  Li  Li2  1  0.99934400  0.50003500  0.00149800  1
  Li  Li3  1  0.49990700  0.49927500  0.49819600  1
  Li  Li4  1  0.00106400  0.49795000  0.49775900  1
  Li  Li5  1  0.49989200  0.50358500  0.00243400  1
  Mn  Mn6  1  0.99478200  0.99694200  0.99974300  1
  Mn  Mn7  1  0.50372900  0.00225900  0.50061600  1
  Co  Co8  1  0.49649900  0.99902500  0.99974800  1
  Co  Co9  1  0.74862900  0.99759000  0.75075500  1
  Co  Co10  1  0.25464400  0.00077000  0.75451400  1
  Co  Co11  1  0.00289000  0.00053100  0.50012500  1
  Co  Co12  1  0.25296500  0.00107700  0.24815600  1
  Co  Co13  1  0.74713900  0.00032000  0.24789600  1
  O  O14  1  0.88544500  0.77090000  0.12009200  1
  O  O15  1  0.39357900  0.77950800  0.62084300  1
  O  O16  1  0.10571200  0.22009000  0.87845100  1
  O  O17  1  0.61429500  0.22885800  0.38130800  1
  O  O18  1  0.10448100  0.20850700  0.38049900  1
  O  O19  1  0.59621300  0.20986200  0.87640200  1
  O  O20  1  0.90844200  0.79722200  0.62082200  1
  O  O21  1  0.39258000  0.78609700  0.12131000  1
  O  O22  1  0.13825700  0.78521000  0.38999800  1
  O  O23  1  0.63250400  0.78097400  0.89001600  1
  O  O24  1  0.64704000  0.78512400  0.39029300  1
  O  O25  1  0.13503000  0.77986000  0.88625800  1
  O  O26  1  0.35848300  0.21669000  0.61096000  1
  O  O27  1  0.85574200  0.21692200  0.11224000  1
  O  O28  1  0.86949000  0.21727400  0.60814700  1
  O  O29  1  0.36007000  0.21638900  0.11192000  1
