# generated using pymatgen
data_Li7Mn4CoO12
_symmetry_space_group_name_H-M   'P 1'
_cell_length_a   2.96935921
_cell_length_b   10.16347873
_cell_length_c   15.15075916
_cell_angle_alpha   72.81940858
_cell_angle_beta   87.65771681
_cell_angle_gamma   91.38247352
_symmetry_Int_Tables_number   1
_chemical_formula_structural   Li7Mn4CoO12
_chemical_formula_sum   'Li14 Mn8 Co2 O24'
_cell_volume   436.15362531
_cell_formula_units_Z   2
loop_
 _symmetry_equiv_pos_site_id
 _symmetry_equiv_pos_as_xyz
  1  'x, y, z'
loop_
 _atom_site_type_symbol
 _atom_site_label
 _atom_site_symmetry_multiplicity
 _atom_site_fract_x
 _atom_site_fract_y
 _atom_site_fract_z
 _atom_site_occupancy
  Li  Li0  1  0.49999800  0.00000000  0.16666600  1
  Li  Li1  1  0.99999700  0.00000100  0.66666700  1
  Li  Li2  1  0.49732200  0.25432300  0.33188300  1
  Li  Li3  1  0.00008400  0.25417400  0.83197100  1
  Li  Li4  1  0.50267300  0.74567500  0.00145100  1
  Li  Li5  1  0.99991100  0.74582800  0.50136400  1
  Li  Li6  1  0.00832600  0.75737600  0.17048800  1
  Li  Li7  1  0.50686100  0.75656200  0.67038200  1
  Li  Li8  1  0.99167100  0.24262500  0.16284800  1
  Li  Li9  1  0.49314000  0.24344300  0.66295100  1
  Li  Li10  1  0.50834100  0.24290600  0.00551600  1
  Li  Li11  1  0.00756500  0.24223900  0.50535900  1
  Li  Li12  1  0.49166900  0.75709000  0.32782100  1
  Li  Li13  1  0.99244400  0.75775900  0.82797800  1
  Mn  Mn14  1  0.99322400  0.00396300  0.00371300  1
  Mn  Mn15  1  0.49228600  0.00389000  0.50381700  1
  Mn  Mn16  1  0.00677700  0.99603200  0.32961300  1
  Mn  Mn17  1  0.50771500  0.99611000  0.82952300  1
  Mn  Mn18  1  0.99089700  0.50131500  0.33338000  1
  Mn  Mn19  1  0.50068900  0.50172500  0.83098800  1
  Mn  Mn20  1  0.00912700  0.49868700  0.99994900  1
  Mn  Mn21  1  0.49930900  0.49826500  0.50234400  1
  Co  Co22  1  0.99999700  0.50000100  0.66666600  1
  Co  Co23  1  0.50000000  0.50000000  0.16666600  1
  O  O24  1  0.01143100  0.10570600  0.42349000  1
  O  O25  1  0.51235700  0.10576900  0.92338200  1
  O  O26  1  0.48764200  0.89423400  0.40995200  1
  O  O27  1  0.98857000  0.89429700  0.90984200  1
  O  O28  1  0.45610900  0.61926900  0.24606400  1
  O  O29  1  0.96196300  0.61836200  0.74440100  1
  O  O30  1  0.54388700  0.38072700  0.08727000  1
  O  O31  1  0.03803200  0.38164200  0.58893200  1
  O  O32  1  0.99241800  0.11796300  0.07592700  1
  O  O33  1  0.49173000  0.11807800  0.57596300  1
  O  O34  1  0.00758300  0.88203900  0.25740900  1
  O  O35  1  0.50827000  0.88192300  0.75737100  1
  O  O36  1  0.52710800  0.10798000  0.26428100  1
  O  O37  1  0.02952600  0.10806200  0.76434000  1
  O  O38  1  0.47289200  0.89202000  0.06905200  1
  O  O39  1  0.97047300  0.89194300  0.56899200  1
  O  O40  1  0.00945800  0.61528600  0.08243800  1
  O  O41  1  0.46177100  0.61537100  0.58365800  1
  O  O42  1  0.99054000  0.38471100  0.25089500  1
  O  O43  1  0.53822200  0.38463400  0.74967400  1
  O  O44  1  0.95827400  0.61671700  0.41672700  1
  O  O45  1  0.46600100  0.61694000  0.91505500  1
  O  O46  1  0.53399400  0.38305800  0.41828000  1
  O  O47  1  0.04172400  0.38328200  0.91660500  1
