# generated using pymatgen
data_Li4Mn3O7
_symmetry_space_group_name_H-M   'P 1'
_cell_length_a   10.58925903
_cell_length_b   10.58925903
_cell_length_c   8.81041329
_cell_angle_alpha   78.70085495
_cell_angle_beta   78.70085495
_cell_angle_gamma   15.65837923
_symmetry_Int_Tables_number   1
_chemical_formula_structural   Li4Mn3O7
_chemical_formula_sum   'Li8 Mn6 O14'
_cell_volume   261.37721290
_cell_formula_units_Z   2
loop_
 _symmetry_equiv_pos_site_id
 _symmetry_equiv_pos_as_xyz
  1  'x, y, z'
loop_
 _atom_site_type_symbol
 _atom_site_label
 _atom_site_symmetry_multiplicity
 _atom_site_fract_x
 _atom_site_fract_y
 _atom_site_fract_z
 _atom_site_occupancy
  Li  Li0  1  0.50000000  0.50000000  0.50000000  1
  Li  Li1  1  0.36129700  0.36129700  0.07535700  1
  Li  Li2  1  0.21549700  0.21549700  0.64772800  1
  Li  Li3  1  0.06989800  0.06989800  0.18012600  1
  Li  Li4  1  0.93010200  0.93010200  0.81987400  1
  Li  Li5  1  0.78450300  0.78450300  0.35227200  1
  Li  Li6  1  0.63870300  0.63870300  0.92464300  1
  Li  Li7  1  0.50000000  0.50000000  0.00000000  1
  Mn  Mn8  1  0.06925800  0.06925800  0.73439100  1
  Mn  Mn9  1  0.93074200  0.93074200  0.26560900  1
  Mn  Mn10  1  0.78895600  0.78895600  0.85750200  1
  Mn  Mn11  1  0.64067700  0.64067700  0.43907200  1
  Mn  Mn12  1  0.35932300  0.35932300  0.56092800  1
  Mn  Mn13  1  0.21104400  0.21104400  0.14249800  1
  O  O14  1  0.50603200  0.50603200  0.74883500  1
  O  O15  1  0.36586300  0.36586300  0.30723600  1
  O  O16  1  0.22425700  0.22425700  0.88150500  1
  O  O17  1  0.07557900  0.07557900  0.48907700  1
  O  O18  1  0.92874500  0.92874500  0.05832400  1
  O  O19  1  0.79444100  0.79444100  0.59432000  1
  O  O20  1  0.64516500  0.64516500  0.17414100  1
  O  O21  1  0.49396800  0.49396800  0.25116500  1
  O  O22  1  0.35483500  0.35483500  0.82585900  1
  O  O23  1  0.20555900  0.20555900  0.40568000  1
  O  O24  1  0.07125500  0.07125500  0.94167600  1
  O  O25  1  0.92442100  0.92442100  0.51092300  1
  O  O26  1  0.77574300  0.77574300  0.11849500  1
  O  O27  1  0.63413700  0.63413700  0.69276400  1
