# generated using pymatgen
data_Li4Mn3O7
_symmetry_space_group_name_H-M   'P 1'
_cell_length_a   3.00033200
_cell_length_b   5.10303999
_cell_length_c   17.50808836
_cell_angle_alpha   85.21298656
_cell_angle_beta   87.37511993
_cell_angle_gamma   76.91420970
_symmetry_Int_Tables_number   1
_chemical_formula_structural   Li4Mn3O7
_chemical_formula_sum   'Li8 Mn6 O14'
_cell_volume   260.09133049
_cell_formula_units_Z   2
loop_
 _symmetry_equiv_pos_site_id
 _symmetry_equiv_pos_as_xyz
  1  'x, y, z'
loop_
 _atom_site_type_symbol
 _atom_site_label
 _atom_site_symmetry_multiplicity
 _atom_site_fract_x
 _atom_site_fract_y
 _atom_site_fract_z
 _atom_site_occupancy
  Li  Li0  1  0.62807900  0.22701700  0.78561200  1
  Li  Li1  1  0.07251200  0.35600500  0.64319400  1
  Li  Li2  1  0.50000000  0.50000000  0.50000000  1
  Li  Li3  1  0.92748800  0.64399500  0.35680600  1
  Li  Li4  1  0.37192100  0.77298300  0.21438800  1
  Li  Li5  1  0.75704600  0.94036900  0.06214800  1
  Li  Li6  1  0.24295400  0.05963100  0.93785200  1
  Li  Li7  1  0.50000000  0.50000000  0.00000000  1
  Mn  Mn8  1  0.93251700  0.64243600  0.86266700  1
  Mn  Mn9  1  0.06748300  0.35756400  0.13733300  1
  Mn  Mn10  1  0.37061700  0.77787300  0.71579200  1
  Mn  Mn11  1  0.78681300  0.92782400  0.57206800  1
  Mn  Mn12  1  0.21318700  0.07217600  0.42793200  1
  Mn  Mn13  1  0.62938300  0.22212700  0.28420800  1
  O  O14  1  0.33610600  0.88983000  0.82177000  1
  O  O15  1  0.69206000  0.05622100  0.67640100  1
  O  O16  1  0.11441900  0.20175700  0.53190600  1
  O  O17  1  0.54282900  0.34610400  0.38868800  1
  O  O18  1  0.96977200  0.48788500  0.24542600  1
  O  O19  1  0.47908100  0.59801000  0.11213300  1
  O  O20  1  0.85053200  0.78819900  0.95502900  1
  O  O21  1  0.03022800  0.51211500  0.75457400  1
  O  O22  1  0.45717100  0.65389600  0.61131200  1
  O  O23  1  0.88558100  0.79824300  0.46809400  1
  O  O24  1  0.30794000  0.94377900  0.32359900  1
  O  O25  1  0.66389400  0.11017000  0.17823000  1
  O  O26  1  0.14946800  0.21180100  0.04497100  1
  O  O27  1  0.52091900  0.40199000  0.88786700  1
