# generated using pymatgen
data_Li4MnCo2O7
_symmetry_space_group_name_H-M   'P 1'
_cell_length_a   6.55301200
_cell_length_b   6.57472251
_cell_length_c   6.61814684
_cell_angle_alpha   72.10238376
_cell_angle_beta   71.38729844
_cell_angle_gamma   72.07364610
_symmetry_Int_Tables_number   1
_chemical_formula_structural   Li4MnCo2O7
_chemical_formula_sum   'Li8 Mn2 Co4 O14'
_cell_volume   250.09861116
_cell_formula_units_Z   2
loop_
 _symmetry_equiv_pos_site_id
 _symmetry_equiv_pos_as_xyz
  1  'x, y, z'
loop_
 _atom_site_type_symbol
 _atom_site_label
 _atom_site_symmetry_multiplicity
 _atom_site_fract_x
 _atom_site_fract_y
 _atom_site_fract_z
 _atom_site_occupancy
  Li  Li0  1  0.92583400  0.21817700  0.35513300  1
  Li  Li1  1  0.20491600  0.36662900  0.91839900  1
  Li  Li2  1  0.50354500  0.49954900  0.50189000  1
  Li  Li3  1  0.64640900  0.07542500  0.78369100  1
  Li  Li4  1  0.35980200  0.92472200  0.21883500  1
  Li  Li5  1  0.06620000  0.77568500  0.65261100  1
  Li  Li6  1  0.78671400  0.64121900  0.06756100  1
  Li  Li7  1  0.85868300  0.42937400  0.71603000  1
  Mn  Mn8  1  0.99960600  0.00404600  0.99734200  1
  Mn  Mn9  1  0.28269500  0.14472100  0.57332200  1
  Co  Co10  1  0.57321600  0.29178700  0.12619600  1
  Co  Co11  1  0.14173000  0.56838400  0.29321300  1
  Co  Co12  1  0.44258000  0.70946000  0.85497500  1
  Co  Co13  1  0.71674300  0.84926500  0.42948100  1
  O  O14  1  0.89211300  0.29872000  0.04076800  1
  O  O15  1  0.18825200  0.44574200  0.59624300  1
  O  O16  1  0.45220500  0.60243300  0.17763300  1
  O  O17  1  0.59171800  0.16609100  0.45830300  1
  O  O18  1  0.30322800  0.03985300  0.87972200  1
  O  O19  1  0.02976300  0.89549900  0.30024400  1
  O  O20  1  0.73210500  0.75411700  0.74923700  1
  O  O21  1  0.98476400  0.10094300  0.69292500  1
  O  O22  1  0.25174300  0.24462800  0.27672500  1
  O  O23  1  0.52712700  0.39216400  0.84208000  1
  O  O24  1  0.69827200  0.97080700  0.10125900  1
  O  O25  1  0.39390400  0.83757500  0.54188500  1
  O  O26  1  0.11691500  0.69729800  0.96748000  1
  O  O27  1  0.82921900  0.55568700  0.38681900  1
