# generated using pymatgen
data_LiNbFeO4
_symmetry_space_group_name_H-M   'P 1'
_cell_length_a   6.26618912
_cell_length_b   6.26791372
_cell_length_c   8.73500742
_cell_angle_alpha   90.50347868
_cell_angle_beta   89.48831058
_cell_angle_gamma   89.69470899
_symmetry_Int_Tables_number   1
_chemical_formula_structural   LiNbFeO4
_chemical_formula_sum   'Li4 Nb4 Fe4 O16'
_cell_volume   343.04362258
_cell_formula_units_Z   4
loop_
 _symmetry_equiv_pos_site_id
 _symmetry_equiv_pos_as_xyz
  1  'x, y, z'
loop_
 _atom_site_type_symbol
 _atom_site_label
 _atom_site_symmetry_multiplicity
 _atom_site_fract_x
 _atom_site_fract_y
 _atom_site_fract_z
 _atom_site_occupancy
  Li  Li0  1  0.27186800  0.02370600  0.12573900  1
  Li  Li1  1  0.77359000  0.52150800  0.62416900  1
  Li  Li2  1  0.72522900  0.97487400  0.87488300  1
  Li  Li3  1  0.22608700  0.47629500  0.37515100  1
  Nb  Nb4  1  0.77057900  0.22798900  0.22860800  1
  Nb  Nb5  1  0.26972700  0.72721900  0.72890400  1
  Nb  Nb6  1  0.97816600  0.02004400  0.52150400  1
  Nb  Nb7  1  0.47742500  0.51947300  0.02122100  1
  Fe  Fe8  1  0.99592700  0.50734300  0.99690600  1
  Fe  Fe9  1  0.25774100  0.24657900  0.75274900  1
  Fe  Fe10  1  0.49746600  0.00663600  0.49595100  1
  Fe  Fe11  1  0.75648000  0.74741600  0.25417900  1
  O  O12  1  0.53451900  0.02419100  0.26375700  1
  O  O13  1  0.03606800  0.52083800  0.76288100  1
  O  O14  1  0.77399000  0.78446300  0.48639600  1
  O  O15  1  0.27004600  0.28650800  0.98663700  1
  O  O16  1  0.22769300  0.21340100  0.51249300  1
  O  O17  1  0.72843000  0.71396300  0.01486200  1
  O  O18  1  0.46416800  0.97807700  0.73538900  1
  O  O19  1  0.96291000  0.47779200  0.23804800  1
  O  O20  1  0.76899300  0.24203400  0.48643900  1
  O  O21  1  0.26922400  0.74285400  0.98553300  1
  O  O22  1  0.99242200  0.01884200  0.26335600  1
  O  O23  1  0.49317300  0.51903400  0.76429900  1
  O  O24  1  0.22982400  0.76010100  0.51226300  1
  O  O25  1  0.72773700  0.26089800  0.01172100  1
  O  O26  1  0.01089200  0.97813200  0.73825800  1
  O  O27  1  0.50962600  0.47979200  0.23770200  1
