# generated using pymatgen
data_Li5Mn2Fe3O10
_symmetry_space_group_name_H-M   'P 1'
_cell_length_a   5.17724900
_cell_length_b   10.31270358
_cell_length_c   7.85684933
_cell_angle_alpha   70.73006196
_cell_angle_beta   102.03626958
_cell_angle_gamma   81.05302957
_symmetry_Int_Tables_number   1
_chemical_formula_structural   Li5Mn2Fe3O10
_chemical_formula_sum   'Li10 Mn4 Fe6 O20'
_cell_volume   375.67296668
_cell_formula_units_Z   2
loop_
 _symmetry_equiv_pos_site_id
 _symmetry_equiv_pos_as_xyz
  1  'x, y, z'
loop_
 _atom_site_type_symbol
 _atom_site_label
 _atom_site_symmetry_multiplicity
 _atom_site_fract_x
 _atom_site_fract_y
 _atom_site_fract_z
 _atom_site_occupancy
  Li  Li0  1  0.25250500  0.24657800  0.25257800  1
  Li  Li1  1  0.74758500  0.75057500  0.74998700  1
  Li  Li2  1  0.77374700  0.44688400  0.96177200  1
  Li  Li3  1  0.25915600  0.95103700  0.45896300  1
  Li  Li4  1  0.73485800  0.05132700  0.53783300  1
  Li  Li5  1  0.22401400  0.55548800  0.04199800  1
  Li  Li6  1  0.23540700  0.14124800  0.62444700  1
  Li  Li7  1  0.73793900  0.64701900  0.13141700  1
  Li  Li8  1  0.26750800  0.35747000  0.87068300  1
  Li  Li9  1  0.76019200  0.85278000  0.37005500  1
  Mn  Mn10  1  0.24874200  0.84951600  0.84390200  1
  Mn  Mn11  1  0.24867400  0.65124500  0.65742000  1
  Mn  Mn12  1  0.74885700  0.34920600  0.34301500  1
  Mn  Mn13  1  0.76256200  0.14709900  0.16100200  1
  Fe  Fe14  1  0.25033400  0.74885300  0.25128100  1
  Fe  Fe15  1  0.74589200  0.94957100  0.94032200  1
  Fe  Fe16  1  0.75063200  0.55280800  0.55790900  1
  Fe  Fe17  1  0.74903500  0.25062000  0.74935800  1
  Fe  Fe18  1  0.24237600  0.44466900  0.44741200  1
  Fe  Fe19  1  0.25928600  0.05688500  0.04957600  1
  O  O20  1  0.03648900  0.03715100  0.80759800  1
  O  O21  1  0.47698700  0.55566900  0.30454900  1
  O  O22  1  0.46256300  0.46496000  0.68985300  1
  O  O23  1  0.00046800  0.95997400  0.18783700  1
  O  O24  1  0.98308200  0.34757900  0.57899200  1
  O  O25  1  0.46690400  0.85088900  0.08493100  1
  O  O26  1  0.51848200  0.15440300  0.92217100  1
  O  O27  1  0.02443100  0.65438500  0.41603400  1
  O  O28  1  0.98618500  0.14141500  0.38383100  1
  O  O29  1  0.46542900  0.66367900  0.87998800  1
  O  O30  1  0.54609900  0.33074100  0.11869900  1
  O  O31  1  0.03172400  0.83483600  0.62430800  1
  O  O32  1  0.99819900  0.23658000  0.01060100  1
  O  O33  1  0.46694100  0.74899200  0.49704000  1
  O  O34  1  0.50051700  0.26325200  0.49014200  1
  O  O35  1  0.02654100  0.75516000  0.00322300  1
  O  O36  1  0.98628400  0.45171000  0.21377900  1
  O  O37  1  0.48400200  0.94269400  0.71341800  1
  O  O38  1  0.52255100  0.04960900  0.28280200  1
  O  O39  1  0.01682100  0.55544400  0.78927300  1
