# generated using pymatgen
data_Li4Mn3NbO8
_symmetry_space_group_name_H-M   'P 1'
_cell_length_a   6.06984133
_cell_length_b   8.72423477
_cell_length_c   6.20336163
_cell_angle_alpha   90.07146290
_cell_angle_beta   90.64991934
_cell_angle_gamma   91.16112960
_symmetry_Int_Tables_number   1
_chemical_formula_structural   Li4Mn3NbO8
_chemical_formula_sum   'Li8 Mn6 Nb2 O16'
_cell_volume   328.40834189
_cell_formula_units_Z   2
loop_
 _symmetry_equiv_pos_site_id
 _symmetry_equiv_pos_as_xyz
  1  'x, y, z'
loop_
 _atom_site_type_symbol
 _atom_site_label
 _atom_site_symmetry_multiplicity
 _atom_site_fract_x
 _atom_site_fract_y
 _atom_site_fract_z
 _atom_site_occupancy
  Li  Li0  1  0.99499500  0.49431400  0.99400100  1
  Li  Li1  1  0.50546700  0.00566700  0.50585600  1
  Li  Li2  1  0.75018700  0.74998500  0.25021400  1
  Li  Li3  1  0.24961200  0.25007400  0.74992600  1
  Li  Li4  1  0.49994400  0.99433800  0.99769600  1
  Li  Li5  1  0.99995400  0.50581800  0.50270300  1
  Li  Li6  1  0.25050200  0.24988200  0.24985600  1
  Li  Li7  1  0.75048900  0.74987300  0.74954400  1
  Mn  Mn8  1  0.50154700  0.50270000  0.99773600  1
  Mn  Mn9  1  0.99890500  0.99718200  0.50204100  1
  Mn  Mn10  1  0.74989300  0.25010900  0.74981900  1
  Mn  Mn11  1  0.75045600  0.24995000  0.25015000  1
  Mn  Mn12  1  0.24975500  0.75001800  0.74988200  1
  Mn  Mn13  1  0.24958300  0.75017000  0.25049000  1
  Nb  Nb14  1  0.50420300  0.50491400  0.50056800  1
  Nb  Nb15  1  0.99560500  0.99514300  0.99907900  1
  O  O16  1  0.01092300  0.76687800  0.49616300  1
  O  O17  1  0.52458300  0.27021300  0.97629200  1
  O  O18  1  0.48888300  0.73094500  0.00428100  1
  O  O19  1  0.97487300  0.23161700  0.52409700  1
  O  O20  1  0.26688700  0.48623900  0.26864400  1
  O  O21  1  0.75550300  0.99527500  0.76765100  1
  O  O22  1  0.23342700  0.01366100  0.23104800  1
  O  O23  1  0.74396500  0.50490500  0.73257300  1
  O  O24  1  0.99306500  0.76775500  0.00028700  1
  O  O25  1  0.51343600  0.26083900  0.51729300  1
  O  O26  1  0.76219800  0.99904400  0.23289100  1
  O  O27  1  0.26777300  0.49656600  0.73081400  1
  O  O28  1  0.50685200  0.73224400  0.49971700  1
  O  O29  1  0.98631200  0.23929500  0.98227900  1
  O  O30  1  0.73693700  0.50105300  0.26598000  1
  O  O31  1  0.23328400  0.00333700  0.77043000  1
