# generated using pymatgen
data_Li6V3P8O29
_symmetry_space_group_name_H-M   'P 1'
_cell_length_a   9.79804600
_cell_length_b   9.82280160
_cell_length_c   13.98485015
_cell_angle_alpha   90.46318486
_cell_angle_beta   89.94941037
_cell_angle_gamma   119.79247443
_symmetry_Int_Tables_number   1
_chemical_formula_structural   Li6V3P8O29
_chemical_formula_sum   'Li12 V6 P16 O58'
_cell_volume   1168.02102631
_cell_formula_units_Z   2
loop_
 _symmetry_equiv_pos_site_id
 _symmetry_equiv_pos_as_xyz
  1  'x, y, z'
loop_
 _atom_site_type_symbol
 _atom_site_label
 _atom_site_symmetry_multiplicity
 _atom_site_fract_x
 _atom_site_fract_y
 _atom_site_fract_z
 _atom_site_occupancy
  Li  Li0  1  0.23708300  0.89843800  0.44466100  1
  Li  Li1  1  0.10289100  0.33401900  0.44313000  1
  Li  Li2  1  0.23253600  0.33662600  0.93700200  1
  Li  Li3  1  0.66421600  0.90139000  0.93750600  1
  Li  Li4  1  0.67273300  0.76738700  0.44341200  1
  Li  Li5  1  0.32124600  0.08818100  0.05931100  1
  Li  Li6  1  0.76506100  0.67598000  0.05646300  1
  Li  Li7  1  0.66963800  0.34282700  0.39194400  1
  Li  Li8  1  0.67612400  0.34050100  0.88653600  1
  Li  Li9  1  0.77036600  0.09302400  0.56403500  1
  Li  Li10  1  0.00429000  0.99883900  0.98782100  1
  Li  Li11  1  0.02701700  0.98447400  0.51410900  1
  V  V12  1  0.43621900  0.43526000  0.74354900  1
  V  V13  1  0.56207900  0.56311400  0.25240100  1
  V  V14  1  0.43053900  0.99744700  0.24536700  1
  V  V15  1  0.56288100  0.99957500  0.74919100  1
  V  V16  1  0.00470100  0.56510900  0.75241400  1
  V  V17  1  0.00043000  0.43516700  0.24684200  1
  P  P18  1  0.07845000  0.77247600  0.15535100  1
  P  P19  1  0.22178100  0.91222900  0.66125800  1
  P  P20  1  0.08467500  0.31099500  0.65468400  1
  P  P21  1  0.33691100  0.66379600  0.87042600  1
  P  P22  1  0.33261700  0.66743900  0.37040500  1
  P  P23  1  0.22814200  0.31449600  0.15634800  1
  P  P24  1  0.30948100  0.22064000  0.34019300  1
  P  P25  1  0.68815600  0.91293300  0.15653300  1
  P  P26  1  0.31414900  0.09554600  0.84415500  1
  P  P27  1  0.68646800  0.77444400  0.65656100  1
  P  P28  1  0.77651100  0.68636000  0.84028100  1
  P  P29  1  0.67263700  0.33453200  0.63119800  1
  P  P30  1  0.66247200  0.33241100  0.12961600  1
  P  P31  1  0.91676700  0.69331300  0.34468900  1
  P  P32  1  0.77334300  0.09310000  0.34056200  1
  P  P33  1  0.91138100  0.21900900  0.84048200  1
  O  O34  1  0.01105300  0.79361400  0.42750400  1
  O  O35  1  0.08865100  0.74405900  0.66735600  1
  O  O36  1  0.22709600  0.01376700  0.93327600  1
  O  O37  1  0.24926700  0.91518100  0.15831200  1
  O  O38  1  0.07940600  0.61794800  0.16741900  1
  O  O39  1  0.18779000  0.65789100  0.82492400  1
  O  O40  1  0.08432600  0.46590800  0.66623800  1
  O  O41  1  0.00524400  0.20463800  0.92050200  1
  O  O42  1  0.08638200  0.34111800  0.16627200  1
  O  O43  1  0.32783900  0.81210500  0.32901700  1
  O  O44  1  0.38350900  0.91903600  0.67569100  1
  O  O45  1  0.18724800  0.51368800  0.33132100  1
  O  O46  1  0.33438900  0.65254100  0.97680400  1
  O  O47  1  0.34215300  0.67164300  0.47711400  1
  O  O48  1  0.33838400  0.51610500  0.82550000  1
  O  O49  1  0.53104200  0.91418200  0.17430400  1
  O  O50  1  0.48492900  0.81441600  0.83326400  1
  O  O51  1  0.25020400  0.33462800  0.66125700  1
  O  O52  1  0.21372600  0.20018600  0.24241000  1
  O  O53  1  0.20928400  0.21383400  0.42238100  1
  O  O54  1  0.22346200  0.22981800  0.06490900  1
  O  O55  1  0.38165100  0.47042900  0.17046400  1
  O  O56  1  0.48546100  0.66878100  0.32823100  1
  O  O57  1  0.33669100  0.26213800  0.84041600  1
  O  O58  1  0.52864200  0.62247400  0.66693900  1
  O  O59  1  0.66383500  0.92041900  0.66274300  1
  O  O60  1  0.20776900  0.00602900  0.75185600  1
  O  O61  1  0.21768600  0.98949900  0.57003400  1
  O  O62  1  0.76738800  0.00163900  0.42833200  1
  O  O63  1  0.33855900  0.07826000  0.33902000  1
  O  O64  1  0.47403100  0.37124600  0.33251800  1
  O  O65  1  0.66133000  0.74513000  0.16281700  1
  O  O66  1  0.52389300  0.33416200  0.67327800  1
  O  O67  1  0.62479700  0.52461800  0.83028900  1
  O  O68  1  0.77421900  0.77745200  0.92817000  1
  O  O69  1  0.77548400  0.78667700  0.56647800  1
  O  O70  1  0.79325200  0.79220000  0.74862600  1
  O  O71  1  0.74527400  0.66153500  0.34606100  1
  O  O72  1  0.50482300  0.18512400  0.16316000  1
  O  O73  1  0.47799900  0.10903900  0.83130400  1
  O  O74  1  0.66582000  0.48426500  0.17280600  1
  O  O75  1  0.66302300  0.34159900  0.02227600  1
  O  O76  1  0.67591700  0.33682600  0.52392700  1
  O  O77  1  0.81582400  0.47686100  0.67929000  1
  O  O78  1  0.62547100  0.10945700  0.32714500  1
  O  O79  1  0.67335400  0.18322600  0.66603500  1
  O  O80  1  0.91763800  0.66077100  0.84078100  1
  O  O81  1  0.99520200  0.79255600  0.24991800  1
  O  O82  1  0.99001500  0.78525500  0.07175100  1
  O  O83  1  0.90798200  0.53085800  0.33269600  1
  O  O84  1  0.80265800  0.32672600  0.17601700  1
  O  O85  1  0.90065100  0.37075800  0.83676300  1
  O  O86  1  0.73870700  0.07866500  0.84095800  1
  O  O87  1  0.76552500  0.98777700  0.06455400  1
  O  O88  1  0.79545300  0.00688000  0.24779200  1
  O  O89  1  0.91968100  0.25958700  0.34204600  1
  O  O90  1  0.00065500  0.22132900  0.56441100  1
  O  O91  1  0.98311900  0.19813300  0.74177400  1
