# generated using pymatgen
data_Li2TeWO6
_symmetry_space_group_name_H-M   'P 1'
_cell_length_a   13.10793300
_cell_length_b   5.47570700
_cell_length_c   8.69624037
_cell_angle_alpha   54.92672266
_cell_angle_beta   90.00000000
_cell_angle_gamma   90.00000000
_symmetry_Int_Tables_number   1
_chemical_formula_structural   Li2TeWO6
_chemical_formula_sum   'Li8 Te4 W4 O24'
_cell_volume   510.83544232
_cell_formula_units_Z   4
loop_
 _symmetry_equiv_pos_site_id
 _symmetry_equiv_pos_as_xyz
  1  'x, y, z'
loop_
 _atom_site_type_symbol
 _atom_site_label
 _atom_site_symmetry_multiplicity
 _atom_site_fract_x
 _atom_site_fract_y
 _atom_site_fract_z
 _atom_site_occupancy
  Li  Li0  1  0.56640300  0.45522500  0.73890800  1
  Li  Li1  1  0.93359700  0.45522500  0.23890800  1
  Li  Li2  1  0.43359700  0.54477500  0.26109200  1
  Li  Li3  1  0.06640300  0.54477500  0.76109200  1
  Li  Li4  1  0.35563700  0.76402400  0.47933800  1
  Li  Li5  1  0.14436300  0.76402400  0.97933800  1
  Li  Li6  1  0.64436300  0.23597600  0.52066200  1
  Li  Li7  1  0.85563700  0.23597600  0.02066200  1
  Te  Te8  1  0.70224400  0.68134600  0.06972200  1
  Te  Te9  1  0.79775600  0.68134600  0.56972200  1
  Te  Te10  1  0.29775600  0.31865400  0.93027800  1
  Te  Te11  1  0.20224400  0.31865400  0.43027800  1
  W  W12  1  0.59569000  0.02645100  0.25562900  1
  W  W13  1  0.90431000  0.02645100  0.75562900  1
  W  W14  1  0.40431000  0.97354900  0.74437100  1
  W  W15  1  0.09569000  0.97354900  0.24437100  1
  O  O16  1  0.47981900  0.80894000  0.33719700  1
  O  O17  1  0.02018100  0.80894000  0.83719700  1
  O  O18  1  0.52018100  0.19106000  0.66280300  1
  O  O19  1  0.97981900  0.19106000  0.16280300  1
  O  O20  1  0.59373700  0.18732000  0.00680500  1
  O  O21  1  0.90626300  0.18732000  0.50680500  1
  O  O22  1  0.40626300  0.81268000  0.99319500  1
  O  O23  1  0.09373700  0.81268000  0.49319500  1
  O  O24  1  0.55714700  0.34833900  0.26002400  1
  O  O25  1  0.94285300  0.34833900  0.76002400  1
  O  O26  1  0.44285300  0.65166100  0.73997600  1
  O  O27  1  0.05714700  0.65166100  0.23997600  1
  O  O28  1  0.69394900  0.69332600  0.29080800  1
  O  O29  1  0.80605100  0.69332600  0.79080800  1
  O  O30  1  0.30605100  0.30667400  0.70919200  1
  O  O31  1  0.19394900  0.30667400  0.20919200  1
  O  O32  1  0.84256100  0.82933300  0.03088300  1
  O  O33  1  0.65743900  0.82933300  0.53088300  1
  O  O34  1  0.15743900  0.17066700  0.96911700  1
  O  O35  1  0.34256100  0.17066700  0.46911700  1
  O  O36  1  0.74826900  0.27931400  0.19201200  1
  O  O37  1  0.75173100  0.27931400  0.69201200  1
  O  O38  1  0.25173100  0.72068600  0.80798800  1
  O  O39  1  0.24826900  0.72068600  0.30798800  1
