# generated using pymatgen
data_Li2Co(Si2O5)2
_symmetry_space_group_name_H-M   'P 1'
_cell_length_a   9.57034759
_cell_length_b   14.53410787
_cell_length_c   6.97047687
_cell_angle_alpha   90.00000000
_cell_angle_beta   90.00000000
_cell_angle_gamma   90.00000000
_symmetry_Int_Tables_number   1
_chemical_formula_structural   Li2Co(Si2O5)2
_chemical_formula_sum   'Li8 Co4 Si16 O40'
_cell_volume   969.56868659
_cell_formula_units_Z   4
loop_
 _symmetry_equiv_pos_site_id
 _symmetry_equiv_pos_as_xyz
  1  'x, y, z'
loop_
 _atom_site_type_symbol
 _atom_site_label
 _atom_site_symmetry_multiplicity
 _atom_site_fract_x
 _atom_site_fract_y
 _atom_site_fract_z
 _atom_site_occupancy
  Li  Li0  1  0.08592464  0.81932968  0.66095288  1
  Li  Li1  1  0.10629318  0.51155956  0.92653586  1
  Li  Li2  1  0.39370682  0.48844044  0.42653586  1
  Li  Li3  1  0.41407536  0.18067032  0.16095288  1
  Li  Li4  1  0.58592464  0.68067032  0.33904712  1
  Li  Li5  1  0.60629318  0.98844044  0.07346414  1
  Li  Li6  1  0.89370682  0.01155956  0.57346414  1
  Li  Li7  1  0.91407536  0.31932968  0.83904712  1
  Co  Co8  1  0.18733894  0.33186654  0.98512061  1
  Co  Co9  1  0.31266106  0.66813346  0.48512061  1
  Co  Co10  1  0.68733894  0.16813346  0.01487939  1
  Co  Co11  1  0.81266106  0.83186654  0.51487939  1
  Si  Si12  1  0.04838162  0.56283777  0.47847152  1
  Si  Si13  1  0.06348749  0.89307251  0.25358297  1
  Si  Si14  1  0.09249766  0.21217907  0.29235461  1
  Si  Si15  1  0.11977991  0.15789686  0.71572312  1
  Si  Si16  1  0.38022009  0.84210314  0.21572312  1
  Si  Si17  1  0.40750234  0.78782093  0.79235461  1
  Si  Si18  1  0.43651251  0.10692749  0.75358297  1
  Si  Si19  1  0.45161838  0.43716223  0.97847152  1
  Si  Si20  1  0.54838162  0.93716223  0.52152848  1
  Si  Si21  1  0.56348749  0.60692749  0.74641703  1
  Si  Si22  1  0.59249766  0.28782093  0.70764539  1
  Si  Si23  1  0.61977991  0.34210314  0.28427688  1
  Si  Si24  1  0.88022009  0.65789686  0.78427688  1
  Si  Si25  1  0.90750234  0.71217907  0.20764539  1
  Si  Si26  1  0.93651251  0.39307251  0.24641703  1
  Si  Si27  1  0.95161838  0.06283777  0.02152848  1
  O  O28  1  1.00022302  0.80207718  0.14383287  1
  O  O29  1  0.99082055  0.15463066  0.14519983  1
  O  O30  1  0.00810537  0.40738971  0.03739412  1
  O  O31  1  0.99809763  0.08287192  0.79301227  1
  O  O32  1  0.04406917  0.97666774  0.09892445  1
  O  O33  1  0.11358027  0.14676734  0.48164216  1
  O  O34  1  0.08997077  0.26130754  0.78720128  1
  O  O35  1  0.21503048  0.54786054  0.46740247  1
  O  O36  1  0.23044611  0.88012238  0.29225684  1
  O  O37  1  0.23758049  0.24152663  0.18916296  1
  O  O38  1  0.26241951  0.75847337  0.68916296  1
  O  O39  1  0.26955389  0.11987762  0.79225684  1
  O  O40  1  0.28496952  0.45213946  0.96740247  1
  O  O41  1  0.41002923  0.73869246  0.28720128  1
  O  O42  1  0.38641973  0.85323266  0.98164216  1
  O  O43  1  0.45593083  0.02333226  0.59892445  1
  O  O44  1  0.50190237  0.91712808  0.29301227  1
  O  O45  1  0.49189463  0.59261029  0.53739412  1
  O  O46  1  0.50917945  0.84536934  0.64519983  1
  O  O47  1  0.49977698  0.19792282  0.64383287  1
  O  O48  1  0.50022302  0.69792282  0.85616713  1
  O  O49  1  0.49082055  0.34536934  0.85480017  1
  O  O50  1  0.50810537  0.09261029  0.96260588  1
  O  O51  1  0.49809763  0.41712808  0.20698773  1
  O  O52  1  0.54406917  0.52333226  0.90107555  1
  O  O53  1  0.61358027  0.35323266  0.51835784  1
  O  O54  1  0.58997077  0.23869246  0.21279872  1
  O  O55  1  0.71503048  0.95213946  0.53259753  1
  O  O56  1  0.73044611  0.61987762  0.70774316  1
  O  O57  1  0.73758049  0.25847337  0.81083704  1
  O  O58  1  0.76241951  0.74152663  0.31083704  1
  O  O59  1  0.76955389  0.38012238  0.20774316  1
  O  O60  1  0.78496952  0.04786054  0.03259753  1
  O  O61  1  0.91002923  0.76130754  0.71279872  1
  O  O62  1  0.88641973  0.64676734  0.01835784  1
  O  O63  1  0.95593083  0.47666874  0.40107555  1
  O  O64  1  0.00190237  0.58287192  0.70698773  1
  O  O65  1  0.99189463  0.90738971  0.46260588  1
  O  O66  1  0.00917945  0.65463066  0.35480017  1
  O  O67  1  -0.00022302  0.30207718  0.35616713  1
