# generated using pymatgen
data_Li2RhAu
_symmetry_space_group_name_H-M   'P 1'
_cell_length_a   10.34948100
_cell_length_b   10.34948100
_cell_length_c   10.34948100
_cell_angle_alpha   122.78368440
_cell_angle_beta   119.11544691
_cell_angle_gamma   88.39322955
_symmetry_Int_Tables_number   1
_chemical_formula_structural   Li2RhAu
_chemical_formula_sum   'Li2 Rh1 Au1'
_cell_volume   771.25914574
_cell_formula_units_Z   1
loop_
 _symmetry_equiv_pos_site_id
 _symmetry_equiv_pos_as_xyz
  1  'x, y, z'
loop_
 _atom_site_type_symbol
 _atom_site_label
 _atom_site_symmetry_multiplicity
 _atom_site_fract_x
 _atom_site_fract_y
 _atom_site_fract_z
 _atom_site_occupancy
  Li  Li0  1  0.00000000  0.25022600  0.25022600  1
  Li  Li1  1  0.00000000  0.74977400  0.74977400  1
  Rh  Rh2  1  0.00000000  0.00000000  0.00000000  1
  Au  Au3  1  0.00000000  0.50000000  0.50000000  1
