# generated using pymatgen
data_Li3Nd2(BO3)3
_symmetry_space_group_name_H-M   'P 1'
_cell_length_a   14.22914700
_cell_length_b   5.84481800
_cell_length_c   9.41275245
_cell_angle_alpha   66.89802895
_cell_angle_beta   90.00000000
_cell_angle_gamma   90.00000000
_symmetry_Int_Tables_number   1
_chemical_formula_structural   Li3Nd2(BO3)3
_chemical_formula_sum   'Li12 Nd8 B12 O36'
_cell_volume   720.05169620
_cell_formula_units_Z   4
loop_
 _symmetry_equiv_pos_site_id
 _symmetry_equiv_pos_as_xyz
  1  'x, y, z'
loop_
 _atom_site_type_symbol
 _atom_site_label
 _atom_site_symmetry_multiplicity
 _atom_site_fract_x
 _atom_site_fract_y
 _atom_site_fract_z
 _atom_site_occupancy
  Li  Li0  1  0.66509100  0.42598600  0.50311900  1
  Li  Li1  1  0.88768600  0.95051900  0.20852900  1
  Li  Li2  1  0.38768600  0.04948100  0.29147100  1
  Li  Li3  1  0.11231400  0.04948100  0.79147100  1
  Li  Li4  1  0.61231400  0.95051900  0.70852900  1
  Li  Li5  1  0.83490900  0.42598600  0.00311900  1
  Li  Li6  1  0.33490900  0.57401400  0.49688100  1
  Li  Li7  1  0.16509100  0.57401400  0.99688100  1
  Li  Li8  1  0.71500400  0.58113300  0.71025600  1
  Li  Li9  1  0.21500400  0.41886700  0.78974400  1
  Li  Li10  1  0.28499600  0.41886700  0.28974400  1
  Li  Li11  1  0.78499600  0.58113300  0.21025600  1
  Nd  Nd12  1  0.50320600  0.65323000  0.15858800  1
  Nd  Nd13  1  0.00320600  0.34677000  0.34141200  1
  Nd  Nd14  1  0.49679400  0.34677000  0.84141200  1
  Nd  Nd15  1  0.99679400  0.65323000  0.65858800  1
  Nd  Nd16  1  0.66372200  0.05898500  0.30764100  1
  Nd  Nd17  1  0.16372200  0.94101500  0.19235900  1
  Nd  Nd18  1  0.33627800  0.94101500  0.69235900  1
  Nd  Nd19  1  0.83627800  0.05898500  0.80764100  1
  B  B20  1  0.01547800  0.26303700  0.98647600  1
  B  B21  1  0.82312500  0.11384300  0.48200600  1
  B  B22  1  0.32312500  0.88615700  0.01799400  1
  B  B23  1  0.17687500  0.88615700  0.51799400  1
  B  B24  1  0.67687500  0.11384300  0.98200600  1
  B  B25  1  0.51547800  0.73696300  0.51352400  1
  B  B26  1  0.48452200  0.26303700  0.48647600  1
  B  B27  1  0.98452200  0.73696300  0.01352400  1
  B  B28  1  0.83679600  0.61547000  0.47180900  1
  B  B29  1  0.33679600  0.38453000  0.02819100  1
  B  B30  1  0.16320400  0.38453000  0.52819100  1
  B  B31  1  0.66320400  0.61547000  0.97180900  1
  O  O32  1  0.89645700  0.69296800  0.08003500  1
  O  O33  1  0.49265600  0.15809700  0.64632000  1
  O  O34  1  0.00734400  0.15809700  0.14632000  1
  O  O35  1  0.50734400  0.84190300  0.35368000  1
  O  O36  1  0.60354300  0.69296800  0.58003500  1
  O  O37  1  0.99265600  0.84190300  0.85368000  1
  O  O38  1  0.10354300  0.30703200  0.91996500  1
  O  O39  1  0.39645700  0.30703200  0.41996500  1
  O  O40  1  0.83180700  0.50385600  0.63170500  1
  O  O41  1  0.33180700  0.49614400  0.86829500  1
  O  O42  1  0.16819300  0.49614400  0.36829500  1
  O  O43  1  0.66819300  0.50385600  0.13170500  1
  O  O44  1  0.92596900  0.66194400  0.40676800  1
  O  O45  1  0.42596900  0.33805600  0.09323200  1
  O  O46  1  0.07403100  0.33805600  0.59323200  1
  O  O47  1  0.57403100  0.66194400  0.90676800  1
  O  O48  1  0.75795400  0.68464300  0.37873800  1
  O  O49  1  0.25795400  0.31535700  0.12126200  1
  O  O50  1  0.24204600  0.31535700  0.62126200  1
  O  O51  1  0.74204600  0.68464300  0.87873800  1
  O  O52  1  0.90517000  0.04217800  0.56924000  1
  O  O53  1  0.40517000  0.95782200  0.93076000  1
  O  O54  1  0.09483000  0.95782200  0.43076000  1
  O  O55  1  0.59483000  0.04217800  0.06924000  1
  O  O56  1  0.73746400  0.09504000  0.55420200  1
  O  O57  1  0.23746400  0.90496000  0.94579800  1
  O  O58  1  0.26253600  0.90496000  0.44579800  1
  O  O59  1  0.56418200  0.32219800  0.39347800  1
  O  O60  1  0.83087200  0.21288400  0.32190400  1
  O  O61  1  0.33087200  0.78711600  0.17809600  1
  O  O62  1  0.16912800  0.78711600  0.67809600  1
  O  O63  1  0.66912800  0.21288400  0.82190400  1
  O  O64  1  0.93581800  0.32219800  0.89347800  1
  O  O65  1  0.43581800  0.67780200  0.60652200  1
  O  O66  1  0.06418200  0.67780200  0.10652200  1
  O  O67  1  0.76253600  0.09504000  0.05420200  1
