# generated using pymatgen
data_Li9Mn2Co5O16
_symmetry_space_group_name_H-M   'P 1'
_cell_length_a   10.67869473
_cell_length_b   10.67869473
_cell_length_c   9.84812080
_cell_angle_alpha   72.67994411
_cell_angle_beta   72.67994411
_cell_angle_gamma   15.71790270
_symmetry_Int_Tables_number   1
_chemical_formula_structural   Li9Mn2Co5O16
_chemical_formula_sum   'Li9 Mn2 Co5 O16'
_cell_volume   290.16510239
_cell_formula_units_Z   1
loop_
 _symmetry_equiv_pos_site_id
 _symmetry_equiv_pos_as_xyz
  1  'x, y, z'
loop_
 _atom_site_type_symbol
 _atom_site_label
 _atom_site_symmetry_multiplicity
 _atom_site_fract_x
 _atom_site_fract_y
 _atom_site_fract_z
 _atom_site_occupancy
  Li  Li0  1  0.43694700  0.43694700  0.80113200  1
  Li  Li1  1  0.31359300  0.31359300  0.44791800  1
  Li  Li2  1  0.18845500  0.18845500  0.06265100  1
  Li  Li3  1  0.81204600  0.81204600  0.92603300  1
  Li  Li4  1  0.68513900  0.68513900  0.56638600  1
  Li  Li5  1  0.56289600  0.56289600  0.19295200  1
  Li  Li6  1  0.05826300  0.05826300  0.66963400  1
  Li  Li7  1  0.94381100  0.94381100  0.33169000  1
  Li  Li8  1  0.49983300  0.49983300  0.50099300  1
  Mn  Mn9  1  0.99982600  0.99982600  0.00079200  1
  Mn  Mn10  1  0.74818600  0.74818600  0.25058000  1
  Co  Co11  1  0.88489900  0.88489900  0.61954300  1
  Co  Co12  1  0.62772200  0.62772200  0.86953000  1
  Co  Co13  1  0.37441400  0.37441400  0.12925900  1
  Co  Co14  1  0.25369600  0.25369600  0.74651900  1
  Co  Co15  1  0.11481000  0.11481000  0.38028900  1
  O  O16  1  0.52697100  0.52697100  0.86315600  1
  O  O17  1  0.40327600  0.40327600  0.47615700  1
  O  O18  1  0.27605100  0.27605100  0.11131600  1
  O  O19  1  0.90993500  0.90993500  0.98739400  1
  O  O20  1  0.77973900  0.77973900  0.60671000  1
  O  O21  1  0.66107600  0.66107600  0.23048200  1
  O  O22  1  0.15521000  0.15521000  0.73062200  1
  O  O23  1  0.03794700  0.03794700  0.33951400  1
  O  O24  1  0.34201200  0.34201200  0.77383600  1
  O  O25  1  0.22265100  0.22265100  0.38617100  1
  O  O26  1  0.09011100  0.09011100  0.01537900  1
  O  O27  1  0.71622500  0.71622500  0.89908700  1
  O  O28  1  0.59793000  0.59793000  0.52109700  1
  O  O29  1  0.47456500  0.47456500  0.13774500  1
  O  O30  1  0.96345700  0.96345700  0.65776600  1
  O  O31  1  0.83830900  0.83830900  0.26766600  1
