# generated using pymatgen
data_Li3V6N11
_symmetry_space_group_name_H-M   'P 1'
_cell_length_a   10.55236972
_cell_length_b   10.55236972
_cell_length_c   5.20061389
_cell_angle_alpha   90.00000000
_cell_angle_beta   90.00000000
_cell_angle_gamma   90.00000000
_symmetry_Int_Tables_number   1
_chemical_formula_structural   Li3V6N11
_chemical_formula_sum   'Li6 V12 N22'
_cell_volume   579.10139307
_cell_formula_units_Z   2
loop_
 _symmetry_equiv_pos_site_id
 _symmetry_equiv_pos_as_xyz
  1  'x, y, z'
loop_
 _atom_site_type_symbol
 _atom_site_label
 _atom_site_symmetry_multiplicity
 _atom_site_fract_x
 _atom_site_fract_y
 _atom_site_fract_z
 _atom_site_occupancy
  Li  Li0  1  0.30843869  0.80843869  0.85670783  1
  Li  Li1  1  0.69156131  0.19156131  0.85670783  1
  Li  Li2  1  0.19156131  0.30843869  0.85670783  1
  Li  Li3  1  0.80843869  0.69156131  0.85670783  1
  Li  Li4  1  0.50000000  0.50000000  0.87411084  1
  Li  Li5  1  -0.00000000  0.00000000  0.87411084  1
  V  V6  1  0.42486908  0.28741272  0.55319068  1
  V  V7  1  0.57513092  0.71258728  0.55319068  1
  V  V8  1  0.07513092  0.78741272  0.55319068  1
  V  V9  1  0.92486908  0.21258728  0.55319068  1
  V  V10  1  0.28741272  0.57513092  0.55319068  1
  V  V11  1  0.71258728  0.42486908  0.55319068  1
  V  V12  1  0.78741272  0.92486908  0.55319068  1
  V  V13  1  0.21258728  0.07513092  0.55319068  1
  V  V14  1  0.88105742  0.38105742  0.07672461  1
  V  V15  1  0.11894258  0.61894258  0.07672461  1
  V  V16  1  0.61894258  0.88105742  0.07672461  1
  V  V17  1  0.38105742  0.11894258  0.07672461  1
  N  N18  1  0.32397624  0.41651336  0.65193799  1
  N  N19  1  0.67602376  0.58348664  0.65193799  1
  N  N20  1  0.17602376  0.91651336  0.65193799  1
  N  N21  1  0.82397624  0.08348664  0.65193799  1
  N  N22  1  0.41651336  0.67602376  0.65193799  1
  N  N23  1  0.58348664  0.32397624  0.65193799  1
  N  N24  1  0.91651336  0.82397624  0.65193799  1
  N  N25  1  0.08348664  0.17602376  0.65193799  1
  N  N26  1  0.42795011  0.26631502  0.21474048  1
  N  N27  1  0.57204989  0.73368498  0.21474048  1
  N  N28  1  0.07204989  0.76631502  0.21474048  1
  N  N29  1  0.92795011  0.23368498  0.21474048  1
  N  N30  1  0.26631502  0.57204989  0.21474048  1
  N  N31  1  0.73368498  0.42795011  0.21474048  1
  N  N32  1  0.76631502  0.92795011  0.21474048  1
  N  N33  1  0.23368498  0.07204989  0.21474048  1
  N  N34  1  0.85207606  0.35207606  0.72161595  1
  N  N35  1  0.14792394  0.64792394  0.72161595  1
  N  N36  1  0.64792394  0.85207606  0.72161595  1
  N  N37  1  0.35207606  0.14792394  0.72161595  1
  N  N38  1  0.50000000  0.00000000  0.10485179  1
  N  N39  1  -0.00000000  0.50000000  0.10485179  1
