# generated using pymatgen
data_Li9Mn2Co5O16
_symmetry_space_group_name_H-M   'P 1'
_cell_length_a   5.17697300
_cell_length_b   5.83961056
_cell_length_c   9.74727571
_cell_angle_alpha   90.04355566
_cell_angle_beta   100.49295227
_cell_angle_gamma   90.29146392
_symmetry_Int_Tables_number   1
_chemical_formula_structural   Li9Mn2Co5O16
_chemical_formula_sum   'Li9 Mn2 Co5 O16'
_cell_volume   289.74289675
_cell_formula_units_Z   1
loop_
 _symmetry_equiv_pos_site_id
 _symmetry_equiv_pos_as_xyz
  1  'x, y, z'
loop_
 _atom_site_type_symbol
 _atom_site_label
 _atom_site_symmetry_multiplicity
 _atom_site_fract_x
 _atom_site_fract_y
 _atom_site_fract_z
 _atom_site_occupancy
  Li  Li0  1  0.50090700  0.74877800  0.00019800  1
  Li  Li1  1  0.74359100  0.49209200  0.26259200  1
  Li  Li2  1  0.49909300  0.25122200  0.99980200  1
  Li  Li3  1  0.75410900  0.99950600  0.26051000  1
  Li  Li4  1  0.24589100  0.00049400  0.73949000  1
  Li  Li5  1  0.25640900  0.50790800  0.73740800  1
  Li  Li6  1  0.99646500  0.25362900  0.50032800  1
  Li  Li7  1  0.00353500  0.74637100  0.49967200  1
  Li  Li8  1  0.50000000  0.50000000  0.50000000  1
  Mn  Mn9  1  0.00000000  0.00000000  0.00000000  1
  Mn  Mn10  1  0.00000000  0.50000000  0.00000000  1
  Co  Co11  1  0.26917900  0.74756900  0.26172300  1
  Co  Co12  1  0.73082100  0.25243100  0.73827700  1
  Co  Co13  1  0.25177800  0.25658200  0.26174000  1
  Co  Co14  1  0.50000000  0.00000000  0.50000000  1
  Co  Co15  1  0.74822200  0.74341800  0.73826000  1
  O  O16  1  0.66194700  0.99232100  0.87617700  1
  O  O17  1  0.89855200  0.75092500  0.11253900  1
  O  O18  1  0.65529200  0.49938900  0.87914500  1
  O  O19  1  0.88815400  0.25061600  0.10886500  1
  O  O20  1  0.39569100  0.25054800  0.63403300  1
  O  O21  1  0.39411500  0.76762300  0.62302100  1
  O  O22  1  0.11985700  0.49304000  0.36007200  1
  O  O23  1  0.13363800  0.99655500  0.37244800  1
  O  O24  1  0.34470800  0.50061100  0.12085500  1
  O  O25  1  0.60588500  0.23237700  0.37697900  1
  O  O26  1  0.33805300  0.00767900  0.12382300  1
  O  O27  1  0.60430900  0.74945200  0.36596700  1
  O  O28  1  0.11184600  0.74938400  0.89113500  1
  O  O29  1  0.10144800  0.24907500  0.88746100  1
  O  O30  1  0.86636200  0.00344500  0.62755200  1
  O  O31  1  0.88014300  0.50696000  0.63992800  1
