# generated using pymatgen
data_Li9Mn2Co5O16
_symmetry_space_group_name_H-M   'P 1'
_cell_length_a   7.75265178
_cell_length_b   7.75265178
_cell_length_c   5.20988219
_cell_angle_alpha   75.22533383
_cell_angle_beta   75.22533383
_cell_angle_gamma   95.53974528
_symmetry_Int_Tables_number   1
_chemical_formula_structural   Li9Mn2Co5O16
_chemical_formula_sum   'Li9 Mn2 Co5 O16'
_cell_volume   288.36375757
_cell_formula_units_Z   1
loop_
 _symmetry_equiv_pos_site_id
 _symmetry_equiv_pos_as_xyz
  1  'x, y, z'
loop_
 _atom_site_type_symbol
 _atom_site_label
 _atom_site_symmetry_multiplicity
 _atom_site_fract_x
 _atom_site_fract_y
 _atom_site_fract_z
 _atom_site_occupancy
  Li  Li0  1  0.37869200  0.12505900  0.00370000  1
  Li  Li1  1  0.87494100  0.62130800  0.99630000  1
  Li  Li2  1  0.49378900  0.99400800  0.50563400  1
  Li  Li3  1  0.00599200  0.50621100  0.49436600  1
  Li  Li4  1  0.61930100  0.87309900  0.00415500  1
  Li  Li5  1  0.12690100  0.38069900  0.99584500  1
  Li  Li6  1  0.75025500  0.74795200  0.50231500  1
  Li  Li7  1  0.25204800  0.24974500  0.49768500  1
  Li  Li8  1  0.24978100  0.75021900  0.00000000  1
  Mn  Mn9  1  0.00225500  0.99774500  0.00000000  1
  Mn  Mn10  1  0.12464800  0.87535200  0.50000000  1
  Co  Co11  1  0.49543400  0.50456600  0.00000000  1
  Co  Co12  1  0.62566600  0.37433400  0.50000000  1
  Co  Co13  1  0.75187700  0.24812300  0.00000000  1
  Co  Co14  1  0.37446600  0.62553400  0.50000000  1
  Co  Co15  1  0.87490400  0.12509600  0.50000000  1
  O  O16  1  0.22881000  0.98866000  0.73738700  1
  O  O17  1  0.73236500  0.49068000  0.77830400  1
  O  O18  1  0.36318700  0.87133800  0.27789500  1
  O  O19  1  0.86125000  0.36040600  0.27139100  1
  O  O20  1  0.49755100  0.72605300  0.76194000  1
  O  O21  1  0.99142300  0.24305800  0.76799700  1
  O  O22  1  0.61814300  0.60827600  0.26629800  1
  O  O23  1  0.11259500  0.11780400  0.27470700  1
  O  O24  1  0.50932000  0.26763500  0.22169600  1
  O  O25  1  0.01134000  0.77119000  0.26261300  1
  O  O26  1  0.63959400  0.13875000  0.72860900  1
  O  O27  1  0.12866200  0.63681300  0.72210500  1
  O  O28  1  0.75694200  0.00857700  0.23200300  1
  O  O29  1  0.27394700  0.50244900  0.23806000  1
  O  O30  1  0.88219600  0.88740500  0.72529300  1
  O  O31  1  0.39172400  0.38185700  0.73370200  1
