# generated using pymatgen
data_LiZnBP2O11
_symmetry_space_group_name_H-M   'P 1'
_cell_length_a   9.64888789
_cell_length_b   9.64888789
_cell_length_c   15.40194900
_cell_angle_alpha   90.00000000
_cell_angle_beta   90.00000000
_cell_angle_gamma   119.99999925
_symmetry_Int_Tables_number   1
_chemical_formula_structural   LiZnBP2O11
_chemical_formula_sum   'Li6 Zn6 B6 P12 O66'
_cell_volume   1241.82625278
_cell_formula_units_Z   6
loop_
 _symmetry_equiv_pos_site_id
 _symmetry_equiv_pos_as_xyz
  1  'x, y, z'
loop_
 _atom_site_type_symbol
 _atom_site_label
 _atom_site_symmetry_multiplicity
 _atom_site_fract_x
 _atom_site_fract_y
 _atom_site_fract_z
 _atom_site_occupancy
  Li  Li0  1  0.69785700  0.88838200  0.54222300  1
  Li  Li1  1  0.19052500  0.30214300  0.20889000  1
  Li  Li2  1  0.30214300  0.11161800  0.04222300  1
  Li  Li3  1  0.11161800  0.80947500  0.87555600  1
  Li  Li4  1  0.80947500  0.69785700  0.70889000  1
  Li  Li5  1  0.88838200  0.19052500  0.37555600  1
  Zn  Zn6  1  0.93662800  0.47093600  0.45821500  1
  Zn  Zn7  1  0.53430700  0.06337200  0.12488200  1
  Zn  Zn8  1  0.06337200  0.52906400  0.95821500  1
  Zn  Zn9  1  0.52906400  0.46569300  0.79154900  1
  Zn  Zn10  1  0.46569300  0.93662800  0.62488200  1
  Zn  Zn11  1  0.47093600  0.53430700  0.29154900  1
  B  B12  1  0.68239300  0.84582200  0.96015200  1
  B  B13  1  0.16342900  0.31760700  0.62681900  1
  B  B14  1  0.31760700  0.15417800  0.46015200  1
  B  B15  1  0.15417800  0.83657100  0.29348600  1
  B  B16  1  0.83657100  0.68239300  0.12681900  1
  B  B17  1  0.84582200  0.16342900  0.79348600  1
  P  P18  1  0.77206300  0.16623400  0.96485300  1
  P  P19  1  0.39417200  0.22793700  0.63152000  1
  P  P20  1  0.22793700  0.83376600  0.46485300  1
  P  P21  1  0.83376600  0.60582800  0.29818600  1
  P  P22  1  0.60582800  0.77206300  0.13152000  1
  P  P23  1  0.16623400  0.39417200  0.79818600  1
  P  P24  1  0.61527600  0.84620300  0.78637700  1
  P  P25  1  0.23092800  0.38472400  0.45304300  1
  P  P26  1  0.38472400  0.15379700  0.28637700  1
  P  P27  1  0.15379700  0.76907200  0.11971000  1
  P  P28  1  0.76907200  0.61527600  0.95304300  1
  P  P29  1  0.84620300  0.23092800  0.61971000  1
  O  O30  1  0.92474800  0.31019100  0.99870700  1
  O  O31  1  0.38544300  0.07525200  0.66537400  1
  O  O32  1  0.07525200  0.68980900  0.49870700  1
  O  O33  1  0.68980900  0.61455700  0.33204100  1
  O  O34  1  0.61455700  0.92474800  0.16537400  1
  O  O35  1  0.31019100  0.38544300  0.83204100  1
  O  O36  1  0.50817600  0.74153400  0.61135700  1
  O  O37  1  0.23335900  0.49182400  0.27802400  1
  O  O38  1  0.49182400  0.25846600  0.11135700  1
  O  O39  1  0.25846600  0.76664100  0.94469000  1
  O  O40  1  0.76664100  0.50817600  0.77802400  1
  O  O41  1  0.74153400  0.23335900  0.44469000  1
  O  O42  1  0.48369400  0.87023800  0.74520300  1
  O  O43  1  0.38654500  0.51630600  0.41187000  1
  O  O44  1  0.51630600  0.12976200  0.24520300  1
  O  O45  1  0.12976200  0.61345500  0.07853700  1
  O  O46  1  0.61345500  0.48369400  0.91187000  1
  O  O47  1  0.87023800  0.38654500  0.57853700  1
  O  O48  1  0.75289500  0.17948400  0.86464300  1
  O  O49  1  0.42659000  0.24710500  0.53131000  1
  O  O50  1  0.24710500  0.82051600  0.36464300  1
  O  O51  1  0.82051600  0.57341000  0.19797700  1
  O  O52  1  0.57341000  0.75289500  0.03131000  1
  O  O53  1  0.17948400  0.42659000  0.69797700  1
  O  O54  1  0.26342300  0.39584800  0.01784700  1
  O  O55  1  0.13242500  0.73657700  0.68451400  1
  O  O56  1  0.73657700  0.60415200  0.51784700  1
  O  O57  1  0.60415200  0.86757500  0.35118000  1
  O  O58  1  0.86757500  0.26342300  0.18451400  1
  O  O59  1  0.39584800  0.13242500  0.85118000  1
  O  O60  1  0.78679800  0.99245600  0.77091200  1
  O  O61  1  0.20565800  0.21320200  0.43757900  1
  O  O62  1  0.21320200  0.00754400  0.27091200  1
  O  O63  1  0.00754400  0.79434200  0.10424600  1
  O  O64  1  0.79434200  0.78679800  0.93757900  1
  O  O65  1  0.99245600  0.20565800  0.60424600  1
  O  O66  1  0.61804200  0.14362700  0.00767800  1
  O  O67  1  0.52558400  0.38195800  0.67434500  1
  O  O68  1  0.38195800  0.85637300  0.50767800  1
  O  O69  1  0.85637300  0.47441600  0.34101100  1
  O  O70  1  0.47441600  0.61804200  0.17434500  1
  O  O71  1  0.14362700  0.52558400  0.84101100  1
  O  O72  1  0.72589600  0.92598000  0.39693600  1
  O  O73  1  0.20008400  0.27410400  0.06360300  1
  O  O74  1  0.27410400  0.07402000  0.89693600  1
  O  O75  1  0.07402000  0.79991600  0.73026900  1
  O  O76  1  0.79991600  0.72589600  0.56360300  1
  O  O77  1  0.92598000  0.20008400  0.23026900  1
  O  O78  1  0.57663900  0.82154900  0.88477500  1
  O  O79  1  0.24491000  0.42336100  0.55144100  1
  O  O80  1  0.42336100  0.17845100  0.38477500  1
  O  O81  1  0.17845100  0.75509000  0.21810800  1
  O  O82  1  0.75509000  0.57663900  0.05144100  1
  O  O83  1  0.82154900  0.24491000  0.71810800  1
  O  O84  1  0.78864200  0.01470100  0.98246700  1
  O  O85  1  0.22606000  0.21135800  0.64913400  1
  O  O86  1  0.21135800  0.98529900  0.48246700  1
  O  O87  1  0.98529900  0.77394000  0.31580100  1
  O  O88  1  0.77394000  0.78864200  0.14913400  1
  O  O89  1  0.01470100  0.22606000  0.81580100  1
  O  O90  1  0.62507900  0.70306100  0.74784400  1
  O  O91  1  0.07798200  0.37492100  0.41451000  1
  O  O92  1  0.37492100  0.29693900  0.24784400  1
  O  O93  1  0.29693900  0.92201800  0.08117700  1
  O  O94  1  0.92201800  0.62507900  0.91451000  1
  O  O95  1  0.70306100  0.07798200  0.58117700  1
