# generated using pymatgen
data_Li2SiNiO4
_symmetry_space_group_name_H-M   'P 1'
_cell_length_a   5.22819275
_cell_length_b   12.53650747
_cell_length_c   5.36732564
_cell_angle_alpha   88.28307032
_cell_angle_beta   92.64168365
_cell_angle_gamma   90.63595669
_symmetry_Int_Tables_number   1
_chemical_formula_structural   Li2SiNiO4
_chemical_formula_sum   'Li8 Si4 Ni4 O16'
_cell_volume   351.24385839
_cell_formula_units_Z   4
loop_
 _symmetry_equiv_pos_site_id
 _symmetry_equiv_pos_as_xyz
  1  'x, y, z'
loop_
 _atom_site_type_symbol
 _atom_site_label
 _atom_site_symmetry_multiplicity
 _atom_site_fract_x
 _atom_site_fract_y
 _atom_site_fract_z
 _atom_site_occupancy
  Li  Li0  1  0.18989600  0.37418600  0.17345900  1
  Li  Li1  1  0.18852300  0.87398100  0.17138500  1
  Li  Li2  1  0.81008300  0.12599500  0.82483200  1
  Li  Li3  1  0.81091300  0.62618000  0.82438600  1
  Li  Li4  1  0.68741000  0.24641000  0.31843400  1
  Li  Li5  1  0.69236000  0.74533700  0.31166400  1
  Li  Li6  1  0.31307600  0.00508200  0.68735500  1
  Li  Li7  1  0.31171800  0.50428400  0.68593600  1
  Si  Si8  1  0.17562700  0.12425400  0.17748200  1
  Si  Si9  1  0.18140800  0.62366300  0.17075600  1
  Si  Si10  1  0.81884300  0.37654200  0.82856100  1
  Si  Si11  1  0.82405300  0.87584800  0.82222000  1
  Ni  Ni12  1  0.68573800  0.49458000  0.32912400  1
  Ni  Ni13  1  0.31651700  0.75435700  0.66641800  1
  Ni  Ni14  1  0.68043500  0.99325000  0.32306000  1
  Ni  Ni15  1  0.31069100  0.25420600  0.67283500  1
  O  O16  1  0.78289100  0.37420900  0.13233100  1
  O  O17  1  0.78909200  0.87305800  0.12669300  1
  O  O18  1  0.21032900  0.12790400  0.87185400  1
  O  O19  1  0.21681600  0.62809200  0.86538300  1
  O  O20  1  0.86180300  0.12263200  0.21010600  1
  O  O21  1  0.86748700  0.62145500  0.20125900  1
  O  O22  1  0.13317300  0.37668800  0.80174100  1
  O  O23  1  0.13855700  0.87636200  0.79710100  1
  O  O24  1  0.30281900  0.01487400  0.30708200  1
  O  O25  1  0.30711800  0.51442200  0.30333200  1
  O  O26  1  0.69252800  0.26934300  0.69686100  1
  O  O27  1  0.69864700  0.76897200  0.68842800  1
  O  O28  1  0.30595100  0.23076400  0.30695300  1
  O  O29  1  0.30973200  0.73052800  0.30078000  1
  O  O30  1  0.69433400  0.48671700  0.70108900  1
  O  O31  1  0.69702700  0.98583200  0.69551000  1
