# generated using pymatgen
data_Li6Zn3(PS4)4
_symmetry_space_group_name_H-M   'P 1'
_cell_length_a   9.30573800
_cell_length_b   11.60056505
_cell_length_c   23.15904863
_cell_angle_alpha   90.08348724
_cell_angle_beta   90.03386181
_cell_angle_gamma   90.00557619
_symmetry_Int_Tables_number   1
_chemical_formula_structural   Li6Zn3(PS4)4
_chemical_formula_sum   'Li24 Zn12 P16 S64'
_cell_volume   2500.05832465
_cell_formula_units_Z   4
loop_
 _symmetry_equiv_pos_site_id
 _symmetry_equiv_pos_as_xyz
  1  'x, y, z'
loop_
 _atom_site_type_symbol
 _atom_site_label
 _atom_site_symmetry_multiplicity
 _atom_site_fract_x
 _atom_site_fract_y
 _atom_site_fract_z
 _atom_site_occupancy
  Li  Li0  1  0.74894400  0.50237100  0.37252500  1
  Li  Li1  1  0.75188300  0.49475500  0.12577300  1
  Li  Li2  1  0.74735700  0.00566700  0.12041100  1
  Li  Li3  1  0.24516900  0.74805600  0.25299500  1
  Li  Li4  1  0.50178900  0.49987100  0.75056700  1
  Li  Li5  1  0.50569600  0.00182500  0.74900000  1
  Li  Li6  1  0.49701100  0.49949800  0.50349400  1
  Li  Li7  1  0.50214400  0.99777200  0.49951700  1
  Li  Li8  1  0.00100200  0.24888400  0.62548200  1
  Li  Li9  1  0.00406600  0.74765700  0.62694900  1
  Li  Li10  1  0.49431600  0.49646300  0.24898200  1
  Li  Li11  1  0.49803600  0.99983200  0.25318800  1
  Li  Li12  1  0.00166900  0.24629500  0.37609100  1
  Li  Li13  1  0.00130900  0.75163900  0.37733100  1
  Li  Li14  1  0.49016400  0.50212900  0.99628700  1
  Li  Li15  1  0.49482400  0.00289800  0.99891100  1
  Li  Li16  1  0.01724200  0.25211500  0.12426700  1
  Li  Li17  1  0.00208200  0.75212600  0.12225700  1
  Li  Li18  1  0.00296000  0.24913700  0.87386200  1
  Li  Li19  1  0.00290200  0.75116600  0.87495800  1
  Li  Li20  1  0.50021300  0.75228300  0.37727200  1
  Li  Li21  1  0.48315500  0.24851700  0.12491000  1
  Li  Li22  1  0.00644100  0.49820400  0.25038000  1
  Li  Li23  1  0.00731000  0.99880500  0.99729200  1
  Zn  Zn24  1  0.49828000  0.75108100  0.87339500  1
  Zn  Zn25  1  0.49898800  0.24964100  0.87586000  1
  Zn  Zn26  1  0.49968400  0.75005500  0.62508200  1
  Zn  Zn27  1  0.49921700  0.25087900  0.62608100  1
  Zn  Zn28  1  0.99816600  0.49999000  0.75020100  1
  Zn  Zn29  1  0.99990300  0.00100800  0.75056100  1
  Zn  Zn30  1  0.49171800  0.24946800  0.37374600  1
  Zn  Zn31  1  0.00570400  0.49955300  0.50133500  1
  Zn  Zn32  1  0.99931900  0.99998300  0.50089900  1
  Zn  Zn33  1  0.49263100  0.75030100  0.12340500  1
  Zn  Zn34  1  0.99844300  0.00057000  0.25098200  1
  Zn  Zn35  1  0.00391500  0.49996800  0.99924000  1
  P  P36  1  0.75061100  0.74986400  0.74999500  1
  P  P37  1  0.75013100  0.25028300  0.74997300  1
  P  P38  1  0.74891300  0.75353000  0.50056600  1
  P  P39  1  0.75163400  0.25090500  0.49984700  1
  P  P40  1  0.25021900  0.49929300  0.62560900  1
  P  P41  1  0.25042400  0.99974000  0.62472200  1
  P  P42  1  0.75259400  0.74593600  0.24663500  1
  P  P43  1  0.74721200  0.25398900  0.25223500  1
  P  P44  1  0.25347400  0.50384600  0.37777900  1
  P  P45  1  0.24604100  0.00022800  0.37292800  1
  P  P46  1  0.74821400  0.74845400  0.00228300  1
  P  P47  1  0.75028700  0.24723100  0.99833900  1
  P  P48  1  0.24720500  0.50001100  0.12269800  1
  P  P49  1  0.25232900  0.99962500  0.12876600  1
  P  P50  1  0.24953300  0.50071600  0.87423300  1
  P  P51  1  0.25186300  0.99582200  0.87331400  1
  S  S52  1  0.86324900  0.63933400  0.94966700  1
  S  S53  1  0.87146700  0.14541300  0.94791600  1
  S  S54  1  0.86396100  0.63786400  0.69766100  1
  S  S55  1  0.86326800  0.13823400  0.69757000  1
  S  S56  1  0.36511600  0.38906300  0.82277100  1
  S  S57  1  0.37393300  0.89095100  0.81997600  1
  S  S58  1  0.86874300  0.63803900  0.44858900  1
  S  S59  1  0.86359800  0.13872700  0.44781600  1
  S  S60  1  0.36201500  0.38647600  0.57328400  1
  S  S61  1  0.36449300  0.88816100  0.57243400  1
  S  S62  1  0.87562100  0.64195900  0.19515500  1
  S  S63  1  0.86939600  0.14396300  0.19895500  1
  S  S64  1  0.36131200  0.39076900  0.32292200  1
  S  S65  1  0.36541300  0.89027800  0.32276500  1
  S  S66  1  0.37506000  0.40134200  0.07280600  1
  S  S67  1  0.36151200  0.88841100  0.07351600  1
  S  S68  1  0.63683200  0.35521000  0.69392200  1
  S  S69  1  0.63685300  0.85366500  0.69383000  1
  S  S70  1  0.62911100  0.35469900  0.44419300  1
  S  S71  1  0.64179800  0.85640200  0.44555100  1
  S  S72  1  0.13724300  0.10490000  0.56876200  1
  S  S73  1  0.13806400  0.60483700  0.56973300  1
  S  S74  1  0.62964700  0.35295700  0.19639300  1
  S  S75  1  0.62714900  0.85416000  0.19464900  1
  S  S76  1  0.13125900  0.10664400  0.31871300  1
  S  S77  1  0.13073800  0.60574500  0.32344100  1
  S  S78  1  0.63029500  0.35502300  0.94628600  1
  S  S79  1  0.62898700  0.84996300  0.94768700  1
  S  S80  1  0.12903900  0.09581300  0.07559900  1
  S  S81  1  0.13184600  0.60833600  0.06889100  1
  S  S82  1  0.13933800  0.10336200  0.81769500  1
  S  S83  1  0.13410700  0.60419200  0.81861800  1
  S  S84  1  0.86465600  0.86140700  0.80208400  1
  S  S85  1  0.86442500  0.36163300  0.80212000  1
  S  S86  1  0.87503800  0.85610000  0.55284400  1
  S  S87  1  0.86398900  0.36260700  0.55209300  1
  S  S88  1  0.36552600  0.61066000  0.67736200  1
  S  S89  1  0.36530700  0.11099500  0.67689100  1
  S  S90  1  0.86533000  0.85599200  0.30038700  1
  S  S91  1  0.87287400  0.35669400  0.30356700  1
  S  S92  1  0.37491900  0.60535200  0.42897100  1
  S  S93  1  0.36303600  0.10919000  0.42567700  1
  S  S94  1  0.86584100  0.85866600  0.05276700  1
  S  S95  1  0.87041000  0.36020100  0.05238300  1
  S  S96  1  0.36461300  0.61357800  0.17767800  1
  S  S97  1  0.37174200  0.10125900  0.18065000  1
  S  S98  1  0.36106500  0.61478500  0.92576600  1
  S  S99  1  0.36313800  0.11042300  0.92587300  1
  S  S100  1  0.63787400  0.64535300  0.80601000  1
  S  S101  1  0.63541800  0.14723500  0.80561700  1
  S  S102  1  0.63788500  0.64656000  0.55613900  1
  S  S103  1  0.63238900  0.14899500  0.55418300  1
  S  S104  1  0.13450600  0.39587900  0.68089200  1
  S  S105  1  0.13554000  0.89680400  0.68045500  1
  S  S106  1  0.62732400  0.64696100  0.30032400  1
  S  S107  1  0.63224200  0.14640400  0.30564000  1
  S  S108  1  0.12938500  0.39670100  0.42925900  1
  S  S109  1  0.13320800  0.89781900  0.42978200  1
  S  S110  1  0.62622300  0.64062300  0.05614700  1
  S  S111  1  0.62956300  0.14823600  0.05415800  1
  S  S112  1  0.13625300  0.39898500  0.17803500  1
  S  S113  1  0.12718900  0.89062900  0.18247400  1
  S  S114  1  0.13690100  0.39582900  0.93016800  1
  S  S115  1  0.14138600  0.89261500  0.92742500  1
