# generated using pymatgen
data_Li9Mn2Co5O16
_symmetry_space_group_name_H-M   'P 1'
_cell_length_a   5.83172000
_cell_length_b   5.06806000
_cell_length_c   9.85381606
_cell_angle_alpha   80.25064816
_cell_angle_beta   90.00000000
_cell_angle_gamma   90.00000000
_symmetry_Int_Tables_number   1
_chemical_formula_structural   Li9Mn2Co5O16
_chemical_formula_sum   'Li9 Mn2 Co5 O16'
_cell_volume   287.02851179
_cell_formula_units_Z   1
loop_
 _symmetry_equiv_pos_site_id
 _symmetry_equiv_pos_as_xyz
  1  'x, y, z'
loop_
 _atom_site_type_symbol
 _atom_site_label
 _atom_site_symmetry_multiplicity
 _atom_site_fract_x
 _atom_site_fract_y
 _atom_site_fract_z
 _atom_site_occupancy
  Li  Li0  1  0.00144400  0.24759800  0.24207900  1
  Li  Li1  1  0.24312600  0.24732000  0.75943000  1
  Li  Li2  1  0.50244700  0.25267700  0.24285400  1
  Li  Li3  1  0.24312600  0.75268000  0.24057000  1
  Li  Li4  1  0.50244700  0.74732300  0.75714600  1
  Li  Li5  1  0.75243100  0.75168300  0.24169200  1
  Li  Li6  1  0.75243100  0.24831700  0.75830800  1
  Li  Li7  1  0.00144400  0.75240200  0.75792100  1
  Li  Li8  1  0.00064300  0.00000000  0.00000000  1
  Mn  Mn9  1  0.99977300  0.50000000  0.50000000  1
  Mn  Mn10  1  0.24821100  0.50000000  0.00000000  1
  Co  Co11  1  0.50020800  0.50000000  0.50000000  1
  Co  Co12  1  0.75757000  0.50000000  0.00000000  1
  Co  Co13  1  0.50094400  0.00000000  0.00000000  1
  Co  Co14  1  0.74798100  0.00000000  0.50000000  1
  Co  Co15  1  0.25204200  0.00000000  0.50000000  1
  O  O16  1  0.75953500  0.37816100  0.38708200  1
  O  O17  1  0.01051700  0.39242800  0.88524100  1
  O  O18  1  0.23698900  0.37625700  0.38970500  1
  O  O19  1  0.00256400  0.85412900  0.38718400  1
  O  O20  1  0.26645600  0.86032200  0.89268600  1
  O  O21  1  0.50339400  0.86265000  0.38630800  1
  O  O22  1  0.48568000  0.37747200  0.88501300  1
  O  O23  1  0.73872500  0.85984400  0.88725300  1
  O  O24  1  0.26645600  0.13967800  0.10731400  1
  O  O25  1  0.50339400  0.13735000  0.61369200  1
  O  O26  1  0.73872500  0.14015600  0.11274700  1
  O  O27  1  0.48568000  0.62252800  0.11498700  1
  O  O28  1  0.75953500  0.62183900  0.61291800  1
  O  O29  1  0.01051700  0.60757200  0.11475900  1
  O  O30  1  0.00256400  0.14587100  0.61281600  1
  O  O31  1  0.23698900  0.62374300  0.61029500  1
