# generated using pymatgen
data_Li8N3O
_symmetry_space_group_name_H-M   'P 1'
_cell_length_a   4.80547800
_cell_length_b   4.80547800
_cell_length_c   4.80547800
_cell_angle_alpha   90.00000000
_cell_angle_beta   90.00000000
_cell_angle_gamma   90.00000000
_symmetry_Int_Tables_number   1
_chemical_formula_structural   Li8N3O
_chemical_formula_sum   'Li8 N3 O1'
_cell_volume   110.97107165
_cell_formula_units_Z   1
loop_
 _symmetry_equiv_pos_site_id
 _symmetry_equiv_pos_as_xyz
  1  'x, y, z'
loop_
 _atom_site_type_symbol
 _atom_site_label
 _atom_site_symmetry_multiplicity
 _atom_site_fract_x
 _atom_site_fract_y
 _atom_site_fract_z
 _atom_site_occupancy
  Li  Li0  1  0.25755000  0.74245000  0.25755000  1
  Li  Li1  1  0.74245000  0.25755000  0.25755000  1
  Li  Li2  1  0.74245000  0.74245000  0.74245000  1
  Li  Li3  1  0.25755000  0.25755000  0.74245000  1
  Li  Li4  1  0.25755000  0.74245000  0.74245000  1
  Li  Li5  1  0.74245000  0.25755000  0.74245000  1
  Li  Li6  1  0.74245000  0.74245000  0.25755000  1
  Li  Li7  1  0.25755000  0.25755000  0.25755000  1
  N  N8  1  0.00000000  0.50000000  0.00000000  1
  N  N9  1  0.50000000  0.00000000  0.00000000  1
  N  N10  1  0.00000000  0.00000000  0.50000000  1
  O  O11  1  0.50000000  0.50000000  0.50000000  1
