# generated using pymatgen
data_Li2Mn3SbO8
_symmetry_space_group_name_H-M   'P 1'
_cell_length_a   6.09794340
_cell_length_b   6.09731297
_cell_length_c   10.34596625
_cell_angle_alpha   106.50936595
_cell_angle_beta   92.13170967
_cell_angle_gamma   61.22301628
_symmetry_Int_Tables_number   1
_chemical_formula_structural   Li2Mn3SbO8
_chemical_formula_sum   'Li4 Mn6 Sb2 O16'
_cell_volume   320.98793233
_cell_formula_units_Z   2
loop_
 _symmetry_equiv_pos_site_id
 _symmetry_equiv_pos_as_xyz
  1  'x, y, z'
loop_
 _atom_site_type_symbol
 _atom_site_label
 _atom_site_symmetry_multiplicity
 _atom_site_fract_x
 _atom_site_fract_y
 _atom_site_fract_z
 _atom_site_occupancy
  Li  Li0  1  0.29799400  0.39158500  0.56798300  1
  Li  Li1  1  0.79707700  0.40345000  0.06679500  1
  Li  Li2  1  0.20199000  0.60835500  0.93200800  1
  Li  Li3  1  0.70303100  0.59635600  0.43317800  1
  Mn  Mn4  1  0.74995200  0.00005500  0.74999100  1
  Mn  Mn5  1  0.24995000  0.99994400  0.74995200  1
  Mn  Mn6  1  0.75006600  0.00005200  0.24996900  1
  Mn  Mn7  1  0.25010200  0.00002300  0.25003700  1
  Mn  Mn8  1  0.00270400  0.99475400  0.50030500  1
  Mn  Mn9  1  0.49725600  0.00524800  0.99967700  1
  Sb  Sb10  1  0.74992100  0.50006900  0.74997400  1
  Sb  Sb11  1  0.24996000  0.50017100  0.25001200  1
  O  O12  1  0.09125300  0.81084700  0.63802700  1
  O  O13  1  0.59211600  0.81512400  0.13404400  1
  O  O14  1  0.40862000  0.18911500  0.86199800  1
  O  O15  1  0.90791000  0.18490700  0.36593600  1
  O  O16  1  0.87452900  0.27216000  0.86839900  1
  O  O17  1  0.35461700  0.24615000  0.36121500  1
  O  O18  1  0.63628500  0.24570900  0.64136800  1
  O  O19  1  0.13407400  0.27226900  0.12912400  1
  O  O20  1  0.09494100  0.24378900  0.63228200  1
  O  O21  1  0.59925500  0.24625500  0.13649700  1
  O  O22  1  0.40502300  0.75617400  0.86770000  1
  O  O23  1  0.90078900  0.75369700  0.36344400  1
  O  O24  1  0.86372100  0.75423000  0.85867100  1
  O  O25  1  0.36592400  0.72784200  0.37097600  1
  O  O26  1  0.62540400  0.72791900  0.63160900  1
  O  O27  1  0.14553500  0.75374800  0.13882900  1
