# generated using pymatgen
data_Li4MnCo2O7
_symmetry_space_group_name_H-M   'P 1'
_cell_length_a   5.15002023
_cell_length_b   7.71852758
_cell_length_c   7.65829350
_cell_angle_alpha   64.20479879
_cell_angle_beta   83.14441617
_cell_angle_gamma   108.31304326
_symmetry_Int_Tables_number   1
_chemical_formula_structural   Li4MnCo2O7
_chemical_formula_sum   'Li8 Mn2 Co4 O14'
_cell_volume   248.25235183
_cell_formula_units_Z   2
loop_
 _symmetry_equiv_pos_site_id
 _symmetry_equiv_pos_as_xyz
  1  'x, y, z'
loop_
 _atom_site_type_symbol
 _atom_site_label
 _atom_site_symmetry_multiplicity
 _atom_site_fract_x
 _atom_site_fract_y
 _atom_site_fract_z
 _atom_site_occupancy
  Li  Li0  1  0.56766134  0.07075855  0.78773794  1
  Li  Li1  1  0.00546449  0.50422377  0.49943543  1
  Li  Li2  1  0.42961720  0.93622525  0.21631788  1
  Li  Li3  1  0.86540613  0.36329287  0.93100159  1
  Li  Li4  1  0.27945573  0.78114263  0.64197146  1
  Li  Li5  1  0.71692718  0.21619311  0.34840881  1
  Li  Li6  1  0.14023290  0.63103599  0.07465275  1
  Li  Li7  1  0.28354040  0.28646415  0.14232769  1
  Mn  Mn8  1  -0.00022408  0.00172684  0.00059899  1
  Mn  Mn9  1  0.14208965  0.14406668  0.56831768  1
  Co  Co10  1  0.42347954  0.42780652  0.71693512  1
  Co  Co11  1  0.87069749  0.86026719  0.42724079  1
  Co  Co12  1  0.70289369  0.70290880  0.86223958  1
  Co  Co13  1  0.56324245  0.56805377  0.28319218  1
  O  O14  1  0.13092018  0.90835890  0.81996969  1
  O  O15  1  0.52695909  0.31503204  0.54405408  1
  O  O16  1  0.00114546  0.76517920  0.23623719  1
  O  O17  1  0.38876967  0.18008123  0.95338481  1
  O  O18  1  0.85605025  0.61536777  0.66911178  1
  O  O19  1  0.27232384  0.03929282  0.40807588  1
  O  O20  1  0.71811460  0.48354965  0.10277688  1
  O  O21  1  0.99338242  0.22833260  0.75623646  1
  O  O22  1  0.45043846  0.66467180  0.46917630  1
  O  O23  1  0.85613087  0.08500521  0.18123236  1
  O  O24  1  0.31342060  0.54254085  0.87609400  1
  O  O25  1  0.75049485  0.96802227  0.60950623  1
  O  O26  1  0.14921058  0.38383953  0.33768637  1
  O  O27  1  0.60215500  0.82656002  0.03608010  1
