# generated using pymatgen
data_Li9Mn2Co5O16
_symmetry_space_group_name_H-M   'P 1'
_cell_length_a   2.94056900
_cell_length_b   10.14335538
_cell_length_c   10.62786527
_cell_angle_alpha   113.78025128
_cell_angle_beta   94.97267973
_cell_angle_gamma   92.45427732
_symmetry_Int_Tables_number   1
_chemical_formula_structural   Li9Mn2Co5O16
_chemical_formula_sum   'Li9 Mn2 Co5 O16'
_cell_volume   287.94073773
_cell_formula_units_Z   1
loop_
 _symmetry_equiv_pos_site_id
 _symmetry_equiv_pos_as_xyz
  1  'x, y, z'
loop_
 _atom_site_type_symbol
 _atom_site_label
 _atom_site_symmetry_multiplicity
 _atom_site_fract_x
 _atom_site_fract_y
 _atom_site_fract_z
 _atom_site_occupancy
  Li  Li0  1  0.13167700  0.93677000  0.25289100  1
  Li  Li1  1  0.86903900  0.06764200  0.75293700  1
  Li  Li2  1  0.61025900  0.19215900  0.24443400  1
  Li  Li3  1  0.62377600  0.68332300  0.24704800  1
  Li  Li4  1  0.38158900  0.81132900  0.75237900  1
  Li  Li5  1  0.11561700  0.42772400  0.23840000  1
  Li  Li6  1  0.87895100  0.56354700  0.75129100  1
  Li  Li7  1  0.38474900  0.31690400  0.75372100  1
  Li  Li8  1  0.51535900  0.25236300  0.00831400  1
  Mn  Mn9  1  0.99239400  0.00572600  0.00092600  1
  Mn  Mn10  1  0.74934500  0.62488700  0.49978700  1
  Co  Co11  1  0.74977700  0.12560800  0.50093800  1
  Co  Co12  1  0.25038300  0.37521700  0.50134900  1
  Co  Co13  1  0.00503100  0.48992900  0.99819300  1
  Co  Co14  1  0.48994600  0.74729000  0.99753600  1
  Co  Co15  1  0.25037300  0.87446800  0.49795900  1
  O  O16  1  0.52666500  0.96002800  0.10597100  1
  O  O17  1  0.32448900  0.09221700  0.61769000  1
  O  O18  1  0.06194400  0.19852400  0.11735300  1
  O  O19  1  0.07716800  0.70553500  0.10721400  1
  O  O20  1  0.81654200  0.84136400  0.61448500  1
  O  O21  1  0.59308600  0.47371900  0.11468500  1
  O  O22  1  0.34531500  0.59200200  0.62032800  1
  O  O23  1  0.81584900  0.34306400  0.61481000  1
  O  O24  1  0.68455700  0.90773400  0.38288200  1
  O  O25  1  0.45753600  0.02666200  0.88988200  1
  O  O26  1  0.18218300  0.15651000  0.38696300  1
  O  O27  1  0.15614100  0.66010200  0.38139000  1
  O  O28  1  0.91298300  0.79025300  0.88893800  1
  O  O29  1  0.68117700  0.40906400  0.38500300  1
  O  O30  1  0.42302800  0.54141900  0.88927400  1
  O  O31  1  0.94307000  0.30691900  0.88503000  1
