# generated using pymatgen
data_Li3V3P8O29
_symmetry_space_group_name_H-M   'P 1'
_cell_length_a   9.77933092
_cell_length_b   9.77933092
_cell_length_c   14.26956485
_cell_angle_alpha   89.45295410
_cell_angle_beta   89.45295410
_cell_angle_gamma   59.95881130
_symmetry_Int_Tables_number   1
_chemical_formula_structural   Li3V3P8O29
_chemical_formula_sum   'Li6 V6 P16 O58'
_cell_volume   1181.28002777
_cell_formula_units_Z   2
loop_
 _symmetry_equiv_pos_site_id
 _symmetry_equiv_pos_as_xyz
  1  'x, y, z'
loop_
 _atom_site_type_symbol
 _atom_site_label
 _atom_site_symmetry_multiplicity
 _atom_site_fract_x
 _atom_site_fract_y
 _atom_site_fract_z
 _atom_site_occupancy
  Li  Li0  1  0.22559500  0.08141600  0.94025300  1
  Li  Li1  1  0.08141600  0.22559500  0.44025300  1
  Li  Li2  1  0.68770600  0.22627300  0.94100300  1
  Li  Li3  1  0.22627300  0.68770600  0.44100300  1
  Li  Li4  1  0.90777100  0.77566300  0.55892800  1
  Li  Li5  1  0.77566300  0.90777100  0.05892800  1
  V  V6  1  0.56377300  0.00569400  0.25777500  1
  V  V7  1  0.99691800  0.43320500  0.24489700  1
  V  V8  1  0.56582400  0.43703100  0.74645000  1
  V  V9  1  0.43703100  0.56582400  0.24645000  1
  V  V10  1  0.00569400  0.56377300  0.75777500  1
  V  V11  1  0.43320500  0.99691800  0.74489700  1
  P  P12  1  0.23488000  0.08671500  0.15704900  1
  P  P13  1  0.08671500  0.23488000  0.65704900  1
  P  P14  1  0.68614500  0.08820600  0.66118100  1
  P  P15  1  0.32612500  0.33853500  0.37014100  1
  P  P16  1  0.33853500  0.32612500  0.87014100  1
  P  P17  1  0.68390000  0.22825900  0.15866700  1
  P  P18  1  0.77127100  0.31221200  0.34046800  1
  P  P19  1  0.08820600  0.68614500  0.16118100  1
  P  P20  1  0.91243700  0.31289400  0.83774100  1
  P  P21  1  0.22825900  0.68390000  0.65866700  1
  P  P22  1  0.31221200  0.77127100  0.84046800  1
  P  P23  1  0.66656100  0.67268200  0.13114500  1
  P  P24  1  0.67268200  0.66656100  0.63114500  1
  P  P25  1  0.31289400  0.91243700  0.33774100  1
  P  P26  1  0.91300600  0.76589800  0.34177600  1
  P  P27  1  0.76589800  0.91300600  0.84177600  1
  O  O28  1  0.22498400  0.00687000  0.42028600  1
  O  O29  1  0.25512900  0.08828700  0.66957000  1
  O  O30  1  0.98697200  0.21670700  0.74166800  1
  O  O31  1  0.00687000  0.22498400  0.92028600  1
  O  O32  1  0.38495300  0.09614200  0.18112100  1
  O  O33  1  0.08828700  0.25512900  0.16957000  1
  O  O34  1  0.33305900  0.18081000  0.82814300  1
  O  O35  1  0.52419200  0.09467100  0.67746900  1
  O  O36  1  0.75682100  0.99553400  0.93147700  1
  O  O37  1  0.66265800  0.08086500  0.16662400  1
  O  O38  1  0.18081000  0.33305900  0.32814300  1
  O  O39  1  0.47868000  0.18672700  0.32646000  1
  O  O40  1  0.09614200  0.38495300  0.68112100  1
  O  O41  1  0.32527400  0.33422400  0.47414100  1
  O  O42  1  0.33422400  0.32527400  0.97414100  1
  O  O43  1  0.09467100  0.52419200  0.17746900  1
  O  O44  1  0.48748700  0.32864800  0.82912700  1
  O  O45  1  0.18672700  0.47868000  0.82646000  1
  O  O46  1  0.65710700  0.25844000  0.66676900  1
  O  O47  1  0.79478200  0.21193300  0.24452200  1
  O  O48  1  0.74975200  0.23665900  0.06624400  1
  O  O49  1  0.76552800  0.23092700  0.42615300  1
  O  O50  1  0.52096700  0.38045300  0.17929000  1
  O  O51  1  0.32864800  0.48748700  0.32912700  1
  O  O52  1  0.08086500  0.66265800  0.66662400  1
  O  O53  1  0.74240800  0.33883800  0.83806000  1
  O  O54  1  0.38045300  0.52096700  0.67929000  1
  O  O55  1  0.01433800  0.24299900  0.56557800  1
  O  O56  1  0.99553400  0.75682100  0.43147700  1
  O  O57  1  0.61763700  0.47444200  0.31950900  1
  O  O58  1  0.25844000  0.65710700  0.16676900  1
  O  O59  1  0.00841700  0.78704200  0.25617500  1
  O  O60  1  0.91594500  0.33966200  0.33507600  1
  O  O61  1  0.66790300  0.51896600  0.67536400  1
  O  O62  1  0.47444200  0.61763700  0.81950900  1
  O  O63  1  0.23092700  0.76552800  0.92615300  1
  O  O64  1  0.23665900  0.74975200  0.56624400  1
  O  O65  1  0.21193300  0.79478200  0.74452200  1
  O  O66  1  0.33883800  0.74240800  0.33806000  1
  O  O67  1  0.81502800  0.52088800  0.17590000  1
  O  O68  1  0.90338900  0.47658400  0.82332100  1
  O  O69  1  0.51896600  0.66790300  0.17536400  1
  O  O70  1  0.66830500  0.67090500  0.52737400  1
  O  O71  1  0.67090500  0.66830500  0.02737400  1
  O  O72  1  0.90464800  0.61523600  0.32254800  1
  O  O73  1  0.52088800  0.81502800  0.67590000  1
  O  O74  1  0.82028300  0.66741000  0.67184100  1
  O  O75  1  0.33966200  0.91594500  0.83507600  1
  O  O76  1  0.21670700  0.98697200  0.24166800  1
  O  O77  1  0.24299900  0.01433800  0.06557800  1
  O  O78  1  0.47658400  0.90338900  0.32332100  1
  O  O79  1  0.66741000  0.82028300  0.17184100  1
  O  O80  1  0.91161000  0.74439100  0.83451200  1
  O  O81  1  0.61523600  0.90464800  0.82254800  1
  O  O82  1  0.99514100  0.77250900  0.07819500  1
  O  O83  1  0.74439100  0.91161000  0.33451200  1
  O  O84  1  0.77250900  0.99514100  0.57819500  1
  O  O85  1  0.78704200  0.00841700  0.75617500  1
