# generated using pymatgen
data_LiFeP4O13
_symmetry_space_group_name_H-M   'P 1'
_cell_length_a   8.87966100
_cell_length_b   10.27112173
_cell_length_c   13.75646834
_cell_angle_alpha   79.44721281
_cell_angle_beta   84.42444007
_cell_angle_gamma   66.70460380
_symmetry_Int_Tables_number   1
_chemical_formula_structural   LiFeP4O13
_chemical_formula_sum   'Li4 Fe4 P16 O52'
_cell_volume   1132.44954754
_cell_formula_units_Z   4
loop_
 _symmetry_equiv_pos_site_id
 _symmetry_equiv_pos_as_xyz
  1  'x, y, z'
loop_
 _atom_site_type_symbol
 _atom_site_label
 _atom_site_symmetry_multiplicity
 _atom_site_fract_x
 _atom_site_fract_y
 _atom_site_fract_z
 _atom_site_occupancy
  Li  Li0  1  0.86027300  0.80607600  0.99739000  1
  Li  Li1  1  0.64093700  0.69548800  0.00411700  1
  Li  Li2  1  0.17908000  0.19766000  0.99224700  1
  Li  Li3  1  0.50977800  0.03051600  0.50130000  1
  Fe  Fe4  1  0.18512500  0.76124000  0.74336400  1
  Fe  Fe5  1  0.30891600  0.74451800  0.26136700  1
  Fe  Fe6  1  0.68789700  0.25572400  0.75019200  1
  Fe  Fe7  1  0.81415900  0.24503400  0.25051600  1
  P  P8  1  0.61254300  0.96312700  0.82283300  1
  P  P9  1  0.67737200  0.99314000  0.30030700  1
  P  P10  1  0.83026000  0.96452700  0.64427200  1
  P  P11  1  0.10205400  0.47385100  0.81808900  1
  P  P12  1  0.18455600  0.48287400  0.29477100  1
  P  P13  1  0.54432300  0.55319100  0.84533700  1
  P  P14  1  0.33330100  0.46251000  0.64440200  1
  P  P15  1  0.95151100  0.94542500  0.15870000  1
  P  P16  1  0.05316300  0.05549100  0.84631900  1
  P  P17  1  0.66632500  0.53803100  0.35745200  1
  P  P18  1  0.45419700  0.45122500  0.14979500  1
  P  P19  1  0.80721000  0.52153500  0.69710800  1
  P  P20  1  0.88744600  0.53862200  0.18024500  1
  P  P21  1  0.16788000  0.04145800  0.36060100  1
  P  P22  1  0.32433300  0.01190300  0.70331600  1
  P  P23  1  0.39170500  0.02835700  0.18303300  1
  O  O24  1  0.06311100  0.90664200  0.83470800  1
  O  O25  1  0.00508900  0.85426800  0.64458100  1
  O  O26  1  0.30309600  0.88182600  0.67901800  1
  O  O27  1  0.44470100  0.95440200  0.79792300  1
  O  O28  1  0.18800800  0.88878700  0.35117000  1
  O  O29  1  0.12631200  0.83044800  0.16837000  1
  O  O30  1  0.08018000  0.62869400  0.81465200  1
  O  O31  1  0.66969000  0.85983700  0.91719000  1
  O  O32  1  0.41873400  0.87059200  0.19187000  1
  O  O33  1  0.36681300  0.66272800  0.84161700  1
  O  O34  1  0.73677400  0.89841000  0.73491200  1
  O  O35  1  0.61785100  0.91595400  0.38784000  1
  O  O36  1  0.31324800  0.61308700  0.65668900  1
  O  O37  1  0.05680100  0.54534700  0.20491200  1
  O  O38  1  0.20384500  0.61067800  0.32496300  1
  O  O39  1  0.14327300  0.37499300  0.91346600  1
  O  O40  1  0.26899600  0.46475700  0.54431800  1
  O  O41  1  0.49130500  0.64798400  0.35532800  1
  O  O42  1  0.23016900  0.40478700  0.73279900  1
  O  O43  1  0.84821800  0.89430000  0.25316500  1
  O  O44  1  0.88485000  0.93862300  0.06393500  1
  O  O45  1  0.61656600  0.56051200  0.93857800  1
  O  O46  1  0.63853600  0.61229200  0.75062100  1
  O  O47  1  0.13869900  0.38553000  0.37557400  1
  O  O48  1  0.44155500  0.60061200  0.16417500  1
  O  O49  1  0.56116800  0.40309200  0.83366900  1
  O  O50  1  0.85201700  0.61493400  0.61268200  1
  O  O51  1  0.36793700  0.47396500  0.05300000  1
  O  O52  1  0.35241300  0.39320600  0.23973300  1
  O  O53  1  0.12329000  0.06073800  0.94097500  1
  O  O54  1  0.15546600  0.10902200  0.75300800  1
  O  O55  1  0.76555900  0.60224400  0.26958900  1
  O  O56  1  0.50801600  0.35002100  0.64975700  1
  O  O57  1  0.74382200  0.51457800  0.45736800  1
  O  O58  1  0.82901600  0.64290700  0.08656300  1
  O  O59  1  0.93255500  0.47458000  0.78605000  1
  O  O60  1  0.79563500  0.38568700  0.67637700  1
  O  O61  1  0.68499200  0.38933300  0.34071700  1
  O  O62  1  0.38474100  0.09695500  0.62183500  1
  O  O63  1  0.26895200  0.09770200  0.26984200  1
  O  O64  1  0.62706900  0.33863200  0.15245100  1
  O  O65  1  0.59002800  0.11752100  0.82047700  1
  O  O66  1  0.24491000  0.03385900  0.45716600  1
  O  O67  1  0.33797000  0.12088900  0.08657100  1
  O  O68  1  0.91086300  0.38447100  0.18132900  1
  O  O69  1  0.87826000  0.17015300  0.83989600  1
  O  O70  1  0.81668500  0.11230400  0.66186700  1
  O  O71  1  0.69299400  0.12876100  0.31882600  1
  O  O72  1  0.55998200  0.03772300  0.20685600  1
  O  O73  1  0.74093600  0.99269500  0.54866200  1
  O  O74  1  0.99205000  0.15016500  0.35267200  1
  O  O75  1  0.94060000  0.09509700  0.16832900  1
