# generated using pymatgen
data_Li4Mn3(CoO4)3
_symmetry_space_group_name_H-M   'P 1'
_cell_length_a   5.74863681
_cell_length_b   10.11562891
_cell_length_c   7.97536435
_cell_angle_alpha   99.47189376
_cell_angle_beta   78.64940896
_cell_angle_gamma   96.82105796
_symmetry_Int_Tables_number   1
_chemical_formula_structural   Li4Mn3(CoO4)3
_chemical_formula_sum   'Li8 Mn6 Co6 O24'
_cell_volume   446.71314442
_cell_formula_units_Z   2
loop_
 _symmetry_equiv_pos_site_id
 _symmetry_equiv_pos_as_xyz
  1  'x, y, z'
loop_
 _atom_site_type_symbol
 _atom_site_label
 _atom_site_symmetry_multiplicity
 _atom_site_fract_x
 _atom_site_fract_y
 _atom_site_fract_z
 _atom_site_occupancy
  Li  Li0  1  0.16901018  0.49847060  0.84611115  1
  Li  Li1  1  0.16406350  0.00151270  0.32054714  1
  Li  Li2  1  0.66607833  0.49955764  0.83845128  1
  Li  Li3  1  0.66720793  0.00047852  0.32794254  1
  Li  Li4  1  0.47666733  0.50416398  0.46792151  1
  Li  Li5  1  0.44844078  0.99766952  0.95590322  1
  Li  Li6  1  0.88435349  0.50233642  0.21080411  1
  Li  Li7  1  0.85665537  0.99577130  0.69882935  1
  Mn  Mn8  1  0.66686125  0.74996186  0.08326153  1
  Mn  Mn9  1  0.66657578  0.24988556  0.58341330  1
  Mn  Mn10  1  0.00005150  0.25385737  0.24825101  1
  Mn  Mn11  1  0.99645821  0.74899690  0.74763164  1
  Mn  Mn12  1  0.33341934  0.24638631  0.91831694  1
  Mn  Mn13  1  0.33691014  0.75087198  0.41893944  1
  Co  Co14  1  0.16675073  0.74996755  0.08330731  1
  Co  Co15  1  0.50066244  0.75148251  0.74542030  1
  Co  Co16  1  0.83272197  0.74841303  0.42114201  1
  Co  Co17  1  0.16663363  0.25004964  0.58337987  1
  Co  Co18  1  0.50223832  0.25842509  0.24712519  1
  Co  Co19  1  0.83103290  0.24163812  0.91970832  1
  O  O20  1  0.25454144  0.14521604  0.11557766  1
  O  O21  1  0.26491964  0.64856128  0.61863672  1
  O  O22  1  0.07875560  0.35482000  0.05109816  1
  O  O23  1  0.06858417  0.85131233  0.54798513  1
  O  O24  1  0.75750816  0.14574217  0.13807179  1
  O  O25  1  0.74987383  0.64357598  0.63965455  1
  O  O26  1  0.57588790  0.35446973  0.02905262  1
  O  O27  1  0.58367118  0.85627481  0.52683482  1
  O  O28  1  0.40841450  0.35717179  0.72945783  1
  O  O29  1  0.40909696  0.85868822  0.22867285  1
  O  O30  1  0.92430297  0.64113324  0.93788254  1
  O  O31  1  0.92488368  0.14302602  0.43732911  1
  O  O32  1  0.90652686  0.35163977  0.70972625  1
  O  O33  1  0.90997417  0.85573327  0.20053527  1
  O  O34  1  0.42360481  0.64431347  0.96592505  1
  O  O35  1  0.42676793  0.14842458  0.45700409  1
  O  O36  1  0.09350046  0.65201548  0.29994457  1
  O  O37  1  0.09117533  0.14565573  0.79344760  1
  O  O38  1  0.23982978  0.84792889  0.86665577  1
  O  O39  1  0.24213514  0.35441035  0.37333522  1
  O  O40  1  0.59376361  0.64169682  0.30795350  1
  O  O41  1  0.57664844  0.13292805  0.80420070  1
  O  O42  1  0.75659380  0.36710840  0.36261642  1
  O  O43  1  0.73958452  0.85826099  0.85866262  1
