# generated using pymatgen
data_Li7Mn5O12
_symmetry_space_group_name_H-M   'P 1'
_cell_length_a   5.24521741
_cell_length_b   10.11070594
_cell_length_c   9.82349712
_cell_angle_alpha   62.87059315
_cell_angle_beta   96.59706066
_cell_angle_gamma   78.25277070
_symmetry_Int_Tables_number   1
_chemical_formula_structural   Li7Mn5O12
_chemical_formula_sum   'Li14 Mn10 O24'
_cell_volume   440.85133272
_cell_formula_units_Z   2
loop_
 _symmetry_equiv_pos_site_id
 _symmetry_equiv_pos_as_xyz
  1  'x, y, z'
loop_
 _atom_site_type_symbol
 _atom_site_label
 _atom_site_symmetry_multiplicity
 _atom_site_fract_x
 _atom_site_fract_y
 _atom_site_fract_z
 _atom_site_occupancy
  Li  Li0  1  0.58368600  0.33333500  0.08327200  1
  Li  Li1  1  0.08296400  0.33333600  0.58339200  1
  Li  Li2  1  0.08331000  0.83337600  0.58331300  1
  Li  Li3  1  0.58334700  0.83330200  0.08335100  1
  Li  Li4  1  0.83332400  0.83333600  0.83333100  1
  Li  Li5  1  0.33332600  0.83333500  0.33333100  1
  Li  Li6  1  0.41755500  0.16489500  0.91755500  1
  Li  Li7  1  0.91755300  0.16490300  0.41755100  1
  Li  Li8  1  0.24911100  0.50178100  0.74911000  1
  Li  Li9  1  0.74911700  0.50177400  0.24911300  1
  Li  Li10  1  0.41387400  0.67230600  0.91383700  1
  Li  Li11  1  0.91383400  0.67230600  0.41385600  1
  Li  Li12  1  0.25280100  0.99436400  0.75282900  1
  Li  Li13  1  0.75283900  0.99436300  0.25280800  1
  Mn  Mn14  1  0.50054400  0.99890000  0.50055000  1
  Mn  Mn15  1  0.00089700  0.99819200  0.00090400  1
  Mn  Mn16  1  0.66576600  0.66846600  0.66577000  1
  Mn  Mn17  1  0.16611500  0.66775900  0.16612300  1
  Mn  Mn18  1  0.16872500  0.16329900  0.16869800  1
  Mn  Mn19  1  0.66795700  0.16329700  0.66800200  1
  Mn  Mn20  1  0.99870600  0.50336900  0.99866800  1
  Mn  Mn21  1  0.49795600  0.50336900  0.49796700  1
  Mn  Mn22  1  0.33335600  0.33332600  0.33332900  1
  Mn  Mn23  1  0.83334600  0.33332900  0.83333100  1
  O  O24  1  0.20291400  0.33333600  0.97153800  1
  O  O25  1  0.70344700  0.33333600  0.47143800  1
  O  O26  1  0.96322100  0.33333500  0.19522800  1
  O  O27  1  0.46375700  0.33333600  0.69512600  1
  O  O28  1  0.20914200  0.83324500  0.97389400  1
  O  O29  1  0.70905100  0.83342200  0.47380500  1
  O  O30  1  0.45751600  0.83342200  0.69277200  1
  O  O31  1  0.95760300  0.83324700  0.19286200  1
  O  O32  1  0.54228400  0.16372700  0.30625800  1
  O  O33  1  0.04165700  0.16376900  0.80635300  1
  O  O34  1  0.37268600  0.50292800  0.13665400  1
  O  O35  1  0.87210200  0.50288300  0.63679400  1
  O  O36  1  0.79456100  0.16377400  0.02986900  1
  O  O37  1  0.29397600  0.16373100  0.53000600  1
  O  O38  1  0.62502800  0.50287700  0.86032700  1
  O  O39  1  0.12440300  0.50292000  0.36042100  1
  O  O40  1  0.99887100  0.66006900  0.78875800  1
  O  O41  1  0.49892200  0.66013900  0.28840300  1
  O  O42  1  0.32561000  0.00660800  0.11548800  1
  O  O43  1  0.82572400  0.00654000  0.61520200  1
  O  O44  1  0.84094800  0.66013100  0.05146800  1
  O  O45  1  0.34106300  0.66006300  0.55118000  1
  O  O46  1  0.16772900  0.00653700  0.37825900  1
  O  O47  1  0.66777800  0.00660500  0.87790700  1
