# generated using pymatgen
data_Li7Mn4CoO12
_symmetry_space_group_name_H-M   'P 1'
_cell_length_a   5.02457348
_cell_length_b   9.88382951
_cell_length_c   8.91331847
_cell_angle_alpha   87.30385793
_cell_angle_beta   92.35530088
_cell_angle_gamma   101.16433865
_symmetry_Int_Tables_number   1
_chemical_formula_structural   Li7Mn4CoO12
_chemical_formula_sum   'Li14 Mn8 Co2 O24'
_cell_volume   433.56474762
_cell_formula_units_Z   2
loop_
 _symmetry_equiv_pos_site_id
 _symmetry_equiv_pos_as_xyz
  1  'x, y, z'
loop_
 _atom_site_type_symbol
 _atom_site_label
 _atom_site_symmetry_multiplicity
 _atom_site_fract_x
 _atom_site_fract_y
 _atom_site_fract_z
 _atom_site_occupancy
  Li  Li0  1  0.99999800  0.00000000  0.33335200  1
  Li  Li1  1  0.50000200  0.99999900  0.83335000  1
  Li  Li2  1  0.24700500  0.24895300  0.49649800  1
  Li  Li3  1  0.74673200  0.24907800  0.99654900  1
  Li  Li4  1  0.75299900  0.75104300  0.17018200  1
  Li  Li5  1  0.25327600  0.75092000  0.67013100  1
  Li  Li6  1  0.75124400  0.24856100  0.33382600  1
  Li  Li7  1  0.25168600  0.24853000  0.83378000  1
  Li  Li8  1  0.24874600  0.75144200  0.33283200  1
  Li  Li9  1  0.74830600  0.75147700  0.83287600  1
  Li  Li10  1  0.25021600  0.24345500  0.16976300  1
  Li  Li11  1  0.74999800  0.24338500  0.66996300  1
  Li  Li12  1  0.74978200  0.75654300  0.49690800  1
  Li  Li13  1  0.24999800  0.75660900  0.99670900  1
  Mn  Mn14  1  0.49808300  0.00006300  0.49953000  1
  Mn  Mn15  1  0.99802000  0.00005800  0.99951500  1
  Mn  Mn16  1  0.50191600  0.99993200  0.16713200  1
  Mn  Mn17  1  0.00199400  0.99995200  0.66715000  1
  Mn  Mn18  1  0.00042500  0.49935600  0.16698300  1
  Mn  Mn19  1  0.50115200  0.49905900  0.66724600  1
  Mn  Mn20  1  0.49883800  0.50094400  0.99941300  1
  Mn  Mn21  1  0.99955600  0.50064200  0.49968900  1
  Co  Co22  1  0.00000000  0.50000700  0.83333700  1
  Co  Co23  1  0.49999300  0.50000700  0.33333500  1
  O  O24  1  0.39880800  0.10921800  0.32677700  1
  O  O25  1  0.89891800  0.10929400  0.82679200  1
  O  O26  1  0.60115600  0.89077500  0.33987700  1
  O  O27  1  0.10104700  0.89070400  0.83986700  1
  O  O28  1  0.86179800  0.61559600  0.00958300  1
  O  O29  1  0.36258400  0.61618000  0.50964000  1
  O  O30  1  0.63741300  0.38381900  0.15700600  1
  O  O31  1  0.13821000  0.38440000  0.65706800  1
  O  O32  1  0.86513900  0.10986500  0.14841900  1
  O  O33  1  0.36509300  0.10986900  0.64845500  1
  O  O34  1  0.63493400  0.89011900  0.01825000  1
  O  O35  1  0.13488300  0.89012400  0.51828400  1
  O  O36  1  0.35962800  0.11267000  0.01096900  1
  O  O37  1  0.85973500  0.11271500  0.51099000  1
  O  O38  1  0.14028800  0.88728300  0.15564600  1
  O  O39  1  0.64040100  0.88732900  0.65566300  1
  O  O40  1  0.36295700  0.61563200  0.18201700  1
  O  O41  1  0.86248500  0.61491800  0.68276100  1
  O  O42  1  0.63703700  0.38436500  0.48463600  1
  O  O43  1  0.13752700  0.38508600  0.98388700  1
  O  O44  1  0.85733700  0.61916600  0.34565100  1
  O  O45  1  0.35667800  0.61950500  0.84544800  1
  O  O46  1  0.14265300  0.38084200  0.32103200  1
  O  O47  1  0.64332200  0.38051300  0.82123100  1
