# generated using pymatgen
data_Li9Mn7O16
_symmetry_space_group_name_H-M   'P 1'
_cell_length_a   6.04288100
_cell_length_b   6.49331077
_cell_length_c   8.15041121
_cell_angle_alpha   87.99436817
_cell_angle_beta   105.41002943
_cell_angle_gamma   104.74271355
_symmetry_Int_Tables_number   1
_chemical_formula_structural   Li9Mn7O16
_chemical_formula_sum   'Li9 Mn7 O16'
_cell_volume   297.97814254
_cell_formula_units_Z   1
loop_
 _symmetry_equiv_pos_site_id
 _symmetry_equiv_pos_as_xyz
  1  'x, y, z'
loop_
 _atom_site_type_symbol
 _atom_site_label
 _atom_site_symmetry_multiplicity
 _atom_site_fract_x
 _atom_site_fract_y
 _atom_site_fract_z
 _atom_site_occupancy
  Li  Li0  1  0.00000000  0.00000000  0.00000000  1
  Li  Li1  1  0.63325600  0.62766400  0.86855100  1
  Li  Li2  1  0.86886300  0.88114900  0.64239200  1
  Li  Li3  1  0.50000000  0.50000000  0.50000000  1
  Li  Li4  1  0.74457700  0.76394200  0.23667600  1
  Li  Li5  1  0.36674400  0.37233600  0.13144900  1
  Li  Li6  1  0.25542300  0.23605800  0.76332400  1
  Li  Li7  1  0.13113700  0.11885100  0.35760800  1
  Li  Li8  1  0.50000000  0.00000000  0.00000000  1
  Mn  Mn9  1  0.87286400  0.36831200  0.12374500  1
  Mn  Mn10  1  0.12713600  0.63168800  0.87625500  1
  Mn  Mn11  1  0.74601400  0.25025000  0.75498000  1
  Mn  Mn12  1  0.37302100  0.87885400  0.63175500  1
  Mn  Mn13  1  0.00000000  0.50000000  0.50000000  1
  Mn  Mn14  1  0.62697900  0.12114600  0.36824500  1
  Mn  Mn15  1  0.25398600  0.74975000  0.24502000  1
  O  O16  1  0.81921300  0.08159500  0.18835900  1
  O  O17  1  0.40109500  0.68770300  0.07496100  1
  O  O18  1  0.68158000  0.94973600  0.80016400  1
  O  O19  1  0.30439400  0.57351700  0.67290900  1
  O  O20  1  0.55581100  0.82054600  0.41655200  1
  O  O21  1  0.18115300  0.44983500  0.30263700  1
  O  O22  1  0.05472800  0.32076600  0.92074500  1
  O  O23  1  0.90521000  0.20138100  0.57435600  1
  O  O24  1  0.18078700  0.91840500  0.81164100  1
  O  O25  1  0.81884700  0.55016500  0.69736300  1
  O  O26  1  0.09479000  0.79861900  0.42564400  1
  O  O27  1  0.69560600  0.42648300  0.32709100  1
  O  O28  1  0.94527200  0.67923400  0.07925500  1
  O  O29  1  0.59890500  0.31229700  0.92503900  1
  O  O30  1  0.44418900  0.17945400  0.58344800  1
  O  O31  1  0.31842000  0.05026400  0.19983600  1
