# generated using pymatgen
data_Li7Fe4(PO4)6
_symmetry_space_group_name_H-M   'P 1'
_cell_length_a   8.48585900
_cell_length_b   8.49246840
_cell_length_c   9.00535242
_cell_angle_alpha   62.09801638
_cell_angle_beta   62.36523949
_cell_angle_gamma   60.08918461
_symmetry_Int_Tables_number   1
_chemical_formula_structural   Li7Fe4(PO4)6
_chemical_formula_sum   'Li7 Fe4 P6 O24'
_cell_volume   474.10486585
_cell_formula_units_Z   1
loop_
 _symmetry_equiv_pos_site_id
 _symmetry_equiv_pos_as_xyz
  1  'x, y, z'
loop_
 _atom_site_type_symbol
 _atom_site_label
 _atom_site_symmetry_multiplicity
 _atom_site_fract_x
 _atom_site_fract_y
 _atom_site_fract_z
 _atom_site_occupancy
  Li  Li0  1  0.07978300  0.84583600  0.35798000  1
  Li  Li1  1  0.26079500  0.27740400  0.86609600  1
  Li  Li2  1  0.79462800  0.64636700  0.55661000  1
  Li  Li3  1  0.59782400  0.79157800  0.85657700  1
  Li  Li4  1  0.33760400  0.23814100  0.35007500  1
  Li  Li5  1  0.76702800  0.64394100  0.16152700  1
  Li  Li6  1  0.90260900  0.16415300  0.64787300  1
  Fe  Fe7  1  0.14729100  0.64533300  0.06372600  1
  Fe  Fe8  1  0.63744400  0.15785600  0.54780500  1
  Fe  Fe9  1  0.35564100  0.84997200  0.45498100  1
  Fe  Fe10  1  0.84728300  0.35523800  0.94037600  1
  P  P11  1  0.23166500  0.04729300  0.75139000  1
  P  P12  1  0.04675200  0.24670000  0.25452700  1
  P  P13  1  0.45783600  0.55486700  0.24405100  1
  P  P14  1  0.53144400  0.46842100  0.75550100  1
  P  P15  1  0.95893900  0.74809000  0.75161700  1
  P  P16  1  0.74842400  0.96001000  0.25441700  1
  O  O17  1  0.10335200  0.24671500  0.77858100  1
  O  O18  1  0.25688200  0.66167500  0.21803700  1
  O  O19  1  0.01404000  0.30076700  0.07848700  1
  O  O20  1  0.43502600  0.01508200  0.73344000  1
  O  O21  1  0.14237900  0.74337700  0.59247700  1
  O  O22  1  0.47463700  0.35187000  0.36929400  1
  O  O23  1  0.18979300  0.03680600  0.28985200  1
  O  O24  1  0.13564500  0.38052000  0.23445900  1
  O  O25  1  0.79248700  0.12499500  0.09193300  1
  O  O26  1  0.61960300  0.55247600  0.06222100  1
  O  O27  1  0.79542200  0.93965500  0.41212700  1
  O  O28  1  0.49328200  0.67308100  0.30758100  1
  O  O29  1  0.48828500  0.34056800  0.71430400  1
  O  O30  1  0.21341700  0.05998700  0.58038800  1
  O  O31  1  0.39597800  0.49745200  0.93448800  1
  O  O32  1  0.16231000  0.89266200  0.90592000  1
  O  O33  1  0.86922700  0.62412800  0.75208500  1
  O  O34  1  0.80661500  0.95178000  0.73635800  1
  O  O35  1  0.52271000  0.66687500  0.60924000  1
  O  O36  1  0.86002100  0.26915700  0.40856800  1
  O  O37  1  0.53556700  0.99442200  0.30323300  1
  O  O38  1  0.99781000  0.66219600  0.93000900  1
  O  O39  1  0.74348300  0.37824000  0.75787500  1
  O  O40  1  0.87126600  0.76033100  0.22310200  1
