# generated using pymatgen
data_Li4Zn(PS4)2
_symmetry_space_group_name_H-M   'P 1'
_cell_length_a   9.53482000
_cell_length_b   11.51214621
_cell_length_c   22.98172223
_cell_angle_alpha   90.02326199
_cell_angle_beta   90.01953844
_cell_angle_gamma   90.05451790
_symmetry_Int_Tables_number   1
_chemical_formula_structural   Li4Zn(PS4)2
_chemical_formula_sum   'Li32 Zn8 P16 S64'
_cell_volume   2522.61578598
_cell_formula_units_Z   8
loop_
 _symmetry_equiv_pos_site_id
 _symmetry_equiv_pos_as_xyz
  1  'x, y, z'
loop_
 _atom_site_type_symbol
 _atom_site_label
 _atom_site_symmetry_multiplicity
 _atom_site_fract_x
 _atom_site_fract_y
 _atom_site_fract_z
 _atom_site_occupancy
  Li  Li0  1  0.75170500  0.25119500  0.99864400  1
  Li  Li1  1  0.74792800  0.74758000  0.75228000  1
  Li  Li2  1  0.74981400  0.25090100  0.75011600  1
  Li  Li3  1  0.25115900  0.50112300  0.87089200  1
  Li  Li4  1  0.24340800  0.00185600  0.87054900  1
  Li  Li5  1  0.75142700  0.25981500  0.25197000  1
  Li  Li6  1  0.24790800  0.49252600  0.37482900  1
  Li  Li7  1  0.24974100  0.00534300  0.37617600  1
  Li  Li8  1  0.99251100  0.75093500  0.87654200  1
  Li  Li9  1  0.99967400  0.24963400  0.87444400  1
  Li  Li10  1  0.49266200  0.50199200  0.74873300  1
  Li  Li11  1  0.49342000  0.00071800  0.74885300  1
  Li  Li12  1  0.99214800  0.24991200  0.37684100  1
  Li  Li13  1  0.50820200  0.49868200  0.50056000  1
  Li  Li14  1  0.01535800  0.24871100  0.12630200  1
  Li  Li15  1  0.49952800  0.50283300  0.24990000  1
  Li  Li16  1  0.00322500  0.99976900  0.00206200  1
  Li  Li17  1  0.00686900  0.50067200  0.00086900  1
  Li  Li18  1  0.00137100  0.00015800  0.74950100  1
  Li  Li19  1  0.00464400  0.50093300  0.75054500  1
  Li  Li20  1  0.50218100  0.74898700  0.87558600  1
  Li  Li21  1  0.49743800  0.24730200  0.87261400  1
  Li  Li22  1  0.99072400  0.99936700  0.49971700  1
  Li  Li23  1  0.99802900  0.49887200  0.50128700  1
  Li  Li24  1  0.49523100  0.74586600  0.62381600  1
  Li  Li25  1  0.50083700  0.25178200  0.62335600  1
  Li  Li26  1  0.99432400  0.99820500  0.24841300  1
  Li  Li27  1  0.00479900  0.49779000  0.24887400  1
  Li  Li28  1  0.50799300  0.74919200  0.37550500  1
  Li  Li29  1  0.51227600  0.25425600  0.37699200  1
  Li  Li30  1  0.49924900  0.75141500  0.12724900  1
  Li  Li31  1  0.49117500  0.25247000  0.12527900  1
  Zn  Zn32  1  0.00671600  0.74928400  0.62428600  1
  Zn  Zn33  1  0.00730500  0.25112700  0.62459000  1
  Zn  Zn34  1  0.98539900  0.74672100  0.37360700  1
  Zn  Zn35  1  0.50484400  0.00065500  0.50117000  1
  Zn  Zn36  1  0.99827200  0.74846700  0.12454400  1
  Zn  Zn37  1  0.49685200  0.99976000  0.25056900  1
  Zn  Zn38  1  0.50103600  0.50058100  0.00042600  1
  Zn  Zn39  1  0.49989800  0.99931800  0.00022800  1
  P  P40  1  0.75248300  0.99721100  0.87494300  1
  P  P41  1  0.74663200  0.49359500  0.87541100  1
  P  P42  1  0.75119000  0.00501900  0.62542800  1
  P  P43  1  0.75339300  0.50157800  0.62698500  1
  P  P44  1  0.24929600  0.75528600  0.75080900  1
  P  P45  1  0.24970800  0.25417300  0.75023100  1
  P  P46  1  0.74571900  0.99858400  0.37178200  1
  P  P47  1  0.75327400  0.50076400  0.37610100  1
  P  P48  1  0.24811400  0.75114000  0.50035900  1
  P  P49  1  0.25043700  0.24268900  0.49750100  1
  P  P50  1  0.74828800  0.00105800  0.12228300  1
  P  P51  1  0.75155500  0.50356100  0.12641400  1
  P  P52  1  0.24707400  0.75376500  0.25319400  1
  P  P53  1  0.25065300  0.24791900  0.25059400  1
  P  P54  1  0.25118300  0.74495900  0.00004800  1
  P  P55  1  0.25144100  0.24868800  0.99790800  1
  S  S56  1  0.62985700  0.89497300  0.06946600  1
  S  S57  1  0.63351700  0.39533200  0.06955400  1
  S  S58  1  0.62704000  0.89590000  0.82249600  1
  S  S59  1  0.62679500  0.39186000  0.82121100  1
  S  S60  1  0.13563400  0.64404900  0.94481700  1
  S  S61  1  0.13489800  0.14293400  0.94442900  1
  S  S62  1  0.63888900  0.89732500  0.57068300  1
  S  S63  1  0.64143400  0.39794100  0.57374700  1
  S  S64  1  0.12825900  0.64882800  0.69795800  1
  S  S65  1  0.12798400  0.14776600  0.69758900  1
  S  S66  1  0.63150500  0.89194800  0.31738200  1
  S  S67  1  0.63459800  0.39730400  0.32054100  1
  S  S68  1  0.12812100  0.64843400  0.44344400  1
  S  S69  1  0.12789100  0.13879700  0.44535900  1
  S  S70  1  0.13283800  0.65090100  0.19697500  1
  S  S71  1  0.13492700  0.14058800  0.19977500  1
  S  S72  1  0.86712000  0.60195800  0.82459300  1
  S  S73  1  0.86570200  0.10739200  0.82233200  1
  S  S74  1  0.87280900  0.60905900  0.57459600  1
  S  S75  1  0.86947200  0.11178700  0.57335000  1
  S  S76  1  0.36923000  0.35427200  0.69784500  1
  S  S77  1  0.36809000  0.85527700  0.69797600  1
  S  S78  1  0.86712300  0.60781100  0.31956600  1
  S  S79  1  0.86472400  0.10705100  0.32090600  1
  S  S80  1  0.36725500  0.35423500  0.44714900  1
  S  S81  1  0.36852400  0.86239200  0.44727800  1
  S  S82  1  0.86996800  0.60792700  0.07194900  1
  S  S83  1  0.86583900  0.11166300  0.07240000  1
  S  S84  1  0.37109900  0.35267100  0.20047000  1
  S  S85  1  0.35900900  0.86358800  0.19958800  1
  S  S86  1  0.37450400  0.35872300  0.94530100  1
  S  S87  1  0.36746500  0.85928200  0.94752000  1
  S  S88  1  0.62606700  0.10451700  0.92840200  1
  S  S89  1  0.62980700  0.60137800  0.92890800  1
  S  S90  1  0.63338100  0.10632700  0.67972800  1
  S  S91  1  0.63775200  0.60670000  0.68124300  1
  S  S92  1  0.12577900  0.85690600  0.80460700  1
  S  S93  1  0.13012600  0.35779100  0.80450200  1
  S  S94  1  0.63558100  0.10222300  0.42914700  1
  S  S95  1  0.63243400  0.60430600  0.42698100  1
  S  S96  1  0.12985800  0.85777900  0.55294600  1
  S  S97  1  0.13843300  0.34953900  0.55308800  1
  S  S98  1  0.62965800  0.10479100  0.17903400  1
  S  S99  1  0.63357900  0.60573900  0.17773000  1
  S  S100  1  0.12455400  0.85914700  0.30719900  1
  S  S101  1  0.13153600  0.35060400  0.30525700  1
  S  S102  1  0.13868500  0.85064200  0.05529900  1
  S  S103  1  0.13871700  0.35169500  0.05127000  1
  S  S104  1  0.86783400  0.89712300  0.92875200  1
  S  S105  1  0.87020000  0.39201200  0.92849800  1
  S  S106  1  0.86944200  0.89071500  0.67700100  1
  S  S107  1  0.87665100  0.39096400  0.67943700  1
  S  S108  1  0.36555400  0.64551500  0.80350600  1
  S  S109  1  0.36327800  0.14213500  0.80262600  1
  S  S110  1  0.85972800  0.88933400  0.42508400  1
  S  S111  1  0.87067300  0.39641100  0.42783300  1
  S  S112  1  0.36006500  0.64162900  0.54989700  1
  S  S113  1  0.36852600  0.13768200  0.55150700  1
  S  S114  1  0.86151900  0.89023700  0.17459100  1
  S  S115  1  0.86896600  0.39093700  0.17577000  1
  S  S116  1  0.36365900  0.64575400  0.30441500  1
  S  S117  1  0.37552600  0.14050400  0.30566400  1
  S  S118  1  0.37055200  0.64004600  0.05273300  1
  S  S119  1  0.37204200  0.14223800  0.05039300  1
