# generated using pymatgen
data_Li2Re2O11
_symmetry_space_group_name_H-M   'P 1'
_cell_length_a   12.40327521
_cell_length_b   14.08696771
_cell_length_c   12.81390191
_cell_angle_alpha   90.00000000
_cell_angle_beta   89.27895369
_cell_angle_gamma   90.00000000
_symmetry_Int_Tables_number   1
_chemical_formula_structural   Li2Re2O11
_chemical_formula_sum   'Li16 Re16 O88'
_cell_volume   2238.72579436
_cell_formula_units_Z   8
loop_
 _symmetry_equiv_pos_site_id
 _symmetry_equiv_pos_as_xyz
  1  'x, y, z'
loop_
 _atom_site_type_symbol
 _atom_site_label
 _atom_site_symmetry_multiplicity
 _atom_site_fract_x
 _atom_site_fract_y
 _atom_site_fract_z
 _atom_site_occupancy
  Li  Li0  1  0.27204532  0.13980921  0.87010733  1
  Li  Li1  1  0.72795468  0.63980921  0.62989267  1
  Li  Li2  1  0.72795468  0.86019079  0.12989267  1
  Li  Li3  1  0.27204532  0.36019079  0.37010733  1
  Li  Li4  1  0.51107925  0.86492016  0.11261328  1
  Li  Li5  1  0.48892075  0.36492016  0.38738672  1
  Li  Li6  1  0.48892075  0.13507984  0.88738672  1
  Li  Li7  1  0.51107925  0.63507984  0.61261328  1
  Li  Li8  1  0.98960152  0.14190160  0.37123756  1
  Li  Li9  1  0.01039848  0.64190160  0.12876244  1
  Li  Li10  1  0.01039848  0.85809840  0.62876244  1
  Li  Li11  1  0.98960152  0.35809840  0.87123756  1
  Li  Li12  1  0.22856921  0.86353449  0.62170970  1
  Li  Li13  1  0.77143079  0.36353449  0.87829030  1
  Li  Li14  1  0.77143079  0.13646551  0.37829030  1
  Li  Li15  1  0.22856921  0.63646551  0.12170970  1
  Re  Re16  1  0.08926918  0.91718189  0.38420675  1
  Re  Re17  1  0.91073082  0.41718189  0.11579325  1
  Re  Re18  1  0.91073082  0.08281811  0.61579325  1
  Re  Re19  1  0.08926918  0.58281811  0.88420675  1
  Re  Re20  1  0.34724278  0.07153933  0.11560646  1
  Re  Re21  1  0.65275722  0.57153933  0.38439354  1
  Re  Re22  1  0.65275722  0.92846067  0.88439354  1
  Re  Re23  1  0.34724278  0.42846067  0.61560646  1
  Re  Re24  1  0.15826187  0.91708106  0.86384979  1
  Re  Re25  1  0.84173813  0.41708106  0.63615021  1
  Re  Re26  1  0.84173813  0.08291894  0.13615021  1
  Re  Re27  1  0.15826187  0.58291894  0.36384979  1
  Re  Re28  1  0.40172468  0.07233259  0.63930693  1
  Re  Re29  1  0.59827532  0.57233259  0.86069307  1
  Re  Re30  1  0.59827532  0.92766741  0.36069307  1
  Re  Re31  1  0.40172468  0.42766741  0.13930693  1
  O  O32  1  0.09906442  0.04177528  0.38096577  1
  O  O33  1  0.90093558  0.54177528  0.11903423  1
  O  O34  1  0.90093558  0.95822472  0.61903423  1
  O  O35  1  0.09906442  0.45822472  0.88096577  1
  O  O36  1  0.17734099  0.86659132  0.29378725  1
  O  O37  1  0.82265901  0.36659132  0.20621275  1
  O  O38  1  0.82265901  0.13340868  0.70621275  1
  O  O39  1  0.17734099  0.63340868  0.79378725  1
  O  O40  1  0.11939629  0.87628941  0.51346407  1
  O  O41  1  0.88060371  0.37628941  0.98653593  1
  O  O42  1  0.88060371  0.12371059  0.48653593  1
  O  O43  1  0.11939629  0.62371059  0.01346407  1
  O  O44  1  0.95819579  0.88597756  0.35432723  1
  O  O45  1  0.04180421  0.38597756  0.14567277  1
  O  O46  1  0.04180421  0.11402244  0.64567277  1
  O  O47  1  0.95819579  0.61402244  0.85432723  1
  O  O48  1  0.39259492  0.95325225  0.11167849  1
  O  O49  1  0.60740508  0.45325225  0.38832151  1
  O  O50  1  0.60740508  0.04674775  0.88832151  1
  O  O51  1  0.39259492  0.54674775  0.61167849  1
  O  O52  1  0.21099406  0.07541535  0.14645750  1
  O  O53  1  0.78900594  0.57541535  0.35354250  1
  O  O54  1  0.78900594  0.92458465  0.85354250  1
  O  O55  1  0.21099406  0.42458465  0.64645750  1
  O  O56  1  0.36960367  0.12377283  0.98975696  1
  O  O57  1  0.63039633  0.62377283  0.51024304  1
  O  O58  1  0.63039633  0.87622717  0.01024304  1
  O  O59  1  0.36960367  0.37622717  0.48975696  1
  O  O60  1  0.41968212  0.13314609  0.20919007  1
  O  O61  1  0.58031788  0.63314609  0.29080993  1
  O  O62  1  0.58031788  0.86685391  0.79080993  1
  O  O63  1  0.41968212  0.36685391  0.70919007  1
  O  O64  1  0.15963211  0.04197395  0.86632459  1
  O  O65  1  0.84036789  0.54197395  0.63367541  1
  O  O66  1  0.84036789  0.95802605  0.13367541  1
  O  O67  1  0.15963211  0.45802605  0.36632459  1
  O  O68  1  0.11901467  0.87626055  0.73738953  1
  O  O69  1  0.88098533  0.37626055  0.76261047  1
  O  O70  1  0.88098533  0.12373945  0.26261047  1
  O  O71  1  0.11901467  0.62373945  0.23738953  1
  O  O72  1  0.28762768  0.87766163  0.88882430  1
  O  O73  1  0.71237232  0.37766163  0.61117570  1
  O  O74  1  0.71237232  0.12233837  0.11117570  1
  O  O75  1  0.28762768  0.62233837  0.38882430  1
  O  O76  1  0.07051396  0.87344606  0.95943789  1
  O  O77  1  0.92948604  0.37344606  0.54056211  1
  O  O78  1  0.92948604  0.12655394  0.04056211  1
  O  O79  1  0.07051396  0.62655394  0.45943789  1
  O  O80  1  0.33705266  0.96119282  0.63733067  1
  O  O81  1  0.66294734  0.46119282  0.86266933  1
  O  O82  1  0.66294734  0.03880718  0.36266933  1
  O  O83  1  0.33705266  0.53880718  0.13733067  1
  O  O84  1  0.53652289  0.06106038  0.60449540  1
  O  O85  1  0.46347711  0.56106038  0.89550460  1
  O  O86  1  0.46347711  0.93893962  0.39550460  1
  O  O87  1  0.53652289  0.43893962  0.10449540  1
  O  O88  1  0.39122668  0.12079671  0.76834116  1
  O  O89  1  0.60877332  0.62079671  0.73165884  1
  O  O90  1  0.60877332  0.87920329  0.23165884  1
  O  O91  1  0.39122668  0.37920329  0.26834116  1
  O  O92  1  0.33861623  0.14819658  0.55237657  1
  O  O93  1  0.66138377  0.64819658  0.94762343  1
  O  O94  1  0.66138377  0.85180342  0.44762343  1
  O  O95  1  0.33861623  0.35180342  0.05237657  1
  O  O96  1  0.37746910  0.28080727  0.87497104  1
  O  O97  1  0.62253090  0.78080727  0.62502896  1
  O  O98  1  0.62253090  0.71919273  0.12502896  1
  O  O99  1  0.37746910  0.21919273  0.37497104  1
  O  O100  1  0.11859401  0.72975119  0.61444541  1
  O  O101  1  0.88140599  0.22975119  0.88555459  1
  O  O102  1  0.88140599  0.27024881  0.38555459  1
  O  O103  1  0.11859401  0.77024881  0.11444541  1
  O  O104  1  0.36919547  0.75387327  0.65692264  1
  O  O105  1  0.63080453  0.25387327  0.84307736  1
  O  O106  1  0.63080453  0.24612673  0.34307736  1
  O  O107  1  0.36919547  0.74612673  0.15692264  1
  O  O108  1  0.12132342  0.24737863  0.90859428  1
  O  O109  1  0.87867658  0.74737863  0.59140572  1
  O  O110  1  0.87867658  0.75262137  0.09140572  1
  O  O111  1  0.12132342  0.25262137  0.40859428  1
  O  O112  1  0.14520574  0.25390309  0.81462503  1
  O  O113  1  0.85479426  0.75390309  0.68537497  1
  O  O114  1  0.85479426  0.74609691  0.18537497  1
  O  O115  1  0.14520574  0.24609691  0.31462503  1
  O  O116  1  0.38993674  0.76218961  0.56256949  1
  O  O117  1  0.61006326  0.26218961  0.93743051  1
  O  O118  1  0.61006326  0.23781039  0.43743051  1
  O  O119  1  0.38993674  0.73781039  0.06256949  1
