# generated using pymatgen
data_Li9Mn2Co5O16
_symmetry_space_group_name_H-M   'P 1'
_cell_length_a   10.63389126
_cell_length_b   10.63389126
_cell_length_c   10.24144117
_cell_angle_alpha   67.11713364
_cell_angle_beta   67.11713364
_cell_angle_gamma   15.67033564
_symmetry_Int_Tables_number   1
_chemical_formula_structural   Li9Mn2Co5O16
_chemical_formula_sum   'Li9 Mn2 Co5 O16'
_cell_volume   287.70104519
_cell_formula_units_Z   1
loop_
 _symmetry_equiv_pos_site_id
 _symmetry_equiv_pos_as_xyz
  1  'x, y, z'
loop_
 _atom_site_type_symbol
 _atom_site_label
 _atom_site_symmetry_multiplicity
 _atom_site_fract_x
 _atom_site_fract_y
 _atom_site_fract_z
 _atom_site_occupancy
  Li  Li0  1  0.62291800  0.62291800  0.81473600  1
  Li  Li1  1  0.88271300  0.88271300  0.42924700  1
  Li  Li2  1  0.11530000  0.11530000  0.08046600  1
  Li  Li3  1  0.12289000  0.12289000  0.56815400  1
  Li  Li4  1  0.38156200  0.38156200  0.18859400  1
  Li  Li5  1  0.61985600  0.61985600  0.31778100  1
  Li  Li6  1  0.87652300  0.87652300  0.93278200  1
  Li  Li7  1  0.37966400  0.37966400  0.67500700  1
  Li  Li8  1  0.49790400  0.49790400  0.25138400  1
  Mn  Mn9  1  0.99818400  0.99818400  0.00825600  1
  Mn  Mn10  1  0.25047300  0.25047300  0.12384200  1
  Co  Co11  1  0.24903500  0.24903500  0.62788000  1
  Co  Co12  1  0.74782600  0.74782600  0.87102400  1
  Co  Co13  1  0.00444800  0.00444800  0.47788200  1
  Co  Co14  1  0.49914500  0.49914500  0.74534700  1
  Co  Co15  1  0.75208300  0.75208300  0.37584100  1
  O  O16  1  0.55551700  0.55551700  0.02644300  1
  O  O17  1  0.80776500  0.80776500  0.65853000  1
  O  O18  1  0.06235300  0.06235300  0.29154600  1
  O  O19  1  0.05354200  0.05354200  0.79261700  1
  O  O20  1  0.30632800  0.30632800  0.40574700  1
  O  O21  1  0.55777200  0.55777200  0.53598300  1
  O  O22  1  0.80651400  0.80651400  0.14660400  1
  O  O23  1  0.30343700  0.30343700  0.92047500  1
  O  O24  1  0.69220900  0.69220900  0.59255400  1
  O  O25  1  0.94178100  0.94178100  0.19990800  1
  O  O26  1  0.18967600  0.18967600  0.84489900  1
  O  O27  1  0.20118100  0.20118100  0.33239500  1
  O  O28  1  0.44395300  0.44395300  0.96958900  1
  O  O29  1  0.69333100  0.69333100  0.10263400  1
  O  O30  1  0.94147100  0.94147100  0.72134500  1
  O  O31  1  0.44264600  0.44264600  0.47050800  1
