# generated using pymatgen
data_Li4Mn3SbO8
_symmetry_space_group_name_H-M   'P 1'
_cell_length_a   6.11042634
_cell_length_b   10.70249857
_cell_length_c   6.10006530
_cell_angle_alpha   88.88289271
_cell_angle_beta   118.51336753
_cell_angle_gamma   74.01533779
_symmetry_Int_Tables_number   1
_chemical_formula_structural   Li4Mn3SbO8
_chemical_formula_sum   'Li8 Mn6 Sb2 O16'
_cell_volume   331.56009617
_cell_formula_units_Z   2
loop_
 _symmetry_equiv_pos_site_id
 _symmetry_equiv_pos_as_xyz
  1  'x, y, z'
loop_
 _atom_site_type_symbol
 _atom_site_label
 _atom_site_symmetry_multiplicity
 _atom_site_fract_x
 _atom_site_fract_y
 _atom_site_fract_z
 _atom_site_occupancy
  Li  Li0  1  0.50086500  0.74674300  0.75265700  1
  Li  Li1  1  0.50127400  0.24656300  0.25258900  1
  Li  Li2  1  0.00098000  0.50077700  0.00035100  1
  Li  Li3  1  0.00087100  0.00082800  0.50034000  1
  Li  Li4  1  0.49979900  0.50033900  0.50002200  1
  Li  Li5  1  0.49966900  0.00045400  0.99993100  1
  Li  Li6  1  0.99890300  0.75099800  0.25042800  1
  Li  Li7  1  0.99876100  0.25102700  0.75031300  1
  Mn  Mn8  1  0.49914800  0.25077500  0.74974800  1
  Mn  Mn9  1  0.00005200  0.25084800  0.24950500  1
  Mn  Mn10  1  0.50255800  0.99695800  0.50107100  1
  Mn  Mn11  1  0.49903600  0.75082300  0.24982700  1
  Mn  Mn12  1  0.99971700  0.75087500  0.74946700  1
  Mn  Mn13  1  0.50258500  0.49696000  0.00101500  1
  Sb  Sb14  1  0.99944000  0.00078600  0.99989600  1
  Sb  Sb15  1  0.99953100  0.50071600  0.49990800  1
  O  O16  1  0.22800400  0.14029400  0.57901000  1
  O  O17  1  0.22793800  0.64034300  0.07910000  1
  O  O18  1  0.77421500  0.35946200  0.91745100  1
  O  O19  1  0.77414400  0.85947400  0.41757300  1
  O  O20  1  0.76811900  0.88184200  0.89042000  1
  O  O21  1  0.76825500  0.38179500  0.39030100  1
  O  O22  1  0.22563800  0.88512700  0.34602200  1
  O  O23  1  0.22572200  0.38511200  0.84592000  1
  O  O24  1  0.76839200  0.61666900  0.62385000  1
  O  O25  1  0.76836200  0.11667300  0.12379500  1
  O  O26  1  0.23300100  0.61823700  0.61111200  1
  O  O27  1  0.23302500  0.11821500  0.11107000  1
  O  O28  1  0.77098500  0.61520000  0.15271300  1
  O  O29  1  0.77110700  0.11515600  0.65270400  1
  O  O30  1  0.22991500  0.88494700  0.87597500  1
  O  O31  1  0.22998500  0.38498600  0.37592600  1
