# generated using pymatgen
data_Li9Mn7O16
_symmetry_space_group_name_H-M   'P 1'
_cell_length_a   2.86906816
_cell_length_b   39.35592565
_cell_length_c   3.08310535
_cell_angle_alpha   89.37877338
_cell_angle_beta   117.72891472
_cell_angle_gamma   87.91109206
_symmetry_Int_Tables_number   1
_chemical_formula_structural   Li9Mn7O16
_chemical_formula_sum   'Li9 Mn7 O16'
_cell_volume   307.79198274
_cell_formula_units_Z   1
loop_
 _symmetry_equiv_pos_site_id
 _symmetry_equiv_pos_as_xyz
  1  'x, y, z'
loop_
 _atom_site_type_symbol
 _atom_site_label
 _atom_site_symmetry_multiplicity
 _atom_site_fract_x
 _atom_site_fract_y
 _atom_site_fract_z
 _atom_site_occupancy
  Li  Li0  1  0.23956952  0.06597167  0.54511071  1
  Li  Li1  1  0.76043048  0.18402833  0.70488929  1
  Li  Li2  1  0.25042157  0.31222659  0.81306973  1
  Li  Li3  1  0.75018870  0.43747947  0.93785688  1
  Li  Li4  1  0.25004494  0.56250473  0.06259460  1
  Li  Li5  1  0.74995506  0.68749527  0.18740540  1
  Li  Li6  1  0.24981130  0.81252053  0.31214312  1
  Li  Li7  1  0.74957843  0.93777341  0.43693027  1
  Li  Li8  1  0.50000000  0.12500000  0.12500000  1
  Mn  Mn9  1  0.99659140  0.00007286  0.99325565  1
  Mn  Mn10  1  0.00340860  0.24992714  0.25674435  1
  Mn  Mn11  1  0.50017681  0.37503125  0.37538488  1
  Mn  Mn12  1  0.00002124  0.49996119  0.50000367  1
  Mn  Mn13  1  0.50000000  0.62500000  0.62500000  1
  Mn  Mn14  1  -0.00002124  0.75003881  0.74999633  1
  Mn  Mn15  1  0.49982319  0.87496875  0.87461512  1
  O  O16  1  0.61936005  0.02719846  0.26591856  1
  O  O17  1  0.12063176  0.15645914  0.39772265  1
  O  O18  1  0.61267822  0.27915290  0.50450934  1
  O  O19  1  0.10951171  0.40415759  0.62318100  1
  O  O20  1  0.60980143  0.52900697  0.74860984  1
  O  O21  1  0.10964258  0.65400432  0.87328949  1
  O  O22  1  0.60974757  0.77885405  0.99834920  1
  O  O23  1  0.11052335  0.90373826  0.12478496  1
  O  O24  1  0.87936824  0.09354086  0.85227735  1
  O  O25  1  0.38063995  0.22280154  0.98408144  1
  O  O26  1  0.88947665  0.34626174  0.12521504  1
  O  O27  1  0.39025243  0.47114595  0.25165080  1
  O  O28  1  0.89035742  0.59599568  0.37671051  1
  O  O29  1  0.39019857  0.72099303  0.50139016  1
  O  O30  1  0.89048829  0.84584241  0.62681900  1
  O  O31  1  0.38732178  0.97084710  0.74549066  1
