# generated using pymatgen
data_Li9Mn2Co5O16
_symmetry_space_group_name_H-M   'P 1'
_cell_length_a   2.98226100
_cell_length_b   7.82500479
_cell_length_c   12.58352213
_cell_angle_alpha   89.16570142
_cell_angle_beta   89.71269399
_cell_angle_gamma   81.32106332
_symmetry_Int_Tables_number   1
_chemical_formula_structural   Li9Mn2Co5O16
_chemical_formula_sum   'Li9 Mn2 Co5 O16'
_cell_volume   290.25723879
_cell_formula_units_Z   1
loop_
 _symmetry_equiv_pos_site_id
 _symmetry_equiv_pos_as_xyz
  1  'x, y, z'
loop_
 _atom_site_type_symbol
 _atom_site_label
 _atom_site_symmetry_multiplicity
 _atom_site_fract_x
 _atom_site_fract_y
 _atom_site_fract_z
 _atom_site_occupancy
  Li  Li0  1  0.19782600  0.62189200  0.05804700  1
  Li  Li1  1  0.93943200  0.12532500  0.31307400  1
  Li  Li2  1  0.68700400  0.62451200  0.56550900  1
  Li  Li3  1  0.79550200  0.38128600  0.93250400  1
  Li  Li4  1  0.55492500  0.87729700  0.18795200  1
  Li  Li5  1  0.31460200  0.37522700  0.43878800  1
  Li  Li6  1  0.44825700  0.11343700  0.81146400  1
  Li  Li7  1  0.06590100  0.87149300  0.69491500  1
  Li  Li8  1  0.60940600  0.75850600  0.87021800  1
  Mn  Mn9  1  0.00850900  0.99295000  0.99626300  1
  Mn  Mn10  1  0.12380000  0.74997000  0.37569600  1
  Co  Co11  1  0.75067000  0.49767300  0.24780200  1
  Co  Co12  1  0.49270500  0.00255700  0.50279400  1
  Co  Co13  1  0.24451700  0.51013700  0.75503200  1
  Co  Co14  1  0.38432900  0.24649100  0.12458900  1
  Co  Co15  1  0.87486100  0.25286000  0.62788100  1
  O  O16  1  0.57260100  0.83546500  0.02727700  1
  O  O17  1  0.33538100  0.31962100  0.26938600  1
  O  O18  1  0.07236500  0.82027900  0.52404900  1
  O  O19  1  0.22535000  0.54945900  0.89184100  1
  O  O20  1  0.00141300  0.07248000  0.14749100  1
  O  O21  1  0.76074600  0.56314800  0.39950600  1
  O  O22  1  0.87941300  0.32077800  0.77346400  1
  O  O23  1  0.46272600  0.06718200  0.64958500  1
  O  O24  1  0.74912200  0.42732000  0.09689500  1
  O  O25  1  0.48938900  0.93775000  0.35154400  1
  O  O26  1  0.29381200  0.43436900  0.60823600  1
  O  O27  1  0.43929300  0.16548900  0.97943300  1
  O  O28  1  0.15996400  0.68027200  0.22487600  1
  O  O29  1  0.91118300  0.18743300  0.47826000  1
  O  O30  1  0.02218400  0.94657300  0.85422800  1
  O  O31  1  0.63281100  0.67076700  0.72140100  1
