# generated using pymatgen
data_Li6MnV3(PO4)6
_symmetry_space_group_name_H-M   'P 1'
_cell_length_a   8.51428600
_cell_length_b   8.79823145
_cell_length_c   12.42107976
_cell_angle_alpha   90.41519596
_cell_angle_beta   92.50469619
_cell_angle_gamma   90.12653201
_symmetry_Int_Tables_number   1
_chemical_formula_structural   Li6MnV3(PO4)6
_chemical_formula_sum   'Li12 Mn2 V6 P12 O48'
_cell_volume   929.55496044
_cell_formula_units_Z   2
loop_
 _symmetry_equiv_pos_site_id
 _symmetry_equiv_pos_as_xyz
  1  'x, y, z'
loop_
 _atom_site_type_symbol
 _atom_site_label
 _atom_site_symmetry_multiplicity
 _atom_site_fract_x
 _atom_site_fract_y
 _atom_site_fract_z
 _atom_site_occupancy
  Li  Li0  1  0.99994600  0.00127500  0.99868000  1
  Li  Li1  1  0.00093500  0.90070200  0.74922700  1
  Li  Li2  1  0.00018400  0.00609500  0.50377300  1
  Li  Li3  1  0.00142400  0.10474000  0.25098700  1
  Li  Li4  1  0.28803900  0.19272900  0.95007300  1
  Li  Li5  1  0.30173400  0.81521400  0.45582200  1
  Li  Li6  1  0.51036100  0.49508500  0.99803600  1
  Li  Li7  1  0.49945500  0.59757800  0.74987000  1
  Li  Li8  1  0.50262300  0.49898700  0.50060300  1
  Li  Li9  1  0.50609500  0.39738500  0.24882700  1
  Li  Li10  1  0.70943000  0.19055200  0.55067200  1
  Li  Li11  1  0.71420300  0.80698000  0.05136100  1
  Mn  Mn12  1  0.28552000  0.00148300  0.64415200  1
  Mn  Mn13  1  0.78891700  0.50246200  0.14700800  1
  V  V14  1  0.21184800  0.49939700  0.85680500  1
  V  V15  1  0.21460500  0.50063400  0.35642000  1
  V  V16  1  0.28496400  0.99579300  0.14249500  1
  V  V17  1  0.71613000  0.00117100  0.85701900  1
  V  V18  1  0.71887200  0.99835700  0.35850200  1
  V  V19  1  0.78647700  0.50086000  0.64419000  1
  P  P20  1  0.99640600  0.20324300  0.75029900  1
  P  P21  1  0.00194300  0.79887000  0.24957400  1
  P  P22  1  0.15983500  0.64606900  0.60596300  1
  P  P23  1  0.15098400  0.35644900  0.10583900  1
  P  P24  1  0.34819400  0.85321900  0.89683100  1
  P  P25  1  0.35112900  0.14680300  0.39858800  1
  P  P26  1  0.49668500  0.29052700  0.74871500  1
  P  P27  1  0.50374000  0.70490600  0.25064400  1
  P  P28  1  0.65147500  0.85148900  0.59956800  1
  P  P29  1  0.64927100  0.14575800  0.10330600  1
  P  P30  1  0.84188300  0.64436300  0.89360200  1
  P  P31  1  0.84305200  0.35584900  0.39610800  1
  O  O32  1  0.00836100  0.58217100  0.89414900  1
  O  O33  1  0.00921000  0.41711700  0.39230800  1
  O  O34  1  0.05586200  0.09324400  0.66249000  1
  O  O35  1  0.07098700  0.90880700  0.16459500  1
  O  O36  1  0.12742600  0.29567900  0.80967500  1
  O  O37  1  0.12693400  0.70219700  0.30863500  1
  O  O38  1  0.14846900  0.82633000  0.59520300  1
  O  O39  1  0.14022700  0.17876700  0.09219200  1
  O  O40  1  0.25347700  0.59633500  0.70828800  1
  O  O41  1  0.25228900  0.93890500  0.98281700  1
  O  O42  1  0.25568300  0.59686400  0.50761500  1
  O  O43  1  0.24548100  0.40462500  0.20900000  1
  O  O44  1  0.25242000  0.05843300  0.48047100  1
  O  O45  1  0.26811800  0.90488500  0.78936400  1
  O  O46  1  0.24670700  0.40975300  0.00902300  1
  O  O47  1  0.27798600  0.09729800  0.28742800  1
  O  O48  1  0.34350900  0.67767200  0.91109600  1
  O  O49  1  0.34413500  0.32225700  0.41369700  1
  O  O50  1  0.37510700  0.19297000  0.68385700  1
  O  O51  1  0.38301300  0.79974200  0.18695400  1
  O  O52  1  0.42592800  0.39609500  0.83650200  1
  O  O53  1  0.43376700  0.59440900  0.33380500  1
  O  O54  1  0.47587500  0.88845600  0.58385500  1
  O  O55  1  0.47338500  0.10176000  0.09161200  1
  O  O56  1  0.52465200  0.89274900  0.90615300  1
  O  O57  1  0.52831100  0.10881100  0.41062000  1
  O  O58  1  0.56589300  0.39917200  0.66359800  1
  O  O59  1  0.57910800  0.59976300  0.16264300  1
  O  O60  1  0.61501300  0.19127000  0.80999200  1
  O  O61  1  0.62118300  0.80450200  0.31401800  1
  O  O62  1  0.65875500  0.67590200  0.58498600  1
  O  O63  1  0.64805000  0.32114000  0.08985300  1
  O  O64  1  0.72376200  0.90253300  0.71062100  1
  O  O65  1  0.74050500  0.59312000  0.98737900  1
  O  O66  1  0.72620800  0.09675100  0.21282400  1
  O  O67  1  0.75245400  0.93870200  0.51750300  1
  O  O68  1  0.74908800  0.59874900  0.78830300  1
  O  O69  1  0.74882000  0.40787700  0.49510500  1
  O  O70  1  0.74639500  0.05906300  0.01868900  1
  O  O71  1  0.74274400  0.39928500  0.29539800  1
  O  O72  1  0.85948800  0.82177400  0.90732400  1
  O  O73  1  0.85905300  0.17881800  0.41104100  1
  O  O74  1  0.86839500  0.30127700  0.69460500  1
  O  O75  1  0.87275900  0.70944700  0.18604600  1
  O  O76  1  0.93075500  0.09574600  0.83836400  1
  O  O77  1  0.93574500  0.90957300  0.33569200  1
  O  O78  1  0.99103700  0.59125600  0.60477200  1
  O  O79  1  0.98111300  0.41292200  0.10628000  1
