# generated using pymatgen
data_Li3V2(CO3)4
_symmetry_space_group_name_H-M   'P 1'
_cell_length_a   7.66037480
_cell_length_b   7.65804478
_cell_length_c   8.93045933
_cell_angle_alpha   106.18396902
_cell_angle_beta   106.37065373
_cell_angle_gamma   72.72423070
_symmetry_Int_Tables_number   1
_chemical_formula_structural   Li3V2(CO3)4
_chemical_formula_sum   'Li6 V4 C8 O24'
_cell_volume   468.97588133
_cell_formula_units_Z   2
loop_
 _symmetry_equiv_pos_site_id
 _symmetry_equiv_pos_as_xyz
  1  'x, y, z'
loop_
 _atom_site_type_symbol
 _atom_site_label
 _atom_site_symmetry_multiplicity
 _atom_site_fract_x
 _atom_site_fract_y
 _atom_site_fract_z
 _atom_site_occupancy
  Li  Li0  1  0.19369632  0.56007684  0.87340658  1
  Li  Li1  1  0.68247339  0.05451697  0.37902372  1
  Li  Li2  1  0.11643519  0.94183781  0.44365891  1
  Li  Li3  1  0.61717730  0.43143192  0.93400475  1
  Li  Li4  1  0.31722897  0.13814173  0.81706394  1
  Li  Li5  1  0.81368677  0.63038787  0.31099766  1
  V  V6  1  0.70588477  0.04552071  0.87229824  1
  V  V7  1  0.20328865  0.54560000  0.37745761  1
  V  V8  1  0.30731178  0.93676092  0.11999377  1
  V  V9  1  0.81319446  0.44089719  0.62827856  1
  C  C10  1  0.47895857  0.29775816  0.60838369  1
  C  C11  1  0.98741268  0.78484037  0.10986864  1
  C  C12  1  0.45684603  0.26240865  0.14355369  1
  C  C13  1  0.96107525  0.77121066  0.63868067  1
  C  C14  1  0.03606840  0.22985546  0.34845949  1
  C  C15  1  0.52436066  0.73699786  0.85056284  1
  C  C16  1  0.02166863  0.22315496  0.90632842  1
  C  C17  1  0.51159079  0.71727204  0.39341522  1
  O  O18  1  0.35149602  0.74261225  0.43021805  1
  O  O19  1  0.86590286  0.25346163  0.94605456  1
  O  O20  1  0.49324280  0.89182984  0.80769555  1
  O  O21  1  0.01042588  0.39016969  0.31212218  1
  O  O22  1  0.15588376  0.08226181  0.29534835  1
  O  O23  1  0.64537013  0.58872742  0.80451683  1
  O  O24  1  0.16905006  0.09576911  0.95487393  1
  O  O25  1  0.65906832  0.60082514  0.44493700  1
  O  O26  1  0.48284504  0.22963594  0.72788604  1
  O  O27  1  0.98909429  0.69985560  0.21873274  1
  O  O28  1  0.53006141  0.26672619  0.03143464  1
  O  O29  1  0.03395060  0.75993750  0.51653149  1
  O  O30  1  0.32535246  0.41111708  0.55564797  1
  O  O31  1  0.83935799  0.89208002  0.05284717  1
  O  O32  1  0.35044627  0.41077099  0.20700234  1
  O  O33  1  0.85309057  0.92581368  0.68670506  1
  O  O34  1  0.94369207  0.21209142  0.44224789  1
  O  O35  1  0.42993088  0.72077672  0.94828744  1
  O  O36  1  0.04564749  0.31360628  0.81230154  1
  O  O37  1  0.52518398  0.81416951  0.29827215  1
  O  O38  1  0.99952750  0.62530281  0.69823925  1
  O  O39  1  0.49205383  0.10272224  0.18754637  1
  O  O40  1  0.14732252  0.75359968  0.06626020  1
  O  O41  1  0.62465069  0.25646134  0.54885488  1
