# generated using pymatgen
data_Li4MnCo2O7
_symmetry_space_group_name_H-M   'P 1'
_cell_length_a   3.03250600
_cell_length_b   6.38700263
_cell_length_c   13.57420739
_cell_angle_alpha   96.03511418
_cell_angle_beta   88.98837623
_cell_angle_gamma   103.36904028
_symmetry_Int_Tables_number   1
_chemical_formula_structural   Li4MnCo2O7
_chemical_formula_sum   'Li8 Mn2 Co4 O14'
_cell_volume   254.36531682
_cell_formula_units_Z   2
loop_
 _symmetry_equiv_pos_site_id
 _symmetry_equiv_pos_as_xyz
  1  'x, y, z'
loop_
 _atom_site_type_symbol
 _atom_site_label
 _atom_site_symmetry_multiplicity
 _atom_site_fract_x
 _atom_site_fract_y
 _atom_site_fract_z
 _atom_site_occupancy
  Li  Li0  1  0.06864200  0.78294600  0.64389700  1
  Li  Li1  1  0.21228000  0.35436500  0.93047700  1
  Li  Li2  1  0.36078300  0.93059400  0.21346600  1
  Li  Li3  1  0.63921700  0.06940600  0.78653400  1
  Li  Li4  1  0.78772000  0.64563500  0.06952300  1
  Li  Li5  1  0.93135800  0.21705400  0.35610300  1
  Li  Li6  1  0.50000000  0.50000000  0.50000000  1
  Li  Li7  1  0.50000000  0.00000000  0.00000000  1
  Mn  Mn8  1  0.21413600  0.85425600  0.42646100  1
  Mn  Mn9  1  0.78586400  0.14574400  0.57353900  1
  Co  Co10  1  0.35884800  0.43293400  0.71652700  1
  Co  Co11  1  0.64115200  0.56706600  0.28347300  1
  Co  Co12  1  0.93197300  0.72564100  0.86332100  1
  Co  Co13  1  0.06802700  0.27435900  0.13667900  1
  O  O14  1  0.62538100  0.83267800  0.53449900  1
  O  O15  1  0.77713600  0.41861300  0.81897300  1
  O  O16  1  0.93594500  0.99344200  0.11291500  1
  O  O17  1  0.20479400  0.12491600  0.67911500  1
  O  O18  1  0.34195600  0.68032100  0.95551700  1
  O  O19  1  0.48960400  0.26706900  0.24432600  1
  O  O20  1  0.05262300  0.54484900  0.38754300  1
  O  O21  1  0.51039600  0.73293100  0.75567400  1
  O  O22  1  0.65804400  0.31967900  0.04448300  1
  O  O23  1  0.79520600  0.87508400  0.32088500  1
  O  O24  1  0.06405500  0.00655800  0.88708500  1
  O  O25  1  0.22286400  0.58138700  0.18102700  1
  O  O26  1  0.37461900  0.16732200  0.46550100  1
  O  O27  1  0.94737700  0.45515100  0.61245700  1
