# generated using pymatgen
data_Li2MgGeO4
_symmetry_space_group_name_H-M   'P 1'
_cell_length_a   5.17441500
_cell_length_b   6.47527400
_cell_length_c   11.07307900
_cell_angle_alpha   90.00000000
_cell_angle_beta   90.00000000
_cell_angle_gamma   90.00000000
_symmetry_Int_Tables_number   1
_chemical_formula_structural   Li2MgGeO4
_chemical_formula_sum   'Li8 Mg4 Ge4 O16'
_cell_volume   371.01187113
_cell_formula_units_Z   4
loop_
 _symmetry_equiv_pos_site_id
 _symmetry_equiv_pos_as_xyz
  1  'x, y, z'
loop_
 _atom_site_type_symbol
 _atom_site_label
 _atom_site_symmetry_multiplicity
 _atom_site_fract_x
 _atom_site_fract_y
 _atom_site_fract_z
 _atom_site_occupancy
  Li  Li0  1  0.30631100  0.25360000  0.07494500  1
  Li  Li1  1  0.19368900  0.25360000  0.57494500  1
  Li  Li2  1  0.69368900  0.75360000  0.92505500  1
  Li  Li3  1  0.80631100  0.75360000  0.42505500  1
  Li  Li4  1  0.18571800  0.00144200  0.33591100  1
  Li  Li5  1  0.81428200  0.50144200  0.66408900  1
  Li  Li6  1  0.68571800  0.50144200  0.16408900  1
  Li  Li7  1  0.31428200  0.00144200  0.83591100  1
  Mg  Mg8  1  0.31600400  0.49657200  0.83210600  1
  Mg  Mg9  1  0.68399600  0.99657200  0.16789400  1
  Mg  Mg10  1  0.81600400  0.99657200  0.66789400  1
  Mg  Mg11  1  0.18399600  0.49657200  0.33210600  1
  Ge  Ge12  1  0.81642400  0.24920100  0.91534900  1
  Ge  Ge13  1  0.68357600  0.24920100  0.41534900  1
  Ge  Ge14  1  0.18357600  0.74920100  0.08465100  1
  Ge  Ge15  1  0.31642400  0.74920100  0.58465100  1
  O  O16  1  0.16184500  0.25388200  0.91039500  1
  O  O17  1  0.33815500  0.25388200  0.41039500  1
  O  O18  1  0.83815500  0.75388200  0.08960500  1
  O  O19  1  0.66184500  0.75388200  0.58960500  1
  O  O20  1  0.70248300  0.47359800  0.83856700  1
  O  O21  1  0.79323000  0.02496600  0.33724600  1
  O  O22  1  0.29751700  0.97359800  0.16143300  1
  O  O23  1  0.20677000  0.52496600  0.66275400  1
  O  O24  1  0.29323000  0.52496600  0.16275400  1
  O  O25  1  0.20248300  0.97359800  0.66143300  1
  O  O26  1  0.70677000  0.02496600  0.83724600  1
  O  O27  1  0.79751700  0.47359800  0.33856700  1
  O  O28  1  0.70524200  0.24673900  0.06630200  1
  O  O29  1  0.79475800  0.24673900  0.56630200  1
  O  O30  1  0.29475800  0.74673900  0.93369800  1
  O  O31  1  0.20524200  0.74673900  0.43369800  1
