# generated using pymatgen
data_Li2V3CoO8
_symmetry_space_group_name_H-M   'P 1'
_cell_length_a   5.94070350
_cell_length_b   5.94232744
_cell_length_c   10.27593966
_cell_angle_alpha   89.35120956
_cell_angle_beta   107.66996886
_cell_angle_gamma   119.58355932
_symmetry_Int_Tables_number   1
_chemical_formula_structural   Li2V3CoO8
_chemical_formula_sum   'Li4 V6 Co2 O16'
_cell_volume   296.35297683
_cell_formula_units_Z   2
loop_
 _symmetry_equiv_pos_site_id
 _symmetry_equiv_pos_as_xyz
  1  'x, y, z'
loop_
 _atom_site_type_symbol
 _atom_site_label
 _atom_site_symmetry_multiplicity
 _atom_site_fract_x
 _atom_site_fract_y
 _atom_site_fract_z
 _atom_site_occupancy
  Li  Li0  1  0.88130600  0.43868000  0.31861000  1
  Li  Li1  1  0.87299800  0.93644000  0.81022800  1
  Li  Li2  1  0.12663200  0.06273500  0.18944600  1
  Li  Li3  1  0.11931800  0.56347900  0.68266500  1
  V  V4  1  0.49215500  0.49356500  0.99615200  1
  V  V5  1  0.50222600  0.00353600  0.50579900  1
  V  V6  1  0.50261600  0.99844100  0.99619500  1
  V  V7  1  0.49903600  0.50270200  0.50087800  1
  V  V8  1  0.99815100  0.50420200  0.99643900  1
  V  V9  1  0.99738800  0.00178600  0.50085800  1
  Co  Co10  1  0.49476300  0.25338100  0.74853500  1
  Co  Co11  1  0.50896200  0.74616700  0.25392900  1
  O  O12  1  0.25923200  0.13440600  0.39392600  1
  O  O13  1  0.25699700  0.63154700  0.88841900  1
  O  O14  1  0.73871400  0.36636400  0.10505300  1
  O  O15  1  0.74366400  0.86600600  0.61057600  1
  O  O16  1  0.75937400  0.10281800  0.38979900  1
  O  O17  1  0.71936800  0.58875800  0.88091700  1
  O  O18  1  0.75920100  0.63967200  0.39720300  1
  O  O19  1  0.74596200  0.15977100  0.88185300  1
  O  O20  1  0.28794000  0.62969200  0.38897500  1
  O  O21  1  0.29173000  0.13739200  0.88106600  1
  O  O22  1  0.71022900  0.86325300  0.10331100  1
  O  O23  1  0.70483200  0.36457200  0.62579000  1
  O  O24  1  0.23765500  0.84135800  0.10258600  1
  O  O25  1  0.26380300  0.35593700  0.62191400  1
  O  O26  1  0.26265000  0.39246000  0.10311300  1
  O  O27  1  0.26309800  0.92088300  0.62576300  1
