# generated using pymatgen
data_Li5Mn4O8
_symmetry_space_group_name_H-M   'P 1'
_cell_length_a   5.82115666
_cell_length_b   10.50392637
_cell_length_c   6.36569589
_cell_angle_alpha   96.07378005
_cell_angle_beta   62.70424105
_cell_angle_gamma   105.92032233
_symmetry_Int_Tables_number   1
_chemical_formula_structural   Li5Mn4O8
_chemical_formula_sum   'Li10 Mn8 O16'
_cell_volume   332.53226052
_cell_formula_units_Z   2
loop_
 _symmetry_equiv_pos_site_id
 _symmetry_equiv_pos_as_xyz
  1  'x, y, z'
loop_
 _atom_site_type_symbol
 _atom_site_label
 _atom_site_symmetry_multiplicity
 _atom_site_fract_x
 _atom_site_fract_y
 _atom_site_fract_z
 _atom_site_occupancy
  Li  Li0  1  0.00097000  0.25058600  0.24948800  1
  Li  Li1  1  0.99941800  0.74963400  0.75039700  1
  Li  Li2  1  0.90331000  0.39564300  0.57696000  1
  Li  Li3  1  0.91805200  0.91356300  0.06656200  1
  Li  Li4  1  0.08229500  0.58640900  0.43266900  1
  Li  Li5  1  0.09643300  0.10478600  0.92368100  1
  Li  Li6  1  0.50000100  0.25004500  0.75041700  1
  Li  Li7  1  0.50000100  0.74988900  0.24987500  1
  Li  Li8  1  0.99961400  0.74966600  0.24973700  1
  Li  Li9  1  0.00010800  0.25034500  0.75036800  1
  Mn  Mn10  1  0.49853100  0.99643600  0.99939900  1
  Mn  Mn11  1  0.50168200  0.50367100  0.50027500  1
  Mn  Mn12  1  0.50850100  0.00340900  0.48840700  1
  Mn  Mn13  1  0.49144600  0.49654200  0.01151600  1
  Mn  Mn14  1  0.00571700  0.00257200  0.48991200  1
  Mn  Mn15  1  0.99425900  0.49724600  0.01005300  1
  Mn  Mn16  1  0.50002200  0.25004700  0.25019300  1
  Mn  Mn17  1  0.49992000  0.74998200  0.75007700  1
  O  O18  1  0.74676500  0.12157100  0.60861200  1
  O  O19  1  0.73622900  0.61644400  0.11976600  1
  O  O20  1  0.26297400  0.88393200  0.38026400  1
  O  O21  1  0.25360300  0.37758900  0.89170900  1
  O  O22  1  0.73082400  0.87632100  0.39436700  1
  O  O23  1  0.72611900  0.37414800  0.90051200  1
  O  O24  1  0.27269500  0.12525900  0.59964700  1
  O  O25  1  0.27033000  0.62413700  0.10531800  1
  O  O26  1  0.26091400  0.86938700  0.88431500  1
  O  O27  1  0.25378600  0.38952900  0.39026000  1
  O  O28  1  0.73357800  0.87358100  0.86834200  1
  O  O29  1  0.75046700  0.39197400  0.37858100  1
  O  O30  1  0.24955400  0.10798100  0.12169600  1
  O  O31  1  0.26670800  0.62658200  0.63121600  1
  O  O32  1  0.74574900  0.11030000  0.11042700  1
  O  O33  1  0.73942400  0.63079400  0.61498100  1
