# generated using pymatgen
data_Li7Mn4CoO12
_symmetry_space_group_name_H-M   'P 1'
_cell_length_a   2.87237015
_cell_length_b   15.25006650
_cell_length_c   10.56654552
_cell_angle_alpha   72.37848747
_cell_angle_beta   97.81833590
_cell_angle_gamma   95.40377000
_symmetry_Int_Tables_number   1
_chemical_formula_structural   Li7Mn4CoO12
_chemical_formula_sum   'Li14 Mn8 Co2 O24'
_cell_volume   436.34720794
_cell_formula_units_Z   2
loop_
 _symmetry_equiv_pos_site_id
 _symmetry_equiv_pos_as_xyz
  1  'x, y, z'
loop_
 _atom_site_type_symbol
 _atom_site_label
 _atom_site_symmetry_multiplicity
 _atom_site_fract_x
 _atom_site_fract_y
 _atom_site_fract_z
 _atom_site_occupancy
  Li  Li0  1  0.49998500  0.16671200  0.83331400  1
  Li  Li1  1  0.99995500  0.66659500  0.33338700  1
  Li  Li2  1  0.62104700  0.12340000  0.11850600  1
  Li  Li3  1  0.12111100  0.62352000  0.61854400  1
  Li  Li4  1  0.37893600  0.20978600  0.54816100  1
  Li  Li5  1  0.87897300  0.70996400  0.04813100  1
  Li  Li6  1  0.87365500  0.37718800  0.37022100  1
  Li  Li7  1  0.37382500  0.87645600  0.87127800  1
  Li  Li8  1  0.62632900  0.45615300  0.79645200  1
  Li  Li9  1  0.12615800  0.95683900  0.29540800  1
  Li  Li10  1  0.12336300  0.28780300  0.95891600  1
  Li  Li11  1  0.62322600  0.78714600  0.45938900  1
  Li  Li12  1  0.87673900  0.04604200  0.70739200  1
  Li  Li13  1  0.37662000  0.54552000  0.20777200  1
  Mn  Mn14  1  0.49891000  0.82892100  0.16872800  1
  Mn  Mn15  1  0.74897000  0.75046400  0.74740000  1
  Mn  Mn16  1  0.75104900  0.08285900  0.41928000  1
  Mn  Mn17  1  0.00113600  0.00446800  0.99786500  1
  Mn  Mn18  1  0.50119700  0.50442700  0.49806000  1
  Mn  Mn19  1  0.99881200  0.32890300  0.66862500  1
  Mn  Mn20  1  0.24875400  0.25046500  0.24695400  1
  Mn  Mn21  1  0.25128300  0.58289500  0.91972400  1
  Co  Co22  1  0.74998300  0.41668100  0.08333000  1
  Co  Co23  1  0.24996200  0.91666700  0.58330700  1
  O  O24  1  0.05316000  0.47240000  0.63386700  1
  O  O25  1  0.55317200  0.97256600  0.13370500  1
  O  O26  1  0.44688700  0.36094300  0.53280400  1
  O  O27  1  0.94683500  0.86086000  0.03283100  1
  O  O28  1  0.80802600  0.23785400  0.37828100  1
  O  O29  1  0.30829100  0.73782100  0.87861900  1
  O  O30  1  0.19175800  0.09547500  0.28809900  1
  O  O31  1  0.69194000  0.59544500  0.78840600  1
  O  O32  1  0.05587100  0.12634500  0.98546800  1
  O  O33  1  0.55596500  0.62644300  0.48556400  1
  O  O34  1  0.94403800  0.20687900  0.68112200  1
  O  O35  1  0.44408800  0.70707400  0.18112200  1
  O  O36  1  0.30675900  0.40374700  0.21080800  1
  O  O37  1  0.80683400  0.90317500  0.71072300  1
  O  O38  1  0.19322700  0.42955100  0.95588500  1
  O  O39  1  0.69311600  0.93020800  0.45586100  1
  O  O40  1  0.55692100  0.31758100  0.79595300  1
  O  O41  1  0.05706100  0.81784000  0.29604800  1
  O  O42  1  0.44298400  0.01559600  0.87057900  1
  O  O43  1  0.94311100  0.51574400  0.37072700  1
  O  O44  1  0.31002200  0.06791200  0.55213500  1
  O  O45  1  0.81008100  0.56775700  0.05238300  1
  O  O46  1  0.68993700  0.26548600  0.11434200  1
  O  O47  1  0.18993700  0.76542800  0.61452700  1
