# generated using pymatgen
data_Li4Mn3CoO8
_symmetry_space_group_name_H-M   'P 1'
_cell_length_a   5.42738604
_cell_length_b   9.82208679
_cell_length_c   5.72540683
_cell_angle_alpha   90.45331202
_cell_angle_beta   89.70944162
_cell_angle_gamma   95.38162088
_symmetry_Int_Tables_number   1
_chemical_formula_structural   Li4Mn3CoO8
_chemical_formula_sum   'Li8 Mn6 Co2 O16'
_cell_volume   303.85373271
_cell_formula_units_Z   2
loop_
 _symmetry_equiv_pos_site_id
 _symmetry_equiv_pos_as_xyz
  1  'x, y, z'
loop_
 _atom_site_type_symbol
 _atom_site_label
 _atom_site_symmetry_multiplicity
 _atom_site_fract_x
 _atom_site_fract_y
 _atom_site_fract_z
 _atom_site_occupancy
  Li  Li0  1  0.75575200  0.24894100  0.50030200  1
  Li  Li1  1  0.24428000  0.75105500  0.49975300  1
  Li  Li2  1  0.75837900  0.25334700  0.99754100  1
  Li  Li3  1  0.24162900  0.74664800  0.00248500  1
  Li  Li4  1  0.25021900  0.25103100  0.24779300  1
  Li  Li5  1  0.75595300  0.75043500  0.24930500  1
  Li  Li6  1  0.24406200  0.24956700  0.75072000  1
  Li  Li7  1  0.74974900  0.74895300  0.75223300  1
  Mn  Mn8  1  0.99989700  0.00003900  0.50001200  1
  Mn  Mn9  1  0.99982400  0.50001200  0.25011200  1
  Mn  Mn10  1  0.99990200  0.49999100  0.74996100  1
  Mn  Mn11  1  0.50013400  0.49994800  0.49978900  1
  Mn  Mn12  1  0.49477200  0.99777600  0.25058900  1
  Mn  Mn13  1  0.50526200  0.00222300  0.74947600  1
  Co  Co14  1  0.00003600  0.99997600  0.00002700  1
  Co  Co15  1  0.49999000  0.50001100  0.99991800  1
  O  O16  1  0.38712000  0.11524500  0.50110100  1
  O  O17  1  0.89278400  0.61636100  0.50231200  1
  O  O18  1  0.10720600  0.38364200  0.49765500  1
  O  O19  1  0.61293700  0.88477500  0.49897200  1
  O  O20  1  0.36980800  0.10965700  0.00168800  1
  O  O21  1  0.88544700  0.61416000  0.00189400  1
  O  O22  1  0.11455000  0.38584500  0.99811300  1
  O  O23  1  0.63024400  0.89036100  0.99838200  1
  O  O24  1  0.89412300  0.11631700  0.24567100  1
  O  O25  1  0.39319200  0.61475400  0.24739400  1
  O  O26  1  0.88428900  0.12016300  0.74074400  1
  O  O27  1  0.39271900  0.61540400  0.75536300  1
  O  O28  1  0.60736600  0.38450100  0.24444900  1
  O  O29  1  0.11568300  0.87989200  0.25936800  1
  O  O30  1  0.60681900  0.38524200  0.75253300  1
  O  O31  1  0.10587100  0.88372700  0.75434300  1
