# generated using pymatgen
data_Li4P2O7
_symmetry_space_group_name_H-M   'P 1'
_cell_length_a   5.30050300
_cell_length_b   8.59658400
_cell_length_c   13.95281911
_cell_angle_alpha   67.84074955
_cell_angle_beta   90.00000000
_cell_angle_gamma   90.00000000
_symmetry_Int_Tables_number   1
_chemical_formula_structural   Li4P2O7
_chemical_formula_sum   'Li16 P8 O28'
_cell_volume   588.81812268
_cell_formula_units_Z   4
loop_
 _symmetry_equiv_pos_site_id
 _symmetry_equiv_pos_as_xyz
  1  'x, y, z'
loop_
 _atom_site_type_symbol
 _atom_site_label
 _atom_site_symmetry_multiplicity
 _atom_site_fract_x
 _atom_site_fract_y
 _atom_site_fract_z
 _atom_site_occupancy
  Li  Li0  1  0.68037500  0.44355900  0.30921000  1
  Li  Li1  1  0.81962500  0.44355900  0.80921000  1
  Li  Li2  1  0.31962500  0.55644100  0.69079000  1
  Li  Li3  1  0.18037500  0.55644100  0.19079000  1
  Li  Li4  1  0.65814700  0.05097600  0.41934100  1
  Li  Li5  1  0.84185300  0.05097600  0.91934100  1
  Li  Li6  1  0.34185300  0.94902400  0.58065900  1
  Li  Li7  1  0.15814700  0.94902400  0.08065900  1
  Li  Li8  1  0.86593900  0.11434900  0.23368900  1
  Li  Li9  1  0.63406100  0.11434900  0.73368900  1
  Li  Li10  1  0.13406100  0.88565100  0.76631100  1
  Li  Li11  1  0.36593900  0.88565100  0.26631100  1
  Li  Li12  1  0.31228600  0.53940300  0.41812300  1
  Li  Li13  1  0.18771400  0.53940300  0.91812300  1
  Li  Li14  1  0.68771400  0.46059700  0.58187700  1
  Li  Li15  1  0.81228600  0.46059700  0.08187700  1
  P  P16  1  0.34401200  0.26518400  0.11036200  1
  P  P17  1  0.15598800  0.26518400  0.61036200  1
  P  P18  1  0.65598800  0.73481600  0.88963800  1
  P  P19  1  0.84401200  0.73481600  0.38963800  1
  P  P20  1  0.15539600  0.24478800  0.39313600  1
  P  P21  1  0.34460400  0.24478800  0.89313600  1
  P  P22  1  0.84460400  0.75521200  0.60686400  1
  P  P23  1  0.65539600  0.75521200  0.10686400  1
  O  O24  1  0.30223600  0.08138800  0.43280900  1
  O  O25  1  0.19776400  0.08138800  0.93280900  1
  O  O26  1  0.69776400  0.91861200  0.56719100  1
  O  O27  1  0.80223600  0.91861200  0.06719100  1
  O  O28  1  0.90087700  0.23383300  0.34326200  1
  O  O29  1  0.59912300  0.23383300  0.84326200  1
  O  O30  1  0.09912300  0.76616700  0.65673800  1
  O  O31  1  0.40087700  0.76616700  0.15673800  1
  O  O32  1  0.31072600  0.39894100  0.32631100  1
  O  O33  1  0.18927400  0.39894100  0.82631100  1
  O  O34  1  0.68927400  0.60105900  0.67368900  1
  O  O35  1  0.81072600  0.60105900  0.17368900  1
  O  O36  1  0.07563100  0.29079200  0.49225700  1
  O  O37  1  0.42436900  0.29079200  0.99225700  1
  O  O38  1  0.92436900  0.70920800  0.50774300  1
  O  O39  1  0.57563100  0.70920800  0.00774300  1
  O  O40  1  0.67470000  0.58181000  0.40516800  1
  O  O41  1  0.82530000  0.58181000  0.90516800  1
  O  O42  1  0.32530000  0.41819000  0.59483200  1
  O  O43  1  0.17470000  0.41819000  0.09483200  1
  O  O44  1  0.09830700  0.73048300  0.34028600  1
  O  O45  1  0.40169300  0.73048300  0.84028600  1
  O  O46  1  0.90169300  0.26951700  0.65971400  1
  O  O47  1  0.59830700  0.26951700  0.15971400  1
  O  O48  1  0.70166300  0.90243500  0.33860400  1
  O  O49  1  0.79833700  0.90243500  0.83860400  1
  O  O50  1  0.29833700  0.09756500  0.66139600  1
  O  O51  1  0.20166300  0.09756500  0.16139600  1
