# generated using pymatgen
data_LiSNO4
_symmetry_space_group_name_H-M   'P 1'
_cell_length_a   5.56518600
_cell_length_b   9.39143700
_cell_length_c   9.48580600
_cell_angle_alpha   90.00000000
_cell_angle_beta   90.00000000
_cell_angle_gamma   90.00000000
_symmetry_Int_Tables_number   1
_chemical_formula_structural   LiSNO4
_chemical_formula_sum   'Li4 S4 N4 O16'
_cell_volume   495.77653953
_cell_formula_units_Z   4
loop_
 _symmetry_equiv_pos_site_id
 _symmetry_equiv_pos_as_xyz
  1  'x, y, z'
loop_
 _atom_site_type_symbol
 _atom_site_label
 _atom_site_symmetry_multiplicity
 _atom_site_fract_x
 _atom_site_fract_y
 _atom_site_fract_z
 _atom_site_occupancy
  Li  Li0  1  0.99619000  0.31919000  0.40105300  1
  Li  Li1  1  0.49619000  0.68081000  0.59894700  1
  Li  Li2  1  0.99619000  0.81919000  0.09894700  1
  Li  Li3  1  0.49619000  0.18081000  0.90105300  1
  S  S4  1  0.00119100  0.18323600  0.08212000  1
  S  S5  1  0.50119100  0.81676400  0.91788000  1
  S  S6  1  0.00119100  0.68323600  0.41788000  1
  S  S7  1  0.50119100  0.31676400  0.58212000  1
  N  N8  1  0.49490200  0.00399900  0.29376500  1
  N  N9  1  0.99490200  0.99600100  0.70623500  1
  N  N10  1  0.49490200  0.50399900  0.20623500  1
  N  N11  1  0.99490200  0.49600100  0.79376500  1
  O  O12  1  0.32736000  0.29985500  0.46429500  1
  O  O13  1  0.82736000  0.70014500  0.53570500  1
  O  O14  1  0.32736000  0.79985500  0.03570500  1
  O  O15  1  0.82736000  0.20014500  0.96429500  1
  O  O16  1  0.41968200  0.24041200  0.70862800  1
  O  O17  1  0.91968200  0.75958800  0.29137200  1
  O  O18  1  0.41968200  0.74041200  0.79137200  1
  O  O19  1  0.91968200  0.25958800  0.20862800  1
  O  O20  1  0.24196900  0.23152600  0.03783200  1
  O  O21  1  0.74196900  0.76847400  0.96216800  1
  O  O22  1  0.24196900  0.73152600  0.46216800  1
  O  O23  1  0.74196900  0.26847400  0.53783200  1
  O  O24  1  0.01530500  0.02876700  0.11905000  1
  O  O25  1  0.51530500  0.97123300  0.88095000  1
  O  O26  1  0.01530500  0.52876700  0.38095000  1
  O  O27  1  0.51530500  0.47123300  0.61905000  1
