# generated using pymatgen
data_LiAlSiO4
_symmetry_space_group_name_H-M   'P 1'
_cell_length_a   10.58771735
_cell_length_b   10.58771735
_cell_length_c   11.38351400
_cell_angle_alpha   90.00000000
_cell_angle_beta   90.00000000
_cell_angle_gamma   119.99999591
_symmetry_Int_Tables_number   1
_chemical_formula_structural   LiAlSiO4
_chemical_formula_sum   'Li12 Al12 Si12 O48'
_cell_volume   1105.12568533
_cell_formula_units_Z   12
loop_
 _symmetry_equiv_pos_site_id
 _symmetry_equiv_pos_as_xyz
  1  'x, y, z'
loop_
 _atom_site_type_symbol
 _atom_site_label
 _atom_site_symmetry_multiplicity
 _atom_site_fract_x
 _atom_site_fract_y
 _atom_site_fract_z
 _atom_site_occupancy
  Li  Li0  1  0.00000000  0.50000000  0.33881100  1
  Li  Li1  1  0.50000000  0.50000000  0.00547800  1
  Li  Li2  1  0.50000000  0.00000000  0.67214500  1
  Li  Li3  1  0.00000000  0.50000000  0.99452200  1
  Li  Li4  1  0.50000000  0.50000000  0.66118900  1
  Li  Li5  1  0.50000000  0.00000000  0.32785500  1
  Li  Li6  1  0.00000000  0.50000000  0.66666700  1
  Li  Li7  1  0.50000000  0.50000000  0.33333300  1
  Li  Li8  1  0.50000000  0.00000000  0.00000000  1
  Li  Li9  1  0.00000000  0.00000000  0.16666700  1
  Li  Li10  1  0.00000000  0.00000000  0.83333300  1
  Li  Li11  1  0.00000000  0.00000000  0.50000000  1
  Al  Al12  1  0.25088600  0.00000000  0.50000000  1
  Al  Al13  1  0.25088600  0.25088600  0.83333300  1
  Al  Al14  1  0.00000000  0.74911400  0.16666700  1
  Al  Al15  1  0.00000000  0.25088600  0.16666700  1
  Al  Al16  1  0.74911400  0.74911400  0.83333300  1
  Al  Al17  1  0.74873400  0.49746800  0.50000000  1
  Al  Al18  1  0.25126600  0.50253200  0.50000000  1
  Al  Al19  1  0.74873400  0.25126600  0.83333300  1
  Al  Al20  1  0.50253200  0.25126600  0.16666700  1
  Al  Al21  1  0.49746800  0.74873400  0.16666700  1
  Al  Al22  1  0.25126600  0.74873400  0.83333300  1
  Al  Al23  1  0.74911400  0.00000000  0.50000000  1
  Si  Si24  1  0.75182600  0.50365100  0.00000000  1
  Si  Si25  1  0.50365100  0.75182600  0.66666700  1
  Si  Si26  1  0.49634900  0.24817400  0.66666700  1
  Si  Si27  1  0.75182600  0.24817400  0.33333300  1
  Si  Si28  1  0.24817400  0.49634900  0.00000000  1
  Si  Si29  1  0.75249600  0.00000000  0.00000000  1
  Si  Si30  1  0.75249600  0.75249600  0.33333300  1
  Si  Si31  1  0.00000000  0.24750400  0.66666700  1
  Si  Si32  1  0.00000000  0.75249600  0.66666700  1
  Si  Si33  1  0.24750400  0.24750400  0.33333300  1
  Si  Si34  1  0.24750400  0.00000000  0.00000000  1
  Si  Si35  1  0.24817400  0.75182600  0.33333300  1
  O  O36  1  0.30297000  0.90359400  0.40623800  1
  O  O37  1  0.39937600  0.09640600  0.59376200  1
  O  O38  1  0.69703000  0.60062400  0.92709600  1
  O  O39  1  0.30297000  0.39937600  0.92709600  1
  O  O40  1  0.60062400  0.90359400  0.59376200  1
  O  O41  1  0.39937600  0.30297000  0.73957100  1
  O  O42  1  0.90359400  0.60062400  0.07290400  1
  O  O43  1  0.90359400  0.30297000  0.26042900  1
  O  O44  1  0.69703000  0.09640600  0.40623800  1
  O  O45  1  0.09640600  0.69703000  0.26042900  1
  O  O46  1  0.60062400  0.69703000  0.73957100  1
  O  O47  1  0.09640600  0.39937600  0.07290400  1
  O  O48  1  0.60031400  0.70626700  0.26281400  1
  O  O49  1  0.89404700  0.60031400  0.59614800  1
  O  O50  1  0.70626700  0.10595300  0.92948100  1
  O  O51  1  0.29373300  0.89404700  0.92948100  1
  O  O52  1  0.10595300  0.39968600  0.59614800  1
  O  O53  1  0.89404700  0.29373300  0.73718600  1
  O  O54  1  0.39968600  0.10595300  0.07051900  1
  O  O55  1  0.39968600  0.29373300  0.26281400  1
  O  O56  1  0.70626700  0.60031400  0.40385200  1
  O  O57  1  0.29373300  0.39968600  0.40385200  1
  O  O58  1  0.10595300  0.70626700  0.73718600  1
  O  O59  1  0.60031400  0.89404700  0.07051900  1
  O  O60  1  0.60841500  0.20006100  0.25079900  1
  O  O61  1  0.40835400  0.60841500  0.58413300  1
  O  O62  1  0.20006100  0.59164600  0.91746600  1
  O  O63  1  0.79993900  0.40835400  0.91746600  1
  O  O64  1  0.59164600  0.39158500  0.58413300  1
  O  O65  1  0.40835400  0.79993900  0.74920100  1
  O  O66  1  0.39158500  0.59164600  0.08253400  1
  O  O67  1  0.39158500  0.79993900  0.25079900  1
  O  O68  1  0.20006100  0.60841500  0.41586700  1
  O  O69  1  0.79993900  0.39158500  0.41586700  1
  O  O70  1  0.59164600  0.20006100  0.74920100  1
  O  O71  1  0.60841500  0.40835400  0.08253400  1
  O  O72  1  0.91314700  0.11101700  0.57577200  1
  O  O73  1  0.19787000  0.08685300  0.90910500  1
  O  O74  1  0.80213000  0.91314700  0.90910500  1
  O  O75  1  0.08685300  0.88898300  0.57577200  1
  O  O76  1  0.91314700  0.80213000  0.75756200  1
  O  O77  1  0.88898300  0.08685300  0.09089500  1
  O  O78  1  0.88898300  0.80213000  0.24243800  1
  O  O79  1  0.19787000  0.11101700  0.42422800  1
  O  O80  1  0.80213000  0.88898300  0.42422800  1
  O  O81  1  0.08685300  0.19787000  0.75756200  1
  O  O82  1  0.11101700  0.91314700  0.09089500  1
  O  O83  1  0.11101700  0.19787000  0.24243800  1
