# generated using pymatgen
data_Li7Co5O12
_symmetry_space_group_name_H-M   'P 1'
_cell_length_a   5.69351400
_cell_length_b   6.40723385
_cell_length_c   6.41727795
_cell_angle_alpha   96.80355623
_cell_angle_beta   116.09514897
_cell_angle_gamma   102.93947197
_symmetry_Int_Tables_number   1
_chemical_formula_structural   Li7Co5O12
_chemical_formula_sum   'Li7 Co5 O12'
_cell_volume   198.50386332
_cell_formula_units_Z   1
loop_
 _symmetry_equiv_pos_site_id
 _symmetry_equiv_pos_as_xyz
  1  'x, y, z'
loop_
 _atom_site_type_symbol
 _atom_site_label
 _atom_site_symmetry_multiplicity
 _atom_site_fract_x
 _atom_site_fract_y
 _atom_site_fract_z
 _atom_site_occupancy
  Li  Li0  1  0.75836700  0.00143000  0.49579100  1
  Li  Li1  1  0.24873100  0.32055700  0.83339000  1
  Li  Li2  1  0.25262600  0.67283700  0.16481600  1
  Li  Li3  1  0.74737400  0.32716300  0.83518400  1
  Li  Li4  1  0.24163300  0.99857000  0.50420900  1
  Li  Li5  1  0.75126900  0.67944300  0.16661000  1
  Li  Li6  1  0.50000000  0.00000000  0.00000000  1
  Co  Co7  1  0.00000000  0.00000000  0.00000000  1
  Co  Co8  1  0.49969800  0.32735600  0.32713700  1
  Co  Co9  1  0.00171600  0.66745600  0.66781900  1
  Co  Co10  1  0.99828400  0.33254400  0.33218100  1
  Co  Co11  1  0.50030200  0.67264400  0.67286300  1
  O  O12  1  0.11495800  0.98320000  0.75798700  1
  O  O13  1  0.63978500  0.34121300  0.11683400  1
  O  O14  1  0.62703400  0.64831200  0.43694700  1
  O  O15  1  0.13108700  0.32070700  0.10018600  1
  O  O16  1  0.63659300  0.97433300  0.75403500  1
  O  O17  1  0.13610000  0.65546500  0.43862300  1
  O  O18  1  0.36340700  0.02566700  0.24596500  1
  O  O19  1  0.86390000  0.34453500  0.56137700  1
  O  O20  1  0.86891300  0.67929300  0.89981400  1
  O  O21  1  0.37296600  0.35168800  0.56305300  1
  O  O22  1  0.88504200  0.01680000  0.24201300  1
  O  O23  1  0.36021500  0.65878700  0.88316600  1
