# generated using pymatgen
data_Li9Mn2Co5O16
_symmetry_space_group_name_H-M   'P 1'
_cell_length_a   5.92538200
_cell_length_b   7.64271250
_cell_length_c   7.72205518
_cell_angle_alpha   65.24671223
_cell_angle_beta   68.91891269
_cell_angle_gamma   69.25127903
_symmetry_Int_Tables_number   1
_chemical_formula_structural   Li9Mn2Co5O16
_chemical_formula_sum   'Li9 Mn2 Co5 O16'
_cell_volume   287.62925083
_cell_formula_units_Z   1
loop_
 _symmetry_equiv_pos_site_id
 _symmetry_equiv_pos_as_xyz
  1  'x, y, z'
loop_
 _atom_site_type_symbol
 _atom_site_label
 _atom_site_symmetry_multiplicity
 _atom_site_fract_x
 _atom_site_fract_y
 _atom_site_fract_z
 _atom_site_occupancy
  Li  Li0  1  0.37739100  0.61834800  0.13184700  1
  Li  Li1  1  0.23420200  0.25943600  0.25243400  1
  Li  Li2  1  0.62394300  0.37571600  0.87572100  1
  Li  Li3  1  0.49899400  0.99797300  0.00367000  1
  Li  Li4  1  0.87395200  0.12806300  0.62097900  1
  Li  Li5  1  0.75371000  0.74467100  0.75748000  1
  Li  Li6  1  0.12614300  0.87594800  0.37322200  1
  Li  Li7  1  0.00679600  0.50053200  0.48724900  1
  Li  Li8  1  0.87519800  0.62061400  0.12868800  1
  Mn  Mn9  1  0.00482000  0.99531500  0.00320300  1
  Mn  Mn10  1  0.24505100  0.74937000  0.75301500  1
  Co  Co11  1  0.75255300  0.25407100  0.24659600  1
  Co  Co12  1  0.63507500  0.86859200  0.37086200  1
  Co  Co13  1  0.50791300  0.49972300  0.49279900  1
  Co  Co14  1  0.37399200  0.13343200  0.61925000  1
  Co  Co15  1  0.11375800  0.37974800  0.88103200  1
  O  O16  1  0.99385100  0.76825400  0.23828000  1
  O  O17  1  0.85275900  0.37120800  0.37416300  1
  O  O18  1  0.24979600  0.50629300  0.97614200  1
  O  O19  1  0.12943700  0.11994100  0.11046100  1
  O  O20  1  0.49094900  0.25385200  0.73429000  1
  O  O21  1  0.34818400  0.87644700  0.87632800  1
  O  O22  1  0.73207100  0.01670800  0.47953700  1
  O  O23  1  0.59350400  0.63884700  0.63207800  1
  O  O24  1  0.76011700  0.47585000  0.01701000  1
  O  O25  1  0.66608900  0.11313600  0.11857800  1
  O  O26  1  0.01063700  0.24009700  0.76593600  1
  O  O27  1  0.90829900  0.87375400  0.87224200  1
  O  O28  1  0.25907400  0.99015100  0.51921800  1
  O  O29  1  0.12683700  0.63188400  0.63717600  1
  O  O30  1  0.50329800  0.74747700  0.27046500  1
  O  O31  1  0.37160900  0.37455400  0.38004200  1
