# generated using pymatgen
data_Li4V3P8O29
_symmetry_space_group_name_H-M   'P 1'
_cell_length_a   9.76956900
_cell_length_b   9.80814941
_cell_length_c   14.28375745
_cell_angle_alpha   89.47947379
_cell_angle_beta   89.50219711
_cell_angle_gamma   60.17384248
_symmetry_Int_Tables_number   1
_chemical_formula_structural   Li4V3P8O29
_chemical_formula_sum   'Li8 V6 P16 O58'
_cell_volume   1187.32811185
_cell_formula_units_Z   2
loop_
 _symmetry_equiv_pos_site_id
 _symmetry_equiv_pos_as_xyz
  1  'x, y, z'
loop_
 _atom_site_type_symbol
 _atom_site_label
 _atom_site_symmetry_multiplicity
 _atom_site_fract_x
 _atom_site_fract_y
 _atom_site_fract_z
 _atom_site_occupancy
  Li  Li0  1  0.68308500  0.09130800  0.44384600  1
  Li  Li1  1  0.10093800  0.66866100  0.95003800  1
  Li  Li2  1  0.23281200  0.09585400  0.94243100  1
  Li  Li3  1  0.92078100  0.77885500  0.55769900  1
  Li  Li4  1  0.08571900  0.22603400  0.43607700  1
  Li  Li5  1  0.76563900  0.90755200  0.06118200  1
  Li  Li6  1  0.31141700  0.91083500  0.55297600  1
  Li  Li7  1  0.97881900  0.06023700  0.00654500  1
  V  V8  1  0.00401800  0.56039400  0.75005500  1
  V  V9  1  0.99235400  0.43746500  0.24783200  1
  V  V10  1  0.56590800  0.00177600  0.24937500  1
  V  V11  1  0.43350500  0.99764500  0.75211100  1
  V  V12  1  0.56410300  0.43363900  0.75213200  1
  V  V13  1  0.43734800  0.56363400  0.24749800  1
  P  P14  1  0.69545600  0.22446500  0.15682100  1
  P  P15  1  0.68207000  0.08956800  0.66502200  1
  P  P16  1  0.23062700  0.68550200  0.65774300  1
  P  P17  1  0.32933600  0.33625000  0.86935100  1
  P  P18  1  0.33133900  0.33325800  0.36697400  1
  P  P19  1  0.08861000  0.68561400  0.16407800  1
  P  P20  1  0.90980400  0.76939200  0.34363500  1
  P  P21  1  0.22276800  0.09124700  0.15818000  1
  P  P22  1  0.77662500  0.90626700  0.84328200  1
  P  P23  1  0.09046800  0.22971600  0.65388300  1
  P  P24  1  0.91383800  0.30604800  0.83435700  1
  P  P25  1  0.66749200  0.66607900  0.63438600  1
  P  P26  1  0.66766100  0.66841600  0.12993800  1
  P  P27  1  0.77051400  0.31207800  0.34080300  1
  P  P28  1  0.31898800  0.90707700  0.33540600  1
  P  P29  1  0.30691700  0.77236200  0.84163800  1
  O  O30  1  0.76577900  0.22692300  0.42591500  1
  O  O31  1  0.65779700  0.25705000  0.66941600  1
  O  O32  1  0.79483700  0.97341300  0.93261100  1
  O  O33  1  0.65798800  0.08690500  0.16444900  1
  O  O34  1  0.54065300  0.38399400  0.16789900  1
  O  O35  1  0.47846800  0.33180500  0.82338400  1
  O  O36  1  0.38312100  0.52651700  0.67690700  1
  O  O37  1  0.20921600  0.78206400  0.92450800  1
  O  O38  1  0.25897100  0.65558500  0.16607500  1
  O  O39  1  0.48346500  0.18249100  0.33041600  1
  O  O40  1  0.52114000  0.09752100  0.68349700  1
  O  O41  1  0.34070500  0.47370100  0.31703700  1
  O  O42  1  0.31424700  0.36113000  0.97254900  1
  O  O43  1  0.32913500  0.33784000  0.47116200  1
  O  O44  1  0.18420000  0.48935800  0.82313100  1
  O  O45  1  0.37956100  0.08819900  0.16740600  1
  O  O46  1  0.32242000  0.18868800  0.83703900  1
  O  O47  1  0.08495500  0.66011300  0.66071100  1
  O  O48  1  0.00311000  0.78982900  0.25452100  1
  O  O49  1  0.99208100  0.75705500  0.43288600  1
  O  O50  1  0.00283900  0.77083800  0.07643300  1
  O  O51  1  0.08920500  0.52785300  0.17611900  1
  O  O52  1  0.17988900  0.33568500  0.32757600  1
  O  O53  1  0.92187700  0.73577400  0.83302600  1
  O  O54  1  0.10192100  0.37846600  0.68008500  1
  O  O55  1  0.25491600  0.08033500  0.66182500  1
  O  O56  1  0.79463900  0.99793300  0.75262600  1
  O  O57  1  0.75633000  0.00378200  0.57589100  1
  O  O58  1  0.24274200  0.99465700  0.42395300  1
  O  O59  1  0.74435000  0.91837200  0.33931200  1
  O  O60  1  0.89997300  0.62012900  0.32079800  1
  O  O61  1  0.08223300  0.26104400  0.17358500  1
  O  O62  1  0.81920400  0.66283600  0.67783800  1
  O  O63  1  0.91885900  0.46216700  0.82610300  1
  O  O64  1  0.00569800  0.20354000  0.91458500  1
  O  O65  1  0.01432300  0.24624800  0.56210300  1
  O  O66  1  0.98794800  0.21388000  0.73781300  1
  O  O67  1  0.91420900  0.33991200  0.33930700  1
  O  O68  1  0.67647800  0.81362400  0.16567800  1
  O  O69  1  0.62163700  0.90604900  0.83053800  1
  O  O70  1  0.81423700  0.51784900  0.17748600  1
  O  O71  1  0.67678700  0.65633200  0.02625100  1
  O  O72  1  0.67749500  0.66389600  0.53056500  1
  O  O73  1  0.66166900  0.52306300  0.68120500  1
  O  O74  1  0.47879000  0.90062700  0.31780400  1
  O  O75  1  0.51642100  0.81609500  0.67128800  1
  O  O76  1  0.74076800  0.34324300  0.83345600  1
  O  O77  1  0.79603100  0.20667000  0.24954900  1
  O  O78  1  0.79378200  0.20273300  0.07287400  1
  O  O79  1  0.61805600  0.47133300  0.32219300  1
  O  O80  1  0.52077900  0.66834900  0.17621100  1
  O  O81  1  0.46397700  0.61525300  0.82910600  1
  O  O82  1  0.33956500  0.91274500  0.83848000  1
  O  O83  1  0.19729800  0.02902700  0.06849400  1
  O  O84  1  0.20681200  0.99650800  0.24734700  1
  O  O85  1  0.34391100  0.73939500  0.33157800  1
  O  O86  1  0.23507000  0.76970600  0.57219300  1
  O  O87  1  0.20739500  0.79282900  0.74801000  1
