# generated using pymatgen
data_Ba2Li3Y3(WO4)8
_symmetry_space_group_name_H-M   'P 1'
_cell_length_a   5.25966600
_cell_length_b   6.94096978
_cell_length_c   19.39064270
_cell_angle_alpha   88.54441605
_cell_angle_beta   87.64089694
_cell_angle_gamma   68.04969718
_symmetry_Int_Tables_number   1
_chemical_formula_structural   Ba2Li3Y3(WO4)8
_chemical_formula_sum   'Ba2 Li3 Y3 W8 O32'
_cell_volume   655.98633297
_cell_formula_units_Z   1
loop_
 _symmetry_equiv_pos_site_id
 _symmetry_equiv_pos_as_xyz
  1  'x, y, z'
loop_
 _atom_site_type_symbol
 _atom_site_label
 _atom_site_symmetry_multiplicity
 _atom_site_fract_x
 _atom_site_fract_y
 _atom_site_fract_z
 _atom_site_occupancy
  Ba  Ba0  1  0.46675100  0.06866600  0.76457000  1
  Ba  Ba1  1  0.53176100  0.93211500  0.23905200  1
  Li  Li2  1  0.19451700  0.63706200  0.75780000  1
  Li  Li3  1  0.80852200  0.35984600  0.24322600  1
  Li  Li4  1  0.35090700  0.29072200  0.96332500  1
  Y  Y5  1  0.35808200  0.28982200  0.53318400  1
  Y  Y6  1  0.65308100  0.70556500  0.02861000  1
  Y  Y7  1  0.64146300  0.71033000  0.46822500  1
  W  W8  1  0.07502000  0.88051600  0.90681700  1
  W  W9  1  0.04159900  0.87390300  0.59558200  1
  W  W10  1  0.92461100  0.12095600  0.09100900  1
  W  W11  1  0.95842200  0.12465300  0.40497900  1
  W  W12  1  0.75952300  0.48311300  0.85187100  1
  W  W13  1  0.75883000  0.48984500  0.65031800  1
  W  W14  1  0.24349700  0.51240400  0.14901800  1
  W  W15  1  0.24224300  0.50995000  0.35062600  1
  O  O16  1  0.77618300  0.95566300  0.96671500  1
  O  O17  1  0.27403000  0.95895500  0.53694600  1
  O  O18  1  0.23316300  0.02738400  0.03617600  1
  O  O19  1  0.72543200  0.03969500  0.46268000  1
  O  O20  1  0.47709200  0.71229600  0.82092400  1
  O  O21  1  0.79184500  0.73485800  0.66972800  1
  O  O22  1  0.51737000  0.28191300  0.18022500  1
  O  O23  1  0.20818400  0.26697100  0.32938800  1
  O  O24  1  0.91003600  0.53270500  0.93025500  1
  O  O25  1  0.56823700  0.52388600  0.56793500  1
  O  O26  1  0.08041100  0.48070700  0.07164100  1
  O  O27  1  0.43444900  0.47542600  0.43241500  1
  O  O28  1  0.00996400  0.41759800  0.77837200  1
  O  O29  1  0.55643300  0.40891500  0.71193400  1
  O  O30  1  0.98626600  0.58493700  0.22037100  1
  O  O31  1  0.44024500  0.59028400  0.28742200  1
  O  O32  1  0.17326300  0.10144300  0.89097700  1
  O  O33  1  0.72308900  0.09923800  0.60297900  1
  O  O34  1  0.80622100  0.90426100  0.10730200  1
  O  O35  1  0.27806800  0.90024200  0.39632600  1
  O  O36  1  0.34583900  0.67307200  0.95406800  1
  O  O37  1  0.01198700  0.65915400  0.54210800  1
  O  O38  1  0.66798000  0.34719900  0.04886600  1
  O  O39  1  0.99058600  0.33970600  0.45738900  1
  O  O40  1  0.94339400  0.83193700  0.82547900  1
  O  O41  1  0.22528900  0.82777700  0.67412900  1
  O  O42  1  0.05239000  0.16573300  0.17333100  1
  O  O43  1  0.77671300  0.17207500  0.32590400  1
  O  O44  1  0.60200800  0.29424600  0.86478500  1
  O  O45  1  0.10368600  0.29892400  0.63169900  1
  O  O46  1  0.40542300  0.70308500  0.13513300  1
  O  O47  1  0.89589600  0.70024600  0.36818500  1
