# generated using pymatgen
data_K3Li3P6O19
_symmetry_space_group_name_H-M   'P 1'
_cell_length_a   9.82835149
_cell_length_b   9.82835149
_cell_length_c   9.82835165
_cell_angle_alpha   101.87415038
_cell_angle_beta   101.87415038
_cell_angle_gamma   101.87414641
_symmetry_Int_Tables_number   1
_chemical_formula_structural   K3Li3P6O19
_chemical_formula_sum   'K6 Li6 P12 O38'
_cell_volume   878.14808979
_cell_formula_units_Z   2
loop_
 _symmetry_equiv_pos_site_id
 _symmetry_equiv_pos_as_xyz
  1  'x, y, z'
loop_
 _atom_site_type_symbol
 _atom_site_label
 _atom_site_symmetry_multiplicity
 _atom_site_fract_x
 _atom_site_fract_y
 _atom_site_fract_z
 _atom_site_occupancy
  K  K0  1  0.52958200  0.94104100  0.78437400  1
  K  K1  1  0.78437400  0.52958200  0.94104100  1
  K  K2  1  0.94104100  0.78437400  0.52958200  1
  K  K3  1  0.47041800  0.05895900  0.21562600  1
  K  K4  1  0.21562600  0.47041800  0.05895900  1
  K  K5  1  0.05895900  0.21562600  0.47041800  1
  Li  Li6  1  0.01822200  0.48364900  0.72921500  1
  Li  Li7  1  0.72921500  0.01822200  0.48364900  1
  Li  Li8  1  0.48364900  0.72921500  0.01822200  1
  Li  Li9  1  0.98177800  0.51635100  0.27078500  1
  Li  Li10  1  0.27078500  0.98177800  0.51635100  1
  Li  Li11  1  0.51635100  0.27078500  0.98177800  1
  P  P12  1  0.19640400  0.07441500  0.83235100  1
  P  P13  1  0.83235100  0.19640400  0.07441500  1
  P  P14  1  0.07441500  0.83235100  0.19640400  1
  P  P15  1  0.80359600  0.92558500  0.16764900  1
  P  P16  1  0.16764900  0.80359600  0.92558500  1
  P  P17  1  0.92558500  0.16764900  0.80359600  1
  P  P18  1  0.26863500  0.64233500  0.50276200  1
  P  P19  1  0.50276200  0.26863500  0.64233500  1
  P  P20  1  0.64233500  0.50276200  0.26863500  1
  P  P21  1  0.73136500  0.35766500  0.49723800  1
  P  P22  1  0.49723800  0.73136500  0.35766500  1
  P  P23  1  0.35766500  0.49723800  0.73136500  1
  O  O24  1  0.08735600  0.16482400  0.88522400  1
  O  O25  1  0.88522400  0.08735600  0.16482400  1
  O  O26  1  0.16482400  0.88522400  0.08735600  1
  O  O27  1  0.91264400  0.83517600  0.11477600  1
  O  O28  1  0.11477600  0.91264400  0.83517600  1
  O  O29  1  0.83517600  0.11477600  0.91264400  1
  O  O30  1  0.19327300  0.07023200  0.67851700  1
  O  O31  1  0.67851700  0.19327300  0.07023200  1
  O  O32  1  0.07023200  0.67851700  0.19327300  1
  O  O33  1  0.80672700  0.92976800  0.32148300  1
  O  O34  1  0.32148300  0.80672700  0.92976800  1
  O  O35  1  0.92976800  0.32148300  0.80672700  1
  O  O36  1  0.94843000  0.33462200  0.12907700  1
  O  O37  1  0.12907700  0.94843000  0.33462200  1
  O  O38  1  0.33462200  0.12907700  0.94843000  1
  O  O39  1  0.05157000  0.66537800  0.87092300  1
  O  O40  1  0.87092300  0.05157000  0.66537800  1
  O  O41  1  0.66537800  0.87092300  0.05157000  1
  O  O42  1  0.37433600  0.61342500  0.63725800  1
  O  O43  1  0.63725800  0.37433600  0.61342500  1
  O  O44  1  0.61342500  0.63725800  0.37433600  1
  O  O45  1  0.62566400  0.38657500  0.36274200  1
  O  O46  1  0.36274200  0.62566400  0.38657500  1
  O  O47  1  0.38657500  0.36274200  0.62566400  1
  O  O48  1  0.13310400  0.52290700  0.44082600  1
  O  O49  1  0.44082600  0.13310400  0.52290700  1
  O  O50  1  0.52290700  0.44082600  0.13310400  1
  O  O51  1  0.86689600  0.47709300  0.55917400  1
  O  O52  1  0.55917400  0.86689600  0.47709300  1
  O  O53  1  0.47709300  0.55917400  0.86689600  1
  O  O54  1  0.44830200  0.73846500  0.20532000  1
  O  O55  1  0.20532000  0.44830200  0.73846500  1
  O  O56  1  0.73846500  0.20532000  0.44830200  1
  O  O57  1  0.55169800  0.26153500  0.79468000  1
  O  O58  1  0.79468000  0.55169800  0.26153500  1
  O  O59  1  0.26153500  0.79468000  0.55169800  1
  O  O60  1  0.74448800  0.74448800  0.74448800  1
  O  O61  1  0.25551200  0.25551200  0.25551200  1
