# generated using pymatgen
data_Li4V5Cr4O18
_symmetry_space_group_name_H-M   'P 1'
_cell_length_a   2.98358900
_cell_length_b   8.89277600
_cell_length_c   24.81764700
_cell_angle_alpha   90.00000000
_cell_angle_beta   90.00000000
_cell_angle_gamma   90.00000000
_symmetry_Int_Tables_number   1
_chemical_formula_structural   Li4V5Cr4O18
_chemical_formula_sum   'Li8 V10 Cr8 O36'
_cell_volume   658.47145566
_cell_formula_units_Z   2
loop_
 _symmetry_equiv_pos_site_id
 _symmetry_equiv_pos_as_xyz
  1  'x, y, z'
loop_
 _atom_site_type_symbol
 _atom_site_label
 _atom_site_symmetry_multiplicity
 _atom_site_fract_x
 _atom_site_fract_y
 _atom_site_fract_z
 _atom_site_occupancy
  Li  Li0  1  0.00000000  0.17990300  0.99048200  1
  Li  Li1  1  0.00000000  0.20724500  0.19037500  1
  Li  Li2  1  0.00000000  0.29275500  0.69037500  1
  Li  Li3  1  0.00000000  0.32009700  0.49048200  1
  Li  Li4  1  0.00000000  0.67990300  0.50951800  1
  Li  Li5  1  0.00000000  0.70724500  0.30962500  1
  Li  Li6  1  0.00000000  0.79275500  0.80962500  1
  Li  Li7  1  0.00000000  0.82009700  0.00951800  1
  V  V8  1  0.00000000  0.00000000  0.50000000  1
  V  V9  1  0.00000000  0.99198000  0.10257700  1
  V  V10  1  0.50000000  0.14166100  0.80255100  1
  V  V11  1  0.50000000  0.35833900  0.30255100  1
  V  V12  1  0.00000000  0.50802000  0.60257700  1
  V  V13  1  0.00000000  0.50000000  0.00000000  1
  V  V14  1  0.00000000  0.49198000  0.39742300  1
  V  V15  1  0.50000000  0.64166100  0.69744900  1
  V  V16  1  0.50000000  0.85833900  0.19744900  1
  V  V17  1  0.00000000  0.00802000  0.89742300  1
  Cr  Cr18  1  0.00000000  0.01782700  0.31282500  1
  Cr  Cr19  1  0.50000000  0.15149800  0.58577200  1
  Cr  Cr20  1  0.50000000  0.34850200  0.08577200  1
  Cr  Cr21  1  0.00000000  0.48217300  0.81282500  1
  Cr  Cr22  1  0.00000000  0.51782700  0.18717500  1
  Cr  Cr23  1  0.50000000  0.65149800  0.91422800  1
  Cr  Cr24  1  0.50000000  0.84850200  0.41422800  1
  Cr  Cr25  1  0.00000000  0.98217300  0.68717500  1
  O  O26  1  0.00000000  0.99986500  0.42278000  1
  O  O27  1  0.00000000  0.00013500  0.57722000  1
  O  O28  1  0.50000000  0.06387000  0.94317600  1
  O  O29  1  0.50000000  0.04724300  0.15999300  1
  O  O30  1  0.50000000  0.11976200  0.66444700  1
  O  O31  1  0.00000000  0.09087600  0.75545700  1
  O  O32  1  0.50000000  0.15089300  0.50388400  1
  O  O33  1  0.50000000  0.15156500  0.28685400  1
  O  O34  1  0.00000000  0.18720100  0.85540900  1
  O  O35  1  0.00000000  0.19782000  0.08410300  1
  O  O36  1  0.00000000  0.30218000  0.58410300  1
  O  O37  1  0.00000000  0.31279900  0.35540900  1
  O  O38  1  0.50000000  0.34843500  0.78685400  1
  O  O39  1  0.50000000  0.34910700  0.00388400  1
  O  O40  1  0.00000000  0.40912400  0.25545700  1
  O  O41  1  0.50000000  0.38023800  0.16444700  1
  O  O42  1  0.50000000  0.45275700  0.65999300  1
  O  O43  1  0.50000000  0.43613000  0.44317600  1
  O  O44  1  0.00000000  0.49986500  0.07722000  1
  O  O45  1  0.00000000  0.50013500  0.92278000  1
  O  O46  1  0.50000000  0.56387000  0.55682400  1
  O  O47  1  0.50000000  0.54724300  0.34000700  1
  O  O48  1  0.50000000  0.61976200  0.83555300  1
  O  O49  1  0.00000000  0.59087600  0.74454300  1
  O  O50  1  0.50000000  0.65089300  0.99611600  1
  O  O51  1  0.50000000  0.65156500  0.21314600  1
  O  O52  1  0.00000000  0.68720100  0.64459100  1
  O  O53  1  0.00000000  0.69782000  0.41589700  1
  O  O54  1  0.00000000  0.80218000  0.91589700  1
  O  O55  1  0.00000000  0.81279900  0.14459100  1
  O  O56  1  0.50000000  0.84843500  0.71314600  1
  O  O57  1  0.50000000  0.84910700  0.49611600  1
  O  O58  1  0.00000000  0.90912400  0.24454300  1
  O  O59  1  0.50000000  0.88023800  0.33555300  1
  O  O60  1  0.50000000  0.95275700  0.84000700  1
  O  O61  1  0.50000000  0.93613000  0.05682400  1
