# generated using pymatgen
data_Li8MnFe7(BO3)8
_symmetry_space_group_name_H-M   'P 1'
_cell_length_a   5.21453300
_cell_length_b   9.05973433
_cell_length_c   10.36441110
_cell_angle_alpha   88.44881483
_cell_angle_beta   89.14962678
_cell_angle_gamma   89.91779140
_symmetry_Int_Tables_number   1
_chemical_formula_structural   Li8MnFe7(BO3)8
_chemical_formula_sum   'Li8 Mn1 Fe7 B8 O24'
_cell_volume   489.40484674
_cell_formula_units_Z   1
loop_
 _symmetry_equiv_pos_site_id
 _symmetry_equiv_pos_as_xyz
  1  'x, y, z'
loop_
 _atom_site_type_symbol
 _atom_site_label
 _atom_site_symmetry_multiplicity
 _atom_site_fract_x
 _atom_site_fract_y
 _atom_site_fract_z
 _atom_site_occupancy
  Li  Li0  1  0.14635000  0.17400400  0.66804000  1
  Li  Li1  1  0.18590700  0.16036600  0.16702500  1
  Li  Li2  1  0.32098000  0.33174700  0.41681300  1
  Li  Li3  1  0.33793100  0.32651300  0.91696500  1
  Li  Li4  1  0.64794300  0.67299700  0.66667200  1
  Li  Li5  1  0.68629100  0.66037400  0.16731400  1
  Li  Li6  1  0.81890900  0.83207000  0.41716100  1
  Li  Li7  1  0.83620000  0.82699200  0.91755100  1
  Mn  Mn8  1  0.16020600  0.83926100  0.63280600  1
  Fe  Fe9  1  0.18317000  0.49711300  0.13249900  1
  Fe  Fe10  1  0.33877600  0.66381800  0.38266400  1
  Fe  Fe11  1  0.32450300  0.99974100  0.88280100  1
  Fe  Fe12  1  0.65408600  0.33946000  0.63200000  1
  Fe  Fe13  1  0.68368400  0.99759600  0.13181600  1
  Fe  Fe14  1  0.83818300  0.16343200  0.38357100  1
  Fe  Fe15  1  0.82543700  0.49986100  0.88348000  1
  B  B16  1  0.17323700  0.83063400  0.12632300  1
  B  B17  1  0.15917900  0.50077500  0.62569200  1
  B  B18  1  0.33600900  0.99639600  0.37489200  1
  B  B19  1  0.32813400  0.66570900  0.87715500  1
  B  B20  1  0.67346500  0.33087100  0.12631400  1
  B  B21  1  0.65796200  0.00331300  0.62635300  1
  B  B22  1  0.83632400  0.49625100  0.37567500  1
  B  B23  1  0.82762800  0.16660000  0.87634000  1
  O  O24  1  0.09698900  0.48369100  0.34515900  1
  O  O25  1  0.09330100  0.17745100  0.86399100  1
  O  O26  1  0.17882600  0.79016700  0.84752600  1
  O  O27  1  0.19317700  0.87336700  0.41478800  1
  O  O28  1  0.21869200  0.13442600  0.36289900  1
  O  O29  1  0.21340700  0.53339400  0.91681000  1
  O  O30  1  0.27177500  0.36229700  0.61284200  1
  O  O31  1  0.29107000  0.96596600  0.09626700  1
  O  O32  1  0.30533300  0.62611300  0.59514100  1
  O  O33  1  0.31736700  0.70849200  0.16563100  1
  O  O34  1  0.40892200  0.31811500  0.11301000  1
  O  O35  1  0.40392400  0.01882700  0.66765400  1
  O  O36  1  0.59672100  0.98437700  0.34476000  1
  O  O37  1  0.59328800  0.67633200  0.86327700  1
  O  O38  1  0.67859500  0.29056500  0.84518600  1
  O  O39  1  0.69389300  0.37307200  0.41662800  1
  O  O40  1  0.71901400  0.63372900  0.36269600  1
  O  O41  1  0.71344800  0.03444400  0.91700000  1
  O  O42  1  0.79104500  0.46608000  0.09623400  1
  O  O43  1  0.76383400  0.86419500  0.61178500  1
  O  O44  1  0.80565200  0.12880000  0.59571200  1
  O  O45  1  0.81751000  0.20873500  0.16593100  1
  O  O46  1  0.90871200  0.81800100  0.11293800  1
  O  O47  1  0.90440900  0.51287700  0.66581100  1
