# generated using pymatgen
data_Li3Fe
_symmetry_space_group_name_H-M   'P 1'
_cell_length_a   5.57437444
_cell_length_b   5.57437444
_cell_length_c   4.55990200
_cell_angle_alpha   90.00000000
_cell_angle_beta   90.00000000
_cell_angle_gamma   120.00000520
_symmetry_Int_Tables_number   1
_chemical_formula_structural   Li3Fe
_chemical_formula_sum   'Li6 Fe2'
_cell_volume   122.70955833
_cell_formula_units_Z   2
loop_
 _symmetry_equiv_pos_site_id
 _symmetry_equiv_pos_as_xyz
  1  'x, y, z'
loop_
 _atom_site_type_symbol
 _atom_site_label
 _atom_site_symmetry_multiplicity
 _atom_site_fract_x
 _atom_site_fract_y
 _atom_site_fract_z
 _atom_site_occupancy
  Li  Li0  1  0.17290900  0.34581900  0.25000000  1
  Li  Li1  1  0.65418100  0.82709100  0.25000000  1
  Li  Li2  1  0.17290900  0.82709100  0.25000000  1
  Li  Li3  1  0.82709100  0.65418100  0.75000000  1
  Li  Li4  1  0.34581900  0.17290900  0.75000000  1
  Li  Li5  1  0.82709100  0.17290900  0.75000000  1
  Fe  Fe6  1  0.33333300  0.66666700  0.75000000  1
  Fe  Fe7  1  0.66666700  0.33333300  0.25000000  1
