# generated using pymatgen
data_Li5V3Bi2(PO4)6
_symmetry_space_group_name_H-M   'P 1'
_cell_length_a   8.92028144
_cell_length_b   8.92104182
_cell_length_c   8.99176171
_cell_angle_alpha   59.84345790
_cell_angle_beta   60.86226593
_cell_angle_gamma   61.00235042
_symmetry_Int_Tables_number   1
_chemical_formula_structural   Li5V3Bi2(PO4)6
_chemical_formula_sum   'Li5 V3 Bi2 P6 O24'
_cell_volume   512.35461644
_cell_formula_units_Z   1
loop_
 _symmetry_equiv_pos_site_id
 _symmetry_equiv_pos_as_xyz
  1  'x, y, z'
loop_
 _atom_site_type_symbol
 _atom_site_label
 _atom_site_symmetry_multiplicity
 _atom_site_fract_x
 _atom_site_fract_y
 _atom_site_fract_z
 _atom_site_occupancy
  Li  Li0  1  0.45547748  0.19124682  0.18663327  1
  Li  Li1  1  0.28252033  0.85548903  0.64008272  1
  Li  Li2  1  0.69561460  0.15011660  0.32033704  1
  Li  Li3  1  0.68277663  0.84717194  0.15275006  1
  Li  Li4  1  0.68639664  0.31187258  0.84461103  1
  V  V5  1  0.05555162  0.64639480  0.65131966  1
  V  V6  1  0.45215849  0.84449553  0.85047347  1
  V  V7  1  0.94772356  0.34851779  0.34701303  1
  Bi  Bi8  1  0.01811402  0.99351224  0.00655344  1
  Bi  Bi9  1  0.49863236  0.48324534  0.49838217  1
  P  P10  1  0.25516418  0.25277230  0.54568302  1
  P  P11  1  0.25670634  0.94609569  0.25160891  1
  P  P12  1  0.25612694  0.54359290  0.94556759  1
  P  P13  1  0.75755788  0.45635216  0.03965845  1
  P  P14  1  0.77414284  0.03206914  0.74471293  1
  P  P15  1  0.74247421  0.74501765  0.46338430  1
  O  O16  1  0.08333879  0.09707737  0.29783495  1
  O  O17  1  0.08873959  0.50400535  0.09694679  1
  O  O18  1  0.09676762  0.30696629  0.49091672  1
  O  O19  1  0.24727567  0.07544501  0.72376816  1
  O  O20  1  0.24210401  0.40507650  0.59762930  1
  O  O21  1  0.44139288  0.21463510  0.40141775  1
  O  O22  1  0.26247783  0.91943883  0.08886557  1
  O  O23  1  0.25409107  0.75468362  0.41775407  1
  O  O24  1  0.25932151  0.58423790  0.74826109  1
  O  O25  1  0.58112236  0.60624651  0.02229459  1
  O  O26  1  0.77477080  0.27646445  0.02914955  1
  O  O27  1  0.60948559  0.99634982  0.77793180  1
  O  O28  1  0.43055262  0.97223033  0.21481167  1
  O  O29  1  0.24531041  0.73887097  0.91790911  1
  O  O30  1  0.43564074  0.39743180  0.96459474  1
  O  O31  1  0.75063030  0.39057999  0.24308093  1
  O  O32  1  0.75526258  0.23929001  0.61319076  1
  O  O33  1  0.77801215  0.02821202  0.92088288  1
  O  O34  1  0.55434393  0.78792248  0.60516852  1
  O  O35  1  0.74521015  0.61047990  0.39498936  1
  O  O36  1  0.76732758  0.91869510  0.28642447  1
  O  O37  1  0.89744612  0.67201182  0.53549200  1
  O  O38  1  0.92658500  0.51028755  0.89784499  1
  O  O39  1  0.95565058  0.89639775  0.67307013  1
