# generated using pymatgen
data_Li9Mn2Co5O16
_symmetry_space_group_name_H-M   'P 1'
_cell_length_a   5.16784900
_cell_length_b   5.88680131
_cell_length_c   10.06755500
_cell_angle_alpha   88.56202614
_cell_angle_beta   100.23375805
_cell_angle_gamma   108.03866092
_symmetry_Int_Tables_number   1
_chemical_formula_structural   Li9Mn2Co5O16
_chemical_formula_sum   'Li9 Mn2 Co5 O16'
_cell_volume   286.44244331
_cell_formula_units_Z   1
loop_
 _symmetry_equiv_pos_site_id
 _symmetry_equiv_pos_as_xyz
  1  'x, y, z'
loop_
 _atom_site_type_symbol
 _atom_site_label
 _atom_site_symmetry_multiplicity
 _atom_site_fract_x
 _atom_site_fract_y
 _atom_site_fract_z
 _atom_site_occupancy
  Li  Li0  1  0.50126700  0.86729600  0.12542400  1
  Li  Li1  1  0.49791800  0.12238100  0.37899100  1
  Li  Li2  1  0.49815300  0.37575100  0.62759200  1
  Li  Li3  1  0.49287500  0.61272200  0.86576100  1
  Li  Li4  1  0.50133800  0.38119600  0.12100700  1
  Li  Li5  1  0.49638900  0.63037500  0.38172800  1
  Li  Li6  1  0.50845800  0.88060700  0.63074800  1
  Li  Li7  1  0.50233900  0.13354900  0.86712300  1
  Li  Li8  1  0.00172200  0.25298700  0.75109100  1
  Mn  Mn9  1  0.00176200  0.00199300  0.99666200  1
  Mn  Mn10  1  0.00170500  0.25040500  0.24959900  1
  Co  Co11  1  0.99537700  0.49151300  0.50893100  1
  Co  Co12  1  0.99930400  0.74762400  0.74966700  1
  Co  Co13  1  0.00689300  0.49700900  0.99759900  1
  Co  Co14  1  0.99453800  0.74877900  0.24917500  1
  Co  Co15  1  0.00050700  0.00318100  0.50758700  1
  O  O16  1  0.77942100  0.70718200  0.07261300  1
  O  O17  1  0.76913500  0.96043000  0.31433800  1
  O  O18  1  0.76217100  0.19776400  0.55520400  1
  O  O19  1  0.77941200  0.45807100  0.82746300  1
  O  O20  1  0.78819300  0.18832100  0.06336700  1
  O  O21  1  0.78121900  0.43376300  0.30038300  1
  O  O22  1  0.75994300  0.68683600  0.56359900  1
  O  O23  1  0.76998700  0.93625900  0.82706000  1
  O  O24  1  0.21457700  0.05963700  0.18790400  1
  O  O25  1  0.22996400  0.30938800  0.42464100  1
  O  O26  1  0.23602300  0.57544100  0.68467100  1
  O  O27  1  0.22182200  0.81458000  0.94650300  1
  O  O28  1  0.22708700  0.54057800  0.17832900  1
  O  O29  1  0.20873100  0.79517800  0.42485900  1
  O  O30  1  0.23190200  0.04879900  0.67691900  1
  O  O31  1  0.23986700  0.29040500  0.94346300  1
