# generated using pymatgen
data_Li4MnCo2O7
_symmetry_space_group_name_H-M   'P 1'
_cell_length_a   3.02403400
_cell_length_b   6.00469603
_cell_length_c   14.23537337
_cell_angle_alpha   82.76293176
_cell_angle_beta   84.30289905
_cell_angle_gamma   84.87111860
_symmetry_Int_Tables_number   1
_chemical_formula_structural   Li4MnCo2O7
_chemical_formula_sum   'Li8 Mn2 Co4 O14'
_cell_volume   254.39048666
_cell_formula_units_Z   2
loop_
 _symmetry_equiv_pos_site_id
 _symmetry_equiv_pos_as_xyz
  1  'x, y, z'
loop_
 _atom_site_type_symbol
 _atom_site_label
 _atom_site_symmetry_multiplicity
 _atom_site_fract_x
 _atom_site_fract_y
 _atom_site_fract_z
 _atom_site_occupancy
  Li  Li0  1  0.00023100  0.50034800  0.99965300  1
  Li  Li1  1  0.57130000  0.78576100  0.85748400  1
  Li  Li2  1  0.14461200  0.07153800  0.71338000  1
  Li  Li3  1  0.42610800  0.21557500  0.14498000  1
  Li  Li4  1  0.85429900  0.93362300  0.28737900  1
  Li  Li5  1  0.28468500  0.64247700  0.42895200  1
  Li  Li6  1  0.71914300  0.35143300  0.56766700  1
  Li  Li7  1  0.28574100  0.14378200  0.42813000  1
  Mn  Mn8  1  0.99995500  0.99868400  0.00089400  1
  Mn  Mn9  1  0.14440800  0.57202200  0.71254300  1
  Co  Co10  1  0.57111600  0.28608900  0.85712600  1
  Co  Co11  1  0.72249400  0.87153900  0.56491300  1
  Co  Co12  1  0.85181600  0.41685400  0.29138700  1
  Co  Co13  1  0.42723600  0.71176300  0.14529000  1
  O  O14  1  0.47236400  0.75241000  0.00781300  1
  O  O15  1  0.04442500  0.04664400  0.86151100  1
  O  O16  1  0.61813200  0.32748500  0.72066900  1
  O  O17  1  0.89856500  0.47530600  0.15451800  1
  O  O18  1  0.33570000  0.19872200  0.28549700  1
  O  O19  1  0.77446000  0.88616200  0.44184000  1
  O  O20  1  0.18924300  0.61823500  0.57493100  1
  O  O21  1  0.52683200  0.24484600  0.99412200  1
  O  O22  1  0.09909100  0.52616200  0.85190900  1
  O  O23  1  0.67005200  0.81632900  0.70295900  1
  O  O24  1  0.95304600  0.95065400  0.13965900  1
  O  O25  1  0.38418300  0.66559500  0.27943700  1
  O  O26  1  0.79574100  0.40133300  0.41443300  1
  O  O27  1  0.23502400  0.08862900  0.57092400  1
