# generated using pymatgen
data_LiCoPO4
_symmetry_space_group_name_H-M   'P 1'
_cell_length_a   4.28796175
_cell_length_b   14.69950615
_cell_length_c   4.82220062
_cell_angle_alpha   89.98734493
_cell_angle_beta   89.94081916
_cell_angle_gamma   90.01971678
_symmetry_Int_Tables_number   1
_chemical_formula_structural   LiCoPO4
_chemical_formula_sum   'Li4 Co4 P4 O16'
_cell_volume   303.94755491
_cell_formula_units_Z   4
loop_
 _symmetry_equiv_pos_site_id
 _symmetry_equiv_pos_as_xyz
  1  'x, y, z'
loop_
 _atom_site_type_symbol
 _atom_site_label
 _atom_site_symmetry_multiplicity
 _atom_site_fract_x
 _atom_site_fract_y
 _atom_site_fract_z
 _atom_site_occupancy
  Li  Li0  1  0.99442600  0.25074400  0.73444400  1
  Li  Li1  1  0.99199000  0.74933300  0.23687100  1
  Li  Li2  1  0.50724600  0.24870500  0.23428400  1
  Li  Li3  1  0.50527000  0.75132100  0.73671800  1
  Co  Co4  1  0.54316200  0.56049200  0.29280300  1
  Co  Co5  1  0.54287000  0.43952800  0.79134000  1
  Co  Co6  1  0.95873200  0.06031900  0.29042200  1
  Co  Co7  1  0.95841300  0.93946400  0.79081300  1
  P  P8  1  0.00572400  0.38685200  0.24617800  1
  P  P9  1  0.00437600  0.61327500  0.74795500  1
  P  P10  1  0.49550700  0.11269100  0.74599800  1
  P  P11  1  0.49422300  0.88718700  0.24751400  1
  O  O12  1  0.17378600  0.31616000  0.42704300  1
  O  O13  1  0.17209300  0.68377400  0.92982000  1
  O  O14  1  0.32726300  0.18329700  0.92742100  1
  O  O15  1  0.32533800  0.81683500  0.42944400  1
  O  O16  1  0.69254900  0.16040900  0.51095700  1
  O  O17  1  0.69108400  0.83936400  0.01261300  1
  O  O18  1  0.80916600  0.33924700  0.01101800  1
  O  O19  1  0.80691200  0.66109400  0.51384300  1
  O  O20  1  0.25559800  0.04803300  0.60612000  1
  O  O21  1  0.25500300  0.95187200  0.10666000  1
  O  O22  1  0.24539800  0.45178700  0.10653900  1
  O  O23  1  0.24389000  0.54875600  0.60667500  1
  O  O24  1  0.77014900  0.55766100  0.92999500  1
  O  O25  1  0.77074500  0.44192700  0.42877900  1
  O  O26  1  0.72983700  0.05755000  0.92847100  1
  O  O27  1  0.72925200  0.94232200  0.42925900  1
