# generated using pymatgen
data_Li5V3P8O29
_symmetry_space_group_name_H-M   'P 1'
_cell_length_a   9.76091600
_cell_length_b   9.81168100
_cell_length_c   14.11553086
_cell_angle_alpha   89.40319437
_cell_angle_beta   89.17738304
_cell_angle_gamma   60.21128438
_symmetry_Int_Tables_number   1
_chemical_formula_structural   Li5V3P8O29
_chemical_formula_sum   'Li10 V6 P16 O58'
_cell_volume   1173.09901481
_cell_formula_units_Z   2
loop_
 _symmetry_equiv_pos_site_id
 _symmetry_equiv_pos_as_xyz
  1  'x, y, z'
loop_
 _atom_site_type_symbol
 _atom_site_label
 _atom_site_symmetry_multiplicity
 _atom_site_fract_x
 _atom_site_fract_y
 _atom_site_fract_z
 _atom_site_occupancy
  Li  Li0  1  0.32465300  0.90593500  0.43444100  1
  Li  Li1  1  0.67425900  0.67686700  0.10988300  1
  Li  Li2  1  0.32089000  0.76713300  0.93789700  1
  Li  Li3  1  0.91359800  0.31003400  0.94139400  1
  Li  Li4  1  0.22816700  0.68120400  0.55653100  1
  Li  Li5  1  0.76631600  0.32378200  0.43826600  1
  Li  Li6  1  0.66833100  0.23038100  0.05931100  1
  Li  Li7  1  0.69068700  0.08526200  0.56564500  1
  Li  Li8  1  0.09099600  0.22553500  0.55329200  1
  Li  Li9  1  0.01060900  0.94294400  0.01290900  1
  V  V10  1  0.43292100  0.56976500  0.74854800  1
  V  V11  1  0.56738400  0.42974200  0.24945200  1
  V  V12  1  0.00449100  0.57196900  0.24869500  1
  V  V13  1  0.00077400  0.43898900  0.75624800  1
  V  V14  1  0.56971500  0.99567000  0.75537500  1
  V  V15  1  0.42978200  0.00613000  0.24857500  1
  P  P16  1  0.78269100  0.91473400  0.16413000  1
  P  P17  1  0.91583400  0.77073000  0.65978700  1
  P  P18  1  0.32095000  0.91584600  0.65435800  1
  P  P19  1  0.66647200  0.66428200  0.87220100  1
  P  P20  1  0.66824900  0.66284700  0.36905300  1
  P  P21  1  0.32041900  0.77475300  0.15635400  1
  P  P22  1  0.22928700  0.68282100  0.33788100  1
  P  P23  1  0.91139900  0.31839000  0.15498600  1
  P  P24  1  0.08144600  0.69527600  0.84496400  1
  P  P25  1  0.77234600  0.32374500  0.66003400  1
  P  P26  1  0.68026500  0.23094500  0.84051100  1
  P  P27  1  0.33410900  0.33364000  0.63347000  1
  P  P28  1  0.33208300  0.33327400  0.12782400  1
  P  P29  1  0.68054200  0.08572600  0.34747000  1
  P  P30  1  0.08258400  0.23301900  0.33826500  1
  P  P31  1  0.21975800  0.08226400  0.83838100  1
  O  O32  1  0.74463700  0.01360800  0.44085000  1
  O  O33  1  0.74876100  0.91505500  0.66120500  1
  O  O34  1  0.00416800  0.78626500  0.93132200  1
  O  O35  1  0.92377800  0.74311300  0.16367000  1
  O  O36  1  0.62965500  0.90490700  0.16618100  1
  O  O37  1  0.67963100  0.80268800  0.82950200  1
  O  O38  1  0.48029000  0.90399000  0.67755500  1
  O  O39  1  0.19601000  0.99127100  0.91605000  1
  O  O40  1  0.34854300  0.91603200  0.16590900  1
  O  O41  1  0.81446800  0.66220100  0.31703800  1
  O  O42  1  0.90651000  0.61812000  0.68243400  1
  O  O43  1  0.51590800  0.81285600  0.33341000  1
  O  O44  1  0.67426900  0.65138400  0.97844300  1
  O  O45  1  0.68114500  0.65216400  0.47414100  1
  O  O46  1  0.51087300  0.67448300  0.83613200  1
  O  O47  1  0.89950500  0.48069800  0.16686900  1
  O  O48  1  0.81365400  0.50638800  0.83110400  1
  O  O49  1  0.33631700  0.75079100  0.65778600  1
  O  O50  1  0.21020200  0.79142900  0.24741200  1
  O  O51  1  0.24019100  0.75881200  0.42694200  1
  O  O52  1  0.23343500  0.78555200  0.06775100  1
  O  O53  1  0.48215200  0.62464600  0.16789100  1
  O  O54  1  0.67158500  0.51001600  0.32982500  1
  O  O55  1  0.25563800  0.65875800  0.83556000  1
  O  O56  1  0.62267800  0.48462300  0.67803200  1
  O  O57  1  0.92235200  0.34021500  0.66099000  1
  O  O58  1  0.99887600  0.79459200  0.75142400  1
  O  O59  1  0.01029900  0.75607900  0.57356400  1
  O  O60  1  0.99399500  0.24224300  0.42834000  1
  O  O61  1  0.08174800  0.66283900  0.33523300  1
  O  O62  1  0.37876200  0.52217600  0.32022600  1
  O  O63  1  0.74011000  0.34256200  0.16005000  1
  O  O64  1  0.33079600  0.48825300  0.66615600  1
  O  O65  1  0.52406400  0.38292500  0.82673800  1
  O  O66  1  0.76565400  0.22672000  0.92959700  1
  O  O67  1  0.76130900  0.24687900  0.57113300  1
  O  O68  1  0.79276800  0.21274400  0.74996800  1
  O  O69  1  0.66409700  0.25174400  0.33792700  1
  O  O70  1  0.18487800  0.48391700  0.17649600  1
  O  O71  1  0.07831800  0.53764300  0.83300700  1
  O  O72  1  0.48614300  0.32740200  0.16505900  1
  O  O73  1  0.32396800  0.34283200  0.02296200  1
  O  O74  1  0.31015900  0.33393400  0.52928100  1
  O  O75  1  0.48526900  0.18652400  0.67021900  1
  O  O76  1  0.09087700  0.38368300  0.31989500  1
  O  O77  1  0.18574400  0.33596900  0.68652000  1
  O  O78  1  0.65639300  0.08705200  0.83366200  1
  O  O79  1  0.80013300  0.98488400  0.26318800  1
  O  O80  1  0.80131600  0.00795300  0.08524800  1
  O  O81  1  0.52224400  0.09485300  0.32230100  1
  O  O82  1  0.32264800  0.19418500  0.17452500  1
  O  O83  1  0.37704700  0.08017500  0.83352300  1
  O  O84  1  0.07815700  0.25615000  0.83869200  1
  O  O85  1  0.99000500  0.23128900  0.06662200  1
  O  O86  1  0.99448900  0.21352900  0.24805400  1
  O  O87  1  0.24772800  0.08446300  0.33888200  1
  O  O88  1  0.25178500  0.99897800  0.56219100  1
  O  O89  1  0.19855900  0.01599400  0.73734600  1
