# generated using pymatgen
data_Li3MnV(PO4)3
_symmetry_space_group_name_H-M   'P 1'
_cell_length_a   9.82383387
_cell_length_b   9.82383387
_cell_length_c   9.88636440
_cell_angle_alpha   86.55209001
_cell_angle_beta   86.55209001
_cell_angle_gamma   88.17437593
_symmetry_Int_Tables_number   1
_chemical_formula_structural   Li3MnV(PO4)3
_chemical_formula_sum   'Li12 Mn4 V4 P12 O48'
_cell_volume   950.27750920
_cell_formula_units_Z   4
loop_
 _symmetry_equiv_pos_site_id
 _symmetry_equiv_pos_as_xyz
  1  'x, y, z'
loop_
 _atom_site_type_symbol
 _atom_site_label
 _atom_site_symmetry_multiplicity
 _atom_site_fract_x
 _atom_site_fract_y
 _atom_site_fract_z
 _atom_site_occupancy
  Li  Li0  1  0.95570000  0.51909300  0.74785700  1
  Li  Li1  1  0.26465200  0.35943900  0.70007000  1
  Li  Li2  1  0.93479000  0.77278000  0.61345900  1
  Li  Li3  1  0.45124800  0.84938600  0.52284300  1
  Li  Li4  1  0.15061400  0.54875200  0.47715700  1
  Li  Li5  1  0.22722000  0.06521000  0.38654100  1
  Li  Li6  1  0.64056100  0.73534800  0.29993000  1
  Li  Li7  1  0.48090700  0.04430000  0.25214300  1
  Li  Li8  1  0.76799200  0.95240800  0.10512100  1
  Li  Li9  1  0.52642800  0.16786500  0.97900200  1
  Li  Li10  1  0.83213500  0.47357200  0.02099800  1
  Li  Li11  1  0.04759200  0.23200800  0.89487900  1
  Mn  Mn12  1  0.03270800  0.75927600  0.22121100  1
  Mn  Mn13  1  0.46849800  0.53150200  0.00000000  1
  Mn  Mn14  1  0.25531600  0.74468400  0.00000000  1
  Mn  Mn15  1  0.24072400  0.96729200  0.77878900  1
  V  V16  1  0.74219000  0.02330200  0.72015500  1
  V  V17  1  0.75069300  0.24930700  0.50000000  1
  V  V18  1  0.53459700  0.46540300  0.50000000  1
  V  V19  1  0.97669800  0.25781000  0.27984500  1
  P  P20  1  0.32942600  0.64450600  0.69777300  1
  P  P21  1  0.04656200  0.16755800  0.60256700  1
  P  P22  1  0.44672100  0.14431500  0.57734200  1
  P  P23  1  0.85568500  0.55327900  0.42265800  1
  P  P24  1  0.83244200  0.95343800  0.39743300  1
  P  P25  1  0.35549400  0.67057400  0.30222700  1
  P  P26  1  0.65583800  0.32388200  0.20193200  1
  P  P27  1  0.17548200  0.04935100  0.10422100  1
  P  P28  1  0.15656200  0.45167100  0.07267700  1
  P  P29  1  0.54832900  0.84343800  0.92732300  1
  P  P30  1  0.95064900  0.82451800  0.89577900  1
  P  P31  1  0.67611800  0.34416200  0.79806800  1
  O  O32  1  0.37967300  0.09333000  0.71733100  1
  O  O33  1  0.09396500  0.27472200  0.69434400  1
  O  O34  1  0.67227800  0.37783900  0.63708300  1
  O  O35  1  0.88551800  0.16441500  0.62804700  1
  O  O36  1  0.30792000  0.79875000  0.66026700  1
  O  O37  1  0.10928300  0.02427500  0.63675200  1
  O  O38  1  0.21648100  0.55375200  0.65516800  1
  O  O39  1  0.46945300  0.60205200  0.62913500  1
  O  O40  1  0.60667100  0.11857500  0.58121000  1
  O  O41  1  0.41121400  0.29931700  0.56435900  1
  O  O42  1  0.80084400  0.91690800  0.55175800  1
  O  O43  1  0.94018800  0.59669700  0.53770900  1
  O  O44  1  0.88142500  0.39332900  0.41879000  1
  O  O45  1  0.40330300  0.05981200  0.46229100  1
  O  O46  1  0.08309200  0.19915600  0.44824200  1
  O  O47  1  0.70068300  0.58878600  0.43564100  1
  O  O48  1  0.83558500  0.11448200  0.37195300  1
  O  O49  1  0.62216100  0.32772200  0.36291700  1
  O  O50  1  0.97572500  0.89071700  0.36324800  1
  O  O51  1  0.39794800  0.53054700  0.37086500  1
  O  O52  1  0.44624800  0.78351900  0.34483200  1
  O  O53  1  0.72527800  0.90603500  0.30565600  1
  O  O54  1  0.20125000  0.69208000  0.33973300  1
  O  O55  1  0.90667000  0.62032700  0.28266900  1
  O  O56  1  0.11081500  0.39397500  0.21682300  1
  O  O57  1  0.81458400  0.31806300  0.17300200  1
  O  O58  1  0.58819000  0.19830200  0.15661400  1
  O  O59  1  0.29240100  0.08395200  0.18952300  1
  O  O60  1  0.61189700  0.46138000  0.13324000  1
  O  O61  1  0.03746600  0.11636400  0.15201200  1
  O  O62  1  0.37989600  0.66481900  0.14346300  1
  O  O63  1  0.16079800  0.88682900  0.12810200  1
  O  O64  1  0.91221200  0.80563100  0.05016100  1
  O  O65  1  0.31094100  0.41575300  0.04715800  1
  O  O66  1  0.59452900  0.93401800  0.03537900  1
  O  O67  1  0.12895000  0.61376100  0.07554500  1
  O  O68  1  0.06598200  0.40547100  0.96462100  1
  O  O69  1  0.58424700  0.68905900  0.95284200  1
  O  O70  1  0.19436900  0.08778800  0.94983900  1
  O  O71  1  0.38623900  0.87105000  0.92445500  1
  O  O72  1  0.53862000  0.38810300  0.86676000  1
  O  O73  1  0.80169800  0.41181000  0.84338600  1
  O  O74  1  0.88363600  0.96253400  0.84798800  1
  O  O75  1  0.68193700  0.18541600  0.82699800  1
  O  O76  1  0.11317100  0.83920300  0.87189800  1
  O  O77  1  0.91604800  0.70759900  0.81047700  1
  O  O78  1  0.33518100  0.62010400  0.85653700  1
  O  O79  1  0.60602500  0.88918500  0.78317700  1
