# generated using pymatgen
data_Li2SiNiO4
_symmetry_space_group_name_H-M   'P 1'
_cell_length_a   5.29458388
_cell_length_b   12.56855192
_cell_length_c   5.29249493
_cell_angle_alpha   88.77574157
_cell_angle_beta   92.67128998
_cell_angle_gamma   91.26695244
_symmetry_Int_Tables_number   1
_chemical_formula_structural   Li2SiNiO4
_chemical_formula_sum   'Li8 Si4 Ni4 O16'
_cell_volume   351.64877387
_cell_formula_units_Z   4
loop_
 _symmetry_equiv_pos_site_id
 _symmetry_equiv_pos_as_xyz
  1  'x, y, z'
loop_
 _atom_site_type_symbol
 _atom_site_label
 _atom_site_symmetry_multiplicity
 _atom_site_fract_x
 _atom_site_fract_y
 _atom_site_fract_z
 _atom_site_occupancy
  Li  Li0  1  0.18245500  0.37523900  0.17827400  1
  Li  Li1  1  0.17862900  0.87497000  0.18243400  1
  Li  Li2  1  0.81629400  0.12490600  0.81631500  1
  Li  Li3  1  0.81825400  0.62490900  0.81734900  1
  Li  Li4  1  0.68904700  0.24592800  0.31151300  1
  Li  Li5  1  0.68780500  0.74517700  0.31598400  1
  Li  Li6  1  0.31630700  0.50482200  0.68740200  1
  Li  Li7  1  0.31189800  0.00405200  0.68880200  1
  Si  Si8  1  0.17632400  0.12504100  0.17603500  1
  Si  Si9  1  0.17743500  0.62508500  0.17717200  1
  Si  Si10  1  0.82547100  0.37510200  0.82081400  1
  Si  Si11  1  0.82140900  0.87474100  0.82521800  1
  Ni  Ni12  1  0.67752300  0.49475000  0.31688300  1
  Ni  Ni13  1  0.31791800  0.75536500  0.67743900  1
  Ni  Ni14  1  0.67475200  0.99533000  0.32018500  1
  Ni  Ni15  1  0.32017000  0.25465400  0.67441100  1
  O  O16  1  0.79585100  0.37312100  0.13040300  1
  O  O17  1  0.79206200  0.87298800  0.13486300  1
  O  O18  1  0.86673100  0.12205200  0.20971100  1
  O  O19  1  0.86781300  0.62208100  0.21038700  1
  O  O20  1  0.13491300  0.37699900  0.79137100  1
  O  O21  1  0.13081500  0.87685700  0.79534000  1
  O  O22  1  0.20982700  0.12788700  0.86627100  1
  O  O23  1  0.21089300  0.62796500  0.86746600  1
  O  O24  1  0.30308200  0.01733400  0.30754500  1
  O  O25  1  0.30579500  0.51729000  0.30638500  1
  O  O26  1  0.30766800  0.23289200  0.30250700  1
  O  O27  1  0.30658800  0.73301700  0.30551900  1
  O  O28  1  0.69682800  0.48353200  0.69422200  1
  O  O29  1  0.69236000  0.98298000  0.69752800  1
  O  O30  1  0.69760300  0.26673700  0.69213300  1
  O  O31  1  0.69507500  0.76620400  0.69652400  1
