# generated using pymatgen
data_Li2GaHg
_symmetry_space_group_name_H-M   'P 1'
_cell_length_a   10.96601373
_cell_length_b   10.96601373
_cell_length_c   10.96601373
_cell_angle_alpha   120.27603990
_cell_angle_beta   118.90366478
_cell_angle_gamma   90.71593502
_symmetry_Int_Tables_number   1
_chemical_formula_structural   Li2GaHg
_chemical_formula_sum   'Li2 Ga1 Hg1'
_cell_volume   937.99820531
_cell_formula_units_Z   1
loop_
 _symmetry_equiv_pos_site_id
 _symmetry_equiv_pos_as_xyz
  1  'x, y, z'
loop_
 _atom_site_type_symbol
 _atom_site_label
 _atom_site_symmetry_multiplicity
 _atom_site_fract_x
 _atom_site_fract_y
 _atom_site_fract_z
 _atom_site_occupancy
  Li  Li0  1  0.24416500  0.00000000  0.24416500  1
  Li  Li1  1  0.75583500  0.00000000  0.75583500  1
  Ga  Ga2  1  0.00000000  0.00000000  0.00000000  1
  Hg  Hg3  1  0.50000000  0.00000000  0.50000000  1
