# generated using pymatgen
data_Li3CuN2
_symmetry_space_group_name_H-M   'P 1'
_cell_length_a   5.99388135
_cell_length_b   7.33669875
_cell_length_c   6.60545326
_cell_angle_alpha   90.00000000
_cell_angle_beta   123.46216385
_cell_angle_gamma   90.00000000
_symmetry_Int_Tables_number   1
_chemical_formula_structural   Li3CuN2
_chemical_formula_sum   'Li12 Cu4 N8'
_cell_volume   242.33030573
_cell_formula_units_Z   4
loop_
 _symmetry_equiv_pos_site_id
 _symmetry_equiv_pos_as_xyz
  1  'x, y, z'
loop_
 _atom_site_type_symbol
 _atom_site_label
 _atom_site_symmetry_multiplicity
 _atom_site_fract_x
 _atom_site_fract_y
 _atom_site_fract_z
 _atom_site_occupancy
  Li  Li0  1  0.25806991  0.99776610  0.91241545  1
  Li  Li1  1  0.74193009  0.49776610  0.58758455  1
  Li  Li2  1  0.74193009  0.00223390  0.08758455  1
  Li  Li3  1  0.25806991  0.50223390  0.41241545  1
  Li  Li4  1  0.25801402  0.50226405  0.84544493  1
  Li  Li5  1  0.74198598  0.00226405  0.65455507  1
  Li  Li6  1  0.74198598  0.49773595  0.15455507  1
  Li  Li7  1  0.25801402  0.99773595  0.34544493  1
  Li  Li8  1  0.65781349  0.28062597  0.82912005  1
  Li  Li9  1  0.34218651  0.78062597  0.67087995  1
  Li  Li10  1  0.34218651  0.71937403  0.17087995  1
  Li  Li11  1  0.65781349  0.21937403  0.32912005  1
  Cu  Cu12  1  0.14613164  0.19679454  0.57294808  1
  Cu  Cu13  1  0.85386836  0.69679454  0.92705192  1
  Cu  Cu14  1  0.85386836  0.80320546  0.42705192  1
  Cu  Cu15  1  0.14613164  0.30320546  0.07294808  1
  N  N16  1  0.45066839  0.04578076  0.72530603  1
  N  N17  1  0.54933161  0.54578076  0.77469397  1
  N  N18  1  0.54933161  0.95421924  0.27469397  1
  N  N19  1  0.45066839  0.45421924  0.22530603  1
  N  N20  1  0.99281939  0.25001322  0.74624682  1
  N  N21  1  0.00718061  0.75001322  0.75375318  1
  N  N22  1  0.00718061  0.74998678  0.25375318  1
  N  N23  1  0.99281939  0.24998678  0.24624682  1
