# generated using pymatgen
data_Li7Mn5O12
_symmetry_space_group_name_H-M   'P 1'
_cell_length_a   5.06455660
_cell_length_b   9.92287311
_cell_length_c   9.03231934
_cell_angle_alpha   86.69466932
_cell_angle_beta   87.25336284
_cell_angle_gamma   78.81093639
_symmetry_Int_Tables_number   1
_chemical_formula_structural   Li7Mn5O12
_chemical_formula_sum   'Li14 Mn10 O24'
_cell_volume   444.23725239
_cell_formula_units_Z   2
loop_
 _symmetry_equiv_pos_site_id
 _symmetry_equiv_pos_as_xyz
  1  'x, y, z'
loop_
 _atom_site_type_symbol
 _atom_site_label
 _atom_site_symmetry_multiplicity
 _atom_site_fract_x
 _atom_site_fract_y
 _atom_site_fract_z
 _atom_site_occupancy
  Li  Li0  1  0.74980800  0.25008500  0.16656900  1
  Li  Li1  1  0.25018800  0.74993000  0.16674200  1
  Li  Li2  1  0.25016600  0.24987400  0.66659900  1
  Li  Li3  1  0.74982500  0.75011500  0.66672700  1
  Li  Li4  1  0.49999100  0.00000500  0.16665400  1
  Li  Li5  1  0.00000200  0.50000500  0.16664500  1
  Li  Li6  1  0.24497400  0.25201700  0.31807800  1
  Li  Li7  1  0.74480500  0.75170300  0.31826200  1
  Li  Li8  1  0.25518300  0.24831500  0.01505500  1
  Li  Li9  1  0.75502100  0.74799300  0.01523600  1
  Li  Li10  1  0.74144200  0.24554200  0.48920900  1
  Li  Li11  1  0.24131000  0.74570500  0.48902100  1
  Li  Li12  1  0.75866400  0.25430800  0.84430900  1
  Li  Li13  1  0.25856500  0.75444400  0.84410700  1
  Mn  Mn14  1  0.49994800  0.49992200  0.66662400  1
  Mn  Mn15  1  0.00006100  0.99993800  0.66656000  1
  Mn  Mn16  1  0.00497300  0.99992600  0.00607100  1
  Mn  Mn17  1  0.50536100  0.49953700  0.00543700  1
  Mn  Mn18  1  0.49464700  0.50046200  0.32784000  1
  Mn  Mn19  1  0.99499700  0.00008500  0.32726900  1
  Mn  Mn20  1  0.49750400  0.00038000  0.49636900  1
  Mn  Mn21  1  0.99691300  0.49983200  0.49668200  1
  Mn  Mn22  1  0.50249100  0.99962800  0.83701700  1
  Mn  Mn23  1  0.00316700  0.50018400  0.83664500  1
  O  O24  1  0.63299000  0.10622500  0.97571600  1
  O  O25  1  0.13292700  0.60647000  0.97542800  1
  O  O26  1  0.86706000  0.39354200  0.35794200  1
  O  O27  1  0.36697300  0.89380000  0.35766600  1
  O  O28  1  0.10462900  0.12333200  0.17821700  1
  O  O29  1  0.60437500  0.62311700  0.17853800  1
  O  O30  1  0.39561700  0.37688900  0.15479600  1
  O  O31  1  0.89534000  0.87667600  0.15512500  1
  O  O32  1  0.62619500  0.11514700  0.34660100  1
  O  O33  1  0.12582100  0.61482300  0.34718600  1
  O  O34  1  0.87416900  0.38518400  0.98617200  1
  O  O35  1  0.37375600  0.88485800  0.98678000  1
  O  O36  1  0.14158600  0.11596800  0.51625300  1
  O  O37  1  0.64208000  0.61634700  0.51606900  1
  O  O38  1  0.35800700  0.38368100  0.81723200  1
  O  O39  1  0.85841900  0.88403900  0.81713000  1
  O  O40  1  0.62426300  0.10690200  0.65870800  1
  O  O41  1  0.12505300  0.60733400  0.65974500  1
  O  O42  1  0.87503300  0.39264000  0.67358000  1
  O  O43  1  0.37571600  0.89310500  0.67467000  1
  O  O44  1  0.14708500  0.11353800  0.84386300  1
  O  O45  1  0.64743500  0.61380400  0.84412000  1
  O  O46  1  0.35256800  0.38618200  0.48922500  1
  O  O47  1  0.85289800  0.88646400  0.48951300  1
