# generated using pymatgen
data_Li4V3P8O29
_symmetry_space_group_name_H-M   'P 1'
_cell_length_a   9.79725800
_cell_length_b   9.80247840
_cell_length_c   14.03729192
_cell_angle_alpha   90.06224199
_cell_angle_beta   89.99938367
_cell_angle_gamma   119.93111259
_symmetry_Int_Tables_number   1
_chemical_formula_structural   Li4V3P8O29
_chemical_formula_sum   'Li8 V6 P16 O58'
_cell_volume   1168.30198328
_cell_formula_units_Z   2
loop_
 _symmetry_equiv_pos_site_id
 _symmetry_equiv_pos_as_xyz
  1  'x, y, z'
loop_
 _atom_site_type_symbol
 _atom_site_label
 _atom_site_symmetry_multiplicity
 _atom_site_fract_x
 _atom_site_fract_y
 _atom_site_fract_z
 _atom_site_occupancy
  Li  Li0  1  0.22809400  0.32513500  0.94080600  1
  Li  Li1  1  0.68496400  0.90760600  0.94133800  1
  Li  Li2  1  0.08833800  0.77163800  0.94020300  1
  Li  Li3  1  0.77367400  0.09186200  0.55889300  1
  Li  Li4  1  0.22621700  0.90676200  0.44165800  1
  Li  Li5  1  0.31959200  0.09301400  0.05823100  1
  Li  Li6  1  0.31749800  0.22873200  0.56073600  1
  Li  Li7  1  0.90304800  0.67802500  0.55756100  1
  V  V8  1  0.56924400  0.99840800  0.75084200  1
  V  V9  1  0.43779000  0.00000300  0.24997400  1
  V  V10  1  0.00149200  0.43219800  0.24918100  1
  V  V11  1  0.99815000  0.56348300  0.75112700  1
  V  V12  1  0.43468600  0.43516500  0.74807400  1
  V  V13  1  0.56914700  0.56765000  0.25087800  1
  P  P14  1  0.23095300  0.31838200  0.16013700  1
  P  P15  1  0.08430200  0.31507400  0.65714600  1
  P  P16  1  0.68444000  0.76849400  0.65727600  1
  P  P17  1  0.33197900  0.66603000  0.87278500  1
  P  P18  1  0.33263500  0.66601100  0.37022900  1
  P  P19  1  0.68415400  0.91048600  0.15894100  1
  P  P20  1  0.77366600  0.08958100  0.34117800  1
  P  P21  1  0.08875300  0.77010000  0.15723100  1
  P  P22  1  0.91585800  0.22975500  0.84327700  1
  P  P23  1  0.23121700  0.90977500  0.65885000  1
  P  P24  1  0.32058900  0.08872900  0.84034000  1
  P  P25  1  0.66799600  0.33226700  0.62741400  1
  P  P26  1  0.66667000  0.33373700  0.12976800  1
  P  P27  1  0.31855200  0.22993700  0.34285700  1
  P  P28  1  0.91249500  0.68154900  0.33967200  1
  P  P29  1  0.76804700  0.68252400  0.84284100  1
  O  O30  1  0.24495400  0.23489400  0.43390300  1
  O  O31  1  0.25166500  0.33688800  0.65880100  1
  O  O32  1  0.00838700  0.24385700  0.92999000  1
  O  O33  1  0.08695500  0.34218600  0.16468300  1
  O  O34  1  0.38325000  0.47729600  0.17710300  1
  O  O35  1  0.32462800  0.51312000  0.83362800  1
  O  O36  1  0.52194500  0.61802300  0.67522500  1
  O  O37  1  0.76784800  0.76934500  0.92943300  1
  O  O38  1  0.65693000  0.74169300  0.16786900  1
  O  O39  1  0.18347500  0.52076900  0.32452700  1
  O  O40  1  0.09395100  0.47696700  0.67863400  1
  O  O41  1  0.47843900  0.66339200  0.32616400  1
  O  O42  1  0.32376100  0.66948100  0.97899600  1
  O  O43  1  0.32818800  0.67056700  0.47564700  1
  O  O44  1  0.48561700  0.81305300  0.83345100  1
  O  O45  1  0.09547600  0.61807500  0.17704100  1
  O  O46  1  0.18187800  0.67063400  0.82902500  1
  O  O47  1  0.66185400  0.91502900  0.66090400  1
  O  O48  1  0.79270400  0.99986200  0.25007100  1
  O  O49  1  0.76095300  0.00915900  0.43229600  1
  O  O50  1  0.75179800  0.99093900  0.06787200  1
  O  O51  1  0.52270000  0.90331200  0.17962700  1
  O  O52  1  0.33227300  0.81884800  0.32904400  1
  O  O53  1  0.74841500  0.08475000  0.84198300  1
  O  O54  1  0.37873300  0.89819500  0.67583600  1
  O  O55  1  0.08084700  0.74396500  0.66098800  1
  O  O56  1  0.99981800  0.20884900  0.75005300  1
  O  O57  1  0.99235300  0.23690100  0.57028100  1
  O  O58  1  0.99975600  0.75863500  0.42956900  1
  O  O59  1  0.91537500  0.25808200  0.33207600  1
  O  O60  1  0.61941200  0.09678800  0.32040700  1
  O  O61  1  0.25779500  0.91751400  0.16296200  1
  O  O62  1  0.67616800  0.18748500  0.66692100  1
  O  O63  1  0.48041200  0.09810500  0.82244000  1
  O  O64  1  0.24342400  0.00078300  0.93046000  1
  O  O65  1  0.23714700  0.99685700  0.56916800  1
  O  O66  1  0.20954200  0.99939800  0.74990300  1
  O  O67  1  0.34057600  0.08261900  0.33725800  1
  O  O68  1  0.81494800  0.33635700  0.17398100  1
  O  O69  1  0.90522300  0.38210700  0.82303500  1
  O  O70  1  0.51333600  0.18109200  0.17086000  1
  O  O71  1  0.65805900  0.32918200  0.02434400  1
  O  O72  1  0.67554300  0.34227600  0.52116800  1
  O  O73  1  0.51444800  0.32672700  0.66663200  1
  O  O74  1  0.90600400  0.52262500  0.32274500  1
  O  O75  1  0.81743600  0.48684100  0.67140900  1
  O  O76  1  0.33771800  0.25422700  0.83909100  1
  O  O77  1  0.20977300  0.20788400  0.25072500  1
  O  O78  1  0.24104800  0.24139900  0.07011200  1
  O  O79  1  0.47726100  0.38185800  0.32308200  1
  O  O80  1  0.66236700  0.47895000  0.17544500  1
  O  O81  1  0.62098200  0.52188700  0.82489700  1
  O  O82  1  0.91746600  0.66209100  0.83764400  1
  O  O83  1  0.00990400  0.76519500  0.06633900  1
  O  O84  1  0.00177400  0.79217400  0.24924900  1
  O  O85  1  0.74472700  0.65777000  0.33519300  1
  O  O86  1  0.76672400  0.76120000  0.57035900  1
  O  O87  1  0.79009100  0.78994300  0.75000600  1
