# generated using pymatgen
data_Li7OsN4
_symmetry_space_group_name_H-M   'P 1'
_cell_length_a   9.78032584
_cell_length_b   9.78032584
_cell_length_c   9.78032584
_cell_angle_alpha   90.00000000
_cell_angle_beta   90.00000000
_cell_angle_gamma   90.00000000
_symmetry_Int_Tables_number   1
_chemical_formula_structural   Li7OsN4
_chemical_formula_sum   'Li56 Os8 N32'
_cell_volume   935.53485334
_cell_formula_units_Z   8
loop_
 _symmetry_equiv_pos_site_id
 _symmetry_equiv_pos_as_xyz
  1  'x, y, z'
loop_
 _atom_site_type_symbol
 _atom_site_label
 _atom_site_symmetry_multiplicity
 _atom_site_fract_x
 _atom_site_fract_y
 _atom_site_fract_z
 _atom_site_occupancy
  Li  Li0  1  0.36622205  0.63377795  0.13377795  1
  Li  Li1  1  0.63377795  0.13377795  0.36622205  1
  Li  Li2  1  0.13377795  0.36622205  0.63377795  1
  Li  Li3  1  0.86622205  0.86622205  0.86622205  1
  Li  Li4  1  0.63377795  0.36622205  0.86622205  1
  Li  Li5  1  0.36622205  0.86622205  0.63377795  1
  Li  Li6  1  0.86622205  0.63377795  0.36622205  1
  Li  Li7  1  0.13377795  0.13377795  0.13377795  1
  Li  Li8  1  0.36830101  0.62869823  0.38301746  1
  Li  Li9  1  0.63169899  0.12869823  0.11698254  1
  Li  Li10  1  0.13169899  0.37130177  0.88301746  1
  Li  Li11  1  0.86830101  0.87130177  0.61698254  1
  Li  Li12  1  0.38301746  0.36830101  0.62869823  1
  Li  Li13  1  0.11698254  0.63169899  0.12869823  1
  Li  Li14  1  0.88301746  0.13169899  0.37130177  1
  Li  Li15  1  0.61698254  0.86830101  0.87130177  1
  Li  Li16  1  0.62869823  0.38301746  0.36830101  1
  Li  Li17  1  0.12869823  0.11698254  0.63169899  1
  Li  Li18  1  0.37130177  0.88301746  0.13169899  1
  Li  Li19  1  0.87130177  0.61698254  0.86830101  1
  Li  Li20  1  0.63169899  0.37130177  0.61698254  1
  Li  Li21  1  0.36830101  0.87130177  0.88301746  1
  Li  Li22  1  0.86830101  0.62869823  0.11698254  1
  Li  Li23  1  0.13169899  0.12869823  0.38301746  1
  Li  Li24  1  0.61698254  0.63169899  0.37130177  1
  Li  Li25  1  0.88301746  0.36830101  0.87130177  1
  Li  Li26  1  0.11698254  0.86830101  0.62869823  1
  Li  Li27  1  0.38301746  0.13169899  0.12869823  1
  Li  Li28  1  0.37130177  0.61698254  0.63169899  1
  Li  Li29  1  0.87130177  0.88301746  0.36830101  1
  Li  Li30  1  0.62869823  0.11698254  0.86830101  1
  Li  Li31  1  0.12869823  0.38301746  0.13169899  1
  Li  Li32  1  0.39733453  0.86342174  0.38343619  1
  Li  Li33  1  0.60266547  0.36342174  0.11656381  1
  Li  Li34  1  0.10266547  0.13657826  0.88343619  1
  Li  Li35  1  0.89733453  0.63657826  0.61656381  1
  Li  Li36  1  0.38343619  0.39733453  0.86342174  1
  Li  Li37  1  0.11656381  0.60266547  0.36342174  1
  Li  Li38  1  0.88343619  0.10266547  0.13657826  1
  Li  Li39  1  0.61656381  0.89733453  0.63657826  1
  Li  Li40  1  0.86342174  0.38343619  0.39733453  1
  Li  Li41  1  0.36342174  0.11656381  0.60266547  1
  Li  Li42  1  0.13657826  0.88343619  0.10266547  1
  Li  Li43  1  0.63657826  0.61656381  0.89733453  1
  Li  Li44  1  0.60266547  0.13657826  0.61656381  1
  Li  Li45  1  0.39733453  0.63657826  0.88343619  1
  Li  Li46  1  0.89733453  0.86342174  0.11656381  1
  Li  Li47  1  0.10266547  0.36342174  0.38343619  1
  Li  Li48  1  0.61656381  0.60266547  0.13657826  1
  Li  Li49  1  0.88343619  0.39733453  0.63657826  1
  Li  Li50  1  0.11656381  0.89733453  0.86342174  1
  Li  Li51  1  0.38343619  0.10266547  0.36342174  1
  Li  Li52  1  0.13657826  0.61656381  0.60266547  1
  Li  Li53  1  0.63657826  0.88343619  0.39733453  1
  Li  Li54  1  0.86342174  0.11656381  0.89733453  1
  Li  Li55  1  0.36342174  0.38343619  0.10266547  1
  Os  Os56  1  0.13026738  0.86973262  0.36973262  1
  Os  Os57  1  0.86973262  0.36973262  0.13026738  1
  Os  Os58  1  0.36973262  0.13026738  0.86973262  1
  Os  Os59  1  0.63026738  0.63026738  0.63026738  1
  Os  Os60  1  0.86973262  0.13026738  0.63026738  1
  Os  Os61  1  0.13026738  0.63026738  0.86973262  1
  Os  Os62  1  0.63026738  0.86973262  0.13026738  1
  Os  Os63  1  0.36973262  0.36973262  0.36973262  1
  N  N64  1  0.24440928  0.75559072  0.25559072  1
  N  N65  1  0.75559072  0.25559072  0.24440928  1
  N  N66  1  0.25559072  0.24440928  0.75559072  1
  N  N67  1  0.74440928  0.74440928  0.74440928  1
  N  N68  1  0.75559072  0.24440928  0.74440928  1
  N  N69  1  0.24440928  0.74440928  0.75559072  1
  N  N70  1  0.74440928  0.75559072  0.24440928  1
  N  N71  1  0.25559072  0.25559072  0.25559072  1
  N  N72  1  0.01712990  0.99146919  0.25644966  1
  N  N73  1  0.98287010  0.49146919  0.24355034  1
  N  N74  1  0.48287010  0.00853081  0.75644966  1
  N  N75  1  0.51712990  0.50853081  0.74355034  1
  N  N76  1  0.25644966  0.01712990  0.99146919  1
  N  N77  1  0.24355034  0.98287010  0.49146919  1
  N  N78  1  0.75644966  0.48287010  0.00853081  1
  N  N79  1  0.74355034  0.51712990  0.50853081  1
  N  N80  1  0.99146919  0.25644966  0.01712990  1
  N  N81  1  0.49146919  0.24355034  0.98287010  1
  N  N82  1  0.00853081  0.75644966  0.48287010  1
  N  N83  1  0.50853081  0.74355034  0.51712990  1
  N  N84  1  0.98287010  0.00853081  0.74355034  1
  N  N85  1  0.01712990  0.50853081  0.75644966  1
  N  N86  1  0.51712990  0.99146919  0.24355034  1
  N  N87  1  0.48287010  0.49146919  0.25644966  1
  N  N88  1  0.74355034  0.98287010  0.00853081  1
  N  N89  1  0.75644966  0.01712990  0.50853081  1
  N  N90  1  0.24355034  0.51712990  0.99146919  1
  N  N91  1  0.25644966  0.48287010  0.49146919  1
  N  N92  1  0.00853081  0.74355034  0.98287010  1
  N  N93  1  0.50853081  0.75644966  0.01712990  1
  N  N94  1  0.99146919  0.24355034  0.51712990  1
  N  N95  1  0.49146919  0.25644966  0.48287010  1
