# generated using pymatgen
data_Li9Mn2Co5O16
_symmetry_space_group_name_H-M   'P 1'
_cell_length_a   5.05426100
_cell_length_b   5.11791932
_cell_length_c   11.71571351
_cell_angle_alpha   91.23742105
_cell_angle_beta   92.03461932
_cell_angle_gamma   108.86878463
_symmetry_Int_Tables_number   1
_chemical_formula_structural   Li9Mn2Co5O16
_chemical_formula_sum   'Li9 Mn2 Co5 O16'
_cell_volume   286.41211779
_cell_formula_units_Z   1
loop_
 _symmetry_equiv_pos_site_id
 _symmetry_equiv_pos_as_xyz
  1  'x, y, z'
loop_
 _atom_site_type_symbol
 _atom_site_label
 _atom_site_symmetry_multiplicity
 _atom_site_fract_x
 _atom_site_fract_y
 _atom_site_fract_z
 _atom_site_occupancy
  Li  Li0  1  0.00270300  0.50610000  0.13478900  1
  Li  Li1  1  0.49929100  0.49617900  0.25881100  1
  Li  Li2  1  0.99785800  0.49173700  0.37538400  1
  Li  Li3  1  0.50186800  0.50235600  0.49808800  1
  Li  Li4  1  0.00122200  0.49939700  0.62092000  1
  Li  Li5  1  0.50394600  0.50338700  0.74348400  1
  Li  Li6  1  0.99835600  0.50061300  0.86988800  1
  Li  Li7  1  0.49379700  0.49774500  0.00097300  1
  Li  Li8  1  0.00262600  0.00518600  0.25228100  1
  Mn  Mn9  1  0.99367800  0.99256900  0.00253700  1
  Mn  Mn10  1  0.50280000  0.00424000  0.12961400  1
  Co  Co11  1  0.50998500  0.00887800  0.37381900  1
  Co  Co12  1  0.00779400  0.00339700  0.49288200  1
  Co  Co13  1  0.50033500  0.00315100  0.62035500  1
  Co  Co14  1  0.99438200  0.99719900  0.74446900  1
  Co  Co15  1  0.49606100  0.99501000  0.87351200  1
  O  O16  1  0.23439500  0.76759700  0.00847300  1
  O  O17  1  0.75266400  0.78510300  0.11439200  1
  O  O18  1  0.29584600  0.78426400  0.24457600  1
  O  O19  1  0.74817800  0.77970400  0.38121400  1
  O  O20  1  0.25730200  0.76018100  0.50780600  1
  O  O21  1  0.76223500  0.76669300  0.62975100  1
  O  O22  1  0.26293400  0.76956900  0.75855000  1
  O  O23  1  0.74572100  0.77080800  0.87885200  1
  O  O24  1  0.73970100  0.24985300  0.23853400  1
  O  O25  1  0.26425600  0.22526800  0.37917000  1
  O  O26  1  0.74136300  0.23217200  0.49741900  1
  O  O27  1  0.23744800  0.22948800  0.62637900  1
  O  O28  1  0.73794100  0.23345800  0.74804200  1
  O  O29  1  0.22612500  0.20506900  0.88053100  1
  O  O30  1  0.73404400  0.20975700  0.99939200  1
  O  O31  1  0.25314500  0.22387000  0.11511200  1
