# generated using pymatgen
data_Li4Mn3SbO8
_symmetry_space_group_name_H-M   'P 1'
_cell_length_a   6.07952101
_cell_length_b   6.22198779
_cell_length_c   8.77179600
_cell_angle_alpha   89.88613116
_cell_angle_beta   91.52503838
_cell_angle_gamma   90.77266189
_symmetry_Int_Tables_number   1
_chemical_formula_structural   Li4Mn3SbO8
_chemical_formula_sum   'Li8 Mn6 Sb2 O16'
_cell_volume   331.66001422
_cell_formula_units_Z   2
loop_
 _symmetry_equiv_pos_site_id
 _symmetry_equiv_pos_as_xyz
  1  'x, y, z'
loop_
 _atom_site_type_symbol
 _atom_site_label
 _atom_site_symmetry_multiplicity
 _atom_site_fract_x
 _atom_site_fract_y
 _atom_site_fract_z
 _atom_site_occupancy
  Li  Li0  1  0.98821400  0.00034200  0.50479200  1
  Li  Li1  1  0.48983300  0.50056700  0.00448600  1
  Li  Li2  1  0.25180200  0.75217200  0.25063600  1
  Li  Li3  1  0.75118400  0.25166400  0.75041500  1
  Li  Li4  1  0.24569400  0.25390300  0.25115200  1
  Li  Li5  1  0.75059700  0.74756900  0.75056700  1
  Li  Li6  1  0.00127300  0.50003900  0.49893900  1
  Li  Li7  1  0.50231800  0.00052800  0.99552400  1
  Mn  Mn8  1  0.25111400  0.74979300  0.74868700  1
  Mn  Mn9  1  0.25107300  0.25033000  0.74922200  1
  Mn  Mn10  1  0.99605800  0.50026900  0.00136200  1
  Mn  Mn11  1  0.75039400  0.24933600  0.24868600  1
  Mn  Mn12  1  0.75243600  0.74955800  0.24942100  1
  Mn  Mn13  1  0.49571400  0.00017600  0.50131700  1
  Sb  Sb14  1  0.50181300  0.50012000  0.49930000  1
  Sb  Sb15  1  0.00213400  0.99982500  0.99931500  1
  O  O16  1  0.03315400  0.47244500  0.75473700  1
  O  O17  1  0.53506900  0.97126900  0.25560100  1
  O  O18  1  0.97018800  0.52571100  0.24698900  1
  O  O19  1  0.46882900  0.02727400  0.74707000  1
  O  O20  1  0.26129700  0.26867000  0.49412700  1
  O  O21  1  0.76174100  0.76823700  0.99395600  1
  O  O22  1  0.26708800  0.72643100  0.49810900  1
  O  O23  1  0.76718100  0.22624500  0.99810900  1
  O  O24  1  0.50163000  0.50777700  0.26511900  1
  O  O25  1  0.00103600  0.00780100  0.76488100  1
  O  O26  1  0.74015900  0.73290000  0.50575500  1
  O  O27  1  0.24001100  0.23336300  0.00504700  1
  O  O28  1  0.73376900  0.27071800  0.50049500  1
  O  O29  1  0.23432200  0.77085100  0.00002600  1
  O  O30  1  0.50107900  0.49223500  0.73319700  1
  O  O31  1  0.00178900  0.99188100  0.23295700  1
