# generated using pymatgen
data_Li9Mn2Co5O16
_symmetry_space_group_name_H-M   'P 1'
_cell_length_a   5.82836400
_cell_length_b   6.61889684
_cell_length_c   7.80486759
_cell_angle_alpha   86.24410053
_cell_angle_beta   79.42131380
_cell_angle_gamma   77.28227324
_symmetry_Int_Tables_number   1
_chemical_formula_structural   Li9Mn2Co5O16
_chemical_formula_sum   'Li9 Mn2 Co5 O16'
_cell_volume   288.61347759
_cell_formula_units_Z   1
loop_
 _symmetry_equiv_pos_site_id
 _symmetry_equiv_pos_as_xyz
  1  'x, y, z'
loop_
 _atom_site_type_symbol
 _atom_site_label
 _atom_site_symmetry_multiplicity
 _atom_site_fract_x
 _atom_site_fract_y
 _atom_site_fract_z
 _atom_site_occupancy
  Li  Li0  1  0.56320400  0.62336800  0.12726300  1
  Li  Li1  1  0.68881000  0.86710200  0.38458600  1
  Li  Li2  1  0.43679600  0.37663200  0.87273700  1
  Li  Li3  1  0.31119000  0.13289800  0.61541400  1
  Li  Li4  1  0.18474400  0.86352400  0.38472700  1
  Li  Li5  1  0.06289500  0.62036200  0.13544000  1
  Li  Li6  1  0.93710500  0.37963800  0.86456000  1
  Li  Li7  1  0.81525600  0.13647600  0.61527300  1
  Li  Li8  1  0.00000000  0.50000000  0.50000000  1
  Mn  Mn9  1  0.74987700  0.99923800  0.00103000  1
  Mn  Mn10  1  0.25012300  0.00076200  0.99897000  1
  Co  Co11  1  0.87437400  0.26412300  0.26034600  1
  Co  Co12  1  0.12562600  0.73587700  0.73965400  1
  Co  Co13  1  0.36522100  0.25779600  0.26202700  1
  Co  Co14  1  0.50000000  0.50000000  0.50000000  1
  Co  Co15  1  0.63477900  0.74220400  0.73797300  1
  O  O16  1  0.47327000  0.94556300  0.16347100  1
  O  O17  1  0.59517600  0.19480900  0.43396800  1
  O  O18  1  0.34144400  0.71525700  0.92566100  1
  O  O19  1  0.22059400  0.45158200  0.68959300  1
  O  O20  1  0.10476200  0.17888400  0.41851400  1
  O  O21  1  0.97326800  0.94601900  0.16484500  1
  O  O22  1  0.83856100  0.71045800  0.93211200  1
  O  O23  1  0.70254400  0.45070800  0.68473700  1
  O  O24  1  0.65855600  0.28474300  0.07433900  1
  O  O25  1  0.77940600  0.54841800  0.31040700  1
  O  O26  1  0.52673000  0.05443700  0.83652900  1
  O  O27  1  0.40482400  0.80519100  0.56603200  1
  O  O28  1  0.29745600  0.54929200  0.31526300  1
  O  O29  1  0.16143900  0.28954200  0.06788800  1
  O  O30  1  0.02673200  0.05398100  0.83515500  1
  O  O31  1  0.89523800  0.82111600  0.58148600  1
