# generated using pymatgen
data_Li4V3Ni2Sb3O16
_symmetry_space_group_name_H-M   'P 1'
_cell_length_a   6.13888533
_cell_length_b   6.13888533
_cell_length_c   9.81073556
_cell_angle_alpha   89.59036399
_cell_angle_beta   89.59036399
_cell_angle_gamma   59.77362274
_symmetry_Int_Tables_number   1
_chemical_formula_structural   Li4V3Ni2Sb3O16
_chemical_formula_sum   'Li4 V3 Ni2 Sb3 O16'
_cell_volume   319.44880710
_cell_formula_units_Z   1
loop_
 _symmetry_equiv_pos_site_id
 _symmetry_equiv_pos_as_xyz
  1  'x, y, z'
loop_
 _atom_site_type_symbol
 _atom_site_label
 _atom_site_symmetry_multiplicity
 _atom_site_fract_x
 _atom_site_fract_y
 _atom_site_fract_z
 _atom_site_occupancy
  Li  Li0  1  0.66265600  0.66265600  0.12499500  1
  Li  Li1  1  0.99256500  0.99256500  0.00901900  1
  Li  Li2  1  0.99363800  0.99363800  0.49377900  1
  Li  Li3  1  0.32862200  0.32862200  0.60102100  1
  V  V4  1  0.83222300  0.83222300  0.78405600  1
  V  V5  1  0.17061800  0.66206600  0.28579300  1
  V  V6  1  0.66206600  0.17061800  0.28579300  1
  Ni  Ni7  1  0.67339500  0.67339500  0.48891500  1
  Ni  Ni8  1  0.34105600  0.34105600  0.02631100  1
  Sb  Sb9  1  0.33847100  0.83146100  0.78387200  1
  Sb  Sb10  1  0.83146100  0.33847100  0.78387200  1
  Sb  Sb11  1  0.17037600  0.17037600  0.28534800  1
  O  O12  1  0.31888100  0.84580500  0.39919600  1
  O  O13  1  0.51466900  0.51466900  0.66650100  1
  O  O14  1  0.66199900  0.66199900  0.89800700  1
  O  O15  1  0.00454600  0.00454600  0.67883200  1
  O  O16  1  0.00576500  0.00576500  0.18713700  1
  O  O17  1  0.84580500  0.31888100  0.39919600  1
  O  O18  1  0.51366400  0.96678000  0.67211800  1
  O  O19  1  0.96678000  0.51366400  0.67211800  1
  O  O20  1  0.15559000  0.15559000  0.89669300  1
  O  O21  1  0.84163200  0.84163200  0.39458200  1
  O  O22  1  0.03499600  0.47872900  0.16270300  1
  O  O23  1  0.47872900  0.03499600  0.16270300  1
  O  O24  1  0.32793100  0.32793100  0.39866500  1
  O  O25  1  0.15974200  0.68994100  0.89194400  1
  O  O26  1  0.48204800  0.48204800  0.16703300  1
  O  O27  1  0.68994100  0.15974200  0.89194400  1
