# generated using pymatgen
data_Li4MnCo2O7
_symmetry_space_group_name_H-M   'P 1'
_cell_length_a   4.95962800
_cell_length_b   5.87472207
_cell_length_c   8.92741790
_cell_angle_alpha   90.32362944
_cell_angle_beta   96.23884302
_cell_angle_gamma   106.09002667
_symmetry_Int_Tables_number   1
_chemical_formula_structural   Li4MnCo2O7
_chemical_formula_sum   'Li8 Mn2 Co4 O14'
_cell_volume   248.26941307
_cell_formula_units_Z   2
loop_
 _symmetry_equiv_pos_site_id
 _symmetry_equiv_pos_as_xyz
  1  'x, y, z'
loop_
 _atom_site_type_symbol
 _atom_site_label
 _atom_site_symmetry_multiplicity
 _atom_site_fract_x
 _atom_site_fract_y
 _atom_site_fract_z
 _atom_site_occupancy
  Li  Li0  1  0.43613500  0.36520000  0.83901000  1
  Li  Li1  1  0.70898200  0.92637700  0.43558600  1
  Li  Li2  1  0.86633800  0.21834500  0.70754600  1
  Li  Li3  1  0.14718700  0.78063300  0.29827900  1
  Li  Li4  1  0.29031100  0.06708900  0.57003700  1
  Li  Li5  1  0.56662500  0.64106800  0.14478600  1
  Li  Li6  1  0.99585500  0.50381300  0.99814100  1
  Li  Li7  1  0.29285800  0.57575500  0.57214900  1
  Mn  Mn8  1  0.99658700  0.99669000  0.00100900  1
  Mn  Mn9  1  0.13963200  0.28392000  0.28628100  1
  Co  Co10  1  0.56411900  0.14032900  0.14419200  1
  Co  Co11  1  0.85457800  0.71324900  0.70318200  1
  Co  Co12  1  0.42970800  0.85707400  0.85487700  1
  Co  Co13  1  0.72003800  0.43503800  0.43556500  1
  O  O14  1  0.27139600  0.29498800  0.08240700  1
  O  O15  1  0.59458700  0.89213900  0.65407300  1
  O  O16  1  0.70359500  0.15548800  0.94554100  1
  O  O17  1  0.98717600  0.74400000  0.50022600  1
  O  O18  1  0.14826700  0.02790700  0.80878300  1
  O  O19  1  0.41991700  0.57288700  0.34718500  1
  O  O20  1  0.85201100  0.43315500  0.21378300  1
  O  O21  1  0.59649700  0.39937600  0.63782400  1
  O  O22  1  0.85475100  0.98492800  0.20206700  1
  O  O23  1  0.99839300  0.25409300  0.47618800  1
  O  O24  1  0.27839000  0.84709900  0.07580200  1
  O  O25  1  0.41916000  0.11735400  0.33952500  1
  O  O26  1  0.71635400  0.70461800  0.93193400  1
  O  O27  1  0.15055400  0.56738800  0.79401900  1
