# generated using pymatgen
data_Li2Si2NiO6
_symmetry_space_group_name_H-M   'P 1'
_cell_length_a   5.12486971
_cell_length_b   19.48432087
_cell_length_c   5.12872598
_cell_angle_alpha   90.20088378
_cell_angle_beta   91.14913680
_cell_angle_gamma   90.22046780
_symmetry_Int_Tables_number   1
_chemical_formula_structural   Li2Si2NiO6
_chemical_formula_sum   'Li8 Si8 Ni4 O24'
_cell_volume   512.01683288
_cell_formula_units_Z   4
loop_
 _symmetry_equiv_pos_site_id
 _symmetry_equiv_pos_as_xyz
  1  'x, y, z'
loop_
 _atom_site_type_symbol
 _atom_site_label
 _atom_site_symmetry_multiplicity
 _atom_site_fract_x
 _atom_site_fract_y
 _atom_site_fract_z
 _atom_site_occupancy
  Li  Li0  1  0.93895600  0.41905600  0.49233900  1
  Li  Li1  1  0.45502600  0.91662000  0.98775800  1
  Li  Li2  1  0.44981100  0.33445000  0.48806300  1
  Li  Li3  1  0.94589900  0.83090900  0.99112300  1
  Li  Li4  1  0.99380900  0.16853900  0.94560600  1
  Li  Li5  1  0.48582700  0.66692300  0.44653600  1
  Li  Li6  1  0.99386700  0.08193000  0.44467200  1
  Li  Li7  1  0.48491500  0.58371500  0.94683400  1
  Si  Si8  1  0.59762100  0.42080100  0.97274900  1
  Si  Si9  1  0.10260700  0.91650300  0.47247300  1
  Si  Si10  1  0.09493300  0.33461400  0.97340700  1
  Si  Si11  1  0.60270800  0.83044200  0.47194400  1
  Si  Si12  1  0.47854400  0.16852000  0.58881900  1
  Si  Si13  1  0.96857400  0.66854700  0.11057400  1
  Si  Si14  1  0.47942200  0.08312600  0.08721800  1
  Si  Si15  1  0.96643800  0.58169700  0.60972200  1
  Ni  Ni16  1  0.45923200  0.74941400  0.96144300  1
  Ni  Ni17  1  0.45360200  0.50099200  0.46216200  1
  Ni  Ni18  1  0.97421500  0.25099600  0.46890100  1
  Ni  Ni19  1  0.97683800  0.99937300  0.96645700  1
  O  O20  1  0.55763100  0.49585600  0.09955200  1
  O  O21  1  0.04955400  0.99186400  0.59340700  1
  O  O22  1  0.04356900  0.25949800  0.09607500  1
  O  O23  1  0.55945700  0.75556400  0.59793100  1
  O  O24  1  0.59917300  0.24387500  0.53489200  1
  O  O25  1  0.09830900  0.74336400  0.07265900  1
  O  O26  1  0.60313900  0.00840200  0.03145300  1
  O  O27  1  0.09273100  0.50669300  0.57175600  1
  O  O28  1  0.59329400  0.41921800  0.65462100  1
  O  O29  1  0.10306500  0.91405600  0.15399500  1
  O  O30  1  0.09448900  0.33642300  0.65446400  1
  O  O31  1  0.59909000  0.83175200  0.15368800  1
  O  O32  1  0.15989400  0.16545500  0.59131700  1
  O  O33  1  0.65019400  0.66769600  0.10302500  1
  O  O34  1  0.16017200  0.08473600  0.08890900  1
  O  O35  1  0.64812600  0.58299300  0.60231300  1
  O  O36  1  0.37764600  0.36570100  0.09276500  1
  O  O37  1  0.88514000  0.86118000  0.59219800  1
  O  O38  1  0.87807100  0.38982700  0.09292400  1
  O  O39  1  0.38536900  0.88608600  0.59205900  1
  O  O40  1  0.59808000  0.11254200  0.37276600  1
  O  O41  1  0.08704900  0.61416100  0.88896000  1
  O  O42  1  0.59816300  0.13957300  0.87340100  1
  O  O43  1  0.08723400  0.63597800  0.38920600  1
