# generated using pymatgen
data_Li7Mn5O12
_symmetry_space_group_name_H-M   'P 1'
_cell_length_a   6.50393437
_cell_length_b   10.64817133
_cell_length_c   6.50391383
_cell_angle_alpha   94.76684565
_cell_angle_beta   82.87866788
_cell_angle_gamma   94.76760772
_symmetry_Int_Tables_number   1
_chemical_formula_structural   Li7Mn5O12
_chemical_formula_sum   'Li14 Mn10 O24'
_cell_volume   444.19885984
_cell_formula_units_Z   2
loop_
 _symmetry_equiv_pos_site_id
 _symmetry_equiv_pos_as_xyz
  1  'x, y, z'
loop_
 _atom_site_type_symbol
 _atom_site_label
 _atom_site_symmetry_multiplicity
 _atom_site_fract_x
 _atom_site_fract_y
 _atom_site_fract_z
 _atom_site_occupancy
  Li  Li0  1  0.83323700  0.25016500  0.16656600  1
  Li  Li1  1  0.83346000  0.74977300  0.16684400  1
  Li  Li2  1  0.07089400  0.13132800  0.40417900  1
  Li  Li3  1  0.07044700  0.63089900  0.40384100  1
  Li  Li4  1  0.59610800  0.36917700  0.92947100  1
  Li  Li5  1  0.59586800  0.86868900  0.92917400  1
  Li  Li6  1  0.74197200  0.11652700  0.74553500  1
  Li  Li7  1  0.74232600  0.61662100  0.74664000  1
  Li  Li8  1  0.41221100  0.11656600  0.07545900  1
  Li  Li9  1  0.41329100  0.61662600  0.07568700  1
  Li  Li10  1  0.25336600  0.38336100  0.25758900  1
  Li  Li11  1  0.25454900  0.88346600  0.25807200  1
  Li  Li12  1  0.92422600  0.38334800  0.58674900  1
  Li  Li13  1  0.92457400  0.88341500  0.58782500  1
  Mn  Mn14  1  0.99880000  0.99996500  0.00131600  1
  Mn  Mn15  1  0.99915100  0.50000600  0.00083400  1
  Mn  Mn16  1  0.66742500  0.49999800  0.33252600  1
  Mn  Mn17  1  0.66811700  0.99999100  0.33199400  1
  Mn  Mn18  1  0.50272700  0.25052100  0.49687000  1
  Mn  Mn19  1  0.50314700  0.74952400  0.49728400  1
  Mn  Mn20  1  0.16352300  0.25058200  0.83607300  1
  Mn  Mn21  1  0.16392800  0.74946700  0.83654900  1
  Mn  Mn22  1  0.33317300  0.50008500  0.66651300  1
  Mn  Mn23  1  0.33332000  0.99991100  0.66667700  1
  O  O24  1  0.45116500  0.19577700  0.78453200  1
  O  O25  1  0.45235500  0.69572200  0.78571000  1
  O  O26  1  0.21425300  0.30432600  0.54759900  1
  O  O27  1  0.21538700  0.80426600  0.54879500  1
  O  O28  1  0.94902500  0.44866300  0.28242500  1
  O  O29  1  0.94975900  0.94895900  0.28289100  1
  O  O30  1  0.71728400  0.05092100  0.05037800  1
  O  O31  1  0.71765200  0.55134800  0.05104500  1
  O  O32  1  0.11269600  0.16940000  0.09688500  1
  O  O33  1  0.11337700  0.66896300  0.09762300  1
  O  O34  1  0.76366000  0.16947600  0.44592300  1
  O  O35  1  0.76418000  0.66897100  0.44675100  1
  O  O36  1  0.90231500  0.33102000  0.88670300  1
  O  O37  1  0.90313500  0.83052700  0.88738000  1
  O  O38  1  0.55327700  0.33101100  0.23567800  1
  O  O39  1  0.55413000  0.83057200  0.23640600  1
  O  O40  1  0.61793700  0.44526200  0.61473600  1
  O  O41  1  0.61812600  0.94537500  0.61444500  1
  O  O42  1  0.28135400  0.44527000  0.95131300  1
  O  O43  1  0.28128400  0.94533500  0.95146100  1
  O  O44  1  0.38571600  0.05461900  0.38193300  1
  O  O45  1  0.38519400  0.55482100  0.38165500  1
  O  O46  1  0.04861100  0.05457300  0.71887900  1
  O  O47  1  0.04828800  0.55481400  0.71859000  1
