# generated using pymatgen
data_LiMn2O4
_symmetry_space_group_name_H-M   'P 1'
_cell_length_a   5.81217252
_cell_length_b   5.81217252
_cell_length_c   14.24257461
_cell_angle_alpha   87.82151430
_cell_angle_beta   87.82151430
_cell_angle_gamma   60.17343167
_symmetry_Int_Tables_number   1
_chemical_formula_structural   LiMn2O4
_chemical_formula_sum   'Li6 Mn12 O24'
_cell_volume   416.99703037
_cell_formula_units_Z   6
loop_
 _symmetry_equiv_pos_site_id
 _symmetry_equiv_pos_as_xyz
  1  'x, y, z'
loop_
 _atom_site_type_symbol
 _atom_site_label
 _atom_site_symmetry_multiplicity
 _atom_site_fract_x
 _atom_site_fract_y
 _atom_site_fract_z
 _atom_site_occupancy
  Li  Li0  1  0.47822400  0.70359500  0.18153000  1
  Li  Li1  1  0.93995400  0.23281200  0.19091600  1
  Li  Li2  1  0.70359500  0.47822400  0.68153000  1
  Li  Li3  1  0.23281200  0.93995400  0.69091600  1
  Li  Li4  1  0.28670600  0.02565800  0.32220000  1
  Li  Li5  1  0.02565800  0.28670600  0.82220000  1
  Mn  Mn6  1  0.76083600  0.51366900  0.49114200  1
  Mn  Mn7  1  0.24636200  0.00008900  0.50444800  1
  Mn  Mn8  1  0.47058100  0.22321400  0.15807100  1
  Mn  Mn9  1  0.97337700  0.72003000  0.15982500  1
  Mn  Mn10  1  0.52391600  0.27305100  0.84557300  1
  Mn  Mn11  1  0.02367400  0.77275000  0.84488700  1
  Mn  Mn12  1  0.51366900  0.76083600  0.99114200  1
  Mn  Mn13  1  0.00008900  0.24636200  0.00444800  1
  Mn  Mn14  1  0.72003000  0.97337700  0.65982500  1
  Mn  Mn15  1  0.22321400  0.47058100  0.65807100  1
  Mn  Mn16  1  0.77275000  0.02367400  0.34488700  1
  Mn  Mn17  1  0.27305100  0.52391600  0.34557300  1
  O  O18  1  0.69400400  0.42708200  0.92502200  1
  O  O19  1  0.17669800  0.93921300  0.92066300  1
  O  O20  1  0.32252300  0.05810200  0.08045300  1
  O  O21  1  0.81097400  0.56607100  0.08426400  1
  O  O22  1  0.42708200  0.69400400  0.42502200  1
  O  O23  1  0.93921300  0.17669800  0.42066300  1
  O  O24  1  0.56607100  0.81097400  0.58426400  1
  O  O25  1  0.05810200  0.32252300  0.58045300  1
  O  O26  1  0.17817400  0.43342000  0.90677900  1
  O  O27  1  0.68974600  0.93411000  0.90797300  1
  O  O28  1  0.31080800  0.56464100  0.09775300  1
  O  O29  1  0.81862400  0.06456600  0.09958200  1
  O  O30  1  0.43342000  0.17817400  0.40677900  1
  O  O31  1  0.93411000  0.68974600  0.40797300  1
  O  O32  1  0.56464100  0.31080800  0.59775300  1
  O  O33  1  0.06456600  0.81862400  0.59958200  1
  O  O34  1  0.35475400  0.59931900  0.76084000  1
  O  O35  1  0.85705700  0.10530500  0.76173600  1
  O  O36  1  0.14347400  0.38137600  0.23333700  1
  O  O37  1  0.63488800  0.89610800  0.23715500  1
  O  O38  1  0.59931900  0.35475400  0.26084000  1
  O  O39  1  0.10530500  0.85705700  0.26173600  1
  O  O40  1  0.38137600  0.14347400  0.73333700  1
  O  O41  1  0.89610800  0.63488800  0.73715500  1
