# generated using pymatgen
data_KLiYb2(MoO4)4
_symmetry_space_group_name_H-M   'P 1'
_cell_length_a   6.97044925
_cell_length_b   6.97044925
_cell_length_c   19.88143555
_cell_angle_alpha   88.67616814
_cell_angle_beta   88.67616814
_cell_angle_gamma   135.94443091
_symmetry_Int_Tables_number   1
_chemical_formula_structural   KLiYb2(MoO4)4
_chemical_formula_sum   'K2 Li2 Yb4 Mo8 O32'
_cell_volume   670.42588826
_cell_formula_units_Z   2
loop_
 _symmetry_equiv_pos_site_id
 _symmetry_equiv_pos_as_xyz
  1  'x, y, z'
loop_
 _atom_site_type_symbol
 _atom_site_label
 _atom_site_symmetry_multiplicity
 _atom_site_fract_x
 _atom_site_fract_y
 _atom_site_fract_z
 _atom_site_occupancy
  K  K0  1  0.53279000  0.46721000  0.25000000  1
  K  K1  1  0.46721000  0.53279000  0.75000000  1
  Li  Li2  1  0.81064500  0.18935500  0.25000000  1
  Li  Li3  1  0.18935500  0.81064500  0.75000000  1
  Yb  Yb4  1  0.64914100  0.35455800  0.03118100  1
  Yb  Yb5  1  0.35085900  0.64544200  0.96881900  1
  Yb  Yb6  1  0.64544200  0.35085900  0.46881900  1
  Yb  Yb7  1  0.35455800  0.64914100  0.53118100  1
  Mo  Mo8  1  0.91588300  0.04115900  0.09076200  1
  Mo  Mo9  1  0.08411700  0.95884100  0.90923800  1
  Mo  Mo10  1  0.95884100  0.08411700  0.40923800  1
  Mo  Mo11  1  0.04115900  0.91588300  0.59076200  1
  Mo  Mo12  1  0.22966400  0.74460400  0.14693400  1
  Mo  Mo13  1  0.77033600  0.25539600  0.85306600  1
  Mo  Mo14  1  0.25539600  0.77033600  0.35306600  1
  Mo  Mo15  1  0.74460400  0.22966400  0.64693400  1
  O  O16  1  0.66886000  0.00500200  0.04426000  1
  O  O17  1  0.33114000  0.99499800  0.95574000  1
  O  O18  1  0.99499800  0.33114000  0.45574000  1
  O  O19  1  0.00500200  0.66886000  0.54426000  1
  O  O20  1  0.50082300  0.77429500  0.17407000  1
  O  O21  1  0.49917700  0.22570500  0.82593000  1
  O  O22  1  0.22570500  0.49917700  0.32593000  1
  O  O23  1  0.77429500  0.50082300  0.67407000  1
  O  O24  1  0.72761700  0.76619300  0.46147000  1
  O  O25  1  0.27238300  0.23380700  0.53853000  1
  O  O26  1  0.23380700  0.27238300  0.03853000  1
  O  O27  1  0.76619300  0.72761700  0.96147000  1
  O  O28  1  0.43156600  0.91197400  0.43160500  1
  O  O29  1  0.56843400  0.08802600  0.56839500  1
  O  O30  1  0.08802600  0.56843400  0.06839500  1
  O  O31  1  0.91197400  0.43156600  0.93160500  1
  O  O32  1  0.79412400  0.98493100  0.32857200  1
  O  O33  1  0.20587600  0.01506900  0.67142800  1
  O  O34  1  0.01506900  0.20587600  0.17142800  1
  O  O35  1  0.98493100  0.79412400  0.82857200  1
  O  O36  1  0.72263300  0.81172800  0.60062000  1
  O  O37  1  0.27736700  0.18827200  0.39938000  1
  O  O38  1  0.18827200  0.27736700  0.89938000  1
  O  O39  1  0.81172800  0.72263300  0.10062000  1
  O  O40  1  0.39329200  0.09112900  0.13451000  1
  O  O41  1  0.60670800  0.90887100  0.86549000  1
  O  O42  1  0.90887100  0.60670800  0.36549000  1
  O  O43  1  0.09112900  0.39329200  0.63451000  1
  O  O44  1  0.43768000  0.03117900  0.28751200  1
  O  O45  1  0.56232000  0.96882100  0.71248800  1
  O  O46  1  0.96882100  0.56232000  0.21248800  1
  O  O47  1  0.03117900  0.43768000  0.78751200  1
