# generated using pymatgen
data_Li7Ni(O2F)2
_symmetry_space_group_name_H-M   'P 1'
_cell_length_a   5.73009957
_cell_length_b   9.74396513
_cell_length_c   10.06734218
_cell_angle_alpha   94.81118674
_cell_angle_beta   104.91484511
_cell_angle_gamma   82.57849152
_symmetry_Int_Tables_number   1
_chemical_formula_structural   Li7Ni(O2F)2
_chemical_formula_sum   'Li28 Ni4 O16 F8'
_cell_volume   537.85895470
_cell_formula_units_Z   4
loop_
 _symmetry_equiv_pos_site_id
 _symmetry_equiv_pos_as_xyz
  1  'x, y, z'
loop_
 _atom_site_type_symbol
 _atom_site_label
 _atom_site_symmetry_multiplicity
 _atom_site_fract_x
 _atom_site_fract_y
 _atom_site_fract_z
 _atom_site_occupancy
  Li  Li0  1  0.30884500  0.97706300  0.21822800  1
  Li  Li1  1  0.80595500  0.47264200  0.21352400  1
  Li  Li2  1  0.10331700  0.26429000  0.74377100  1
  Li  Li3  1  0.60799500  0.76051000  0.74772500  1
  Li  Li4  1  0.12267500  0.22895700  0.38621100  1
  Li  Li5  1  0.62012500  0.72275500  0.38176000  1
  Li  Li6  1  0.77516700  0.04766000  0.14779900  1
  Li  Li7  1  0.25254900  0.54299100  0.13770700  1
  Li  Li8  1  0.67441500  0.96986900  0.43601400  1
  Li  Li9  1  0.16994800  0.47304700  0.43503900  1
  Li  Li10  1  0.42595500  0.24193300  0.96015600  1
  Li  Li11  1  0.93837400  0.75190100  0.97308600  1
  Li  Li12  1  0.99821100  0.01663300  0.67134600  1
  Li  Li13  1  0.49618900  0.51142300  0.66707400  1
  Li  Li14  1  0.54256800  0.75814000  0.07605200  1
  Li  Li15  1  0.05482200  0.25874400  0.07076200  1
  Li  Li16  1  0.27792400  0.00134400  0.51787500  1
  Li  Li17  1  0.78561900  0.50146400  0.52372000  1
  Li  Li18  1  0.40213600  0.99953300  0.91980200  1
  Li  Li19  1  0.88687900  0.51247000  0.90487800  1
  Li  Li20  1  0.89605700  0.74970900  0.61424800  1
  Li  Li21  1  0.39836200  0.24835100  0.61641300  1
  Li  Li22  1  0.03650500  0.79131600  0.28323800  1
  Li  Li23  1  0.53163000  0.29420000  0.28315600  1
  Li  Li24  1  0.62084100  0.01243500  0.74519200  1
  Li  Li25  1  0.13427400  0.51200600  0.74783400  1
  Li  Li26  1  0.24012700  0.76000400  0.85436800  1
  Li  Li27  1  0.74374300  0.26259700  0.85919200  1
  Ni  Ni28  1  0.48927400  0.50060600  0.94563300  1
  Ni  Ni29  1  0.75854900  0.23733900  0.50402300  1
  Ni  Ni30  1  0.98561100  0.00209100  0.93412100  1
  Ni  Ni31  1  0.26174500  0.73677800  0.50524000  1
  O  O32  1  0.84995000  0.36320300  0.38902100  1
  O  O33  1  0.35411100  0.86119300  0.38892100  1
  O  O34  1  0.39787900  0.36091900  0.79704100  1
  O  O35  1  0.89256900  0.86516800  0.78788400  1
  O  O36  1  0.25849000  0.89518700  0.02899700  1
  O  O37  1  0.78665500  0.40097100  0.01842200  1
  O  O38  1  0.08210400  0.16354700  0.56404200  1
  O  O39  1  0.58302000  0.66264300  0.56537200  1
  O  O40  1  0.11213500  0.15319800  0.88951900  1
  O  O41  1  0.61011400  0.65877800  0.90206600  1
  O  O42  1  0.94751600  0.82560300  0.45858000  1
  O  O43  1  0.44432900  0.32843800  0.46108300  1
  O  O44  1  0.68052400  0.08968000  0.94704600  1
  O  O45  1  0.17660000  0.59344100  0.93487200  1
  O  O46  1  0.15589200  0.60188200  0.59678100  1
  O  O47  1  0.65393000  0.10228500  0.59624500  1
  F  F48  1  0.58796100  0.08173700  0.27468100  1
  F  F49  1  0.08182800  0.57862800  0.27156800  1
  F  F50  1  0.82904900  0.84938100  0.12443400  1
  F  F51  1  0.34755400  0.34815000  0.11420000  1
  F  F52  1  0.55344800  0.62235600  0.20553300  1
  F  F53  1  0.06824700  0.13346600  0.21122100  1
  F  F54  1  0.35015800  0.91742900  0.72762600  1
  F  F55  1  0.84955600  0.42191100  0.71966500  1
