# generated using pymatgen
data_Li8(CoO2)5
_symmetry_space_group_name_H-M   'P 1'
_cell_length_a   6.63954336
_cell_length_b   10.10703500
_cell_length_c   8.04136150
_cell_angle_alpha   82.98048313
_cell_angle_beta   100.05823954
_cell_angle_gamma   76.82617961
_symmetry_Int_Tables_number   1
_chemical_formula_structural   Li8(CoO2)5
_chemical_formula_sum   'Li16 Co10 O20'
_cell_volume   509.90744124
_cell_formula_units_Z   2
loop_
 _symmetry_equiv_pos_site_id
 _symmetry_equiv_pos_as_xyz
  1  'x, y, z'
loop_
 _atom_site_type_symbol
 _atom_site_label
 _atom_site_symmetry_multiplicity
 _atom_site_fract_x
 _atom_site_fract_y
 _atom_site_fract_z
 _atom_site_occupancy
  Li  Li0  1  0.62424700  0.72527600  0.06926700  1
  Li  Li1  1  0.12109100  0.21778800  0.06164400  1
  Li  Li2  1  0.27536700  0.77485700  0.13045600  1
  Li  Li3  1  0.77846300  0.28218900  0.13847000  1
  Li  Li4  1  0.43868300  0.72737600  0.44011000  1
  Li  Li5  1  0.93456800  0.22633400  0.44178100  1
  Li  Li6  1  0.46127200  0.77235000  0.76004300  1
  Li  Li7  1  0.96560500  0.27364400  0.75813900  1
  Li  Li8  1  0.48727400  0.22557800  0.26972200  1
  Li  Li9  1  0.98314900  0.72066700  0.26850900  1
  Li  Li10  1  0.41221500  0.27470700  0.93084900  1
  Li  Li11  1  0.91718900  0.77930500  0.93092400  1
  Li  Li12  1  0.59920900  0.28011100  0.55020600  1
  Li  Li13  1  0.09733700  0.78050100  0.55103700  1
  Li  Li14  1  0.30102000  0.21994500  0.65008200  1
  Li  Li15  1  0.80261700  0.71943300  0.64863900  1
  Co  Co16  1  0.20241700  0.49976000  0.60007100  1
  Co  Co17  1  0.40043300  0.49907400  0.19766700  1
  Co  Co18  1  0.00130000  0.50027400  0.00277500  1
  Co  Co19  1  0.79082400  0.50569900  0.40598300  1
  Co  Co20  1  0.60689800  0.49560500  0.79288700  1
  Co  Co21  1  0.69764800  0.00018800  0.59976000  1
  Co  Co22  1  0.89854100  0.99968800  0.19725100  1
  Co  Co23  1  0.49988000  0.00102200  0.00235100  1
  Co  Co24  1  0.29298600  0.00432700  0.40736000  1
  Co  Co25  1  0.10940300  0.99441900  0.79392800  1
  O  O26  1  0.54292700  0.64125400  0.26396100  1
  O  O27  1  0.03553500  0.13270200  0.26031600  1
  O  O28  1  0.35712900  0.85889400  0.93613700  1
  O  O29  1  0.86438800  0.36721500  0.93975800  1
  O  O30  1  0.78223000  0.87120100  0.09954500  1
  O  O31  1  0.25738300  0.36873600  0.08979800  1
  O  O32  1  0.64206200  0.13120400  0.11098800  1
  O  O33  1  0.11817800  0.62887300  0.09963800  1
  O  O34  1  0.54257300  0.86909400  0.56054600  1
  O  O35  1  0.04630100  0.37094400  0.55833100  1
  O  O36  1  0.85386900  0.12900100  0.64150700  1
  O  O37  1  0.35748400  0.63075700  0.63948800  1
  O  O38  1  0.14310200  0.86418400  0.32012400  1
  O  O39  1  0.65952700  0.35777100  0.32903600  1
  O  O40  1  0.24062600  0.14232400  0.87108700  1
  O  O41  1  0.75687800  0.63575300  0.87986600  1
  O  O42  1  0.45472800  0.13504200  0.48799300  1
  O  O43  1  0.96023500  0.63381600  0.49128000  1
  O  O44  1  0.44516400  0.36493700  0.71235900  1
  O  O45  1  0.94004300  0.86618200  0.70832800  1
