# generated using pymatgen
data_Li5Nb2Fe3O10
_symmetry_space_group_name_H-M   'P 1'
_cell_length_a   5.27858602
_cell_length_b   8.00279621
_cell_length_c   10.66168747
_cell_angle_alpha   108.80689255
_cell_angle_beta   99.47583768
_cell_angle_gamma   71.85404170
_symmetry_Int_Tables_number   1
_chemical_formula_structural   Li5Nb2Fe3O10
_chemical_formula_sum   'Li10 Nb4 Fe6 O20'
_cell_volume   404.10288397
_cell_formula_units_Z   2
loop_
 _symmetry_equiv_pos_site_id
 _symmetry_equiv_pos_as_xyz
  1  'x, y, z'
loop_
 _atom_site_type_symbol
 _atom_site_label
 _atom_site_symmetry_multiplicity
 _atom_site_fract_x
 _atom_site_fract_y
 _atom_site_fract_z
 _atom_site_occupancy
  Li  Li0  1  0.00129300  0.49863900  0.24849100  1
  Li  Li1  1  0.99871900  0.50247900  0.75013200  1
  Li  Li2  1  0.51484400  0.39966100  0.11340300  1
  Li  Li3  1  0.51491300  0.39873500  0.61388700  1
  Li  Li4  1  0.48540400  0.60092800  0.38565000  1
  Li  Li5  1  0.48587600  0.60069000  0.88726500  1
  Li  Li6  1  0.50514900  0.79661900  0.19873800  1
  Li  Li7  1  0.50523300  0.79804300  0.70081900  1
  Li  Li8  1  0.49257500  0.20259700  0.29992100  1
  Li  Li9  1  0.49238800  0.20469000  0.80143800  1
  Nb  Nb10  1  0.01292600  0.68671600  0.05115100  1
  Nb  Nb11  1  0.02037600  0.68598500  0.54978500  1
  Nb  Nb12  1  0.98104800  0.30994700  0.44750500  1
  Nb  Nb13  1  0.98488700  0.30974600  0.94534600  1
  Fe  Fe14  1  0.50067100  0.00028100  0.50109700  1
  Fe  Fe15  1  0.99938800  0.89563600  0.34581100  1
  Fe  Fe16  1  0.00341800  0.10352200  0.65444400  1
  Fe  Fe17  1  0.50219900  0.99979500  0.99901300  1
  Fe  Fe18  1  0.99696200  0.89969000  0.85034900  1
  Fe  Fe19  1  0.00137000  0.10530500  0.15331400  1
  O  O20  1  0.23585100  0.84212700  0.02137800  1
  O  O21  1  0.24392600  0.84032800  0.52472500  1
  O  O22  1  0.75731700  0.15842600  0.47517500  1
  O  O23  1  0.75736300  0.15938000  0.97416600  1
  O  O24  1  0.76706300  0.93955300  0.16787400  1
  O  O25  1  0.77394800  0.93740300  0.67200700  1
  O  O26  1  0.23466400  0.06033500  0.33216500  1
  O  O27  1  0.24238600  0.06664700  0.83240300  1
  O  O28  1  0.76371800  0.54406300  0.07866700  1
  O  O29  1  0.76323400  0.54529100  0.57680900  1
  O  O30  1  0.23884600  0.45256200  0.42205700  1
  O  O31  1  0.23810700  0.45451900  0.92219800  1
  O  O32  1  0.23761400  0.24457200  0.10959900  1
  O  O33  1  0.23841700  0.24481000  0.60942000  1
  O  O34  1  0.76148600  0.75629100  0.39173200  1
  O  O35  1  0.75539100  0.74998900  0.89268900  1
  O  O36  1  0.24151500  0.64813400  0.21102200  1
  O  O37  1  0.23440600  0.65157000  0.71200900  1
  O  O38  1  0.75853700  0.35200100  0.28848700  1
  O  O39  1  0.75657200  0.35229400  0.78786000  1
