# generated using pymatgen
data_Li9Mn2Co5O16
_symmetry_space_group_name_H-M   'P 1'
_cell_length_a   5.14063700
_cell_length_b   6.44982917
_cell_length_c   8.62336510
_cell_angle_alpha   96.80829099
_cell_angle_beta   94.30360512
_cell_angle_gamma   95.53339840
_symmetry_Int_Tables_number   1
_chemical_formula_structural   Li9Mn2Co5O16
_chemical_formula_sum   'Li9 Mn2 Co5 O16'
_cell_volume   281.49546427
_cell_formula_units_Z   1
loop_
 _symmetry_equiv_pos_site_id
 _symmetry_equiv_pos_as_xyz
  1  'x, y, z'
loop_
 _atom_site_type_symbol
 _atom_site_label
 _atom_site_symmetry_multiplicity
 _atom_site_fract_x
 _atom_site_fract_y
 _atom_site_fract_z
 _atom_site_occupancy
  Li  Li0  1  0.76082600  0.31272200  0.69397300  1
  Li  Li1  1  0.23917400  0.68727800  0.30602700  1
  Li  Li2  1  0.76744500  0.07114900  0.93915000  1
  Li  Li3  1  0.24025700  0.20145500  0.82069500  1
  Li  Li4  1  0.76032700  0.56517400  0.43675000  1
  Li  Li5  1  0.23255500  0.92885100  0.06085000  1
  Li  Li6  1  0.23967300  0.43482600  0.56325000  1
  Li  Li7  1  0.75974300  0.79854500  0.17930500  1
  Li  Li8  1  0.00000000  0.50000000  0.00000000  1
  Mn  Mn9  1  0.99982100  0.74693200  0.75321900  1
  Mn  Mn10  1  0.00017900  0.25306800  0.24678100  1
  Co  Co11  1  0.50070700  0.12355400  0.37607900  1
  Co  Co12  1  0.49929300  0.87644600  0.62392100  1
  Co  Co13  1  0.49764300  0.62098200  0.87768500  1
  Co  Co14  1  0.00000000  0.00000000  0.50000000  1
  Co  Co15  1  0.50235700  0.37901800  0.12231500  1
  O  O16  1  0.11934500  0.48544500  0.77594600  1
  O  O17  1  0.61146800  0.85831000  0.41696900  1
  O  O18  1  0.12098300  0.21906600  0.04724200  1
  O  O19  1  0.60252000  0.35527700  0.91395400  1
  O  O20  1  0.11449300  0.73536100  0.53924400  1
  O  O21  1  0.64286000  0.12091800  0.17234200  1
  O  O22  1  0.64346500  0.61960800  0.66977600  1
  O  O23  1  0.11232400  0.98056200  0.29128300  1
  O  O24  1  0.38853200  0.14169000  0.58303100  1
  O  O25  1  0.88065500  0.51455500  0.22405400  1
  O  O26  1  0.35714000  0.87908200  0.82765800  1
  O  O27  1  0.88767600  0.01943800  0.70871700  1
  O  O28  1  0.35653500  0.38039200  0.33022400  1
  O  O29  1  0.87901700  0.78093400  0.95275800  1
  O  O30  1  0.88550700  0.26463900  0.46075600  1
  O  O31  1  0.39748000  0.64472300  0.08604600  1
