# generated using pymatgen
data_Li9Mn2Co5O16
_symmetry_space_group_name_H-M   'P 1'
_cell_length_a   2.97061800
_cell_length_b   5.96116209
_cell_length_c   16.17324649
_cell_angle_alpha   90.68183897
_cell_angle_beta   90.98079230
_cell_angle_gamma   94.14029126
_symmetry_Int_Tables_number   1
_chemical_formula_structural   Li9Mn2Co5O16
_chemical_formula_sum   'Li9 Mn2 Co5 O16'
_cell_volume   285.58721008
_cell_formula_units_Z   1
loop_
 _symmetry_equiv_pos_site_id
 _symmetry_equiv_pos_as_xyz
  1  'x, y, z'
loop_
 _atom_site_type_symbol
 _atom_site_label
 _atom_site_symmetry_multiplicity
 _atom_site_fract_x
 _atom_site_fract_y
 _atom_site_fract_z
 _atom_site_occupancy
  Li  Li0  1  0.99664200  0.49517400  0.00448300  1
  Li  Li1  1  0.49472500  0.76031000  0.12937900  1
  Li  Li2  1  0.00211900  0.00733000  0.24329100  1
  Li  Li3  1  0.50206000  0.24920400  0.87310800  1
  Li  Li4  1  0.99894800  0.00035200  0.74983600  1
  Li  Li5  1  0.50069000  0.75006500  0.62421300  1
  Li  Li6  1  0.00031600  0.49805900  0.50124700  1
  Li  Li7  1  0.50184100  0.24978600  0.37361800  1
  Li  Li8  1  0.50837600  0.23932000  0.12771000  1
  Mn  Mn9  1  0.99544400  0.00571000  0.00346600  1
  Mn  Mn10  1  0.50179900  0.75020400  0.37423000  1
  Co  Co11  1  0.00745800  0.48853900  0.24378900  1
  Co  Co12  1  0.99739500  0.00194600  0.50095000  1
  Co  Co13  1  0.50025600  0.25023100  0.62552100  1
  Co  Co14  1  0.00031700  0.49980400  0.75006500  1
  Co  Co15  1  0.49007300  0.75213000  0.87375100  1
  O  O16  1  0.47236800  0.77697500  0.99437800  1
  O  O17  1  0.00468300  0.99647600  0.11553400  1
  O  O18  1  0.52639500  0.26865400  0.25023900  1
  O  O19  1  0.02577500  0.51316200  0.87028700  1
  O  O20  1  0.52669200  0.26225200  0.74474100  1
  O  O21  1  0.02588400  0.01281100  0.61986000  1
  O  O22  1  0.52690800  0.75966500  0.49647400  1
  O  O23  1  0.02432800  0.50760000  0.36597100  1
  O  O24  1  0.52316800  0.21975800  0.99912200  1
  O  O25  1  0.99682400  0.50275700  0.13599500  1
  O  O26  1  0.47769500  0.73865800  0.25412200  1
  O  O27  1  0.96821100  0.98484100  0.87913000  1
  O  O28  1  0.47610900  0.73612800  0.75530700  1
  O  O29  1  0.97571700  0.48784500  0.63138800  1
  O  O30  1  0.47386900  0.23925300  0.50673900  1
  O  O31  1  0.97691200  0.99500200  0.38205600  1
