# generated using pymatgen
data_Li5Mn2CoO8
_symmetry_space_group_name_H-M   'P 1'
_cell_length_a   2.89160423
_cell_length_b   19.18358103
_cell_length_c   5.07506928
_cell_angle_alpha   94.20955587
_cell_angle_beta   89.87568777
_cell_angle_gamma   89.41545515
_symmetry_Int_Tables_number   1
_chemical_formula_structural   Li5Mn2CoO8
_chemical_formula_sum   'Li10 Mn4 Co2 O16'
_cell_volume   280.74552607
_cell_formula_units_Z   2
loop_
 _symmetry_equiv_pos_site_id
 _symmetry_equiv_pos_as_xyz
  1  'x, y, z'
loop_
 _atom_site_type_symbol
 _atom_site_label
 _atom_site_symmetry_multiplicity
 _atom_site_fract_x
 _atom_site_fract_y
 _atom_site_fract_z
 _atom_site_occupancy
  Li  Li0  1  0.99743400  0.12506700  0.37177700  1
  Li  Li1  1  0.00260200  0.62491900  0.87837200  1
  Li  Li2  1  0.00006500  0.37497900  0.12504700  1
  Li  Li3  1  0.00001300  0.87502000  0.62513200  1
  Li  Li4  1  0.49183200  0.12645300  0.87208400  1
  Li  Li5  1  0.50814700  0.62355600  0.37793100  1
  Li  Li6  1  0.49030500  0.24601800  0.23798700  1
  Li  Li7  1  0.50356900  0.74377800  0.74693100  1
  Li  Li8  1  0.49633400  0.00624000  0.50301000  1
  Li  Li9  1  0.50973600  0.50398000  0.01212700  1
  Mn  Mn10  1  0.01909100  0.50259800  0.49933200  1
  Mn  Mn11  1  0.98093700  0.24731400  0.75068900  1
  Mn  Mn12  1  0.99379000  0.00385500  0.97771600  1
  Mn  Mn13  1  0.00621300  0.74618300  0.27202500  1
  Co  Co14  1  0.50001100  0.37497900  0.62503900  1
  Co  Co15  1  0.49997800  0.87503400  0.12505400  1
  O  O16  1  0.48974400  0.05435300  0.16042900  1
  O  O17  1  0.51504500  0.55441000  0.67383300  1
  O  O18  1  0.48491300  0.19554400  0.57619900  1
  O  O19  1  0.51027700  0.69568100  0.08941700  1
  O  O20  1  0.99090000  0.19515200  0.03640200  1
  O  O21  1  0.00792000  0.69159400  0.54966700  1
  O  O22  1  0.99204000  0.05843800  0.70018700  1
  O  O23  1  0.00911400  0.55482500  0.21367200  1
  O  O24  1  0.47936700  0.30973600  0.90140100  1
  O  O25  1  0.50346800  0.80621800  0.43012100  1
  O  O26  1  0.52063200  0.44022100  0.34861300  1
  O  O27  1  0.49654000  0.94381300  0.81978500  1
  O  O28  1  0.05130700  0.43460600  0.78968800  1
  O  O29  1  0.99572800  0.93332500  0.26966500  1
  O  O30  1  0.94872300  0.31535200  0.46033500  1
  O  O31  1  0.00422600  0.81675900  0.98033200  1
