# generated using pymatgen
data_Li9Mn2Co5O16
_symmetry_space_group_name_H-M   'P 1'
_cell_length_a   6.51561877
_cell_length_b   6.48194435
_cell_length_c   7.84010607
_cell_angle_alpha   87.67343643
_cell_angle_beta   114.53770013
_cell_angle_gamma   107.91951138
_symmetry_Int_Tables_number   1
_chemical_formula_structural   Li9Mn2Co5O16
_chemical_formula_sum   'Li9 Mn2 Co5 O16'
_cell_volume   285.14468884
_cell_formula_units_Z   1
loop_
 _symmetry_equiv_pos_site_id
 _symmetry_equiv_pos_as_xyz
  1  'x, y, z'
loop_
 _atom_site_type_symbol
 _atom_site_label
 _atom_site_symmetry_multiplicity
 _atom_site_fract_x
 _atom_site_fract_y
 _atom_site_fract_z
 _atom_site_occupancy
  Li  Li0  1  0.87084251  0.05970016  0.31366382  1
  Li  Li1  1  0.86970720  0.56347956  0.81294460  1
  Li  Li2  1  0.13028964  0.93652213  0.68705409  1
  Li  Li3  1  0.12915509  0.44029894  0.18633437  1
  Li  Li4  1  0.37815606  0.81268996  0.06395773  1
  Li  Li5  1  0.38425472  0.32083283  0.57358550  1
  Li  Li6  1  0.62184271  0.68731146  0.43604062  1
  Li  Li7  1  0.61574387  0.17916687  0.92641364  1
  Li  Li8  1  0.50000147  0.75000129  0.74999899  1
  Mn  Mn9  1  0.00002908  0.99917188  0.99507527  1
  Mn  Mn10  1  -0.00002601  0.50082526  0.50493653  1
  Co  Co11  1  0.25958109  0.87253390  0.38329524  1
  Co  Co12  1  0.25041742  0.37404291  0.87520090  1
  Co  Co13  1  0.50000087  0.25000145  0.24999927  1
  Co  Co14  1  0.74041827  0.62746431  0.11670660  1
  Co  Co15  1  0.74958217  0.12595484  0.62480008  1
  O  O16  1  0.71502124  0.90700986  0.04046794  1
  O  O17  1  0.70270654  0.39913653  0.53386242  1
  O  O18  1  0.94507894  0.76707545  0.41190986  1
  O  O19  1  0.95665450  0.27344628  0.91136143  1
  O  O20  1  0.17470858  0.62696762  0.76292005  1
  O  O21  1  0.19003405  0.13661053  0.25948335  1
  O  O22  1  0.44531544  0.51718192  0.16294413  1
  O  O23  1  0.45048057  0.03529790  0.63908469  1
  O  O24  1  0.04334609  0.22655269  0.58863754  1
  O  O25  1  0.05492207  0.73292446  0.08808934  1
  O  O26  1  0.29729358  0.10086400  0.96613697  1
  O  O27  1  0.28497818  0.59299146  0.45953119  1
  O  O28  1  0.55468549  0.98281976  0.33705410  1
  O  O29  1  0.54951983  0.46470412  0.86091460  1
  O  O30  1  0.82529215  0.87303422  0.73708082  1
  O  O31  1  0.80996663  0.36339145  0.24051632  1
