# generated using pymatgen
data_Li6V3P8O29
_symmetry_space_group_name_H-M   'P 1'
_cell_length_a   9.76173700
_cell_length_b   9.79644444
_cell_length_c   13.94422235
_cell_angle_alpha   89.89808519
_cell_angle_beta   89.87586924
_cell_angle_gamma   60.37013042
_symmetry_Int_Tables_number   1
_chemical_formula_structural   Li6V3P8O29
_chemical_formula_sum   'Li12 V6 P16 O58'
_cell_volume   1159.11647049
_cell_formula_units_Z   2
loop_
 _symmetry_equiv_pos_site_id
 _symmetry_equiv_pos_as_xyz
  1  'x, y, z'
loop_
 _atom_site_type_symbol
 _atom_site_label
 _atom_site_symmetry_multiplicity
 _atom_site_fract_x
 _atom_site_fract_y
 _atom_site_fract_z
 _atom_site_occupancy
  Li  Li0  1  0.32343300  0.90939500  0.06000000  1
  Li  Li1  1  0.76680800  0.91008000  0.56039700  1
  Li  Li2  1  0.66200900  0.66272300  0.38683400  1
  Li  Li3  1  0.67034900  0.66245400  0.88729200  1
  Li  Li4  1  0.76183400  0.32883600  0.06447500  1
  Li  Li5  1  0.10229000  0.66194600  0.43811700  1
  Li  Li6  1  0.91181300  0.32720500  0.56484300  1
  Li  Li7  1  0.23446100  0.66396800  0.93833000  1
  Li  Li8  1  0.23594500  0.10107000  0.44109000  1
  Li  Li9  1  0.66602300  0.09946300  0.94111200  1
  Li  Li10  1  0.00360300  0.00312900  0.99899900  1
  Li  Li11  1  0.99582500  0.99892900  0.49941100  1
  V  V12  1  0.99986200  0.56739600  0.24296700  1
  V  V13  1  0.00746000  0.43421400  0.75619200  1
  V  V14  1  0.43780800  0.56389500  0.74255400  1
  V  V15  1  0.56072600  0.43381000  0.25643500  1
  V  V16  1  0.43331600  0.00097700  0.24583000  1
  V  V17  1  0.56472500  0.00033500  0.74704300  1
  P  P18  1  0.31316700  0.90672300  0.84333400  1
  P  P19  1  0.30623700  0.78139300  0.34046600  1
  P  P20  1  0.77739400  0.90632900  0.34285100  1
  P  P21  1  0.66293000  0.66506500  0.12924700  1
  P  P22  1  0.67420800  0.66243600  0.62907900  1
  P  P23  1  0.91116700  0.78178400  0.83960700  1
  P  P24  1  0.08477600  0.68839400  0.65403300  1
  P  P25  1  0.77330000  0.31696400  0.84519000  1
  P  P26  1  0.23008000  0.68529100  0.15470700  1
  P  P27  1  0.91187900  0.31681700  0.34531900  1
  P  P28  1  0.08139900  0.22231100  0.15834800  1
  P  P29  1  0.32582000  0.33506300  0.37096700  1
  P  P30  1  0.33996900  0.33407100  0.87074700  1
  P  P31  1  0.22326100  0.08613900  0.65860800  1
  P  P32  1  0.69626100  0.22228600  0.65816800  1
  P  P33  1  0.69214000  0.08540800  0.15820200  1
  O  O34  1  0.21933700  0.01003500  0.56653800  1
  O  O35  1  0.33727100  0.92304400  0.33997900  1
  O  O36  1  0.22250900  0.77336900  0.06393600  1
  O  O37  1  0.33518000  0.73976600  0.83885900  1
  O  O38  1  0.47771900  0.89300000  0.82948700  1
  O  O39  1  0.50540900  0.81322800  0.16430300  1
  O  O40  1  0.62684600  0.89244200  0.32968100  1
  O  O41  1  0.77270700  0.00974300  0.06629900  1
  O  O42  1  0.73864700  0.92191900  0.84071800  1
  O  O43  1  0.52349000  0.66873500  0.67357200  1
  O  O44  1  0.47057000  0.63078000  0.33453900  1
  O  O45  1  0.67916300  0.81193600  0.66504100  1
  O  O46  1  0.66150100  0.65772100  0.02162300  1
  O  O47  1  0.67654700  0.65842200  0.52132400  1
  O  O48  1  0.80276500  0.67613400  0.17280100  1
  O  O49  1  0.62365700  0.47956000  0.83138900  1
  O  O50  1  0.66742000  0.51434500  0.17284700  1
  O  O51  1  0.92279300  0.73854600  0.33842400  1
  O  O52  1  0.98300800  0.80367300  0.74094700  1
  O  O53  1  0.00124900  0.77434800  0.56319800  1
  O  O54  1  0.00627700  0.79134100  0.92053400  1
  O  O55  1  0.89763500  0.63015200  0.83323100  1
  O  O56  1  0.81825200  0.51156200  0.67074500  1
  O  O57  1  0.08670800  0.65913600  0.16207900  1
  O  O58  1  0.90282400  0.47843500  0.32953800  1
  O  O59  1  0.74347400  0.34516800  0.34338800  1
  O  O60  1  0.21238300  0.80037500  0.24199900  1
  O  O61  1  0.20081800  0.79254500  0.42146400  1
  O  O62  1  0.80774200  0.20337600  0.57842200  1
  O  O63  1  0.25128800  0.66239400  0.66065800  1
  O  O64  1  0.08140000  0.53444300  0.66876000  1
  O  O65  1  0.91619200  0.34162600  0.84170000  1
  O  O66  1  0.18347700  0.48761600  0.32833300  1
  O  O67  1  0.08061000  0.37851500  0.16565800  1
  O  O68  1  0.98912800  0.20447800  0.07844000  1
  O  O69  1  0.99995900  0.23370600  0.43549200  1
  O  O70  1  0.00801500  0.20220500  0.25844100  1
  O  O71  1  0.08539400  0.25515800  0.66413500  1
  O  O72  1  0.33819300  0.48139800  0.82294600  1
  O  O73  1  0.38355900  0.53092200  0.16795800  1
  O  O74  1  0.19031800  0.33458800  0.82728000  1
  O  O75  1  0.33869200  0.34723900  0.97702700  1
  O  O76  1  0.32126300  0.33742400  0.47752700  1
  O  O77  1  0.32604500  0.18689900  0.32925400  1
  O  O78  1  0.54049700  0.37834800  0.66234800  1
  O  O79  1  0.47581300  0.33645800  0.32655100  1
  O  O80  1  0.25271200  0.08050800  0.15840000  1
  O  O81  1  0.20676700  0.99688700  0.75065900  1
  O  O82  1  0.22729100  0.98881700  0.93311900  1
  O  O83  1  0.38339900  0.08381700  0.67457000  1
  O  O84  1  0.48824200  0.18394200  0.83265900  1
  O  O85  1  0.53412300  0.08336800  0.17361500  1
  O  O86  1  0.66258700  0.25428700  0.16443000  1
  O  O87  1  0.76938800  0.23248900  0.93547400  1
  O  O88  1  0.78754100  0.20342000  0.75850300  1
  O  O89  1  0.66574100  0.08058500  0.65912400  1
  O  O90  1  0.78331100  0.98700000  0.43251500  1
  O  O91  1  0.79647700  0.99534100  0.25040700  1
