# generated using pymatgen
data_SrLiTi4CrO11
_symmetry_space_group_name_H-M   'P 1'
_cell_length_a   5.83419800
_cell_length_b   9.99170100
_cell_length_c   13.96128000
_cell_angle_alpha   90.00000000
_cell_angle_beta   90.00000000
_cell_angle_gamma   90.00000000
_symmetry_Int_Tables_number   1
_chemical_formula_structural   SrLiTi4CrO11
_chemical_formula_sum   'Sr4 Li4 Ti16 Cr4 O44'
_cell_volume   813.85274115
_cell_formula_units_Z   4
loop_
 _symmetry_equiv_pos_site_id
 _symmetry_equiv_pos_as_xyz
  1  'x, y, z'
loop_
 _atom_site_type_symbol
 _atom_site_label
 _atom_site_symmetry_multiplicity
 _atom_site_fract_x
 _atom_site_fract_y
 _atom_site_fract_z
 _atom_site_occupancy
  Sr  Sr0  1  0.74873000  0.60381900  0.59533200  1
  Sr  Sr1  1  0.74873000  0.89618100  0.09533200  1
  Sr  Sr2  1  0.24873000  0.39618100  0.40466800  1
  Sr  Sr3  1  0.24873000  0.10381900  0.90466800  1
  Li  Li4  1  0.75028700  0.92112000  0.54012700  1
  Li  Li5  1  0.75028700  0.57888000  0.04012700  1
  Li  Li6  1  0.25028700  0.07888000  0.45987300  1
  Li  Li7  1  0.25028700  0.42112000  0.95987300  1
  Ti  Ti8  1  0.74515000  0.27399300  0.50274800  1
  Ti  Ti9  1  0.74515000  0.22600700  0.00274800  1
  Ti  Ti10  1  0.24515000  0.72600700  0.49725200  1
  Ti  Ti11  1  0.24515000  0.77399300  0.99725200  1
  Ti  Ti12  1  0.74228900  0.93070300  0.83192800  1
  Ti  Ti13  1  0.74228900  0.56929700  0.33192800  1
  Ti  Ti14  1  0.24228900  0.06929700  0.16807200  1
  Ti  Ti15  1  0.24228900  0.43070300  0.66807200  1
  Ti  Ti16  1  0.75542900  0.38814000  0.83408900  1
  Ti  Ti17  1  0.75542900  0.11186000  0.33408900  1
  Ti  Ti18  1  0.25542900  0.61186000  0.16591100  1
  Ti  Ti19  1  0.25542900  0.88814000  0.66591100  1
  Ti  Ti20  1  0.99858600  0.34019500  0.17210400  1
  Ti  Ti21  1  0.49858600  0.65980500  0.82789600  1
  Ti  Ti22  1  0.49858600  0.84019500  0.32789600  1
  Ti  Ti23  1  0.99858600  0.15980500  0.67210400  1
  Cr  Cr24  1  0.50112300  0.16490500  0.67114600  1
  Cr  Cr25  1  0.00112300  0.83509500  0.32885400  1
  Cr  Cr26  1  0.00112300  0.66490500  0.82885400  1
  Cr  Cr27  1  0.50112300  0.33509500  0.17114600  1
  O  O28  1  0.74405600  0.75556000  0.76116700  1
  O  O29  1  0.74405600  0.74444000  0.26116700  1
  O  O30  1  0.24405600  0.24444000  0.23883300  1
  O  O31  1  0.24405600  0.25556000  0.73883300  1
  O  O32  1  0.75025200  0.05984100  0.93456600  1
  O  O33  1  0.75025200  0.44015900  0.43456600  1
  O  O34  1  0.25025200  0.94015900  0.06543400  1
  O  O35  1  0.25025200  0.55984100  0.56543400  1
  O  O36  1  0.74636000  0.56934800  0.89705100  1
  O  O37  1  0.74636000  0.93065200  0.39705100  1
  O  O38  1  0.24636000  0.43065200  0.10294900  1
  O  O39  1  0.24636000  0.06934800  0.60294900  1
  O  O40  1  0.52982000  0.31557300  0.91387100  1
  O  O41  1  0.97381100  0.18402800  0.41425900  1
  O  O42  1  0.02982000  0.68442700  0.08612900  1
  O  O43  1  0.47381100  0.81597200  0.58574100  1
  O  O44  1  0.47381100  0.68402800  0.08574100  1
  O  O45  1  0.02982000  0.81557300  0.58612900  1
  O  O46  1  0.97381100  0.31597200  0.91425900  1
  O  O47  1  0.52982000  0.18442700  0.41387100  1
  O  O48  1  0.75518300  0.24619800  0.74490200  1
  O  O49  1  0.75518300  0.25380200  0.24490200  1
  O  O50  1  0.25518300  0.75380200  0.25509800  1
  O  O51  1  0.25518300  0.74619800  0.75509800  1
  O  O52  1  0.50748200  0.82584900  0.91467000  1
  O  O53  1  0.99790000  0.67219300  0.41537400  1
  O  O54  1  0.00748200  0.17415100  0.08533000  1
  O  O55  1  0.49790000  0.32780700  0.58462600  1
  O  O56  1  0.49790000  0.17219300  0.08462600  1
  O  O57  1  0.00748200  0.32584900  0.58533000  1
  O  O58  1  0.99790000  0.82780700  0.91537400  1
  O  O59  1  0.50748200  0.67415100  0.41467000  1
  O  O60  1  0.75642200  0.10484300  0.58649700  1
  O  O61  1  0.75642200  0.39515700  0.08649700  1
  O  O62  1  0.25642200  0.89515700  0.41350300  1
  O  O63  1  0.25642200  0.60484300  0.91350300  1
  O  O64  1  0.49793200  0.50257200  0.74316600  1
  O  O65  1  0.99919100  0.99971200  0.24238100  1
  O  O66  1  0.99793200  0.49742800  0.25683400  1
  O  O67  1  0.49919100  0.00028800  0.75761900  1
  O  O68  1  0.49919100  0.49971200  0.25761900  1
  O  O69  1  0.99793200  0.00257200  0.75683400  1
  O  O70  1  0.99919100  0.50028800  0.74238100  1
  O  O71  1  0.49793200  0.99742800  0.24316600  1
