# generated using pymatgen
data_Li9Mn2Co5O16
_symmetry_space_group_name_H-M   'P 1'
_cell_length_a   5.78585559
_cell_length_b   9.77731466
_cell_length_c   5.86557679
_cell_angle_alpha   89.11697705
_cell_angle_beta   60.45224584
_cell_angle_gamma   98.66381626
_symmetry_Int_Tables_number   1
_chemical_formula_structural   Li9Mn2Co5O16
_chemical_formula_sum   'Li9 Mn2 Co5 O16'
_cell_volume   283.81184824
_cell_formula_units_Z   1
loop_
 _symmetry_equiv_pos_site_id
 _symmetry_equiv_pos_as_xyz
  1  'x, y, z'
loop_
 _atom_site_type_symbol
 _atom_site_label
 _atom_site_symmetry_multiplicity
 _atom_site_fract_x
 _atom_site_fract_y
 _atom_site_fract_z
 _atom_site_occupancy
  Li  Li0  1  0.74890737  0.24411537  0.12475295  1
  Li  Li1  1  0.75204111  0.75224374  0.37779525  1
  Li  Li2  1  0.75138291  0.24496227  0.62490443  1
  Li  Li3  1  0.24698050  0.24790062  0.62084133  1
  Li  Li4  1  0.25069818  0.75489121  0.87461988  1
  Li  Li5  1  0.24616853  0.24444682  0.13197267  1
  Li  Li6  1  0.75479775  0.75518032  0.86822203  1
  Li  Li7  1  0.25022120  0.75583462  0.37508468  1
  Li  Li8  1  0.00012022  0.00000890  0.50002153  1
  Mn  Mn9  1  -0.00070929  -0.00045990  0.00016527  1
  Mn  Mn10  1  0.49946289  0.50006311  0.75050594  1
  Co  Co11  1  -0.00022640  0.49929680  0.25021328  1
  Co  Co12  1  -0.00002914  0.50059260  0.74984126  1
  Co  Co13  1  0.49984211  0.00004239  0.49994886  1
  Co  Co14  1  0.49995753  0.00016561  -0.00030975  1
  Co  Co15  1  0.50053506  0.49996502  0.24948341  1
  O  O16  1  0.85894265  0.11155193  0.83331922  1
  O  O17  1  0.86275803  0.61620056  0.08376842  1
  O  O18  1  0.85981689  0.10739430  0.30365549  1
  O  O19  1  0.39430111  0.10290247  0.29756972  1
  O  O20  1  0.38454743  0.61718495  0.56603448  1
  O  O21  1  0.35529510  0.11594791  0.84440828  1
  O  O22  1  0.85902598  0.61866816  0.56609079  1
  O  O23  1  0.38142281  0.61379697  0.04422270  1
  O  O24  1  0.61735016  0.38434309  0.45714026  1
  O  O25  1  0.60632413  0.89875519  0.70293490  1
  O  O26  1  0.61638477  0.38459080  0.93251513  1
  O  O27  1  0.14265103  0.38400393  0.93227525  1
  O  O28  1  0.14285904  0.88940685  0.16643159  1
  O  O29  1  0.13593208  0.38096470  0.41953594  1
  O  O30  1  0.64292826  0.88300838  0.15603372  1
  O  O31  1  0.13931000  0.89203031  0.69600106  1
