# generated using pymatgen
data_Li9Mn2Co5O16
_symmetry_space_group_name_H-M   'P 1'
_cell_length_a   5.86935300
_cell_length_b   5.92503226
_cell_length_c   9.75328191
_cell_angle_alpha   99.63708787
_cell_angle_beta   90.20846930
_cell_angle_gamma   119.45717260
_symmetry_Int_Tables_number   1
_chemical_formula_structural   Li9Mn2Co5O16
_chemical_formula_sum   'Li9 Mn2 Co5 O16'
_cell_volume   289.70163064
_cell_formula_units_Z   1
loop_
 _symmetry_equiv_pos_site_id
 _symmetry_equiv_pos_as_xyz
  1  'x, y, z'
loop_
 _atom_site_type_symbol
 _atom_site_label
 _atom_site_symmetry_multiplicity
 _atom_site_fract_x
 _atom_site_fract_y
 _atom_site_fract_z
 _atom_site_occupancy
  Li  Li0  1  0.86901400  0.25417500  0.73303000  1
  Li  Li1  1  0.50000000  0.00000000  0.50000000  1
  Li  Li2  1  0.13098600  0.74582500  0.26697000  1
  Li  Li3  1  0.75074300  0.50013200  0.99991100  1
  Li  Li4  1  0.37403500  0.25406400  0.74247800  1
  Li  Li5  1  0.00000000  0.00000000  0.50000000  1
  Li  Li6  1  0.62596500  0.74593600  0.25752200  1
  Li  Li7  1  0.24925700  0.49986800  0.00008900  1
  Li  Li8  1  0.00000000  0.50000000  0.50000000  1
  Mn  Mn9  1  0.74989100  0.00004400  0.99932700  1
  Mn  Mn10  1  0.25010900  0.99995600  0.00067300  1
  Co  Co11  1  0.87699800  0.74663300  0.73839900  1
  Co  Co12  1  0.12300200  0.25336700  0.26160100  1
  Co  Co13  1  0.36158400  0.73368500  0.73808800  1
  Co  Co14  1  0.50000000  0.50000000  0.50000000  1
  Co  Co15  1  0.63841600  0.26631500  0.26191200  1
  O  O16  1  0.05095000  0.10557000  0.88894200  1
  O  O17  1  0.67941600  0.86889300  0.62695700  1
  O  O18  1  0.31847600  0.60176300  0.37324500  1
  O  O19  1  0.92431400  0.34627500  0.12272700  1
  O  O20  1  0.55046900  0.10314500  0.88814400  1
  O  O21  1  0.18418200  0.88092800  0.63948200  1
  O  O22  1  0.80035400  0.60399700  0.36898900  1
  O  O23  1  0.41945100  0.34111800  0.12201600  1
  O  O24  1  0.68152400  0.39823700  0.62675500  1
  O  O25  1  0.32058400  0.13110700  0.37304300  1
  O  O26  1  0.94905000  0.89443000  0.11105800  1
  O  O27  1  0.58054900  0.65888200  0.87798400  1
  O  O28  1  0.19964600  0.39600300  0.63101100  1
  O  O29  1  0.81581800  0.11907200  0.36051800  1
  O  O30  1  0.44953100  0.89685500  0.11185600  1
  O  O31  1  0.07568600  0.65372500  0.87727300  1
