# generated using pymatgen
data_Li6La3(SbO6)2
_symmetry_space_group_name_H-M   'P 1'
_cell_length_a   11.31386326
_cell_length_b   11.31386326
_cell_length_c   11.31386326
_cell_angle_alpha   109.47122063
_cell_angle_beta   109.47122063
_cell_angle_gamma   109.47122063
_symmetry_Int_Tables_number   1
_chemical_formula_structural   Li6La3(SbO6)2
_chemical_formula_sum   'Li24 La12 Sb8 O48'
_cell_volume   1114.83574764
_cell_formula_units_Z   4
loop_
 _symmetry_equiv_pos_site_id
 _symmetry_equiv_pos_as_xyz
  1  'x, y, z'
loop_
 _atom_site_type_symbol
 _atom_site_label
 _atom_site_symmetry_multiplicity
 _atom_site_fract_x
 _atom_site_fract_y
 _atom_site_fract_z
 _atom_site_occupancy
  Li  Li0  1  0.06962400  0.10885900  0.82151000  1
  Li  Li1  1  0.43037600  0.25188600  0.03923500  1
  Li  Li2  1  0.71265100  0.39114100  0.46076500  1
  Li  Li3  1  0.10885900  0.82151000  0.06962400  1
  Li  Li4  1  0.78734900  0.24811400  0.67849000  1
  Li  Li5  1  0.25188600  0.03923500  0.43037600  1
  Li  Li6  1  0.39114100  0.46076500  0.71265100  1
  Li  Li7  1  0.24811400  0.67849000  0.78734900  1
  Li  Li8  1  0.82151000  0.06962400  0.10885900  1
  Li  Li9  1  0.46076500  0.71265100  0.39114100  1
  Li  Li10  1  0.67849000  0.78734900  0.24811400  1
  Li  Li11  1  0.03923500  0.43037600  0.25188600  1
  Li  Li12  1  0.17849000  0.93037600  0.89114100  1
  Li  Li13  1  0.32151000  0.21265100  0.75188600  1
  Li  Li14  1  0.96076500  0.56962400  0.74811400  1
  Li  Li15  1  0.93037600  0.89114100  0.17849000  1
  Li  Li16  1  0.53923500  0.28734900  0.60885900  1
  Li  Li17  1  0.21265100  0.75188600  0.32151000  1
  Li  Li18  1  0.56962400  0.74811400  0.96076500  1
  Li  Li19  1  0.28734900  0.60885900  0.53923500  1
  Li  Li20  1  0.89114100  0.17849000  0.93037600  1
  Li  Li21  1  0.74811400  0.96076500  0.56962400  1
  Li  Li22  1  0.60885900  0.53923500  0.28734900  1
  Li  Li23  1  0.75188600  0.32151000  0.21265100  1
  La  La24  1  0.88025100  0.63025100  0.25000000  1
  La  La25  1  0.61974900  0.86974900  0.75000000  1
  La  La26  1  0.63025100  0.25000000  0.88025100  1
  La  La27  1  0.86974900  0.75000000  0.61974900  1
  La  La28  1  0.25000000  0.88025100  0.63025100  1
  La  La29  1  0.75000000  0.61974900  0.86974900  1
  La  La30  1  0.38025100  0.13025100  0.25000000  1
  La  La31  1  0.11974900  0.36974900  0.75000000  1
  La  La32  1  0.13025100  0.25000000  0.38025100  1
  La  La33  1  0.36974900  0.75000000  0.11974900  1
  La  La34  1  0.25000000  0.38025100  0.13025100  1
  La  La35  1  0.75000000  0.11974900  0.36974900  1
  Sb  Sb36  1  0.50000000  0.50000000  0.50000000  1
  Sb  Sb37  1  0.00000000  0.50000000  0.00000000  1
  Sb  Sb38  1  0.00000000  0.00000000  0.50000000  1
  Sb  Sb39  1  0.50000000  0.00000000  0.00000000  1
  Sb  Sb40  1  0.00000000  0.00000000  0.00000000  1
  Sb  Sb41  1  0.50000000  0.50000000  0.00000000  1
  Sb  Sb42  1  0.00000000  0.50000000  0.50000000  1
  Sb  Sb43  1  0.50000000  0.00000000  0.50000000  1
  O  O44  1  0.03057600  0.31792000  0.91247000  1
  O  O45  1  0.46942400  0.38189400  0.28734300  1
  O  O46  1  0.59455100  0.18208000  0.21265700  1
  O  O47  1  0.31792000  0.91247000  0.03057600  1
  O  O48  1  0.90544900  0.11810600  0.58753000  1
  O  O49  1  0.38189400  0.28734300  0.46942400  1
  O  O50  1  0.18208000  0.21265700  0.59455100  1
  O  O51  1  0.11810600  0.58753000  0.90544900  1
  O  O52  1  0.91247000  0.03057600  0.31792000  1
  O  O53  1  0.21265700  0.59455100  0.18208000  1
  O  O54  1  0.58753000  0.90544900  0.11810600  1
  O  O55  1  0.28734300  0.46942400  0.38189400  1
  O  O56  1  0.88416000  0.98527100  0.80940800  1
  O  O57  1  0.61584000  0.42524800  0.10111100  1
  O  O58  1  0.82413700  0.51472900  0.39888900  1
  O  O59  1  0.98527100  0.80940800  0.88416000  1
  O  O60  1  0.67586300  0.07475200  0.69059200  1
  O  O61  1  0.42524800  0.10111100  0.61584000  1
  O  O62  1  0.51472900  0.39888900  0.82413700  1
  O  O63  1  0.07475200  0.69059200  0.67586300  1
  O  O64  1  0.80940800  0.88416000  0.98527100  1
  O  O65  1  0.39888900  0.82413700  0.51472900  1
  O  O66  1  0.69059200  0.67586300  0.07475200  1
  O  O67  1  0.10111100  0.61584000  0.42524800  1
  O  O68  1  0.19059200  0.11584000  0.01472900  1
  O  O69  1  0.30940800  0.32413700  0.92524800  1
  O  O70  1  0.89888900  0.38416000  0.57475200  1
  O  O71  1  0.11584000  0.01472900  0.19059200  1
  O  O72  1  0.60111100  0.17586300  0.48527100  1
  O  O73  1  0.32413700  0.92524800  0.30940800  1
  O  O74  1  0.38416000  0.57475200  0.89888900  1
  O  O75  1  0.17586300  0.48527100  0.60111100  1
  O  O76  1  0.01472900  0.19059200  0.11584000  1
  O  O77  1  0.57475200  0.89888900  0.38416000  1
  O  O78  1  0.48527100  0.60111100  0.17586300  1
  O  O79  1  0.92524800  0.30940800  0.32413700  1
  O  O80  1  0.08753000  0.96942400  0.68208000  1
  O  O81  1  0.41247000  0.09455100  0.88189400  1
  O  O82  1  0.71265700  0.53057600  0.61810600  1
  O  O83  1  0.96942400  0.68208000  0.08753000  1
  O  O84  1  0.78734300  0.40544900  0.81792000  1
  O  O85  1  0.09455100  0.88189400  0.41247000  1
  O  O86  1  0.53057600  0.61810600  0.71265700  1
  O  O87  1  0.40544900  0.81792000  0.78734300  1
  O  O88  1  0.68208000  0.08753000  0.96942400  1
  O  O89  1  0.61810600  0.71265700  0.53057600  1
  O  O90  1  0.81792000  0.78734300  0.40544900  1
  O  O91  1  0.88189400  0.41247000  0.09455100  1
