# generated using pymatgen
data_Li9Mn2Co5O16
_symmetry_space_group_name_H-M   'P 1'
_cell_length_a   5.94663700
_cell_length_b   6.55012834
_cell_length_c   7.74060686
_cell_angle_alpha   89.34045146
_cell_angle_beta   100.57185924
_cell_angle_gamma   104.03551791
_symmetry_Int_Tables_number   1
_chemical_formula_structural   Li9Mn2Co5O16
_chemical_formula_sum   'Li9 Mn2 Co5 O16'
_cell_volume   287.36777115
_cell_formula_units_Z   1
loop_
 _symmetry_equiv_pos_site_id
 _symmetry_equiv_pos_as_xyz
  1  'x, y, z'
loop_
 _atom_site_type_symbol
 _atom_site_label
 _atom_site_symmetry_multiplicity
 _atom_site_fract_x
 _atom_site_fract_y
 _atom_site_fract_z
 _atom_site_occupancy
  Li  Li0  1  0.49645600  0.99871500  0.99640900  1
  Li  Li1  1  0.25747700  0.74578400  0.25556200  1
  Li  Li2  1  0.87770200  0.37804500  0.12352400  1
  Li  Li3  1  0.62816000  0.13309300  0.38239400  1
  Li  Li4  1  0.00037100  0.49927000  0.49930600  1
  Li  Li5  1  0.37100300  0.86567600  0.61467200  1
  Li  Li6  1  0.12432300  0.62490800  0.87658400  1
  Li  Li7  1  0.74809300  0.25722000  0.75121900  1
  Li  Li8  1  0.49998200  0.50035300  0.49933300  1
  Mn  Mn9  1  0.00032500  0.00143000  0.99991900  1
  Mn  Mn10  1  0.12903300  0.12299300  0.37638300  1
  Co  Co11  1  0.74114700  0.73570500  0.25618600  1
  Co  Co12  1  0.25478100  0.26001700  0.74397200  1
  Co  Co13  1  0.86036200  0.86439400  0.62173900  1
  Co  Co14  1  0.62273400  0.62383700  0.87191400  1
  Co  Co15  1  0.37774700  0.38117300  0.12717700  1
  O  O16  1  0.17168600  0.95611500  0.82077200  1
  O  O17  1  0.93203100  0.70688700  0.05607400  1
  O  O18  1  0.54821800  0.31842300  0.94129000  1
  O  O19  1  0.28563400  0.06327300  0.18618200  1
  O  O20  1  0.69044900  0.44878900  0.30175700  1
  O  O21  1  0.05508700  0.82634300  0.43637800  1
  O  O22  1  0.81030000  0.57884500  0.69749800  1
  O  O23  1  0.40956100  0.17913300  0.55289100  1
  O  O24  1  0.84003500  0.05125000  0.18950800  1
  O  O25  1  0.58199200  0.82006300  0.43802900  1
  O  O26  1  0.19449600  0.41237600  0.30470800  1
  O  O27  1  0.95391800  0.17780600  0.55130900  1
  O  O28  1  0.31503700  0.55145500  0.69986700  1
  O  O29  1  0.70920900  0.93986300  0.82369100  1
  O  O30  1  0.44712300  0.68315900  0.06232300  1
  O  O31  1  0.06552900  0.29360600  0.94143100  1
