# generated using pymatgen
data_LiCoN
_symmetry_space_group_name_H-M   'P 1'
_cell_length_a   3.06380210
_cell_length_b   3.16089374
_cell_length_c   4.08741673
_cell_angle_alpha   90.00000000
_cell_angle_beta   90.00000000
_cell_angle_gamma   118.98900303
_symmetry_Int_Tables_number   1
_chemical_formula_structural   LiCoN
_chemical_formula_sum   'Li1 Co1 N1'
_cell_volume   34.62461691
_cell_formula_units_Z   1
loop_
 _symmetry_equiv_pos_site_id
 _symmetry_equiv_pos_as_xyz
  1  'x, y, z'
loop_
 _atom_site_type_symbol
 _atom_site_label
 _atom_site_symmetry_multiplicity
 _atom_site_fract_x
 _atom_site_fract_y
 _atom_site_fract_z
 _atom_site_occupancy
  Li  Li0  1  0.67059452  0.34118904  0.00000000  1
  Co  Co1  1  0.99766933  0.99533865  0.50000000  1
  N  N2  1  0.66513615  0.33027231  0.50000000  1
