# generated using pymatgen
data_Na3Li3Fe2P2(CO7)2
_symmetry_space_group_name_H-M   'P 1'
_cell_length_a   6.66586700
_cell_length_b   8.72906911
_cell_length_c   10.20067167
_cell_angle_alpha   87.68825111
_cell_angle_beta   89.68767838
_cell_angle_gamma   88.81365453
_symmetry_Int_Tables_number   1
_chemical_formula_structural   Na3Li3Fe2P2(CO7)2
_chemical_formula_sum   'Na6 Li6 Fe4 P4 C4 O28'
_cell_volume   592.92806851
_cell_formula_units_Z   2
loop_
 _symmetry_equiv_pos_site_id
 _symmetry_equiv_pos_as_xyz
  1  'x, y, z'
loop_
 _atom_site_type_symbol
 _atom_site_label
 _atom_site_symmetry_multiplicity
 _atom_site_fract_x
 _atom_site_fract_y
 _atom_site_fract_z
 _atom_site_occupancy
  Na  Na0  1  0.76164600  0.91659800  0.12217700  1
  Na  Na1  1  0.50072500  0.74045100  0.37152100  1
  Na  Na2  1  0.00011400  0.74126100  0.87454500  1
  Na  Na3  1  0.49925300  0.74235800  0.87675900  1
  Na  Na4  1  0.49980300  0.25471200  0.12548800  1
  Na  Na5  1  0.49867300  0.26039600  0.62740400  1
  Li  Li6  1  0.77187700  0.91602100  0.62274900  1
  Li  Li7  1  0.96893900  0.71586400  0.38328100  1
  Li  Li8  1  0.02625700  0.27646500  0.11621200  1
  Li  Li9  1  0.01480500  0.27487400  0.62480200  1
  Li  Li10  1  0.21751300  0.09039300  0.37658800  1
  Li  Li11  1  0.23229900  0.09642700  0.87238800  1
  Fe  Fe12  1  0.24854200  0.64274600  0.11732800  1
  Fe  Fe13  1  0.24295500  0.65752500  0.60558300  1
  Fe  Fe14  1  0.75598400  0.33869200  0.39320300  1
  Fe  Fe15  1  0.75901400  0.34834500  0.89086300  1
  P  P16  1  0.76114300  0.58230500  0.15017200  1
  P  P17  1  0.75204800  0.59010000  0.64455600  1
  P  P18  1  0.24076800  0.40609600  0.35537600  1
  P  P19  1  0.24943200  0.40774900  0.85526200  1
  C  C20  1  0.23823600  0.95770000  0.13679100  1
  C  C21  1  0.23933600  0.96080800  0.63775300  1
  C  C22  1  0.76253200  0.03825400  0.36767400  1
  C  C23  1  0.75631500  0.05735200  0.84936800  1
  O  O24  1  0.78088500  0.89321800  0.34931700  1
  O  O25  1  0.74352700  0.91356500  0.82492800  1
  O  O26  1  0.24510500  0.92763300  0.01320500  1
  O  O27  1  0.24841200  0.92203500  0.51608400  1
  O  O28  1  0.24785700  0.84498800  0.22539300  1
  O  O29  1  0.24364000  0.85295500  0.73083500  1
  O  O30  1  0.93622400  0.68426400  0.09934400  1
  O  O31  1  0.56547800  0.67428200  0.11229500  1
  O  O32  1  0.92691500  0.69913400  0.59839900  1
  O  O33  1  0.55580600  0.67868900  0.60137700  1
  O  O34  1  0.77342600  0.56224700  0.30326900  1
  O  O35  1  0.22635600  0.56966700  0.40990300  1
  O  O36  1  0.75495200  0.56837000  0.79676500  1
  O  O37  1  0.25619800  0.56268500  0.92289900  1
  O  O38  1  0.76870800  0.42145000  0.09070000  1
  O  O39  1  0.22223500  0.42130300  0.20274900  1
  O  O40  1  0.77120500  0.43106700  0.58412600  1
  O  O41  1  0.22145500  0.43661700  0.70417800  1
  O  O42  1  0.44104300  0.32033800  0.39189700  1
  O  O43  1  0.07197600  0.29921900  0.41155900  1
  O  O44  1  0.44340200  0.30827300  0.88133400  1
  O  O45  1  0.07614900  0.30501200  0.91148900  1
  O  O46  1  0.75806200  0.13666700  0.26723300  1
  O  O47  1  0.77795900  0.15798700  0.75239400  1
  O  O48  1  0.74866500  0.08980700  0.48553900  1
  O  O49  1  0.74852400  0.10527900  0.96840200  1
  O  O50  1  0.22229400  0.09719900  0.17619000  1
  O  O51  1  0.22533300  0.10255400  0.67035800  1
