# generated using pymatgen
data_Li2U3(SeO10)2
_symmetry_space_group_name_H-M   'P 1'
_cell_length_a   7.19269000
_cell_length_b   7.47586000
_cell_length_c   17.57605198
_cell_angle_alpha   84.88789296
_cell_angle_beta   90.00000000
_cell_angle_gamma   90.00000000
_symmetry_Int_Tables_number   1
_chemical_formula_structural   Li2U3(SeO10)2
_chemical_formula_sum   'Li4 U6 Se4 O40'
_cell_volume   941.33211411
_cell_formula_units_Z   2
loop_
 _symmetry_equiv_pos_site_id
 _symmetry_equiv_pos_as_xyz
  1  'x, y, z'
loop_
 _atom_site_type_symbol
 _atom_site_label
 _atom_site_symmetry_multiplicity
 _atom_site_fract_x
 _atom_site_fract_y
 _atom_site_fract_z
 _atom_site_occupancy
  Li  Li0  1  0.49686300  0.46284600  0.13266100  1
  Li  Li1  1  0.99686300  0.53715400  0.36733900  1
  Li  Li2  1  0.50313700  0.53715400  0.86733900  1
  Li  Li3  1  0.00313700  0.46284600  0.63266100  1
  U  U4  1  0.00000000  0.00000000  0.00000000  1
  U  U5  1  0.50000000  0.00000000  0.50000000  1
  U  U6  1  0.49714200  0.96804600  0.10598400  1
  U  U7  1  0.99714200  0.03195400  0.39401600  1
  U  U8  1  0.50285800  0.03195400  0.89401600  1
  U  U9  1  0.00285800  0.96804600  0.60598400  1
  Se  Se10  1  0.00746300  0.90631000  0.19902300  1
  Se  Se11  1  0.50746300  0.09369000  0.30097700  1
  Se  Se12  1  0.99253700  0.09369000  0.80097700  1
  Se  Se13  1  0.49253700  0.90631000  0.69902300  1
  O  O14  1  0.32483100  0.01352100  0.99893900  1
  O  O15  1  0.82483100  0.98647900  0.50106100  1
  O  O16  1  0.67516900  0.98647900  0.00106100  1
  O  O17  1  0.17516900  0.01352100  0.49893900  1
  O  O18  1  0.46658300  0.71841300  0.11437000  1
  O  O19  1  0.96658300  0.28158700  0.38563000  1
  O  O20  1  0.53341700  0.28158700  0.88563000  1
  O  O21  1  0.03341700  0.71841300  0.61437000  1
  O  O22  1  0.02008800  0.75976100  0.99843700  1
  O  O23  1  0.52008800  0.24023900  0.50156300  1
  O  O24  1  0.97991200  0.24023900  0.00156300  1
  O  O25  1  0.47991200  0.75976100  0.49843700  1
  O  O26  1  0.52132200  0.21243800  0.12093500  1
  O  O27  1  0.02132200  0.78756200  0.37906500  1
  O  O28  1  0.47867800  0.78756200  0.87906500  1
  O  O29  1  0.97867800  0.21243800  0.62093500  1
  O  O30  1  0.97342200  0.07528500  0.25754800  1
  O  O31  1  0.47342200  0.92471500  0.24245200  1
  O  O32  1  0.02657800  0.92471500  0.74245200  1
  O  O33  1  0.52657800  0.07528500  0.75754800  1
  O  O34  1  0.16331000  0.99802300  0.13081100  1
  O  O35  1  0.66331000  0.00197700  0.36918900  1
  O  O36  1  0.83669000  0.00197700  0.86918900  1
  O  O37  1  0.33669000  0.99802300  0.63081100  1
  O  O38  1  0.82148500  0.91940600  0.13637700  1
  O  O39  1  0.32148500  0.08059400  0.36362300  1
  O  O40  1  0.17851500  0.08059400  0.86362300  1
  O  O41  1  0.67851500  0.91940600  0.63637700  1
  O  O42  1  0.41486300  0.49422600  0.99512100  1
  O  O43  1  0.91486300  0.50577400  0.50487900  1
  O  O44  1  0.58513700  0.50577400  0.00487900  1
  O  O45  1  0.08513700  0.49422600  0.49512100  1
  O  O46  1  0.83087300  0.53768200  0.25484800  1
  O  O47  1  0.33087300  0.46231800  0.24515200  1
  O  O48  1  0.16912700  0.46231800  0.74515200  1
  O  O49  1  0.66912700  0.53768200  0.75484800  1
  O  O50  1  0.67652400  0.46993100  0.24727600  1
  O  O51  1  0.17652400  0.53006900  0.25272400  1
  O  O52  1  0.32347600  0.53006900  0.75272400  1
  O  O53  1  0.82347600  0.46993100  0.74727600  1
