# generated using pymatgen
data_Li4Si2NiO7
_symmetry_space_group_name_H-M   'P 1'
_cell_length_a   4.51027690
_cell_length_b   5.31647485
_cell_length_c   13.54270621
_cell_angle_alpha   81.02059892
_cell_angle_beta   89.96434856
_cell_angle_gamma   115.10873015
_symmetry_Int_Tables_number   1
_chemical_formula_structural   Li4Si2NiO7
_chemical_formula_sum   'Li8 Si4 Ni2 O14'
_cell_volume   289.63492811
_cell_formula_units_Z   2
loop_
 _symmetry_equiv_pos_site_id
 _symmetry_equiv_pos_as_xyz
  1  'x, y, z'
loop_
 _atom_site_type_symbol
 _atom_site_label
 _atom_site_symmetry_multiplicity
 _atom_site_fract_x
 _atom_site_fract_y
 _atom_site_fract_z
 _atom_site_occupancy
  Li  Li0  1  0.87569700  0.69923600  0.22019800  1
  Li  Li1  1  0.85800000  0.70112700  0.71622100  1
  Li  Li2  1  0.29444500  0.56631400  0.07201100  1
  Li  Li3  1  0.29072400  0.57757600  0.57354400  1
  Li  Li4  1  0.72494000  0.42690900  0.42713300  1
  Li  Li5  1  0.70938800  0.41529700  0.92550400  1
  Li  Li6  1  0.17276000  0.29383400  0.27901700  1
  Li  Li7  1  0.15303300  0.29153700  0.78291100  1
  Si  Si8  1  0.42384600  0.84694500  0.35547900  1
  Si  Si9  1  0.40439900  0.84664800  0.85481700  1
  Si  Si10  1  0.57328100  0.14632200  0.14356200  1
  Si  Si11  1  0.55402600  0.14614000  0.64431400  1
  Ni  Ni12  1  0.01017900  0.01855800  0.49602700  1
  Ni  Ni13  1  0.98783900  0.97411500  0.00316200  1
  O  O14  1  0.23769900  0.89238800  0.11417900  1
  O  O15  1  0.22203600  0.89463800  0.61059300  1
  O  O16  1  0.60995900  0.73785600  0.44500300  1
  O  O17  1  0.58993300  0.73230100  0.94296900  1
  O  O18  1  0.09965200  0.58452400  0.32945600  1
  O  O19  1  0.07910200  0.58970700  0.82701500  1
  O  O20  1  0.51193000  0.40889700  0.16963600  1
  O  O21  1  0.48585900  0.40320200  0.67208300  1
  O  O22  1  0.86845300  0.25527700  0.05388900  1
  O  O23  1  0.85444900  0.26070400  0.55612100  1
  O  O24  1  0.34209100  0.10084700  0.38492400  1
  O  O25  1  0.32321300  0.09784900  0.88842900  1
  O  O26  1  0.69096700  0.99672800  0.24949600  1
  O  O27  1  0.67123500  0.99648400  0.74949200  1
