# generated using pymatgen
data_Li9Mn2Co5O16
_symmetry_space_group_name_H-M   'P 1'
_cell_length_a   2.94750700
_cell_length_b   9.75592131
_cell_length_c   10.15034398
_cell_angle_alpha   85.60298801
_cell_angle_beta   87.53496674
_cell_angle_gamma   83.27293718
_symmetry_Int_Tables_number   1
_chemical_formula_structural   Li9Mn2Co5O16
_chemical_formula_sum   'Li9 Mn2 Co5 O16'
_cell_volume   288.84635821
_cell_formula_units_Z   1
loop_
 _symmetry_equiv_pos_site_id
 _symmetry_equiv_pos_as_xyz
  1  'x, y, z'
loop_
 _atom_site_type_symbol
 _atom_site_label
 _atom_site_symmetry_multiplicity
 _atom_site_fract_x
 _atom_site_fract_y
 _atom_site_fract_z
 _atom_site_occupancy
  Li  Li0  1  0.87708900  0.24981400  0.81312500  1
  Li  Li1  1  0.11186500  0.75526300  0.68081800  1
  Li  Li2  1  0.36670200  0.24892200  0.55639600  1
  Li  Li3  1  0.61804500  0.75779000  0.44086400  1
  Li  Li4  1  0.88150200  0.24875000  0.31091100  1
  Li  Li5  1  0.12919100  0.75100700  0.19071700  1
  Li  Li6  1  0.37569500  0.25210400  0.06439700  1
  Li  Li7  1  0.63680500  0.74273400  0.93938400  1
  Li  Li8  1  0.01617400  0.99087600  0.50149000  1
  Mn  Mn9  1  0.99380100  0.00250100  0.00268500  1
  Mn  Mn10  1  0.49523900  0.99884000  0.74170500  1
  Co  Co11  1  0.24953500  0.50041500  0.87469200  1
  Co  Co12  1  0.75145300  0.49690800  0.62309000  1
  Co  Co13  1  0.24887000  0.49834100  0.37511200  1
  Co  Co14  1  0.50740200  0.00156400  0.26186800  1
  Co  Co15  1  0.74918600  0.50433400  0.12703800  1
  O  O16  1  0.40598800  0.11536100  0.90186100  1
  O  O17  1  0.68168100  0.61385000  0.78538500  1
  O  O18  1  0.96132000  0.10944200  0.66578100  1
  O  O19  1  0.18587400  0.61018700  0.52878600  1
  O  O20  1  0.43984000  0.11484000  0.38815400  1
  O  O21  1  0.65618700  0.61348100  0.28462500  1
  O  O22  1  0.91691200  0.11573100  0.15652100  1
  O  O23  1  0.18787900  0.61943500  0.03376500  1
  O  O24  1  0.32216700  0.38311000  0.71401500  1
  O  O25  1  0.56424300  0.88104600  0.60728700  1
  O  O26  1  0.84162300  0.38092500  0.46498000  1
  O  O27  1  0.09003800  0.88471300  0.33538000  1
  O  O28  1  0.30590500  0.38994600  0.22029100  1
  O  O29  1  0.58122500  0.88895100  0.10144700  1
  O  O30  1  0.82359700  0.38553300  0.96806700  1
  O  O31  1  0.02696700  0.89328900  0.83936400  1
