# generated using pymatgen
data_Ba2LiHg
_symmetry_space_group_name_H-M   'P 1'
_cell_length_a   13.75627031
_cell_length_b   13.75627031
_cell_length_c   13.75627031
_cell_angle_alpha   120.78907645
_cell_angle_beta   117.50598429
_cell_angle_gamma   91.50588650
_symmetry_Int_Tables_number   1
_chemical_formula_structural   Ba2LiHg
_chemical_formula_sum   'Ba2 Li1 Hg1'
_cell_volume   1861.88618698
_cell_formula_units_Z   1
loop_
 _symmetry_equiv_pos_site_id
 _symmetry_equiv_pos_as_xyz
  1  'x, y, z'
loop_
 _atom_site_type_symbol
 _atom_site_label
 _atom_site_symmetry_multiplicity
 _atom_site_fract_x
 _atom_site_fract_y
 _atom_site_fract_z
 _atom_site_occupancy
  Ba  Ba0  1  0.26236500  0.00000000  0.26236500  1
  Ba  Ba1  1  0.73763500  0.00000000  0.73763500  1
  Li  Li2  1  0.00000000  0.00000000  0.00000000  1
  Hg  Hg3  1  0.50000000  0.00000000  0.50000000  1
