# generated using pymatgen
data_Li4Zn(PO4)2
_symmetry_space_group_name_H-M   'P 1'
_cell_length_a   10.39351800
_cell_length_b   8.21008100
_cell_length_c   8.21519224
_cell_angle_alpha   75.30080971
_cell_angle_beta   90.00000000
_cell_angle_gamma   90.00000000
_symmetry_Int_Tables_number   1
_chemical_formula_structural   Li4Zn(PO4)2
_chemical_formula_sum   'Li16 Zn4 P8 O32'
_cell_volume   678.07239563
_cell_formula_units_Z   4
loop_
 _symmetry_equiv_pos_site_id
 _symmetry_equiv_pos_as_xyz
  1  'x, y, z'
loop_
 _atom_site_type_symbol
 _atom_site_label
 _atom_site_symmetry_multiplicity
 _atom_site_fract_x
 _atom_site_fract_y
 _atom_site_fract_z
 _atom_site_occupancy
  Li  Li0  1  0.50657400  0.65705600  0.09138200  1
  Li  Li1  1  0.00657400  0.34294400  0.90861800  1
  Li  Li2  1  0.68417500  0.65655500  0.59083500  1
  Li  Li3  1  0.18417500  0.34344500  0.40916500  1
  Li  Li4  1  0.00802200  0.59877800  0.15238300  1
  Li  Li5  1  0.50802200  0.40122200  0.84761700  1
  Li  Li6  1  0.18163000  0.60462600  0.64835200  1
  Li  Li7  1  0.68163000  0.39537400  0.35164800  1
  Li  Li8  1  0.99729500  0.84943600  0.40364700  1
  Li  Li9  1  0.49729500  0.15056400  0.59635300  1
  Li  Li10  1  0.19432100  0.85038700  0.89958200  1
  Li  Li11  1  0.69432100  0.14961300  0.10041800  1
  Li  Li12  1  0.26794100  0.51562100  0.98507600  1
  Li  Li13  1  0.76794100  0.48437900  0.01492400  1
  Li  Li14  1  0.91762600  0.52200900  0.47600900  1
  Li  Li15  1  0.41762600  0.47799100  0.52399100  1
  Zn  Zn16  1  0.50070300  0.90806700  0.34027600  1
  Zn  Zn17  1  0.00070300  0.09193300  0.65972400  1
  Zn  Zn18  1  0.68850700  0.91028200  0.84094500  1
  Zn  Zn19  1  0.18850700  0.08971800  0.15905500  1
  P  P20  1  0.25334700  0.71181500  0.27592700  1
  P  P21  1  0.75334700  0.28818500  0.72407300  1
  P  P22  1  0.93675900  0.70862400  0.77855900  1
  P  P23  1  0.43675900  0.29137600  0.22144100  1
  P  P24  1  0.75252000  0.76899900  0.21488100  1
  P  P25  1  0.25252000  0.23100100  0.78511900  1
  P  P26  1  0.43893600  0.76927200  0.71428600  1
  P  P27  1  0.93893600  0.23072800  0.28571400  1
  O  O28  1  0.44990800  0.93048800  0.56440300  1
  O  O29  1  0.94990800  0.06951200  0.43559700  1
  O  O30  1  0.74439600  0.92955600  0.06418200  1
  O  O31  1  0.24439600  0.07044400  0.93581800  1
  O  O32  1  0.39724400  0.76014900  0.23517800  1
  O  O33  1  0.89724400  0.23985100  0.76482200  1
  O  O34  1  0.79080100  0.75129400  0.74705500  1
  O  O35  1  0.29080100  0.24870600  0.25294500  1
  O  O36  1  0.29844100  0.72623000  0.77041100  1
  O  O37  1  0.79844100  0.27377000  0.22958900  1
  O  O38  1  0.89322800  0.72642800  0.27147500  1
  O  O39  1  0.39322800  0.27357200  0.72852500  1
  O  O40  1  0.24675600  0.56282100  0.43606100  1
  O  O41  1  0.74675600  0.43717900  0.56393900  1
  O  O42  1  0.94752000  0.56023000  0.93827300  1
  O  O43  1  0.44752000  0.43977000  0.06172700  1
  O  O44  1  0.19246000  0.66323800  0.12246300  1
  O  O45  1  0.69246000  0.33676200  0.87753700  1
  O  O46  1  0.99381800  0.65980900  0.62242400  1
  O  O47  1  0.49381800  0.34019100  0.37757600  1
  O  O48  1  0.17850700  0.86303600  0.31423100  1
  O  O49  1  0.67850700  0.13696400  0.68576900  1
  O  O50  1  0.01251600  0.86183000  0.81035600  1
  O  O51  1  0.51251600  0.13817000  0.18964400  1
  O  O52  1  0.68956700  0.61749400  0.16320900  1
  O  O53  1  0.18956700  0.38250600  0.83679100  1
  O  O54  1  0.50099500  0.61899800  0.65880100  1
  O  O55  1  0.00099500  0.38100200  0.34119900  1
  O  O56  1  0.67588100  0.80795000  0.36417400  1
  O  O57  1  0.17588100  0.19205000  0.63582600  1
  O  O58  1  0.51530600  0.80590000  0.86458200  1
  O  O59  1  0.01530600  0.19410000  0.13541800  1
