# generated using pymatgen
data_NaLiSi2H4O7
_symmetry_space_group_name_H-M   'P 1'
_cell_length_a   8.41150426
_cell_length_b   8.41150426
_cell_length_c   5.12564187
_cell_angle_alpha   84.22341870
_cell_angle_beta   84.22341870
_cell_angle_gamma   60.05921722
_symmetry_Int_Tables_number   1
_chemical_formula_structural   NaLiSi2H4O7
_chemical_formula_sum   'Na2 Li2 Si4 H8 O14'
_cell_volume   312.12622982
_cell_formula_units_Z   2
loop_
 _symmetry_equiv_pos_site_id
 _symmetry_equiv_pos_as_xyz
  1  'x, y, z'
loop_
 _atom_site_type_symbol
 _atom_site_label
 _atom_site_symmetry_multiplicity
 _atom_site_fract_x
 _atom_site_fract_y
 _atom_site_fract_z
 _atom_site_occupancy
  Na  Na0  1  0.14612700  0.85387300  0.25000000  1
  Na  Na1  1  0.85387300  0.14612700  0.75000000  1
  Li  Li2  1  0.50979900  0.49020100  0.25000000  1
  Li  Li3  1  0.49020100  0.50979900  0.75000000  1
  Si  Si4  1  0.78387400  0.58948600  0.44641300  1
  Si  Si5  1  0.41051400  0.21612600  0.05358700  1
  Si  Si6  1  0.21612600  0.41051400  0.55358700  1
  Si  Si7  1  0.58948600  0.78387400  0.94641300  1
  H  H8  1  0.74761700  0.94870500  0.47514100  1
  H  H9  1  0.05129500  0.25238300  0.02485900  1
  H  H10  1  0.25238300  0.05129500  0.52485900  1
  H  H11  1  0.94870500  0.74761700  0.97514100  1
  H  H12  1  0.72149800  0.11217100  0.27009000  1
  H  H13  1  0.88782900  0.27850200  0.22991000  1
  H  H14  1  0.27850200  0.88782900  0.72991000  1
  H  H15  1  0.11217100  0.72149800  0.77009000  1
  O  O16  1  0.70643900  0.44800000  0.48839900  1
  O  O17  1  0.55200000  0.29356100  0.01160100  1
  O  O18  1  0.29356100  0.55200000  0.51160100  1
  O  O19  1  0.44800000  0.70643900  0.98839900  1
  O  O20  1  0.76616300  0.67533200  0.13755600  1
  O  O21  1  0.32466800  0.23383700  0.36244400  1
  O  O22  1  0.23383700  0.32466800  0.86244400  1
  O  O23  1  0.67533200  0.76616300  0.63755600  1
  O  O24  1  0.00000000  0.50000000  0.50000000  1
  O  O25  1  0.50000000  0.00000000  0.00000000  1
  O  O26  1  0.80462900  0.02222500  0.40087300  1
  O  O27  1  0.97777500  0.19537100  0.09912700  1
  O  O28  1  0.19537100  0.97777500  0.59912700  1
  O  O29  1  0.02222500  0.80462900  0.90087300  1
