# generated using pymatgen
data_K3Li2Nb5O15
_symmetry_space_group_name_H-M   'P 1'
_cell_length_a   12.86791400
_cell_length_b   12.86791400
_cell_length_c   4.03887700
_cell_angle_alpha   90.00000000
_cell_angle_beta   90.00000000
_cell_angle_gamma   90.00000000
_symmetry_Int_Tables_number   1
_chemical_formula_structural   K3Li2Nb5O15
_chemical_formula_sum   'K6 Li4 Nb10 O30'
_cell_volume   668.77022133
_cell_formula_units_Z   2
loop_
 _symmetry_equiv_pos_site_id
 _symmetry_equiv_pos_as_xyz
  1  'x, y, z'
loop_
 _atom_site_type_symbol
 _atom_site_label
 _atom_site_symmetry_multiplicity
 _atom_site_fract_x
 _atom_site_fract_y
 _atom_site_fract_z
 _atom_site_occupancy
  K  K0  1  0.50000000  0.50000000  0.50000000  1
  K  K1  1  0.00000000  0.00000000  0.50000000  1
  K  K2  1  0.67240100  0.82759900  0.50000000  1
  K  K3  1  0.32759900  0.17240100  0.50000000  1
  K  K4  1  0.17240100  0.67240100  0.50000000  1
  K  K5  1  0.82759900  0.32759900  0.50000000  1
  Li  Li6  1  0.87730900  0.62269100  0.50000000  1
  Li  Li7  1  0.12269100  0.37730900  0.50000000  1
  Li  Li8  1  0.37730900  0.87730900  0.50000000  1
  Li  Li9  1  0.62269100  0.12269100  0.50000000  1
  Nb  Nb10  1  0.50000000  0.00000000  0.00000000  1
  Nb  Nb11  1  0.00000000  0.50000000  0.00000000  1
  Nb  Nb12  1  0.70728800  0.57599800  0.00000000  1
  Nb  Nb13  1  0.29271200  0.42400200  0.00000000  1
  Nb  Nb14  1  0.20728800  0.92400200  0.00000000  1
  Nb  Nb15  1  0.79271200  0.07599800  0.00000000  1
  Nb  Nb16  1  0.42400200  0.70728800  0.00000000  1
  Nb  Nb17  1  0.57599800  0.29271200  0.00000000  1
  Nb  Nb18  1  0.07599800  0.20728800  0.00000000  1
  Nb  Nb19  1  0.92400200  0.79271200  0.00000000  1
  O  O20  1  0.49729900  0.84564800  0.00000000  1
  O  O21  1  0.50270100  0.15435200  0.00000000  1
  O  O22  1  0.99729900  0.65435200  0.00000000  1
  O  O23  1  0.00270100  0.34564800  0.00000000  1
  O  O24  1  0.15435200  0.49729900  0.00000000  1
  O  O25  1  0.84564800  0.50270100  0.00000000  1
  O  O26  1  0.34564800  0.99729900  0.00000000  1
  O  O27  1  0.65435200  0.00270100  0.00000000  1
  O  O28  1  0.50000000  0.00000000  0.50000000  1
  O  O29  1  0.00000000  0.50000000  0.50000000  1
  O  O30  1  0.79007000  0.70993000  0.00000000  1
  O  O31  1  0.20993000  0.29007000  0.00000000  1
  O  O32  1  0.29007000  0.79007000  0.00000000  1
  O  O33  1  0.70993000  0.20993000  0.00000000  1
  O  O34  1  0.56840800  0.64105100  0.00000000  1
  O  O35  1  0.43159200  0.35894900  0.00000000  1
  O  O36  1  0.06840800  0.85894900  0.00000000  1
  O  O37  1  0.93159200  0.14105100  0.00000000  1
  O  O38  1  0.35894900  0.56840800  0.00000000  1
  O  O39  1  0.64105100  0.43159200  0.00000000  1
  O  O40  1  0.14105100  0.06840800  0.00000000  1
  O  O41  1  0.85894900  0.93159200  0.00000000  1
  O  O42  1  0.71554800  0.57911800  0.50000000  1
  O  O43  1  0.28445200  0.42088200  0.50000000  1
  O  O44  1  0.21554800  0.92088200  0.50000000  1
  O  O45  1  0.78445200  0.07911800  0.50000000  1
  O  O46  1  0.42088200  0.71554800  0.50000000  1
  O  O47  1  0.57911800  0.28445200  0.50000000  1
  O  O48  1  0.07911800  0.21554800  0.50000000  1
  O  O49  1  0.92088200  0.78445200  0.50000000  1
