# generated using pymatgen
data_Li4Mn2Ni3Sn(PO4)6
_symmetry_space_group_name_H-M   'P 1'
_cell_length_a   8.60616600
_cell_length_b   8.68957840
_cell_length_c   8.69604018
_cell_angle_alpha   61.23830762
_cell_angle_beta   61.63895097
_cell_angle_gamma   61.54740320
_symmetry_Int_Tables_number   1
_chemical_formula_structural   Li4Mn2Ni3Sn(PO4)6
_chemical_formula_sum   'Li4 Mn2 Ni3 Sn1 P6 O24'
_cell_volume   475.06360502
_cell_formula_units_Z   1
loop_
 _symmetry_equiv_pos_site_id
 _symmetry_equiv_pos_as_xyz
  1  'x, y, z'
loop_
 _atom_site_type_symbol
 _atom_site_label
 _atom_site_symmetry_multiplicity
 _atom_site_fract_x
 _atom_site_fract_y
 _atom_site_fract_z
 _atom_site_occupancy
  Li  Li0  1  0.25698000  0.64269800  0.85229900  1
  Li  Li1  1  0.69225300  0.35897900  0.15645100  1
  Li  Li2  1  0.36138700  0.15495500  0.68950100  1
  Li  Li3  1  0.15614800  0.68380600  0.36381300  1
  Mn  Mn4  1  0.98180800  0.99954600  0.99826400  1
  Mn  Mn5  1  0.51503900  0.50128100  0.49846100  1
  Ni  Ni6  1  0.86051500  0.85309400  0.85021500  1
  Ni  Ni7  1  0.64144400  0.65090100  0.64825400  1
  Ni  Ni8  1  0.35589700  0.34677500  0.34982400  1
  Sn  Sn9  1  0.14490600  0.14801000  0.15250200  1
  P  P10  1  0.75158000  0.04393900  0.45896300  1
  P  P11  1  0.44873200  0.74953800  0.04055700  1
  P  P12  1  0.05510300  0.46345100  0.75388100  1
  P  P13  1  0.94758200  0.55383300  0.25672900  1
  P  P14  1  0.55462200  0.25001800  0.95099200  1
  P  P15  1  0.25314200  0.95073700  0.55532300  1
  O  O16  1  0.87876400  0.50999400  0.72074000  1
  O  O17  1  0.70059100  0.88938300  0.48074600  1
  O  O18  1  0.94099100  0.73766800  0.09057800  1
  O  O19  1  0.44213300  0.70495900  0.89397300  1
  O  O20  1  0.98228000  0.39442100  0.19491000  1
  O  O21  1  0.75937900  0.56563200  0.41322800  1
  O  O22  1  0.74429400  0.09694800  0.92140500  1
  O  O23  1  0.54194500  0.41936400  0.77100000  1
  O  O24  1  0.83596500  0.00429800  0.59578600  1
  O  O25  1  0.40494400  0.75690300  0.56889400  1
  O  O26  1  0.89058100  0.09921100  0.24465200  1
  O  O27  1  0.60402400  0.82180000  0.97681300  1
  O  O28  1  0.39532600  0.18092700  0.99618600  1
  O  O29  1  0.10034000  0.92512000  0.74869700  1
  O  O30  1  0.58355500  0.23404200  0.45366900  1
  O  O31  1  0.18893100  0.99030600  0.39702600  1
  O  O32  1  0.45445200  0.58020200  0.22793900  1
  O  O33  1  0.24039500  0.89256800  0.10430200  1
  O  O34  1  0.23809700  0.44961900  0.58010200  1
  O  O35  1  0.05102200  0.59611100  0.82429600  1
  O  O36  1  0.52559100  0.30476100  0.10861800  1
  O  O37  1  0.09764200  0.25062700  0.89501800  1
  O  O38  1  0.31366800  0.10589100  0.52210300  1
  O  O39  1  0.10795000  0.51468500  0.31629300  1
