# generated using pymatgen
data_Li6Zn3(PS4)4
_symmetry_space_group_name_H-M   'P 1'
_cell_length_a   9.33423900
_cell_length_b   11.59949806
_cell_length_c   23.15109618
_cell_angle_alpha   90.06921738
_cell_angle_beta   90.04544343
_cell_angle_gamma   90.00571995
_symmetry_Int_Tables_number   1
_chemical_formula_structural   Li6Zn3(PS4)4
_chemical_formula_sum   'Li24 Zn12 P16 S64'
_cell_volume   2506.62413317
_cell_formula_units_Z   4
loop_
 _symmetry_equiv_pos_site_id
 _symmetry_equiv_pos_as_xyz
  1  'x, y, z'
loop_
 _atom_site_type_symbol
 _atom_site_label
 _atom_site_symmetry_multiplicity
 _atom_site_fract_x
 _atom_site_fract_y
 _atom_site_fract_z
 _atom_site_occupancy
  Li  Li0  1  0.74720700  0.74782000  0.50307000  1
  Li  Li1  1  0.24642400  0.50914800  0.87427900  1
  Li  Li2  1  0.25438200  0.99111000  0.87764900  1
  Li  Li3  1  0.74784700  0.74342500  0.75046100  1
  Li  Li4  1  0.49789800  0.50018300  0.24914000  1
  Li  Li5  1  0.49442800  0.00145200  0.25017700  1
  Li  Li6  1  0.48941100  0.49739300  0.49901600  1
  Li  Li7  1  0.49209700  0.00313800  0.50037200  1
  Li  Li8  1  0.99896100  0.24874900  0.37498900  1
  Li  Li9  1  0.00144900  0.74751800  0.37153200  1
  Li  Li10  1  0.49935200  0.49699800  0.74873400  1
  Li  Li11  1  0.50200000  0.99836400  0.74926600  1
  Li  Li12  1  0.00549400  0.25205700  0.62493600  1
  Li  Li13  1  0.01121100  0.74969200  0.62511600  1
  Li  Li14  1  0.50886000  0.50250900  0.00157200  1
  Li  Li15  1  0.50795400  0.99956500  0.00195700  1
  Li  Li16  1  0.99144600  0.25172600  0.87453300  1
  Li  Li17  1  0.98947700  0.75326700  0.87853900  1
  Li  Li18  1  0.99876900  0.24674200  0.12481800  1
  Li  Li19  1  0.99418300  0.75076600  0.12483100  1
  Li  Li20  1  0.48417700  0.74784900  0.62516500  1
  Li  Li21  1  0.50769700  0.74889800  0.87675100  1
  Li  Li22  1  0.00209100  0.50145500  0.74853600  1
  Li  Li23  1  0.99287900  0.99822700  0.00187100  1
  Zn  Zn24  1  0.50083600  0.75225300  0.12480500  1
  Zn  Zn25  1  0.50188600  0.24972700  0.12441700  1
  Zn  Zn26  1  0.49359900  0.74896100  0.37337300  1
  Zn  Zn27  1  0.50017100  0.25156500  0.37477500  1
  Zn  Zn28  1  0.00126000  0.50028200  0.24915800  1
  Zn  Zn29  1  0.00067300  0.00158700  0.24909200  1
  Zn  Zn30  1  0.50300900  0.25011500  0.62553500  1
  Zn  Zn31  1  0.00705300  0.49795500  0.50083000  1
  Zn  Zn32  1  0.00665800  0.00109600  0.49899900  1
  Zn  Zn33  1  0.51291500  0.24855500  0.87475100  1
  Zn  Zn34  1  0.00080300  0.99955200  0.74959300  1
  Zn  Zn35  1  0.99441700  0.50154500  0.00056800  1
  P  P36  1  0.24935200  0.74967000  0.24935300  1
  P  P37  1  0.24981700  0.25007600  0.25010500  1
  P  P38  1  0.24893100  0.75402300  0.49792600  1
  P  P39  1  0.25091700  0.24946000  0.49981000  1
  P  P40  1  0.74766400  0.50138400  0.37518200  1
  P  P41  1  0.75202500  0.99932900  0.37604000  1
  P  P42  1  0.24955100  0.75220000  0.75504100  1
  P  P43  1  0.25220000  0.24878500  0.74898100  1
  P  P44  1  0.74947100  0.50524100  0.62083900  1
  P  P45  1  0.75105500  0.99896000  0.62672900  1
  P  P46  1  0.25021300  0.74359500  0.99808800  1
  P  P47  1  0.25179400  0.25171300  0.00085100  1
  P  P48  1  0.75365400  0.49566800  0.87233800  1
  P  P49  1  0.74818300  0.00496200  0.87550200  1
  P  P50  1  0.75005400  0.49982400  0.12574800  1
  P  P51  1  0.74792800  0.99603000  0.12717300  1
  S  S52  1  0.12966900  0.63952100  0.05177200  1
  S  S53  1  0.13627700  0.14420200  0.05055400  1
  S  S54  1  0.13803300  0.63667500  0.30173400  1
  S  S55  1  0.13673100  0.13835900  0.30258100  1
  S  S56  1  0.63485600  0.38875800  0.17764700  1
  S  S57  1  0.62660600  0.89010200  0.17993000  1
  S  S58  1  0.13672200  0.64100700  0.55056600  1
  S  S59  1  0.13768100  0.13790100  0.55193800  1
  S  S60  1  0.63483300  0.39060000  0.42761700  1
  S  S61  1  0.62943000  0.88795300  0.42770200  1
  S  S62  1  0.12099500  0.64876400  0.80580100  1
  S  S63  1  0.13442900  0.13830600  0.80275300  1
  S  S64  1  0.63668800  0.39401500  0.67387800  1
  S  S65  1  0.63299800  0.88857900  0.67614900  1
  S  S66  1  0.63187400  0.39214800  0.92629400  1
  S  S67  1  0.63328200  0.89713900  0.92612700  1
  S  S68  1  0.36461200  0.35468100  0.30593700  1
  S  S69  1  0.36106600  0.85514500  0.30575500  1
  S  S70  1  0.36403600  0.35231100  0.55618200  1
  S  S71  1  0.36262600  0.85626100  0.55186500  1
  S  S72  1  0.86230000  0.10428600  0.43241000  1
  S  S73  1  0.87054600  0.60458100  0.43071200  1
  S  S74  1  0.36985800  0.35199300  0.80624300  1
  S  S75  1  0.37371200  0.85762600  0.80649900  1
  S  S76  1  0.87134400  0.10441200  0.67901900  1
  S  S77  1  0.86811000  0.60740500  0.67539300  1
  S  S78  1  0.37362000  0.35614100  0.05341300  1
  S  S79  1  0.36639300  0.84910600  0.05312300  1
  S  S80  1  0.87592500  0.10329500  0.92602400  1
  S  S81  1  0.86107000  0.60253700  0.93008000  1
  S  S82  1  0.86041900  0.10387900  0.18292900  1
  S  S83  1  0.86426300  0.60388800  0.18183500  1
  S  S84  1  0.13361200  0.86057900  0.19787800  1
  S  S85  1  0.13445400  0.36063200  0.19811600  1
  S  S86  1  0.12587600  0.85861700  0.44504400  1
  S  S87  1  0.13749400  0.36064000  0.44723000  1
  S  S88  1  0.63625400  0.61314200  0.32276000  1
  S  S89  1  0.63350300  0.10839000  0.32471000  1
  S  S90  1  0.13222400  0.85857500  0.70019600  1
  S  S91  1  0.13783300  0.35604000  0.69866800  1
  S  S92  1  0.62357600  0.60856400  0.56941800  1
  S  S93  1  0.63606200  0.10796800  0.57374300  1
  S  S94  1  0.13190900  0.85559900  0.94832600  1
  S  S95  1  0.13230000  0.36238600  0.94748200  1
  S  S96  1  0.63076500  0.60431900  0.82168600  1
  S  S97  1  0.63483300  0.11149800  0.81992300  1
  S  S98  1  0.63862100  0.61307200  0.07413700  1
  S  S99  1  0.63671200  0.11040900  0.07479600  1
  S  S100  1  0.36432900  0.64651600  0.19384700  1
  S  S101  1  0.36403300  0.14723400  0.19418900  1
  S  S102  1  0.36120100  0.64634300  0.44246000  1
  S  S103  1  0.36472400  0.14662100  0.44340400  1
  S  S104  1  0.86629400  0.39877600  0.32081300  1
  S  S105  1  0.86532300  0.89637600  0.32020700  1
  S  S106  1  0.36488500  0.64868900  0.70169000  1
  S  S107  1  0.37359800  0.14466000  0.69608000  1
  S  S108  1  0.86928200  0.39712400  0.56863500  1
  S  S109  1  0.87278600  0.89601300  0.56986700  1
  S  S110  1  0.37241500  0.63959100  0.94591500  1
  S  S111  1  0.37208700  0.14749100  0.94437200  1
  S  S112  1  0.87195000  0.39465800  0.81967400  1
  S  S113  1  0.86533900  0.89673600  0.81852000  1
  S  S114  1  0.86319300  0.39506500  0.06998200  1
  S  S115  1  0.85974700  0.89394000  0.07285700  1
