# generated using pymatgen
data_Li9Mn2Co5O16
_symmetry_space_group_name_H-M   'P 1'
_cell_length_a   5.91377600
_cell_length_b   6.45027071
_cell_length_c   8.60227901
_cell_angle_alpha   83.08391052
_cell_angle_beta   109.54285465
_cell_angle_gamma   114.05287211
_symmetry_Int_Tables_number   1
_chemical_formula_structural   Li9Mn2Co5O16
_chemical_formula_sum   'Li9 Mn2 Co5 O16'
_cell_volume   282.33509315
_cell_formula_units_Z   1
loop_
 _symmetry_equiv_pos_site_id
 _symmetry_equiv_pos_as_xyz
  1  'x, y, z'
loop_
 _atom_site_type_symbol
 _atom_site_label
 _atom_site_symmetry_multiplicity
 _atom_site_fract_x
 _atom_site_fract_y
 _atom_site_fract_z
 _atom_site_occupancy
  Li  Li0  1  0.73554000  0.75488500  0.24589900  1
  Li  Li1  1  0.25205200  0.99695000  0.50511100  1
  Li  Li2  1  0.26638400  0.75310500  0.24839700  1
  Li  Li3  1  0.74862300  0.99825600  0.50143400  1
  Li  Li4  1  0.74199200  0.24889800  0.75077700  1
  Li  Li5  1  0.25901200  0.24614400  0.75436600  1
  Li  Li6  1  0.24498100  0.50337400  0.99838500  1
  Li  Li7  1  0.75324800  0.50026200  0.99467500  1
  Li  Li8  1  0.49979400  0.99792100  0.99805900  1
  Mn  Mn9  1  0.00186100  0.99910300  0.99742000  1
  Mn  Mn10  1  0.49662600  0.24519800  0.24904500  1
  Co  Co11  1  0.99673500  0.49913800  0.50088100  1
  Co  Co12  1  0.50232900  0.75339200  0.75076900  1
  Co  Co13  1  0.98783300  0.24320900  0.24834600  1
  Co  Co14  1  0.49892600  0.50189400  0.50053100  1
  Co  Co15  1  0.01527700  0.75719400  0.75179300  1
  O  O16  1  0.14174500  0.02086300  0.24108600  1
  O  O17  1  0.60699100  0.26085300  0.48912700  1
  O  O18  1  0.61746400  0.01454700  0.25273700  1
  O  O19  1  0.10651000  0.26444500  0.48258300  1
  O  O20  1  0.11251200  0.51053200  0.73861400  1
  O  O21  1  0.61297600  0.51523400  0.73686200  1
  O  O22  1  0.65928800  0.77374100  0.98992600  1
  O  O23  1  0.11169400  0.75775900  0.98837500  1
  O  O24  1  0.38562300  0.49041400  0.26246900  1
  O  O25  1  0.88914100  0.73635600  0.51113200  1
  O  O26  1  0.84350300  0.46873700  0.25695600  1
  O  O27  1  0.37992000  0.73306200  0.50913000  1
  O  O28  1  0.38359900  0.98208800  0.75010600  1
  O  O29  1  0.90096300  0.99791400  0.76279800  1
  O  O30  1  0.89196300  0.24001400  0.01814500  1
  O  O31  1  0.35489400  0.23452000  0.01406300  1
