# generated using pymatgen
data_Li2Ge4O9
_symmetry_space_group_name_H-M   'P 1'
_cell_length_a   4.69592800
_cell_length_b   9.45350600
_cell_length_c   16.09819200
_cell_angle_alpha   90.00000000
_cell_angle_beta   90.00000000
_cell_angle_gamma   90.00000000
_symmetry_Int_Tables_number   1
_chemical_formula_structural   Li2Ge4O9
_chemical_formula_sum   'Li8 Ge16 O36'
_cell_volume   714.64677222
_cell_formula_units_Z   4
loop_
 _symmetry_equiv_pos_site_id
 _symmetry_equiv_pos_as_xyz
  1  'x, y, z'
loop_
 _atom_site_type_symbol
 _atom_site_label
 _atom_site_symmetry_multiplicity
 _atom_site_fract_x
 _atom_site_fract_y
 _atom_site_fract_z
 _atom_site_occupancy
  Li  Li0  1  0.44442400  0.53384600  0.23390000  1
  Li  Li1  1  0.55557600  0.03384600  0.76610000  1
  Li  Li2  1  0.44442400  0.03384600  0.26610000  1
  Li  Li3  1  0.55557600  0.53384600  0.73390000  1
  Li  Li4  1  0.58948700  0.72624500  0.02106400  1
  Li  Li5  1  0.41051300  0.22624500  0.97893600  1
  Li  Li6  1  0.58948700  0.22624500  0.47893600  1
  Li  Li7  1  0.41051300  0.72624500  0.52106400  1
  Ge  Ge8  1  0.48543100  0.76440200  0.34426700  1
  Ge  Ge9  1  0.51456900  0.26440200  0.65573300  1
  Ge  Ge10  1  0.48543100  0.26440200  0.15573300  1
  Ge  Ge11  1  0.51456900  0.76440200  0.84426700  1
  Ge  Ge12  1  0.98988700  0.76607700  0.20421400  1
  Ge  Ge13  1  0.01011300  0.26607700  0.79578600  1
  Ge  Ge14  1  0.98988700  0.26607700  0.29578600  1
  Ge  Ge15  1  0.01011300  0.76607700  0.70421400  1
  Ge  Ge16  1  0.00096100  0.47453100  0.09833700  1
  Ge  Ge17  1  0.99903900  0.97453100  0.90166300  1
  Ge  Ge18  1  0.00096100  0.97453100  0.40166300  1
  Ge  Ge19  1  0.99903900  0.47453100  0.59833700  1
  Ge  Ge20  1  0.02203400  0.55482800  0.90585000  1
  Ge  Ge21  1  0.97796600  0.05482800  0.09415000  1
  Ge  Ge22  1  0.02203400  0.05482800  0.59415000  1
  Ge  Ge23  1  0.97796600  0.55482800  0.40585000  1
  O  O24  1  0.71018000  0.92973200  0.33885800  1
  O  O25  1  0.28982000  0.42973200  0.66114200  1
  O  O26  1  0.71018000  0.42973200  0.16114200  1
  O  O27  1  0.28982000  0.92973200  0.83885800  1
  O  O28  1  0.25762300  0.84792400  0.43099200  1
  O  O29  1  0.74237700  0.34792400  0.56900800  1
  O  O30  1  0.25762300  0.34792400  0.06900800  1
  O  O31  1  0.74237700  0.84792400  0.93099200  1
  O  O32  1  0.70148700  0.67629100  0.42951500  1
  O  O33  1  0.29851300  0.17629100  0.57048500  1
  O  O34  1  0.70148700  0.17629100  0.07048500  1
  O  O35  1  0.29851300  0.67629100  0.92951500  1
  O  O36  1  0.24671800  0.60285500  0.33561900  1
  O  O37  1  0.75328200  0.10285500  0.66438100  1
  O  O38  1  0.24671800  0.10285500  0.16438100  1
  O  O39  1  0.75328200  0.60285500  0.83561900  1
  O  O40  1  0.71069800  0.68240700  0.25819100  1
  O  O41  1  0.28930200  0.18240700  0.74180900  1
  O  O42  1  0.71069800  0.18240700  0.24180900  1
  O  O43  1  0.28930200  0.68240700  0.75819100  1
  O  O44  1  0.24783200  0.85512900  0.26310900  1
  O  O45  1  0.75216800  0.35512900  0.73689100  1
  O  O46  1  0.24783200  0.35512900  0.23689100  1
  O  O47  1  0.75216800  0.85512900  0.76310900  1
  O  O48  1  0.16965100  0.62837000  0.14491600  1
  O  O49  1  0.83034900  0.12837000  0.85508400  1
  O  O50  1  0.16965100  0.12837000  0.35508400  1
  O  O51  1  0.83034900  0.62837000  0.64491600  1
  O  O52  1  0.84494500  0.88282800  0.12533900  1
  O  O53  1  0.15505500  0.38282800  0.87466100  1
  O  O54  1  0.84494500  0.38282800  0.37466100  1
  O  O55  1  0.15505500  0.88282800  0.62533900  1
  O  O56  1  0.84157700  0.54108600  0.00456500  1
  O  O57  1  0.15842300  0.04108600  0.99543500  1
  O  O58  1  0.84157700  0.04108600  0.49543500  1
  O  O59  1  0.15842300  0.54108600  0.50456500  1
