# generated using pymatgen
data_Li4Mn3CoO8
_symmetry_space_group_name_H-M   'P 1'
_cell_length_a   5.96829510
_cell_length_b   10.37533694
_cell_length_c   6.04110923
_cell_angle_alpha   106.71143604
_cell_angle_beta   59.07798054
_cell_angle_gamma   88.90830426
_symmetry_Int_Tables_number   1
_chemical_formula_structural   Li4Mn3CoO8
_chemical_formula_sum   'Li8 Mn6 Co2 O16'
_cell_volume   300.95917433
_cell_formula_units_Z   2
loop_
 _symmetry_equiv_pos_site_id
 _symmetry_equiv_pos_as_xyz
  1  'x, y, z'
loop_
 _atom_site_type_symbol
 _atom_site_label
 _atom_site_symmetry_multiplicity
 _atom_site_fract_x
 _atom_site_fract_y
 _atom_site_fract_z
 _atom_site_occupancy
  Li  Li0  1  0.25022800  0.25014100  0.50059100  1
  Li  Li1  1  0.75027900  0.75005000  0.49899500  1
  Li  Li2  1  0.49245700  0.99238900  0.50031400  1
  Li  Li3  1  0.00770200  0.50538000  0.50331600  1
  Li  Li4  1  0.74846000  0.25198300  0.50342900  1
  Li  Li5  1  0.25145500  0.74999800  0.50042600  1
  Li  Li6  1  0.00513100  0.00739300  0.50664300  1
  Li  Li7  1  0.49077800  0.49148800  0.49883800  1
  Mn  Mn8  1  0.24981200  0.75006800  0.99899200  1
  Mn  Mn9  1  0.00010700  0.49960900  0.99844100  1
  Mn  Mn10  1  0.75040300  0.75001500  0.99956700  1
  Mn  Mn11  1  0.75056900  0.25021800  0.00000800  1
  Mn  Mn12  1  0.49752100  0.99811800  0.00537000  1
  Mn  Mn13  1  0.24990400  0.25015300  0.99986400  1
  Co  Co14  1  0.00068900  0.00029800  0.99497000  1
  Co  Co15  1  0.49939200  0.50041800  0.00392800  1
  O  O16  1  0.87459900  0.35508400  0.23246100  1
  O  O17  1  0.39640900  0.86651400  0.25284500  1
  O  O18  1  0.62571900  0.14534200  0.76920300  1
  O  O19  1  0.10333800  0.63383600  0.74686900  1
  O  O20  1  0.15331000  0.12474100  0.21565000  1
  O  O21  1  0.65455800  0.62908200  0.21674200  1
  O  O22  1  0.40235600  0.37274400  0.23954300  1
  O  O23  1  0.88234300  0.86160600  0.21678600  1
  O  O24  1  0.62586100  0.12723300  0.21302100  1
  O  O25  1  0.12164700  0.62369600  0.21252700  1
  O  O26  1  0.34941000  0.37476700  0.78100900  1
  O  O27  1  0.84731700  0.87156800  0.78095600  1
  O  O28  1  0.09901600  0.12890800  0.75908500  1
  O  O29  1  0.61713500  0.63803500  0.78243600  1
  O  O30  1  0.87531400  0.37337300  0.78413900  1
  O  O31  1  0.37678300  0.87575200  0.78303600  1
