# generated using pymatgen
data_Li5Mn2CoO8
_symmetry_space_group_name_H-M   'P 1'
_cell_length_a   2.87050740
_cell_length_b   10.64154032
_cell_length_c   9.74600676
_cell_angle_alpha   72.93664664
_cell_angle_beta   89.99920179
_cell_angle_gamma   97.77630451
_symmetry_Int_Tables_number   1
_chemical_formula_structural   Li5Mn2CoO8
_chemical_formula_sum   'Li10 Mn4 Co2 O16'
_cell_volume   281.73750176
_cell_formula_units_Z   2
loop_
 _symmetry_equiv_pos_site_id
 _symmetry_equiv_pos_as_xyz
  1  'x, y, z'
loop_
 _atom_site_type_symbol
 _atom_site_label
 _atom_site_symmetry_multiplicity
 _atom_site_fract_x
 _atom_site_fract_y
 _atom_site_fract_z
 _atom_site_occupancy
  Li  Li0  1  0.62508600  0.25021500  0.87490700  1
  Li  Li1  1  0.12491500  0.24978500  0.37509400  1
  Li  Li2  1  0.56975100  0.13965300  0.18549100  1
  Li  Li3  1  0.06995200  0.13992400  0.68521600  1
  Li  Li4  1  0.18025000  0.36034700  0.06450900  1
  Li  Li5  1  0.68005000  0.36007600  0.56478400  1
  Li  Li6  1  0.80900700  0.61777700  0.93632900  1
  Li  Li7  1  0.30920500  0.61815500  0.43586200  1
  Li  Li8  1  0.44079400  0.88184200  0.81414400  1
  Li  Li9  1  0.94099400  0.88222500  0.31367100  1
  Mn  Mn10  1  0.00546200  0.01148300  0.00643000  1
  Mn  Mn11  1  0.50562600  0.01129400  0.50633200  1
  Mn  Mn12  1  0.74452900  0.48851600  0.24356900  1
  Mn  Mn13  1  0.24437300  0.48870500  0.74366700  1
  Co  Co14  1  0.37500000  0.75000000  0.12500100  1
  Co  Co15  1  0.87500100  0.75000100  0.62500000  1
  O  O16  1  0.08680000  0.17355200  0.03460100  1
  O  O17  1  0.58681200  0.17336100  0.53466300  1
  O  O18  1  0.66320000  0.32644700  0.21539800  1
  O  O19  1  0.16318900  0.32664000  0.71533700  1
  O  O20  1  0.72352000  0.44717600  0.88126700  1
  O  O21  1  0.22392100  0.44757200  0.38083000  1
  O  O22  1  0.02648200  0.05282500  0.36873300  1
  O  O23  1  0.52607700  0.05242700  0.86916700  1
  O  O24  1  0.34236500  0.68446400  0.76199900  1
  O  O25  1  0.84314600  0.68605000  0.26222500  1
  O  O26  1  0.90685400  0.81394900  0.98777600  1
  O  O27  1  0.40763700  0.81553700  0.48800200  1
  O  O28  1  0.97150700  0.94329400  0.64779400  1
  O  O29  1  0.47109000  0.94352500  0.14793800  1
  O  O30  1  0.27890800  0.55647400  0.10206000  1
  O  O31  1  0.77849500  0.55670700  0.60220500  1
