# generated using pymatgen
data_Li3Sn11Pd4
_symmetry_space_group_name_H-M   'P 1'
_cell_length_a   6.69389627
_cell_length_b   6.69389627
_cell_length_c   8.72374200
_cell_angle_alpha   90.00000000
_cell_angle_beta   90.00000000
_cell_angle_gamma   90.87803235
_symmetry_Int_Tables_number   1
_chemical_formula_structural   Li3Sn11Pd4
_chemical_formula_sum   'Li3 Sn11 Pd4'
_cell_volume   390.84969047
_cell_formula_units_Z   1
loop_
 _symmetry_equiv_pos_site_id
 _symmetry_equiv_pos_as_xyz
  1  'x, y, z'
loop_
 _atom_site_type_symbol
 _atom_site_label
 _atom_site_symmetry_multiplicity
 _atom_site_fract_x
 _atom_site_fract_y
 _atom_site_fract_z
 _atom_site_occupancy
  Li  Li0  1  0.49913400  0.99984000  0.50000000  1
  Li  Li1  1  0.99984000  0.49913400  0.50000000  1
  Li  Li2  1  0.33038200  0.33038200  0.00000000  1
  Sn  Sn3  1  0.16155700  0.16155700  0.68282600  1
  Sn  Sn4  1  0.84164400  0.84164400  0.67737900  1
  Sn  Sn5  1  0.65574400  0.34149500  0.67891500  1
  Sn  Sn6  1  0.34149500  0.65574400  0.67891500  1
  Sn  Sn7  1  0.84164400  0.84164400  0.32262100  1
  Sn  Sn8  1  0.16155700  0.16155700  0.31717400  1
  Sn  Sn9  1  0.34149500  0.65574400  0.32108500  1
  Sn  Sn10  1  0.65574400  0.34149500  0.32108500  1
  Sn  Sn11  1  0.66621200  0.66621200  0.00000000  1
  Sn  Sn12  1  0.83366300  0.16862200  0.00000000  1
  Sn  Sn13  1  0.16862200  0.83366300  0.00000000  1
  Pd  Pd14  1  0.50154000  0.99909300  0.81653800  1
  Pd  Pd15  1  0.99909300  0.50154000  0.81653800  1
  Pd  Pd16  1  0.50154000  0.99909300  0.18346200  1
  Pd  Pd17  1  0.99909300  0.50154000  0.18346200  1
