# generated using pymatgen
data_Li9Mn2Co5O16
_symmetry_space_group_name_H-M   'P 1'
_cell_length_a   5.78255600
_cell_length_b   5.85966527
_cell_length_c   8.81101595
_cell_angle_alpha   89.09776051
_cell_angle_beta   71.07564976
_cell_angle_gamma   89.44563768
_symmetry_Int_Tables_number   1
_chemical_formula_structural   Li9Mn2Co5O16
_chemical_formula_sum   'Li9 Mn2 Co5 O16'
_cell_volume   282.37537013
_cell_formula_units_Z   1
loop_
 _symmetry_equiv_pos_site_id
 _symmetry_equiv_pos_as_xyz
  1  'x, y, z'
loop_
 _atom_site_type_symbol
 _atom_site_label
 _atom_site_symmetry_multiplicity
 _atom_site_fract_x
 _atom_site_fract_y
 _atom_site_fract_z
 _atom_site_occupancy
  Li  Li0  1  0.62259100  0.25081000  0.24123700  1
  Li  Li1  1  0.37565300  0.74970000  0.76055000  1
  Li  Li2  1  0.24979200  0.00050900  0.49595900  1
  Li  Li3  1  0.00085100  0.49958200  0.00237300  1
  Li  Li4  1  0.86643800  0.74968400  0.75565600  1
  Li  Li5  1  0.49710200  0.49898800  0.99826300  1
  Li  Li6  1  0.13416900  0.24951600  0.24426000  1
  Li  Li7  1  0.75173800  0.00309400  0.50118300  1
  Li  Li8  1  0.49633100  0.00006000  0.00315900  1
  Mn  Mn9  1  0.00226300  0.99800500  0.00123300  1
  Mn  Mn10  1  0.62329400  0.75372900  0.24536800  1
  Co  Co11  1  0.75454500  0.49944800  0.50035300  1
  Co  Co12  1  0.25142900  0.49638300  0.50099700  1
  Co  Co13  1  0.37562700  0.24563900  0.75883300  1
  Co  Co14  1  0.12834200  0.75185900  0.24659000  1
  Co  Co15  1  0.86419400  0.24545700  0.75863200  1
  O  O16  1  0.76790000  0.23520100  0.99555000  1
  O  O17  1  0.51440000  0.74158000  0.48197700  1
  O  O18  1  0.37561500  0.97296100  0.25129600  1
  O  O19  1  0.12705500  0.47767300  0.74261400  1
  O  O20  1  0.01600900  0.73288400  0.48310900  1
  O  O21  1  0.62515600  0.49502500  0.74559200  1
  O  O22  1  0.23511800  0.23430800  0.99659700  1
  O  O23  1  0.87887700  0.97917700  0.23871100  1
  O  O24  1  0.49364100  0.27016400  0.50002900  1
  O  O25  1  0.22922700  0.76466100  0.01561800  1
  O  O26  1  0.11512500  0.99764900  0.77017800  1
  O  O27  1  0.87261700  0.52790200  0.25424100  1
  O  O28  1  0.75495000  0.76436900  0.01601500  1
  O  O29  1  0.37856000  0.52821700  0.24777900  1
  O  O30  1  0.99430700  0.26309200  0.50218000  1
  O  O31  1  0.62708700  0.02267600  0.74386700  1
