# generated using pymatgen
data_Li7Mn4CoO12
_symmetry_space_group_name_H-M   'P 1'
_cell_length_a   5.92047843
_cell_length_b   7.77016014
_cell_length_c   10.52961529
_cell_angle_alpha   70.07097006
_cell_angle_beta   104.94614079
_cell_angle_gamma   103.31563740
_symmetry_Int_Tables_number   1
_chemical_formula_structural   Li7Mn4CoO12
_chemical_formula_sum   'Li14 Mn8 Co2 O24'
_cell_volume   434.53954873
_cell_formula_units_Z   2
loop_
 _symmetry_equiv_pos_site_id
 _symmetry_equiv_pos_as_xyz
  1  'x, y, z'
loop_
 _atom_site_type_symbol
 _atom_site_label
 _atom_site_symmetry_multiplicity
 _atom_site_fract_x
 _atom_site_fract_y
 _atom_site_fract_z
 _atom_site_occupancy
  Li  Li0  1  0.33311800  0.33339900  0.99957400  1
  Li  Li1  1  0.83355000  0.33326700  0.00042600  1
  Li  Li2  1  0.54753100  0.66175600  0.25607800  1
  Li  Li3  1  0.03593800  0.66688900  0.25335700  1
  Li  Li4  1  0.61914000  0.00491200  0.74392200  1
  Li  Li5  1  0.13073400  0.99977800  0.74664500  1
  Li  Li6  1  0.95657900  0.34377100  0.75599900  1
  Li  Li7  1  0.46312800  0.34031200  0.75524600  1
  Li  Li8  1  0.70354100  0.32635600  0.24475500  1
  Li  Li9  1  0.21009000  0.32289600  0.24400200  1
  Li  Li10  1  0.36962600  0.01061300  0.24364900  1
  Li  Li11  1  0.86942700  0.00976600  0.24264800  1
  Li  Li12  1  0.79704300  0.65605700  0.75635200  1
  Li  Li13  1  0.29724200  0.65690200  0.75735300  1
  Mn  Mn14  1  0.91799300  0.66311700  0.50265400  1
  Mn  Mn15  1  0.42276800  0.66107100  0.50428000  1
  Mn  Mn16  1  0.74389800  0.00559200  0.49573100  1
  Mn  Mn17  1  0.24866400  0.00355200  0.49733300  1
  Mn  Mn18  1  0.00711100  0.00755800  0.00339400  1
  Mn  Mn19  1  0.50722300  0.00742700  0.00391400  1
  Mn  Mn20  1  0.15955100  0.65909400  0.99659400  1
  Mn  Mn21  1  0.65944000  0.65924300  0.99607800  1
  Co  Co22  1  0.58333400  0.33333300  0.50000100  1
  Co  Co23  1  0.08333100  0.33333200  0.50000000  1
  O  O24  1  0.75882400  0.84639600  0.10589800  1
  O  O25  1  0.25825900  0.84614700  0.10603900  1
  O  O26  1  0.90841300  0.82051700  0.89396600  1
  O  O27  1  0.40784200  0.82026400  0.89410400  1
  O  O28  1  0.70366300  0.49165600  0.62008700  1
  O  O29  1  0.20153700  0.48787700  0.61770300  1
  O  O30  1  0.46300400  0.17500800  0.37991300  1
  O  O31  1  0.96513100  0.17879300  0.38229700  1
  O  O32  1  0.60017500  0.15181000  0.11768500  1
  O  O33  1  0.09988100  0.15179400  0.11743300  1
  O  O34  1  0.06678500  0.51487400  0.88257100  1
  O  O35  1  0.56649200  0.51485800  0.88231500  1
  O  O36  1  0.42264700  0.52822900  0.10856200  1
  O  O37  1  0.92280000  0.52856500  0.10896200  1
  O  O38  1  0.74401700  0.13843600  0.89144100  1
  O  O39  1  0.24386800  0.13810100  0.89104000  1
  O  O40  1  0.83800900  0.18216900  0.60471300  1
  O  O41  1  0.36070100  0.16672800  0.61447500  1
  O  O42  1  0.80596400  0.49994300  0.38552400  1
  O  O43  1  0.32865600  0.48449900  0.39528900  1
  O  O44  1  0.03441100  0.83476600  0.61655800  1
  O  O45  1  0.53605400  0.83314100  0.61687700  1
  O  O46  1  0.63061400  0.83352900  0.38312400  1
  O  O47  1  0.13225200  0.83190600  0.38344100  1
