# generated using pymatgen
data_Li2MnO2
_symmetry_space_group_name_H-M   'P 1'
_cell_length_a   3.22602800
_cell_length_b   3.22602783
_cell_length_c   5.33402600
_cell_angle_alpha   90.00000000
_cell_angle_beta   90.00000000
_cell_angle_gamma   120.00000179
_symmetry_Int_Tables_number   1
_chemical_formula_structural   Li2MnO2
_chemical_formula_sum   'Li2 Mn1 O2'
_cell_volume   48.07529896
_cell_formula_units_Z   1
loop_
 _symmetry_equiv_pos_site_id
 _symmetry_equiv_pos_as_xyz
  1  'x, y, z'
loop_
 _atom_site_type_symbol
 _atom_site_label
 _atom_site_symmetry_multiplicity
 _atom_site_fract_x
 _atom_site_fract_y
 _atom_site_fract_z
 _atom_site_occupancy
  Li  Li0  1  0.66666600  0.33333500  0.36828500  1
  Li  Li1  1  0.33333300  0.66666600  0.63171700  1
  Mn  Mn2  1  0.00000000  0.00000000  0.00000000  1
  O  O3  1  0.33333300  0.66666600  0.24620200  1
  O  O4  1  0.66666600  0.33333500  0.75379800  1
