# generated using pymatgen
data_Li3V(Si2O5)3
_symmetry_space_group_name_H-M   'P 1'
_cell_length_a   9.98337113
_cell_length_b   7.99951575
_cell_length_c   14.92661339
_cell_angle_alpha   90.04572773
_cell_angle_beta   90.04416746
_cell_angle_gamma   89.93883861
_symmetry_Int_Tables_number   1
_chemical_formula_structural   Li3V(Si2O5)3
_chemical_formula_sum   'Li12 V4 Si24 O60'
_cell_volume   1192.06979571
_cell_formula_units_Z   4
loop_
 _symmetry_equiv_pos_site_id
 _symmetry_equiv_pos_as_xyz
  1  'x, y, z'
loop_
 _atom_site_type_symbol
 _atom_site_label
 _atom_site_symmetry_multiplicity
 _atom_site_fract_x
 _atom_site_fract_y
 _atom_site_fract_z
 _atom_site_occupancy
  Li  Li0  1  0.92941200  0.25095000  0.09679600  1
  Li  Li1  1  0.57030500  0.25116500  0.59677600  1
  Li  Li2  1  0.49755100  0.01255800  0.24254600  1
  Li  Li3  1  0.49714200  0.48851400  0.24290100  1
  Li  Li4  1  0.50068700  0.99763300  0.75718000  1
  Li  Li5  1  0.50204400  0.50481600  0.75679700  1
  Li  Li6  1  0.42893300  0.75040900  0.40249100  1
  Li  Li7  1  0.06932900  0.74803300  0.90122200  1
  Li  Li8  1  0.99859900  0.99855100  0.25781900  1
  Li  Li9  1  0.99889700  0.50252500  0.25771600  1
  Li  Li10  1  0.00144300  0.48354600  0.74340800  1
  Li  Li11  1  0.00144500  0.01174700  0.74330600  1
  V  V12  1  0.74406900  0.25026600  0.25321400  1
  V  V13  1  0.75537400  0.24990900  0.75334500  1
  V  V14  1  0.25563500  0.74966300  0.74641600  1
  V  V15  1  0.24264800  0.75064200  0.24627800  1
  Si  Si16  1  0.97088000  0.75002000  0.40003500  1
  Si  Si17  1  0.97604000  0.75072000  0.60015600  1
  Si  Si18  1  0.78860600  0.56291600  0.10225800  1
  Si  Si19  1  0.78762000  0.93819600  0.10170100  1
  Si  Si20  1  0.79196200  0.93944000  0.89857200  1
  Si  Si21  1  0.79217400  0.55925300  0.89913000  1
  Si  Si22  1  0.70655900  0.94005900  0.39858100  1
  Si  Si23  1  0.71230100  0.56304300  0.60205600  1
  Si  Si24  1  0.70704700  0.56004200  0.39873600  1
  Si  Si25  1  0.71195600  0.93840200  0.60152500  1
  Si  Si26  1  0.52416200  0.74992600  0.10054900  1
  Si  Si27  1  0.52777600  0.74948500  0.90022900  1
  Si  Si28  1  0.47314400  0.24957500  0.89950400  1
  Si  Si29  1  0.46949500  0.25019900  0.09887900  1
  Si  Si30  1  0.28989300  0.43827600  0.39780200  1
  Si  Si31  1  0.29534600  0.06005200  0.60009800  1
  Si  Si32  1  0.29028700  0.06238700  0.39800200  1
  Si  Si33  1  0.29485200  0.44092400  0.60022700  1
  Si  Si34  1  0.20529900  0.06024700  0.10044500  1
  Si  Si35  1  0.20837700  0.43662500  0.89757500  1
  Si  Si36  1  0.20972200  0.06099600  0.89824800  1
  Si  Si37  1  0.20510000  0.44081400  0.09973900  1
  Si  Si38  1  0.03068900  0.25058800  0.59914400  1
  Si  Si39  1  0.02615500  0.25033400  0.39987600  1
  O  O40  1  0.95947200  0.25148300  0.50024500  1
  O  O41  1  0.92445700  0.24899200  0.31791300  1
  O  O42  1  0.93404800  0.24990700  0.68397400  1
  O  O43  1  0.86940700  0.58741600  0.39018600  1
  O  O44  1  0.86900200  0.91237300  0.39085500  1
  O  O45  1  0.87559800  0.58621300  0.61138700  1
  O  O46  1  0.87522800  0.91526800  0.61018300  1
  O  O47  1  0.85437400  0.75086200  0.11632900  1
  O  O48  1  0.86471900  0.74921700  0.89111100  1
  O  O49  1  0.84507200  0.07634600  0.17062900  1
  O  O50  1  0.84677400  0.42660200  0.17173500  1
  O  O51  1  0.84569100  0.06024100  0.82133100  1
  O  O52  1  0.84583300  0.43709000  0.82221100  1
  O  O53  1  0.82818500  0.49251200  0.00110000  1
  O  O54  1  0.82730800  0.00720200  0.00046000  1
  O  O55  1  0.67247500  0.49311100  0.50083300  1
  O  O56  1  0.67115000  0.00776200  0.50047200  1
  O  O57  1  0.65457400  0.07588500  0.67083200  1
  O  O58  1  0.65346600  0.06059200  0.32098400  1
  O  O59  1  0.65334000  0.43770200  0.32185700  1
  O  O60  1  0.65445600  0.42623300  0.67134200  1
  O  O61  1  0.63386700  0.74983800  0.39085100  1
  O  O62  1  0.64624600  0.75085000  0.61607000  1
  O  O63  1  0.62460100  0.91458800  0.11077800  1
  O  O64  1  0.62536000  0.58584400  0.11079400  1
  O  O65  1  0.62949800  0.91190300  0.89016500  1
  O  O66  1  0.62976000  0.58684700  0.89073400  1
  O  O67  1  0.56614800  0.25069400  0.18366700  1
  O  O68  1  0.57497800  0.24978700  0.81767400  1
  O  O69  1  0.54011100  0.24934000  0.99991900  1
  O  O70  1  0.45946200  0.74996000  0.99964900  1
  O  O71  1  0.41971600  0.74961000  0.18059300  1
  O  O72  1  0.42836900  0.74813800  0.81695300  1
  O  O73  1  0.37295200  0.08465300  0.88989500  1
  O  O74  1  0.37181000  0.41349100  0.89008900  1
  O  O75  1  0.36774000  0.08784600  0.10765500  1
  O  O76  1  0.36757400  0.41280100  0.10638800  1
  O  O77  1  0.36769000  0.25065100  0.60692700  1
  O  O78  1  0.35598800  0.25028600  0.38421300  1
  O  O79  1  0.34893200  0.56084700  0.67767200  1
  O  O80  1  0.34758800  0.94193300  0.67868500  1
  O  O81  1  0.34749500  0.57327100  0.32774500  1
  O  O82  1  0.34742500  0.92713600  0.32768900  1
  O  O83  1  0.33181800  0.99090700  0.49854100  1
  O  O84  1  0.33035900  0.50961800  0.49856700  1
  O  O85  1  0.16932600  0.99054000  0.99903600  1
  O  O86  1  0.16780600  0.50909700  0.99817200  1
  O  O87  1  0.15281000  0.55910200  0.17853400  1
  O  O88  1  0.15221000  0.94256200  0.17911200  1
  O  O89  1  0.15057900  0.57076300  0.82695800  1
  O  O90  1  0.15236800  0.92457800  0.82861200  1
  O  O91  1  0.13241300  0.25055600  0.10686400  1
  O  O92  1  0.14291000  0.24839400  0.88408200  1
  O  O93  1  0.13232000  0.41333300  0.60797000  1
  O  O94  1  0.12659000  0.41475900  0.38981200  1
  O  O95  1  0.12686600  0.08581800  0.39065800  1
  O  O96  1  0.13277100  0.08827700  0.60654500  1
  O  O97  1  0.07026100  0.75060900  0.31698500  1
  O  O98  1  0.08073100  0.75332300  0.68028300  1
  O  O99  1  0.04017500  0.74944500  0.49921400  1
