# generated using pymatgen
data_Li4MnCo2O7
_symmetry_space_group_name_H-M   'P 1'
_cell_length_a   7.79813629
_cell_length_b   7.79813629
_cell_length_c   12.91930622
_cell_angle_alpha   61.91757307
_cell_angle_beta   61.91757307
_cell_angle_gamma   21.45000224
_symmetry_Int_Tables_number   1
_chemical_formula_structural   Li4MnCo2O7
_chemical_formula_sum   'Li8 Mn2 Co4 O14'
_cell_volume   252.17733021
_cell_formula_units_Z   2
loop_
 _symmetry_equiv_pos_site_id
 _symmetry_equiv_pos_as_xyz
  1  'x, y, z'
loop_
 _atom_site_type_symbol
 _atom_site_label
 _atom_site_symmetry_multiplicity
 _atom_site_fract_x
 _atom_site_fract_y
 _atom_site_fract_z
 _atom_site_occupancy
  Li  Li0  1  0.64202500  0.64202500  0.79063600  1
  Li  Li1  1  0.93472300  0.93472300  0.34260000  1
  Li  Li2  1  0.21155300  0.21155300  0.94278500  1
  Li  Li3  1  0.06778500  0.06778500  0.64297800  1
  Li  Li4  1  0.36153400  0.36153400  0.21060900  1
  Li  Li5  1  0.50752400  0.50752400  0.49270400  1
  Li  Li6  1  0.78090000  0.78090000  0.07529200  1
  Li  Li7  1  0.56859200  0.56859200  0.14361900  1
  Mn  Mn8  1  0.00025700  0.00025700  0.00776600  1
  Mn  Mn9  1  0.28606000  0.28606000  0.57157600  1
  Co  Co10  1  0.85826800  0.85826800  0.71700800  1
  Co  Co11  1  0.14124700  0.14124700  0.26731200  1
  Co  Co12  1  0.42966800  0.42966800  0.85733700  1
  Co  Co13  1  0.71059000  0.71059000  0.42386700  1
  O  O14  1  0.59523200  0.59523200  0.96822300  1
  O  O15  1  0.88044000  0.88044000  0.54194400  1
  O  O16  1  0.17977900  0.17977900  0.11246300  1
  O  O17  1  0.02707900  0.02707900  0.83361300  1
  O  O18  1  0.31174900  0.31174900  0.40698400  1
  O  O19  1  0.46076800  0.46076800  0.68459600  1
  O  O20  1  0.73894300  0.73894300  0.25855800  1
  O  O21  1  0.69093200  0.69093200  0.60291100  1
  O  O22  1  0.96473600  0.96473600  0.16465600  1
  O  O23  1  0.25677800  0.25677800  0.73684900  1
  O  O24  1  0.11536400  0.11536400  0.46397400  1
  O  O25  1  0.40607100  0.40607100  0.02942500  1
  O  O26  1  0.54228600  0.54228600  0.32062800  1
  O  O27  1  0.82911600  0.82911600  0.88908400  1
