# generated using pymatgen
data_Li6V3P8O29
_symmetry_space_group_name_H-M   'P 1'
_cell_length_a   9.77675200
_cell_length_b   9.78880214
_cell_length_c   14.01603007
_cell_angle_alpha   90.59602893
_cell_angle_beta   89.82902028
_cell_angle_gamma   119.55576749
_symmetry_Int_Tables_number   1
_chemical_formula_structural   Li6V3P8O29
_chemical_formula_sum   'Li12 V6 P16 O58'
_cell_volume   1166.76043463
_cell_formula_units_Z   2
loop_
 _symmetry_equiv_pos_site_id
 _symmetry_equiv_pos_as_xyz
  1  'x, y, z'
loop_
 _atom_site_type_symbol
 _atom_site_label
 _atom_site_symmetry_multiplicity
 _atom_site_fract_x
 _atom_site_fract_y
 _atom_site_fract_z
 _atom_site_occupancy
  Li  Li0  1  0.09568700  0.76583500  0.55741900  1
  Li  Li1  1  0.66308800  0.90416500  0.56374500  1
  Li  Li2  1  0.33045300  0.66686700  0.88824000  1
  Li  Li3  1  0.67937600  0.76629000  0.05813800  1
  Li  Li4  1  0.09325200  0.32659100  0.06484300  1
  Li  Li5  1  0.76410800  0.67039300  0.43788000  1
  Li  Li6  1  0.23977000  0.33733500  0.56349200  1
  Li  Li7  1  0.91055800  0.67957200  0.93709300  1
  Li  Li8  1  0.66213800  0.31966500  0.10945400  1
  Li  Li9  1  0.33100100  0.09694900  0.43757400  1
  Li  Li10  1  0.05865200  0.04337400  0.99552300  1
  Li  Li11  1  0.98476200  0.04498400  0.49181000  1
  V  V12  1  0.55889300  0.56178200  0.24888800  1
  V  V13  1  0.43631400  0.43321100  0.75118700  1
  V  V14  1  0.00194800  0.56335300  0.74553200  1
  V  V15  1  0.99559900  0.43250700  0.25198000  1
  V  V16  1  0.43351300  0.99653500  0.24839700  1
  V  V17  1  0.56444500  0.00497800  0.75547300  1
  P  P18  1  0.21714000  0.91227900  0.83961000  1
  P  P19  1  0.08529200  0.77364100  0.33828900  1
  P  P20  1  0.68876000  0.91613900  0.34622200  1
  P  P21  1  0.32738100  0.66165300  0.12864100  1
  P  P22  1  0.33882500  0.66904000  0.62968500  1
  P  P23  1  0.68193800  0.77483000  0.84084100  1
  P  P24  1  0.77106600  0.68428700  0.65651100  1
  P  P25  1  0.09341500  0.31683800  0.84805500  1
  P  P26  1  0.90633100  0.68188900  0.15413200  1
  P  P27  1  0.22626400  0.31295100  0.34490700  1
  P  P28  1  0.31089300  0.21768600  0.16164100  1
  P  P29  1  0.66581600  0.33683900  0.36943500  1
  P  P30  1  0.67009100  0.33970800  0.87056400  1
  P  P31  1  0.31116200  0.08280000  0.65478100  1
  P  P32  1  0.91620900  0.21829800  0.66409800  1
  P  P33  1  0.77957100  0.08410800  0.16067500  1
  O  O34  1  0.22809100  0.99805600  0.56365700  1
  O  O35  1  0.25127600  0.92060100  0.33800100  1
  O  O36  1  0.98580500  0.76478800  0.06456400  1
  O  O37  1  0.07806600  0.73860100  0.83490500  1
  O  O38  1  0.37014400  0.90037000  0.83229500  1
  O  O39  1  0.32896500  0.80639800  0.17400400  1
  O  O40  1  0.53401700  0.92033900  0.33011700  1
  O  O41  1  0.78226900  0.98408300  0.08054800  1
  O  O42  1  0.66017500  0.91873200  0.84122200  1
  O  O43  1  0.18993700  0.67711700  0.66674600  1
  O  O44  1  0.09393800  0.62199900  0.32737700  1
  O  O45  1  0.48841200  0.81450500  0.67423800  1
  O  O46  1  0.32925500  0.65757200  0.02160800  1
  O  O47  1  0.34474100  0.66953400  0.52332300  1
  O  O48  1  0.47880400  0.66017000  0.16711600  1
  O  O49  1  0.10581700  0.47991700  0.83124800  1
  O  O50  1  0.17876400  0.51089900  0.16683500  1
  O  O51  1  0.66093000  0.74716200  0.33717100  1
  O  O52  1  0.79082700  0.79074400  0.74997000  1
  O  O53  1  0.77402000  0.77520700  0.56898100  1
  O  O54  1  0.76499400  0.76379800  0.92854500  1
  O  O55  1  0.51647700  0.62719600  0.82754400  1
  O  O56  1  0.32906000  0.51458000  0.67047000  1
  O  O57  1  0.73756000  0.65879800  0.15870900  1
  O  O58  1  0.38354800  0.46666700  0.33272300  1
  O  O59  1  0.08749800  0.34091100  0.33693500  1
  O  O60  1  0.99659500  0.79050700  0.24611000  1
  O  O61  1  0.99727900  0.77483200  0.42725700  1
  O  O62  1  0.01261400  0.20994600  0.58311900  1
  O  O63  1  0.91832400  0.66282000  0.65709200  1
  O  O64  1  0.61853200  0.52859900  0.66718000  1
  O  O65  1  0.25844200  0.33883900  0.83587800  1
  O  O66  1  0.67246800  0.48954800  0.32632200  1
  O  O67  1  0.47393200  0.36917400  0.16945900  1
  O  O68  1  0.20917700  0.21269600  0.08073400  1
  O  O69  1  0.22082300  0.22664000  0.43582800  1
  O  O70  1  0.21455800  0.19767500  0.25863300  1
  O  O71  1  0.33432500  0.24985100  0.65799600  1
  O  O72  1  0.81865800  0.48649500  0.83212100  1
  O  O73  1  0.89347800  0.51856700  0.16708200  1
  O  O74  1  0.52434700  0.34118100  0.82497000  1
  O  O75  1  0.66608100  0.34189000  0.97700800  1
  O  O76  1  0.67420800  0.34887700  0.47516100  1
  O  O77  1  0.51254100  0.18944300  0.33183500  1
  O  O78  1  0.92248400  0.38085900  0.67183600  1
  O  O79  1  0.81091900  0.33314700  0.32117800  1
  O  O80  1  0.34421800  0.07900900  0.16140900  1
  O  O81  1  0.19813100  0.98900100  0.74267300  1
  O  O82  1  0.19960700  0.99604200  0.92320500  1
  O  O83  1  0.46712500  0.08374900  0.67020300  1
  O  O84  1  0.66541400  0.18864200  0.82781100  1
  O  O85  1  0.62897400  0.09961600  0.17029400  1
  O  O86  1  0.92078100  0.25227100  0.15808300  1
  O  O87  1  0.01966400  0.23845200  0.94014300  1
  O  O88  1  0.98684200  0.20058000  0.76310100  1
  O  O89  1  0.74589200  0.08342600  0.66090900  1
  O  O90  1  0.76993400  0.98800100  0.43916400  1
  O  O91  1  0.80186000  0.01387300  0.26038600  1
