# generated using pymatgen
data_Li4V2Si(PO6)2
_symmetry_space_group_name_H-M   'P 1'
_cell_length_a   8.98135912
_cell_length_b   8.48030864
_cell_length_c   12.41356782
_cell_angle_alpha   94.60048130
_cell_angle_beta   89.96359954
_cell_angle_gamma   89.99773397
_symmetry_Int_Tables_number   1
_chemical_formula_structural   Li4V2Si(PO6)2
_chemical_formula_sum   'Li16 V8 Si4 P8 O48'
_cell_volume   942.42931216
_cell_formula_units_Z   4
loop_
 _symmetry_equiv_pos_site_id
 _symmetry_equiv_pos_as_xyz
  1  'x, y, z'
loop_
 _atom_site_type_symbol
 _atom_site_label
 _atom_site_symmetry_multiplicity
 _atom_site_fract_x
 _atom_site_fract_y
 _atom_site_fract_z
 _atom_site_occupancy
  Li  Li0  1  0.96484966  0.44504798  0.29791169  1
  Li  Li1  1  0.74550850  0.75700938  0.25109490  1
  Li  Li2  1  0.65533209  0.75910049  0.49337383  1
  Li  Li3  1  0.75565496  0.75804946  0.74961331  1
  Li  Li4  1  0.45265572  0.54588772  0.20945684  1
  Li  Li5  1  0.96225350  0.03261590  0.69761502  1
  Li  Li6  1  0.84474911  0.75901130  0.99388102  1
  Li  Li7  1  0.53711965  0.03194903  0.19812611  1
  Li  Li8  1  0.44010273  1.00069847  0.80987010  1
  Li  Li9  1  0.16693354  0.22322687  0.99007949  1
  Li  Li10  1  0.53306486  0.45705626  0.80329661  1
  Li  Li11  1  0.05809281  0.99741580  0.30969072  1
  Li  Li12  1  0.26514517  0.24654504  0.24527305  1
  Li  Li13  1  0.33428209  0.22445053  0.49313930  1
  Li  Li14  1  0.23509083  0.24721910  0.74443704  1
  Li  Li15  1  0.04705075  0.54517742  0.70858595  1
  V  V16  1  0.74873468  0.46413064  0.10876152  1
  V  V17  1  0.24927041  0.96554219  0.10814750  1
  V  V18  1  0.75122417  0.46429640  0.60864762  1
  V  V19  1  0.75167595  0.03643689  0.38950466  1
  V  V20  1  0.25022925  0.96707214  0.60724159  1
  V  V21  1  0.74781656  0.03657570  0.88921358  1
  V  V22  1  0.25527956  0.53197019  0.39409686  1
  V  V23  1  0.24385437  0.53244643  0.89379436  1
  Si  Si24  1  0.45344612  0.25315083  0.00182690  1
  Si  Si25  1  0.39841093  0.89646782  0.35126330  1
  Si  Si26  1  0.10214558  0.89686531  0.85131690  1
  Si  Si27  1  0.04603580  0.25397277  0.50165122  1
  P  P28  1  0.94883376  0.75128710  0.50106673  1
  P  P29  1  0.89777405  0.09806562  0.14699935  1
  P  P30  1  0.55112941  0.74997913  1.00052697  1
  P  P31  1  0.60457979  0.40149189  0.35199689  1
  P  P32  1  0.89515998  0.40117169  0.85195392  1
  P  P33  1  0.60294576  0.09743416  0.64667408  1
  P  P34  1  0.10248922  0.59792382  0.14913652  1
  P  P35  1  0.39696576  0.59676069  0.64840068  1
  O  O36  1  0.93028793  0.59391367  0.17016712  1
  O  O37  1  0.85160810  0.27360156  0.16196169  1
  O  O38  1  0.84500522  0.81744701  0.41352283  1
  O  O39  1  0.66230849  0.68541518  0.08500537  1
  O  O40  1  0.85084079  0.01915082  0.03662065  1
  O  O41  1  0.94640421  0.12494161  0.42851129  1
  O  O42  1  0.83716551  0.68666849  0.58534466  1
  O  O43  1  0.45794539  0.87473511  0.06725735  1
  O  O44  1  0.94680700  0.38467477  0.57313877  1
  O  O45  1  0.91999414  0.90426748  0.82994503  1
  O  O46  1  0.82965487  0.99346297  0.23259337  1
  O  O47  1  0.67111599  0.50831940  0.26633542  1
  O  O48  1  0.58082720  0.90206938  0.32989969  1
  O  O49  1  0.55375011  0.38273242  0.07346936  1
  O  O50  1  0.65050386  0.48365567  0.46145584  1
  O  O51  1  0.82890985  0.50837734  0.76653407  1
  O  O52  1  0.32552188  0.00726160  0.26127017  1
  O  O53  1  0.65607390  0.22882467  0.33720529  1
  O  O54  1  0.36005454  0.70811800  0.33725817  1
  O  O55  1  0.84360065  0.22861263  0.83712226  1
  O  O56  1  0.34110209  0.17953654  0.09035953  1
  O  O57  1  0.84951767  0.48280032  0.96169338  1
  O  O58  1  0.34130600  0.98058047  0.46617854  1
  O  O59  1  0.43265043  0.39442870  0.33082429  1
  O  O60  1  0.56910290  0.59171572  0.67001240  1
  O  O61  1  0.64888888  0.01613836  0.53672286  1
  O  O62  1  0.14779476  0.51777278  0.03869517  1
  O  O63  1  0.65576932  0.81727231  0.91401066  1
  O  O64  1  0.65388218  0.27094850  0.66026096  1
  O  O65  1  0.14819586  0.77257258  0.16078044  1
  O  O66  1  0.35195425  0.77105110  0.65827096  1
  O  O67  1  0.17110501  0.49438452  0.23575814  1
  O  O68  1  0.66942209  0.99261649  0.73277620  1
  O  O69  1  0.35156215  0.51411267  0.53866957  1
  O  O70  1  0.45444921  0.62466062  0.93767424  1
  O  O71  1  0.43142657  0.10230580  0.66841123  1
  O  O72  1  0.32814755  0.49468446  0.73597879  1
  O  O73  1  0.17625679  0.00607453  0.76061665  1
  O  O74  1  0.06897874  0.09965339  0.16911296  1
  O  O75  1  0.04742087  0.62645045  0.44001519  1
  O  O76  1  0.55267721  0.12376842  0.92876644  1
  O  O77  1  0.15816796  0.32239016  0.40989050  1
  O  O78  1  0.03979945  0.87856866  0.56730976  1
  O  O79  1  0.16097578  0.98013556  0.96563780  1
  O  O80  1  0.34156186  0.32287493  0.91043963  1
  O  O81  1  0.15730639  0.18089287  0.59070756  1
  O  O82  1  0.13908817  0.70810108  0.83708859  1
  O  O83  1  0.06722612  0.39375612  0.83105600  1
