# generated using pymatgen
data_Li9Mn2Co5O16
_symmetry_space_group_name_H-M   'P 1'
_cell_length_a   5.91638500
_cell_length_b   6.45019755
_cell_length_c   7.88732212
_cell_angle_alpha   88.81260501
_cell_angle_beta   103.82497614
_cell_angle_gamma   104.81962928
_symmetry_Int_Tables_number   1
_chemical_formula_structural   Li9Mn2Co5O16
_chemical_formula_sum   'Li9 Mn2 Co5 O16'
_cell_volume   282.29101805
_cell_formula_units_Z   1
loop_
 _symmetry_equiv_pos_site_id
 _symmetry_equiv_pos_as_xyz
  1  'x, y, z'
loop_
 _atom_site_type_symbol
 _atom_site_label
 _atom_site_symmetry_multiplicity
 _atom_site_fract_x
 _atom_site_fract_y
 _atom_site_fract_z
 _atom_site_occupancy
  Li  Li0  1  0.12050100  0.62656100  0.86775600  1
  Li  Li1  1  0.74980500  0.24515700  0.74235900  1
  Li  Li2  1  0.00182100  0.50175600  0.49922200  1
  Li  Li3  1  0.62788600  0.11917200  0.38654000  1
  Li  Li4  1  0.87699300  0.37666500  0.12831400  1
  Li  Li5  1  0.50060600  0.00280100  0.99874700  1
  Li  Li6  1  0.37773600  0.87614400  0.61641700  1
  Li  Li7  1  0.24848800  0.74917200  0.25731200  1
  Li  Li8  1  0.87159500  0.87736500  0.62184800  1
  Mn  Mn9  1  0.00465900  0.00109700  0.99791800  1
  Mn  Mn10  1  0.62631400  0.62306100  0.86934400  1
  Co  Co11  1  0.24373600  0.24853600  0.74726300  1
  Co  Co12  1  0.49835400  0.50226200  0.50003200  1
  Co  Co13  1  0.12307400  0.12572600  0.37956500  1
  Co  Co14  1  0.74986200  0.75148700  0.25750600  1
  Co  Co15  1  0.37855600  0.37251300  0.12634600  1
  O  O16  1  0.93278300  0.69729200  0.04507300  1
  O  O17  1  0.54691000  0.32359400  0.92488300  1
  O  O18  1  0.77787700  0.56461300  0.69429600  1
  O  O19  1  0.42537400  0.19932800  0.55286200  1
  O  O20  1  0.67760300  0.44694600  0.29953900  1
  O  O21  1  0.30464700  0.07249200  0.17678700  1
  O  O22  1  0.17247600  0.95938000  0.82662800  1
  O  O23  1  0.05172100  0.82435100  0.42146200  1
  O  O24  1  0.32148300  0.55845600  0.70179900  1
  O  O25  1  0.95817200  0.19411000  0.57318900  1
  O  O26  1  0.20240300  0.42335700  0.32026100  1
  O  O27  1  0.83666500  0.04757500  0.18617500  1
  O  O28  1  0.07031100  0.30155100  0.95526700  1
  O  O29  1  0.69500700  0.92667100  0.83073700  1
  O  O30  1  0.55944300  0.79135100  0.43392100  1
  O  O31  1  0.46714300  0.66945200  0.06062900  1
