# generated using pymatgen
data_Li9Mn2Co5O16
_symmetry_space_group_name_H-M   'P 1'
_cell_length_a   3.02108100
_cell_length_b   5.99858492
_cell_length_c   16.08201289
_cell_angle_alpha   90.68695181
_cell_angle_beta   90.99764887
_cell_angle_gamma   95.12057953
_symmetry_Int_Tables_number   1
_chemical_formula_structural   Li9Mn2Co5O16
_chemical_formula_sum   'Li9 Mn2 Co5 O16'
_cell_volume   290.20766340
_cell_formula_units_Z   1
loop_
 _symmetry_equiv_pos_site_id
 _symmetry_equiv_pos_as_xyz
  1  'x, y, z'
loop_
 _atom_site_type_symbol
 _atom_site_label
 _atom_site_symmetry_multiplicity
 _atom_site_fract_x
 _atom_site_fract_y
 _atom_site_fract_z
 _atom_site_occupancy
  Li  Li0  1  0.99812300  0.50020700  0.00105800  1
  Li  Li1  1  0.49704200  0.74305800  0.12837900  1
  Li  Li2  1  0.00099200  0.99979700  0.24965200  1
  Li  Li3  1  0.50023000  0.25173600  0.87340600  1
  Li  Li4  1  0.99969400  0.99840300  0.75130100  1
  Li  Li5  1  0.50028300  0.75021200  0.62499700  1
  Li  Li6  1  0.00140600  0.50164200  0.49816700  1
  Li  Li7  1  0.50194400  0.25570800  0.37355500  1
  Li  Li8  1  0.00013300  0.50080100  0.25046400  1
  Mn  Mn9  1  0.99894100  0.99927400  0.00118400  1
  Mn  Mn10  1  0.49958900  0.24927900  0.62442400  1
  Co  Co11  1  0.49434400  0.26237700  0.13063300  1
  Co  Co12  1  0.50286400  0.74003400  0.37011200  1
  Co  Co13  1  0.00062900  0.99846100  0.49794500  1
  Co  Co14  1  0.99790800  0.50234100  0.75030200  1
  Co  Co15  1  0.50222600  0.74821800  0.87490800  1
  O  O16  1  0.52151600  0.75627500  0.99403200  1
  O  O17  1  0.02283500  0.01164800  0.12166000  1
  O  O18  1  0.50460900  0.24688600  0.23823900  1
  O  O19  1  0.02425100  0.51308200  0.86920300  1
  O  O20  1  0.52414000  0.26353900  0.74630100  1
  O  O21  1  0.02465900  0.00377700  0.61844200  1
  O  O22  1  0.52442500  0.76373200  0.48982900  1
  O  O23  1  0.02198100  0.51993700  0.37511400  1
  O  O24  1  0.47727000  0.24259100  0.00960700  1
  O  O25  1  0.97861300  0.48147200  0.12552600  1
  O  O26  1  0.49691300  0.75472400  0.26241500  1
  O  O27  1  0.97573100  0.98818700  0.87910500  1
  O  O28  1  0.47593100  0.73665900  0.75600800  1
  O  O29  1  0.97578800  0.49463400  0.63031000  1
  O  O30  1  0.47776700  0.23561200  0.50315700  1
  O  O31  1  0.97722300  0.98569600  0.38056200  1
