# generated using pymatgen
data_Li4MnCo2O7
_symmetry_space_group_name_H-M   'P 1'
_cell_length_a   15.06005630
_cell_length_b   15.06005630
_cell_length_c   5.88890772
_cell_angle_alpha   84.17061751
_cell_angle_beta   84.17061751
_cell_angle_gamma   11.10844945
_symmetry_Int_Tables_number   1
_chemical_formula_structural   Li4MnCo2O7
_chemical_formula_sum   'Li8 Mn2 Co4 O14'
_cell_volume   255.98909806
_cell_formula_units_Z   2
loop_
 _symmetry_equiv_pos_site_id
 _symmetry_equiv_pos_as_xyz
  1  'x, y, z'
loop_
 _atom_site_type_symbol
 _atom_site_label
 _atom_site_symmetry_multiplicity
 _atom_site_fract_x
 _atom_site_fract_y
 _atom_site_fract_z
 _atom_site_occupancy
  Li  Li0  1  0.78837600  0.78837600  0.85234200  1
  Li  Li1  1  0.93375500  0.93375500  0.28942400  1
  Li  Li2  1  0.06624500  0.06624500  0.71057600  1
  Li  Li3  1  0.36248700  0.36248700  0.56555000  1
  Li  Li4  1  0.50000000  0.50000000  0.00000000  1
  Li  Li5  1  0.63751300  0.63751300  0.43445000  1
  Li  Li6  1  0.21162400  0.21162400  0.14765800  1
  Li  Li7  1  0.50000000  0.50000000  0.50000000  1
  Mn  Mn8  1  0.21110000  0.21110000  0.64705300  1
  Mn  Mn9  1  0.78890000  0.78890000  0.35294700  1
  Co  Co10  1  0.36340100  0.36340100  0.06680700  1
  Co  Co11  1  0.63659900  0.63659900  0.93319300  1
  Co  Co12  1  0.93507000  0.93507000  0.77183000  1
  Co  Co13  1  0.06493000  0.06493000  0.22817000  1
  O  O14  1  0.71101500  0.71101500  0.87588800  1
  O  O15  1  0.86135500  0.86135500  0.29578200  1
  O  O16  1  0.99413700  0.99413700  0.75411500  1
  O  O17  1  0.28753100  0.28753100  0.58081500  1
  O  O18  1  0.42956200  0.42956200  0.01706400  1
  O  O19  1  0.56958000  0.56958000  0.44726600  1
  O  O20  1  0.13601300  0.13601300  0.16623900  1
  O  O21  1  0.86398700  0.86398700  0.83376100  1
  O  O22  1  0.00586300  0.00586300  0.24588500  1
  O  O23  1  0.13864500  0.13864500  0.70421800  1
  O  O24  1  0.43042000  0.43042000  0.55273400  1
  O  O25  1  0.57043800  0.57043800  0.98293600  1
  O  O26  1  0.71246900  0.71246900  0.41918500  1
  O  O27  1  0.28898500  0.28898500  0.12411100  1
