# generated using pymatgen
data_Li4P4O17
_symmetry_space_group_name_H-M   'P 1'
_cell_length_a   12.18420018
_cell_length_b   12.18420018
_cell_length_c   13.97197273
_cell_angle_alpha   62.24580506
_cell_angle_beta   62.24580506
_cell_angle_gamma   84.30461457
_symmetry_Int_Tables_number   1
_chemical_formula_structural   Li4P4O17
_chemical_formula_sum   'Li16 P16 O68'
_cell_volume   1605.97455663
_cell_formula_units_Z   4
loop_
 _symmetry_equiv_pos_site_id
 _symmetry_equiv_pos_as_xyz
  1  'x, y, z'
loop_
 _atom_site_type_symbol
 _atom_site_label
 _atom_site_symmetry_multiplicity
 _atom_site_fract_x
 _atom_site_fract_y
 _atom_site_fract_z
 _atom_site_occupancy
  Li  Li0  1  0.18453100  0.42629900  0.11870800  1
  Li  Li1  1  0.57370100  0.81546900  0.38129200  1
  Li  Li2  1  0.81546900  0.57370100  0.88129200  1
  Li  Li3  1  0.42629900  0.18453100  0.61870800  1
  Li  Li4  1  0.80069700  0.55214600  0.31582100  1
  Li  Li5  1  0.44785400  0.19930300  0.18417900  1
  Li  Li6  1  0.19930300  0.44785400  0.68417900  1
  Li  Li7  1  0.55214600  0.80069700  0.81582100  1
  Li  Li8  1  0.32699600  0.68016100  0.47987200  1
  Li  Li9  1  0.31983900  0.67300400  0.02012800  1
  Li  Li10  1  0.67300400  0.31983900  0.52012800  1
  Li  Li11  1  0.68016100  0.32699600  0.97987200  1
  Li  Li12  1  0.81090700  0.60237000  0.08158900  1
  Li  Li13  1  0.39763000  0.18909300  0.41841100  1
  Li  Li14  1  0.18909300  0.39763000  0.91841100  1
  Li  Li15  1  0.60237000  0.81090700  0.58158900  1
  P  P16  1  0.10803900  0.68572700  0.72395000  1
  P  P17  1  0.31427300  0.89196100  0.77605000  1
  P  P18  1  0.89196100  0.31427300  0.27605000  1
  P  P19  1  0.68572700  0.10803900  0.22395000  1
  P  P20  1  0.11296600  0.67482300  0.94016600  1
  P  P21  1  0.32517700  0.88703400  0.55983400  1
  P  P22  1  0.88703400  0.32517700  0.05983400  1
  P  P23  1  0.67482300  0.11296600  0.44016600  1
  P  P24  1  0.36492800  0.42897400  0.22676500  1
  P  P25  1  0.57102600  0.63507200  0.27323500  1
  P  P26  1  0.63507200  0.57102600  0.77323500  1
  P  P27  1  0.42897400  0.36492800  0.72676500  1
  P  P28  1  0.35794900  0.42712900  0.43966800  1
  P  P29  1  0.57287100  0.64205100  0.06033200  1
  P  P30  1  0.64205100  0.57287100  0.56033200  1
  P  P31  1  0.42712900  0.35794900  0.93966800  1
  O  O32  1  0.84832300  0.02219800  0.67966300  1
  O  O33  1  0.97780200  0.15167700  0.82033700  1
  O  O34  1  0.15167700  0.97780200  0.32033700  1
  O  O35  1  0.02219800  0.84832300  0.17966300  1
  O  O36  1  0.23262600  0.80087800  0.36024200  1
  O  O37  1  0.19912200  0.76737400  0.13975800  1
  O  O38  1  0.76737400  0.19912200  0.63975800  1
  O  O39  1  0.80087800  0.23262600  0.86024200  1
  O  O40  1  0.22152700  0.06137700  0.06179400  1
  O  O41  1  0.93862300  0.77847300  0.43820600  1
  O  O42  1  0.77847300  0.93862300  0.93820600  1
  O  O43  1  0.06137700  0.22152700  0.56179400  1
  O  O44  1  0.13425800  0.05519000  0.04317800  1
  O  O45  1  0.94481000  0.86574200  0.45682200  1
  O  O46  1  0.86574200  0.94481000  0.95682200  1
  O  O47  1  0.05519000  0.13425800  0.54317800  1
  O  O48  1  0.09703300  0.78718300  0.12873200  1
  O  O49  1  0.21281700  0.90296700  0.37126800  1
  O  O50  1  0.90296700  0.21281700  0.87126800  1
  O  O51  1  0.78718300  0.09703300  0.62873200  1
  O  O52  1  0.31400700  0.02911800  0.72925400  1
  O  O53  1  0.97088200  0.68599300  0.77074600  1
  O  O54  1  0.68599300  0.97088200  0.27074600  1
  O  O55  1  0.02911800  0.31400700  0.22925400  1
  O  O56  1  0.17491600  0.61353500  0.65526200  1
  O  O57  1  0.38646500  0.82508400  0.84473800  1
  O  O58  1  0.82508400  0.38646500  0.34473800  1
  O  O59  1  0.61353500  0.17491600  0.15526200  1
  O  O60  1  0.14551300  0.63395400  0.83478100  1
  O  O61  1  0.36604600  0.85448700  0.66521900  1
  O  O62  1  0.85448700  0.36604600  0.16521900  1
  O  O63  1  0.63395400  0.14551300  0.33478100  1
  O  O64  1  0.17661800  0.83086500  0.63931900  1
  O  O65  1  0.16913500  0.82338200  0.86068100  1
  O  O66  1  0.82338200  0.16913500  0.36068100  1
  O  O67  1  0.83086500  0.17661800  0.13931900  1
  O  O68  1  0.18874200  0.60269400  0.00256200  1
  O  O69  1  0.39730600  0.81125800  0.49743800  1
  O  O70  1  0.81125800  0.39730600  0.99743800  1
  O  O71  1  0.60269400  0.18874200  0.50256200  1
  O  O72  1  0.97521400  0.66369500  0.01593900  1
  O  O73  1  0.33630500  0.02478600  0.48406100  1
  O  O74  1  0.02478600  0.33630500  0.98406100  1
  O  O75  1  0.66369500  0.97521400  0.51593900  1
  O  O76  1  0.29399500  0.48954300  0.15692600  1
  O  O77  1  0.51045700  0.70600500  0.34307400  1
  O  O78  1  0.70600500  0.51045700  0.84307400  1
  O  O79  1  0.48954300  0.29399500  0.65692600  1
  O  O80  1  0.37130200  0.29060000  0.27523300  1
  O  O81  1  0.70940000  0.62869800  0.22476700  1
  O  O82  1  0.62869800  0.70940000  0.72476700  1
  O  O83  1  0.29060000  0.37130200  0.77523300  1
  O  O84  1  0.50969500  0.49585800  0.14413800  1
  O  O85  1  0.50414200  0.49030500  0.35586200  1
  O  O86  1  0.49030500  0.50414200  0.85586200  1
  O  O87  1  0.49585800  0.50969500  0.64413800  1
  O  O88  1  0.35895700  0.28851000  0.50149700  1
  O  O89  1  0.71149000  0.64104300  0.99850300  1
  O  O90  1  0.64104300  0.71149000  0.49850300  1
  O  O91  1  0.28851000  0.35895700  0.00149700  1
  O  O92  1  0.71494600  0.50849200  0.48596000  1
  O  O93  1  0.49150800  0.28505400  0.01404000  1
  O  O94  1  0.28505400  0.49150800  0.51404000  1
  O  O95  1  0.50849200  0.71494600  0.98596000  1
  O  O96  1  0.53626300  0.68838200  0.16202900  1
  O  O97  1  0.31161800  0.46373700  0.33797100  1
  O  O98  1  0.46373700  0.31161800  0.83797100  1
  O  O99  1  0.68838200  0.53626300  0.66202900  1
