# generated using pymatgen
data_Li3MnV(PO4)3
_symmetry_space_group_name_H-M   'P 1'
_cell_length_a   9.00372351
_cell_length_b   8.46299760
_cell_length_c   14.79780451
_cell_angle_alpha   90.02370766
_cell_angle_beta   74.25929067
_cell_angle_gamma   62.21910523
_symmetry_Int_Tables_number   1
_chemical_formula_structural   Li3MnV(PO4)3
_chemical_formula_sum   'Li12 Mn4 V4 P12 O48'
_cell_volume   949.47755243
_cell_formula_units_Z   4
loop_
 _symmetry_equiv_pos_site_id
 _symmetry_equiv_pos_as_xyz
  1  'x, y, z'
loop_
 _atom_site_type_symbol
 _atom_site_label
 _atom_site_symmetry_multiplicity
 _atom_site_fract_x
 _atom_site_fract_y
 _atom_site_fract_z
 _atom_site_occupancy
  Li  Li0  1  0.15179762  0.24940502  0.33129616  1
  Li  Li1  1  0.14755563  0.80081045  0.13555691  1
  Li  Li2  1  0.14940785  0.29575503  0.63444066  1
  Li  Li3  1  0.14376874  0.73074582  0.46138003  1
  Li  Li4  1  0.14886853  0.23007834  0.96066909  1
  Li  Li5  1  0.14825559  0.75129236  0.83109844  1
  Li  Li6  1  0.85131184  0.25044999  0.16540269  1
  Li  Li7  1  0.85204819  0.77221538  0.03960725  1
  Li  Li8  1  0.85324674  0.27448358  0.54173963  1
  Li  Li9  1  0.85805982  0.69436895  0.36628230  1
  Li  Li10  1  0.85390129  0.19719501  0.86529301  1
  Li  Li11  1  0.85512474  0.74497072  0.66392376  1
  Mn  Mn12  1  0.04660045  0.97726068  0.32645216  1
  Mn  Mn13  1  0.55759138  0.22293307  0.07445858  1
  Mn  Mn14  1  0.95348887  0.52540471  0.17513040  1
  Mn  Mn15  1  0.95099245  0.02363680  0.67467471  1
  V  V16  1  0.04846604  0.47466866  0.82448723  1
  V  V17  1  0.44596792  0.27433895  0.42487301  1
  V  V18  1  0.55921120  0.71876816  0.57441035  1
  V  V19  1  0.44192568  0.78230111  0.92570907  1
  P  P20  1  0.25387495  0.08621729  0.12179083  1
  P  P21  1  0.25225406  0.02304058  0.48090399  1
  P  P22  1  0.24969531  0.52199895  0.27592783  1
  P  P23  1  0.25097185  0.01804830  0.77276604  1
  P  P24  1  0.25225872  0.57820804  0.62215780  1
  P  P25  1  0.25058678  0.52676224  0.97869158  1
  P  P26  1  0.74556071  0.47931264  0.01651532  1
  P  P27  1  0.75107809  0.41023315  0.37622045  1
  P  P28  1  0.74869379  0.98239366  0.22998810  1
  P  P29  1  0.74753044  0.48480843  0.73198238  1
  P  P30  1  0.74808452  0.97783232  0.51856156  1
  P  P31  1  0.75192315  0.91083897  0.87405379  1
  O  O32  1  0.09912727  0.25229397  0.09952075  1
  O  O33  1  0.20257695  0.06799086  0.22755877  1
  O  O34  1  0.09512774  0.63206984  0.07177741  1
  O  O35  1  0.09768082  0.12827982  0.57433375  1
  O  O36  1  0.09406411  0.48277607  0.28161436  1
  O  O37  1  0.42571558  0.09736658  0.09209837  1
  O  O38  1  0.28081396  0.17279252  0.42896726  1
  O  O39  1  0.19428467  0.72149825  0.25836767  1
  O  O40  1  0.19662812  0.21660013  0.75530328  1
  O  O41  1  0.27934782  0.49441813  0.37579132  1
  O  O42  1  0.41576237  0.39738785  0.19713178  1
  O  O43  1  0.09722303  0.74409806  0.60064562  1
  O  O44  1  0.28201481  0.91901946  0.05920806  1
  O  O45  1  0.28261748  0.41027495  0.55979521  1
  O  O46  1  0.57637759  0.12476209  0.30602019  1
  O  O47  1  0.19743366  0.56102936  0.72954778  1
  O  O48  1  0.20105976  0.92262251  0.41835594  1
  O  O49  1  0.19223101  0.43363421  0.91512337  1
  O  O50  1  0.72529825  0.00229150  0.13004681  1
  O  O51  1  0.57479514  0.60798952  0.99442464  1
  O  O52  1  0.57808093  0.10585305  0.49399761  1
  O  O53  1  0.09450823  0.98037275  0.77958347  1
  O  O54  1  0.72404779  0.32323916  0.06482410  1
  O  O55  1  0.58022767  0.39607276  0.40880496  1
  O  O56  1  0.42043603  0.59321341  0.59712051  1
  O  O57  1  0.27881592  0.67963780  0.92786337  1
  O  O58  1  0.90316063  0.02429440  0.22665142  1
  O  O59  1  0.42023923  0.88901917  0.50228314  1
  O  O60  1  0.41857384  0.38796321  0.99563437  1
  O  O61  1  0.27928605  0.99599279  0.87308582  1
  O  O62  1  0.79293577  0.57996807  0.07907320  1
  O  O63  1  0.79282724  0.08525019  0.57920497  1
  O  O64  1  0.79593610  0.42899368  0.27135489  1
  O  O65  1  0.41658601  0.88824981  0.69487036  1
  O  O66  1  0.72882512  0.56931229  0.44074799  1
  O  O67  1  0.73415170  0.06900218  0.93478875  1
  O  O68  1  0.90874787  0.23745129  0.39592618  1
  O  O69  1  0.57735698  0.62786696  0.80579788  1
  O  O70  1  0.72858097  0.50951054  0.63088453  1
  O  O71  1  0.79413028  0.79326170  0.25429123  1
  O  O72  1  0.79292599  0.29397639  0.75261133  1
  O  O73  1  0.72217386  0.82834013  0.56980548  1
  O  O74  1  0.57884964  0.89619990  0.90891012  1
  O  O75  1  0.90470000  0.52262304  0.73087197  1
  O  O76  1  0.90351506  0.87379890  0.42488776  1
  O  O77  1  0.90201157  0.38112086  0.92080157  1
  O  O78  1  0.79456764  0.92437274  0.76854728  1
  O  O79  1  0.90351779  0.73506580  0.89469525  1
