# generated using pymatgen
data_LiBeH3
_symmetry_space_group_name_H-M   'P 1'
_cell_length_a   4.98787059
_cell_length_b   4.98787059
_cell_length_c   5.12892055
_cell_angle_alpha   80.75682973
_cell_angle_beta   80.75682973
_cell_angle_gamma   45.76518877
_symmetry_Int_Tables_number   1
_chemical_formula_structural   LiBeH3
_chemical_formula_sum   'Li2 Be2 H6'
_cell_volume   90.02470747
_cell_formula_units_Z   2
loop_
 _symmetry_equiv_pos_site_id
 _symmetry_equiv_pos_as_xyz
  1  'x, y, z'
loop_
 _atom_site_type_symbol
 _atom_site_label
 _atom_site_symmetry_multiplicity
 _atom_site_fract_x
 _atom_site_fract_y
 _atom_site_fract_z
 _atom_site_occupancy
  Li  Li0  1  0.80599100  0.94493300  0.36660600  1
  Li  Li1  1  0.05506700  0.19400900  0.63339400  1
  Be  Be2  1  0.65280000  0.89968000  0.85136000  1
  Be  Be3  1  0.10032000  0.34720000  0.14864000  1
  H  H4  1  0.86379100  0.98007500  0.72534400  1
  H  H5  1  0.01992500  0.13620900  0.27465600  1
  H  H6  1  0.61675200  0.73665300  0.67194000  1
  H  H7  1  0.26334700  0.38324800  0.32806000  1
  H  H8  1  0.73648300  0.73037600  0.11714400  1
  H  H9  1  0.26962400  0.26351700  0.88285600  1
