# generated using pymatgen
data_Li3Mn3CoO8
_symmetry_space_group_name_H-M   'P 1'
_cell_length_a   5.83127536
_cell_length_b   6.01565526
_cell_length_c   10.44969262
_cell_angle_alpha   106.53694266
_cell_angle_beta   108.38768157
_cell_angle_gamma   59.04239789
_symmetry_Int_Tables_number   1
_chemical_formula_structural   Li3Mn3CoO8
_chemical_formula_sum   'Li6 Mn6 Co2 O16'
_cell_volume   294.90532792
_cell_formula_units_Z   2
loop_
 _symmetry_equiv_pos_site_id
 _symmetry_equiv_pos_as_xyz
  1  'x, y, z'
loop_
 _atom_site_type_symbol
 _atom_site_label
 _atom_site_symmetry_multiplicity
 _atom_site_fract_x
 _atom_site_fract_y
 _atom_site_fract_z
 _atom_site_occupancy
  Li  Li0  1  0.76099400  0.24249400  0.24334600  1
  Li  Li1  1  0.23900600  0.75751900  0.75658600  1
  Li  Li2  1  0.24485800  0.24694000  0.25271500  1
  Li  Li3  1  0.75515100  0.75298400  0.74727600  1
  Li  Li4  1  0.25329600  0.75694400  0.24770100  1
  Li  Li5  1  0.74672200  0.24309600  0.75228900  1
  Mn  Mn6  1  0.00013300  0.50000000  0.49999400  1
  Mn  Mn7  1  0.99990300  0.99979000  0.50002400  1
  Mn  Mn8  1  0.99987900  0.50026100  0.99994800  1
  Mn  Mn9  1  0.50005400  0.99995700  0.99994000  1
  Mn  Mn10  1  0.49979500  0.50037700  0.00004100  1
  Mn  Mn11  1  0.49982900  0.99991800  0.50005700  1
  Co  Co12  1  0.99997500  0.00013600  0.99999000  1
  Co  Co13  1  0.50008500  0.49979800  0.49995200  1
  O  O14  1  0.36399400  0.40053100  0.11427600  1
  O  O15  1  0.85135800  0.88624100  0.62252900  1
  O  O16  1  0.14893200  0.11330100  0.37752200  1
  O  O17  1  0.63557700  0.59976400  0.88565300  1
  O  O18  1  0.86624600  0.34457700  0.10975300  1
  O  O19  1  0.37278800  0.87608400  0.60627900  1
  O  O20  1  0.37460300  0.85701300  0.10242600  1
  O  O21  1  0.86657000  0.36909000  0.60394100  1
  O  O22  1  0.87395800  0.87441300  0.10201800  1
  O  O23  1  0.37308700  0.35420400  0.60477600  1
  O  O24  1  0.62728500  0.64545800  0.39530400  1
  O  O25  1  0.12625500  0.12570900  0.89796000  1
  O  O26  1  0.13354800  0.63064000  0.39599900  1
  O  O27  1  0.62540500  0.14338800  0.89764100  1
  O  O28  1  0.62713000  0.12372900  0.39387000  1
  O  O29  1  0.13358300  0.65564500  0.89019800  1
