# generated using pymatgen
data_Li6MnV3(PO4)6
_symmetry_space_group_name_H-M   'P 1'
_cell_length_a   9.83062400
_cell_length_b   9.83908995
_cell_length_c   9.86500433
_cell_angle_alpha   84.82140546
_cell_angle_beta   86.84265201
_cell_angle_gamma   87.19375742
_symmetry_Int_Tables_number   1
_chemical_formula_structural   Li6MnV3(PO4)6
_chemical_formula_sum   'Li12 Mn2 V6 P12 O48'
_cell_volume   947.92048858
_cell_formula_units_Z   2
loop_
 _symmetry_equiv_pos_site_id
 _symmetry_equiv_pos_as_xyz
  1  'x, y, z'
loop_
 _atom_site_type_symbol
 _atom_site_label
 _atom_site_symmetry_multiplicity
 _atom_site_fract_x
 _atom_site_fract_y
 _atom_site_fract_z
 _atom_site_occupancy
  Li  Li0  1  0.23893600  0.50919400  0.98445000  1
  Li  Li1  1  0.38672500  0.25675300  0.00956200  1
  Li  Li2  1  0.46047700  0.57001000  0.78546000  1
  Li  Li3  1  0.17469300  0.73322000  0.77422100  1
  Li  Li4  1  0.61725400  0.97928000  0.74926600  1
  Li  Li5  1  0.82189300  0.74413700  0.62436100  1
  Li  Li6  1  0.75566400  0.01254000  0.49552900  1
  Li  Li7  1  0.53896200  0.22065500  0.43600600  1
  Li  Li8  1  0.97698600  0.92265500  0.30054700  1
  Li  Li9  1  0.82391500  0.22840500  0.26304600  1
  Li  Li10  1  0.17916000  0.37942900  0.24581000  1
  Li  Li11  1  0.01461100  0.69525800  0.07619500  1
  Mn  Mn12  1  0.78169700  0.26281200  0.96979400  1
  Mn  Mn13  1  0.72248000  0.74546600  0.02118600  1
  V  V14  1  0.99941300  0.24328000  0.75009700  1
  V  V15  1  0.21805500  0.02902000  0.74773600  1
  V  V16  1  0.00243300  0.46279400  0.53261000  1
  V  V17  1  0.50093500  0.53414600  0.46968200  1
  V  V18  1  0.28165100  0.96778300  0.25082100  1
  V  V19  1  0.50733800  0.74960100  0.25151000  1
  P  P20  1  0.40029600  0.82281900  0.95138200  1
  P  P21  1  0.90794500  0.94226900  0.82499500  1
  P  P22  1  0.92744300  0.54706600  0.84026000  1
  P  P23  1  0.30133000  0.34336800  0.68292100  1
  P  P24  1  0.69962600  0.31612900  0.65665300  1
  P  P25  1  0.42985300  0.83881000  0.55550900  1
  P  P26  1  0.07179100  0.15330400  0.44651200  1
  P  P27  1  0.80717400  0.68196500  0.35176200  1
  P  P28  1  0.19882300  0.65262900  0.31647200  1
  P  P29  1  0.57203900  0.44405200  0.16817800  1
  P  P30  1  0.59153700  0.05990200  0.18033400  1
  P  P31  1  0.09439800  0.17388900  0.05140400  1
  O  O32  1  0.88242700  0.87134800  0.96794800  1
  O  O33  1  0.55331600  0.82860500  0.91176600  1
  O  O34  1  0.78926900  0.60445000  0.88879400  1
  O  O35  1  0.32835100  0.95747800  0.89590100  1
  O  O36  1  0.33638200  0.69559900  0.90565500  1
  O  O37  1  0.92445300  0.38443400  0.87359300  1
  O  O38  1  0.05248600  0.59649400  0.90604700  1
  O  O39  1  0.12336000  0.16237300  0.89251100  1
  O  O40  1  0.87845200  0.10150600  0.82967500  1
  O  O41  1  0.66898000  0.30800500  0.81340200  1
  O  O42  1  0.06113300  0.90646400  0.78348000  1
  O  O43  1  0.34658500  0.40694300  0.80841000  1
  O  O44  1  0.81242500  0.90305000  0.71779400  1
  O  O45  1  0.94357400  0.58368800  0.68195000  1
  O  O46  1  0.33084700  0.18674000  0.68868000  1
  O  O47  1  0.14021800  0.37595100  0.67410100  1
  O  O48  1  0.29256700  0.88056500  0.62579700  1
  O  O49  1  0.55266100  0.91283500  0.59073800  1
  O  O50  1  0.86064400  0.32313800  0.62067200  1
  O  O51  1  0.63421200  0.45432200  0.60046800  1
  O  O52  1  0.44735100  0.67929900  0.59303800  1
  O  O53  1  0.65331000  0.19151000  0.59267200  1
  O  O54  1  0.07861300  0.12261800  0.60536000  1
  O  O55  1  0.36637900  0.40312000  0.54624400  1
  O  O56  1  0.84604200  0.80403700  0.42637800  1
  O  O57  1  0.13958900  0.59321900  0.45325700  1
  O  O58  1  0.86117800  0.54315500  0.41498800  1
  O  O59  1  0.41798300  0.86722800  0.39235900  1
  O  O60  1  0.64290100  0.67469700  0.37887900  1
  O  O61  1  0.94250000  0.09559000  0.39685700  1
  O  O62  1  0.07105200  0.31218700  0.40911400  1
  O  O63  1  0.20495200  0.08910900  0.38508400  1
  O  O64  1  0.36218900  0.63041800  0.32743800  1
  O  O65  1  0.15891300  0.80837100  0.29587100  1
  O  O66  1  0.54931700  0.40863800  0.32674700  1
  O  O67  1  0.65332700  0.11169700  0.30440800  1
  O  O68  1  0.84602900  0.70089900  0.19922700  1
  O  O69  1  0.61852100  0.89775500  0.18850100  1
  O  O70  1  0.16013600  0.57992600  0.19386100  1
  O  O71  1  0.43340700  0.08973900  0.17760600  1
  O  O72  1  0.57482600  0.60827200  0.13908700  1
  O  O73  1  0.37616600  0.82534200  0.11457200  1
  O  O74  1  0.71357500  0.38283700  0.12900700  1
  O  O75  1  0.93935500  0.20302000  0.08864800  1
  O  O76  1  0.45354000  0.40306700  0.09166100  1
  O  O77  1  0.13115000  0.03415700  0.12694400  1
  O  O78  1  0.18460100  0.28829900  0.08500100  1
  O  O79  1  0.65522600  0.11797400  0.04274000  1
