# generated using pymatgen
data_Li2V3SnO8
_symmetry_space_group_name_H-M   'P 1'
_cell_length_a   6.05952536
_cell_length_b   6.01027081
_cell_length_c   10.79416155
_cell_angle_alpha   74.08540665
_cell_angle_beta   90.27515091
_cell_angle_gamma   120.32441301
_symmetry_Int_Tables_number   1
_chemical_formula_structural   Li2V3SnO8
_chemical_formula_sum   'Li4 V6 Sn2 O16'
_cell_volume   322.06779799
_cell_formula_units_Z   2
loop_
 _symmetry_equiv_pos_site_id
 _symmetry_equiv_pos_as_xyz
  1  'x, y, z'
loop_
 _atom_site_type_symbol
 _atom_site_label
 _atom_site_symmetry_multiplicity
 _atom_site_fract_x
 _atom_site_fract_y
 _atom_site_fract_z
 _atom_site_occupancy
  Li  Li0  1  0.93139900  0.87638500  0.18093500  1
  Li  Li1  1  0.44054300  0.88191400  0.68574100  1
  Li  Li2  1  0.55946200  0.11809600  0.31425300  1
  Li  Li3  1  0.06861000  0.12362700  0.81906800  1
  V  V4  1  0.50003000  0.49999100  0.99999300  1
  V  V5  1  0.50001600  0.00004900  0.99999700  1
  V  V6  1  0.50002600  0.50001800  0.50000500  1
  V  V7  1  0.00000500  0.50001400  0.50000000  1
  V  V8  1  0.99996600  0.99995600  0.50000700  1
  V  V9  1  0.99997900  0.50000600  0.99999300  1
  Sn  Sn10  1  0.75880700  0.50440500  0.74984100  1
  Sn  Sn11  1  0.24119100  0.49558300  0.25016200  1
  O  O12  1  0.87101300  0.74647400  0.40126400  1
  O  O13  1  0.36150600  0.72992600  0.89954000  1
  O  O14  1  0.63849400  0.27007400  0.10047000  1
  O  O15  1  0.12897700  0.25351800  0.59872800  1
  O  O16  1  0.10497400  0.75727000  0.61623300  1
  O  O17  1  0.58927500  0.73627500  0.11885500  1
  O  O18  1  0.65464900  0.28642700  0.61748900  1
  O  O19  1  0.12661800  0.28151700  0.11376800  1
  O  O20  1  0.64746500  0.74549300  0.61496300  1
  O  O21  1  0.12551000  0.72975800  0.11457900  1
  O  O22  1  0.87448600  0.27024300  0.88543200  1
  O  O23  1  0.35251700  0.25448500  0.38503100  1
  O  O24  1  0.87337700  0.71847300  0.88623400  1
  O  O25  1  0.34535400  0.71357600  0.38250200  1
  O  O26  1  0.41072300  0.26371200  0.88115400  1
  O  O27  1  0.89503000  0.24273400  0.38376400  1
