# generated using pymatgen
data_Li6MnV3(PO4)6
_symmetry_space_group_name_H-M   'P 1'
_cell_length_a   8.79298210
_cell_length_b   8.79298210
_cell_length_c   14.49430022
_cell_angle_alpha   73.87592186
_cell_angle_beta   73.87592186
_cell_angle_gamma   60.64011866
_symmetry_Int_Tables_number   1
_chemical_formula_structural   Li6MnV3(PO4)6
_chemical_formula_sum   'Li12 Mn2 V6 P12 O48'
_cell_volume   924.78158617
_cell_formula_units_Z   2
loop_
 _symmetry_equiv_pos_site_id
 _symmetry_equiv_pos_as_xyz
  1  'x, y, z'
loop_
 _atom_site_type_symbol
 _atom_site_label
 _atom_site_symmetry_multiplicity
 _atom_site_fract_x
 _atom_site_fract_y
 _atom_site_fract_z
 _atom_site_occupancy
  Li  Li0  1  0.85784200  0.23418500  0.76151100  1
  Li  Li1  1  0.50301500  0.24579700  0.87328500  1
  Li  Li2  1  0.76581500  0.14215800  0.23848900  1
  Li  Li3  1  0.24896600  0.99859600  0.62481100  1
  Li  Li4  1  0.64186900  0.76464200  0.48849400  1
  Li  Li5  1  0.73665300  0.85785700  0.01068600  1
  Li  Li6  1  0.26338500  0.64070300  0.73640300  1
  Li  Li7  1  0.35929700  0.73661500  0.26359700  1
  Li  Li8  1  0.75420300  0.49698500  0.12671500  1
  Li  Li9  1  0.00140400  0.75103400  0.37518900  1
  Li  Li10  1  0.23535800  0.35813100  0.51150600  1
  Li  Li11  1  0.14214300  0.26334700  0.98931400  1
  Mn  Mn12  1  0.67757300  0.42271300  0.34046300  1
  Mn  Mn13  1  0.57728700  0.32242700  0.65953700  1
  V  V14  1  0.42483800  0.18088200  0.08792400  1
  V  V15  1  0.31673300  0.07815200  0.41171300  1
  V  V16  1  0.92184800  0.68326700  0.58828700  1
  V  V17  1  0.18245600  0.92187900  0.83785500  1
  V  V18  1  0.81911800  0.57516200  0.91207600  1
  V  V19  1  0.07812100  0.81754400  0.16214500  1
  P  P20  1  0.86783800  0.91758300  0.75850200  1
  P  P21  1  0.63153200  0.08455800  0.49437800  1
  P  P22  1  0.82718600  0.17281400  0.00000000  1
  P  P23  1  0.08241700  0.13216200  0.24149800  1
  P  P24  1  0.67406500  0.82439400  0.25080200  1
  P  P25  1  0.58147000  0.63120600  0.74185000  1
  P  P26  1  0.41977200  0.86688700  0.00640900  1
  P  P27  1  0.31818500  0.68181500  0.50000000  1
  P  P28  1  0.91544200  0.36846800  0.50562200  1
  P  P29  1  0.17560600  0.32593500  0.74919800  1
  P  P30  1  0.36879400  0.41853000  0.25815000  1
  P  P31  1  0.13311300  0.58022800  0.99359100  1
  O  O32  1  0.71839700  0.10577500  0.76721700  1
  O  O33  1  0.61538700  0.16522200  0.57903300  1
  O  O34  1  0.66967800  0.19332600  0.39474500  1
  O  O35  1  0.83881700  0.79957300  0.85623600  1
  O  O36  1  0.88024600  0.84124300  0.67273600  1
  O  O37  1  0.19202000  0.14191400  0.74665000  1
  O  O38  1  0.89859800  0.05252600  0.09380400  1
  O  O39  1  0.45235600  0.07425000  0.50984500  1
  O  O40  1  0.94747400  0.10140200  0.90619600  1
  O  O41  1  0.10683900  0.21912700  0.50996200  1
  O  O42  1  0.78087300  0.89316100  0.49003700  1
  O  O43  1  0.64391000  0.18862900  0.99683500  1
  O  O44  1  0.85808600  0.80798000  0.25335000  1
  O  O45  1  0.15875700  0.11975400  0.32726400  1
  O  O46  1  0.65967700  0.61045600  0.82802200  1
  O  O47  1  0.55401300  0.89788200  0.34431000  1
  O  O48  1  0.20042700  0.16118300  0.14376400  1
  O  O49  1  0.39055600  0.78135200  0.73777700  1
  O  O50  1  0.60325400  0.94499100  0.15658200  1
  O  O51  1  0.69321200  0.66629800  0.64354400  1
  O  O52  1  0.04839100  0.92719300  0.74043500  1
  O  O53  1  0.43299300  0.04474800  0.98960300  1
  O  O54  1  0.30294400  0.86521500  0.50354700  1
  O  O55  1  0.92575000  0.54764400  0.49015500  1
  O  O56  1  0.07280700  0.95160900  0.25956500  1
  O  O57  1  0.68540600  0.64276800  0.24770500  1
  O  O58  1  0.57066900  0.45095100  0.75592000  1
  O  O59  1  0.95525200  0.56700700  0.01039700  1
  O  O60  1  0.30777600  0.83226600  0.10514100  1
  O  O61  1  0.38725200  0.56301300  0.59407300  1
  O  O62  1  0.61066400  0.71508900  0.01114900  1
  O  O63  1  0.80667400  0.33032200  0.60525500  1
  O  O64  1  0.43698700  0.61274800  0.40592700  1
  O  O65  1  0.34031400  0.88290600  0.92144000  1
  O  O66  1  0.83477800  0.38461300  0.42096700  1
  O  O67  1  0.13478500  0.69705600  0.49645300  1
  O  O68  1  0.35723200  0.31459400  0.75229500  1
  O  O69  1  0.21864800  0.60944400  0.26222300  1
  O  O70  1  0.89422500  0.28160300  0.23278300  1
  O  O71  1  0.05500900  0.39674600  0.84341800  1
  O  O72  1  0.54904900  0.42933100  0.24408000  1
  O  O73  1  0.10211800  0.44598700  0.65569000  1
  O  O74  1  0.81137100  0.35609000  0.00316500  1
  O  O75  1  0.11709400  0.65968600  0.07856000  1
  O  O76  1  0.16773400  0.69222400  0.89485900  1
  O  O77  1  0.33370200  0.30678800  0.35645600  1
  O  O78  1  0.38954400  0.34032300  0.17197800  1
  O  O79  1  0.28491100  0.38933600  0.98885100  1
