# generated using pymatgen
data_Li9Mn7O16
_symmetry_space_group_name_H-M   'P 1'
_cell_length_a   5.99610800
_cell_length_b   6.05680370
_cell_length_c   8.19276180
_cell_angle_alpha   90.82662626
_cell_angle_beta   90.37506212
_cell_angle_gamma   94.20516582
_symmetry_Int_Tables_number   1
_chemical_formula_structural   Li9Mn7O16
_chemical_formula_sum   'Li9 Mn7 O16'
_cell_volume   296.69805070
_cell_formula_units_Z   1
loop_
 _symmetry_equiv_pos_site_id
 _symmetry_equiv_pos_as_xyz
  1  'x, y, z'
loop_
 _atom_site_type_symbol
 _atom_site_label
 _atom_site_symmetry_multiplicity
 _atom_site_fract_x
 _atom_site_fract_y
 _atom_site_fract_z
 _atom_site_occupancy
  Li  Li0  1  0.25348300  0.74362800  0.74562400  1
  Li  Li1  1  0.00000000  0.50000000  0.50000000  1
  Li  Li2  1  0.50000000  0.50000000  0.00000000  1
  Li  Li3  1  0.25499100  0.25636800  0.74394000  1
  Li  Li4  1  0.74651700  0.25637200  0.25437600  1
  Li  Li5  1  0.50000000  0.00000000  0.00000000  1
  Li  Li6  1  0.00000000  0.00000000  0.50000000  1
  Li  Li7  1  0.74500900  0.74363200  0.25606000  1
  Li  Li8  1  0.50000000  0.50000000  0.50000000  1
  Mn  Mn9  1  0.74354700  0.75013900  0.74737500  1
  Mn  Mn10  1  0.50000000  0.00000000  0.50000000  1
  Mn  Mn11  1  0.25645300  0.24986100  0.25262500  1
  Mn  Mn12  1  0.00000000  0.00000000  0.00000000  1
  Mn  Mn13  1  0.74315600  0.25808500  0.74703200  1
  Mn  Mn14  1  0.25684400  0.74191500  0.25296800  1
  Mn  Mn15  1  0.00000000  0.50000000  0.00000000  1
  O  O16  1  0.97972800  0.99707100  0.76085000  1
  O  O17  1  0.72333500  0.77802400  0.51188900  1
  O  O18  1  0.24004100  0.73471200  0.01291800  1
  O  O19  1  0.99550100  0.48646000  0.75576800  1
  O  O20  1  0.47577100  0.49688000  0.24910600  1
  O  O21  1  0.24102200  0.23409200  0.01131700  1
  O  O22  1  0.74066000  0.23568200  0.51210700  1
  O  O23  1  0.49953600  0.98287200  0.26358700  1
  O  O24  1  0.52422900  0.50312000  0.75089400  1
  O  O25  1  0.27666500  0.22197600  0.48811100  1
  O  O26  1  0.75995900  0.26528800  0.98708200  1
  O  O27  1  0.50046400  0.01712800  0.73641300  1
  O  O28  1  0.02027200  0.00292900  0.23915000  1
  O  O29  1  0.75897800  0.76590800  0.98868300  1
  O  O30  1  0.25934000  0.76431800  0.48789300  1
  O  O31  1  0.00449900  0.51354000  0.24423200  1
