# generated using pymatgen
data_Li3Cr5O8
_symmetry_space_group_name_H-M   'P 1'
_cell_length_a   6.00644980
_cell_length_b   6.00644980
_cell_length_c   6.00644977
_cell_angle_alpha   60.26997884
_cell_angle_beta   60.26997884
_cell_angle_gamma   60.26998103
_symmetry_Int_Tables_number   1
_chemical_formula_structural   Li3Cr5O8
_chemical_formula_sum   'Li3 Cr5 O8'
_cell_volume   154.16446597
_cell_formula_units_Z   1
loop_
 _symmetry_equiv_pos_site_id
 _symmetry_equiv_pos_as_xyz
  1  'x, y, z'
loop_
 _atom_site_type_symbol
 _atom_site_label
 _atom_site_symmetry_multiplicity
 _atom_site_fract_x
 _atom_site_fract_y
 _atom_site_fract_z
 _atom_site_occupancy
  Li  Li0  1  0.00000000  0.50000000  0.00000000  1
  Li  Li1  1  0.50000000  0.00000000  0.00000000  1
  Li  Li2  1  0.00000000  0.00000000  0.50000000  1
  Cr  Cr3  1  0.50000000  0.50000000  0.50000000  1
  Cr  Cr4  1  0.00000000  0.00000000  0.00000000  1
  Cr  Cr5  1  0.50000000  0.50000000  0.00000000  1
  Cr  Cr6  1  0.50000000  0.00000000  0.50000000  1
  Cr  Cr7  1  0.00000000  0.50000000  0.50000000  1
  O  O8  1  0.74052500  0.74052500  0.74052500  1
  O  O9  1  0.25191000  0.25191000  0.73469300  1
  O  O10  1  0.25191000  0.73469300  0.25191000  1
  O  O11  1  0.73469300  0.25191000  0.25191000  1
  O  O12  1  0.26530700  0.74809000  0.74809000  1
  O  O13  1  0.74809000  0.26530700  0.74809000  1
  O  O14  1  0.74809000  0.74809000  0.26530700  1
  O  O15  1  0.25947500  0.25947500  0.25947500  1
