# generated using pymatgen
data_Li2V2P2O11
_symmetry_space_group_name_H-M   'P 1'
_cell_length_a   6.75665800
_cell_length_b   7.39512600
_cell_length_c   9.87015800
_cell_angle_alpha   90.00000000
_cell_angle_beta   90.00000000
_cell_angle_gamma   90.00000000
_symmetry_Int_Tables_number   1
_chemical_formula_structural   Li2V2P2O11
_chemical_formula_sum   'Li4 V4 P4 O22'
_cell_volume   493.17564333
_cell_formula_units_Z   2
loop_
 _symmetry_equiv_pos_site_id
 _symmetry_equiv_pos_as_xyz
  1  'x, y, z'
loop_
 _atom_site_type_symbol
 _atom_site_label
 _atom_site_symmetry_multiplicity
 _atom_site_fract_x
 _atom_site_fract_y
 _atom_site_fract_z
 _atom_site_occupancy
  Li  Li0  1  0.46556000  0.29421600  0.65400700  1
  Li  Li1  1  0.46556000  0.70578400  0.34599300  1
  Li  Li2  1  0.53444000  0.79421600  0.84599300  1
  Li  Li3  1  0.53444000  0.20578400  0.15400700  1
  V  V4  1  0.04010500  0.70353800  0.51206000  1
  V  V5  1  0.04010500  0.29646200  0.48794000  1
  V  V6  1  0.95989500  0.20353800  0.98794000  1
  V  V7  1  0.95989500  0.79646200  0.01206000  1
  P  P8  1  0.78863600  0.51953600  0.77345400  1
  P  P9  1  0.78863600  0.48046400  0.22654600  1
  P  P10  1  0.21136400  0.01953600  0.72654600  1
  P  P11  1  0.21136400  0.98046400  0.27345400  1
  O  O12  1  0.57336300  0.50447800  0.73401100  1
  O  O13  1  0.57336300  0.49552200  0.26598900  1
  O  O14  1  0.42663700  0.00447800  0.76598900  1
  O  O15  1  0.42663700  0.99552200  0.23401100  1
  O  O16  1  0.80619500  0.69248000  0.86532600  1
  O  O17  1  0.80619500  0.30752000  0.13467400  1
  O  O18  1  0.19380500  0.19248000  0.63467400  1
  O  O19  1  0.19380500  0.80752000  0.36532600  1
  O  O20  1  0.85509500  0.35120900  0.85887500  1
  O  O21  1  0.85509500  0.64879100  0.14112500  1
  O  O22  1  0.14490500  0.85120900  0.64112500  1
  O  O23  1  0.14490500  0.14879100  0.35887500  1
  O  O24  1  0.93525400  0.53101500  0.65414900  1
  O  O25  1  0.93525400  0.46898500  0.34585100  1
  O  O26  1  0.06474600  0.03101500  0.84585100  1
  O  O27  1  0.06474600  0.96898500  0.15414900  1
  O  O28  1  0.81831700  0.77937700  0.47322500  1
  O  O29  1  0.81831700  0.22062300  0.52677500  1
  O  O30  1  0.18168300  0.27937700  0.02677500  1
  O  O31  1  0.18168300  0.72062300  0.97322500  1
  O  O32  1  0.20587700  0.50000000  0.50000000  1
  O  O33  1  0.79412300  0.00000000  0.00000000  1
