# generated using pymatgen
data_Li5V3P8O29
_symmetry_space_group_name_H-M   'P 1'
_cell_length_a   9.73430100
_cell_length_b   9.76673456
_cell_length_c   14.14122538
_cell_angle_alpha   90.35110790
_cell_angle_beta   89.90904370
_cell_angle_gamma   119.76801661
_symmetry_Int_Tables_number   1
_chemical_formula_structural   Li5V3P8O29
_chemical_formula_sum   'Li10 V6 P16 O58'
_cell_volume   1167.00722042
_cell_formula_units_Z   2
loop_
 _symmetry_equiv_pos_site_id
 _symmetry_equiv_pos_as_xyz
  1  'x, y, z'
loop_
 _atom_site_type_symbol
 _atom_site_label
 _atom_site_symmetry_multiplicity
 _atom_site_fract_x
 _atom_site_fract_y
 _atom_site_fract_z
 _atom_site_occupancy
  Li  Li0  1  0.89823700  0.65880900  0.44351100  1
  Li  Li1  1  0.76462900  0.66924600  0.94050300  1
  Li  Li2  1  0.32977400  0.09675100  0.93760100  1
  Li  Li3  1  0.66921800  0.76534900  0.55967800  1
  Li  Li4  1  0.32949300  0.23331800  0.43550300  1
  Li  Li5  1  0.67144200  0.90794300  0.06558300  1
  Li  Li6  1  0.10199300  0.34035900  0.55972800  1
  Li  Li7  1  0.10470900  0.76634200  0.05375700  1
  Li  Li8  1  0.00402300  0.07789100  0.98771700  1
  Li  Li9  1  0.00166600  0.99654400  0.50011900  1
  V  V10  1  0.56326800  0.56550500  0.74969000  1
  V  V11  1  0.43060700  0.42964600  0.24584000  1
  V  V12  1  0.56620500  0.00154200  0.25568700  1
  V  V13  1  0.43509600  0.99790500  0.74714500  1
  V  V14  1  0.99686700  0.43017700  0.75223400  1
  V  V15  1  0.00130000  0.56325700  0.24989300  1
  P  P16  1  0.91578000  0.22035500  0.16303600  1
  P  P17  1  0.78383600  0.08105000  0.66232600  1
  P  P18  1  0.91200800  0.68585200  0.65585100  1
  P  P19  1  0.66691000  0.33645700  0.86904600  1
  P  P20  1  0.67044300  0.33956700  0.36702600  1
  P  P21  1  0.77456800  0.68301000  0.15742100  1
  P  P22  1  0.68534300  0.76987400  0.33945400  1
  P  P23  1  0.31340300  0.08234000  0.15627900  1
  P  P24  1  0.68887400  0.91546800  0.84678200  1
  P  P25  1  0.31640100  0.22691600  0.65631900  1
  P  P26  1  0.22022000  0.30617400  0.83788100  1
  P  P27  1  0.32813300  0.66159500  0.63267700  1
  P  P28  1  0.33251400  0.66860700  0.13324800  1
  P  P29  1  0.08604300  0.31203600  0.34668500  1
  P  P30  1  0.21490300  0.91521700  0.33964600  1
  P  P31  1  0.08634800  0.77324900  0.83843100  1
  O  O32  1  0.01475100  0.23630100  0.43892700  1
  O  O33  1  0.92291600  0.25540200  0.66195300  1
  O  O34  1  0.77036500  0.98508100  0.93896100  1
  O  O35  1  0.74317400  0.08246000  0.16327700  1
  O  O36  1  0.92031400  0.38234000  0.17510300  1
  O  O37  1  0.81206300  0.33198000  0.81783600  1
  O  O38  1  0.91612900  0.53120400  0.67132500  1
  O  O39  1  0.99802300  0.76761300  0.92739200  1
  O  O40  1  0.92453300  0.66377300  0.15783400  1
  O  O41  1  0.67847200  0.19605400  0.32713500  1
  O  O42  1  0.62452900  0.07637000  0.66804500  1
  O  O43  1  0.81297800  0.49167200  0.31660100  1
  O  O44  1  0.68188000  0.34203700  0.97381600  1
  O  O45  1  0.69644000  0.37278900  0.47069200  1
  O  O46  1  0.67740800  0.49056800  0.82954200  1
  O  O47  1  0.47031400  0.08451100  0.17446000  1
  O  O48  1  0.51337900  0.18883500  0.83135200  1
  O  O49  1  0.74093800  0.65822800  0.66073800  1
  O  O50  1  0.79717500  0.79237500  0.24951300  1
  O  O51  1  0.77346200  0.77535400  0.42868500  1
  O  O52  1  0.77469100  0.77119300  0.07003700  1
  O  O53  1  0.62401600  0.52511100  0.17088000  1
  O  O54  1  0.51068800  0.32490400  0.33245400  1
  O  O55  1  0.65800600  0.74344000  0.83787900  1
  O  O56  1  0.47303100  0.38197500  0.67243100  1
  O  O57  1  0.34638700  0.08635300  0.66504100  1
  O  O58  1  0.80633000  0.01168100  0.76199600  1
  O  O59  1  0.80602400  0.99002000  0.58377900  1
  O  O60  1  0.19049100  0.00629300  0.41742800  1
  O  O61  1  0.65373100  0.90953600  0.33571000  1
  O  O62  1  0.53058500  0.61314900  0.32590700  1
  O  O63  1  0.34119300  0.25198400  0.16434700  1
  O  O64  1  0.48687500  0.67383900  0.67023000  1
  O  O65  1  0.37827900  0.45910100  0.83242500  1
  O  O66  1  0.20103700  0.19733000  0.91754200  1
  O  O67  1  0.23468400  0.22460500  0.56528900  1
  O  O68  1  0.19841700  0.20798000  0.74050800  1
  O  O69  1  0.25583900  0.33870600  0.33796800  1
  O  O70  1  0.48862300  0.81423500  0.17011100  1
  O  O71  1  0.53310100  0.91758300  0.83010500  1
  O  O72  1  0.32589700  0.51803200  0.17267200  1
  O  O73  1  0.30995700  0.67642300  0.02938200  1
  O  O74  1  0.31769200  0.64275800  0.52772600  1
  O  O75  1  0.18463500  0.50720600  0.67725600  1
  O  O76  1  0.37529900  0.92273400  0.33564000  1
  O  O77  1  0.32125200  0.80380400  0.67695100  1
  O  O78  1  0.07936000  0.33876100  0.83521200  1
  O  O79  1  0.98861200  0.19809000  0.26067500  1
  O  O80  1  0.00674600  0.21421900  0.08104600  1
  O  O81  1  0.08490600  0.46936600  0.32885100  1
  O  O82  1  0.18783300  0.67725800  0.18312500  1
  O  O83  1  0.08981200  0.61755900  0.82353900  1
  O  O84  1  0.25468300  0.91768700  0.83949800  1
  O  O85  1  0.23626200  0.00384000  0.06399500  1
  O  O86  1  0.19306300  0.98440600  0.23958600  1
  O  O87  1  0.07481300  0.74096100  0.33950000  1
  O  O88  1  0.98765100  0.77084200  0.56618800  1
  O  O89  1  0.00025300  0.79525800  0.74760700  1
