# generated using pymatgen
data_Li4CoOF5
_symmetry_space_group_name_H-M   'P 1'
_cell_length_a   6.67760434
_cell_length_b   10.13662206
_cell_length_c   7.54103723
_cell_angle_alpha   76.41200006
_cell_angle_beta   108.04369449
_cell_angle_gamma   78.59209553
_symmetry_Int_Tables_number   1
_chemical_formula_structural   Li4CoOF5
_chemical_formula_sum   'Li16 Co4 O4 F20'
_cell_volume   451.08458987
_cell_formula_units_Z   4
loop_
 _symmetry_equiv_pos_site_id
 _symmetry_equiv_pos_as_xyz
  1  'x, y, z'
loop_
 _atom_site_type_symbol
 _atom_site_label
 _atom_site_symmetry_multiplicity
 _atom_site_fract_x
 _atom_site_fract_y
 _atom_site_fract_z
 _atom_site_occupancy
  Li  Li0  1  0.34003800  0.27302300  0.18066200  1
  Li  Li1  1  0.09087800  0.52345100  0.68122200  1
  Li  Li2  1  0.59451600  0.02545900  0.68445700  1
  Li  Li3  1  0.84342900  0.77302000  0.18453700  1
  Li  Li4  1  0.65980700  0.72771700  0.81756600  1
  Li  Li5  1  0.41043400  0.97627700  0.32049600  1
  Li  Li6  1  0.91051200  0.47608900  0.31632000  1
  Li  Li7  1  0.15641800  0.22512700  0.81666200  1
  Li  Li8  1  0.69491100  0.49830800  0.66808700  1
  Li  Li9  1  0.44390800  0.75080100  0.16476100  1
  Li  Li10  1  0.94467400  0.24789100  0.16589900  1
  Li  Li11  1  0.19942600  0.00086800  0.66727800  1
  Li  Li12  1  0.30105100  0.49958300  0.33390100  1
  Li  Li13  1  0.05923600  0.74971900  0.83665700  1
  Li  Li14  1  0.55668000  0.25072000  0.83267900  1
  Li  Li15  1  0.80722300  0.00192100  0.33239900  1
  Co  Co16  1  0.74959300  0.25105800  0.49748700  1
  Co  Co17  1  0.00315400  0.99790700  0.00417000  1
  Co  Co18  1  0.50036900  0.50023100  0.99935100  1
  Co  Co19  1  0.25183200  0.74974300  0.50121000  1
  O  O20  1  0.37651500  0.62464700  0.75155500  1
  O  O21  1  0.12670700  0.87453700  0.25073100  1
  O  O22  1  0.62665100  0.37514600  0.24911600  1
  O  O23  1  0.87557400  0.12520400  0.74993200  1
  F  F24  1  0.12530700  0.37409000  0.24917200  1
  F  F25  1  0.87519200  0.62604700  0.74855200  1
  F  F26  1  0.37566500  0.12635800  0.74993400  1
  F  F27  1  0.62729200  0.87359500  0.25356200  1
  F  F28  1  0.73040700  0.39022100  0.92709800  1
  F  F29  1  0.46981400  0.64420000  0.43059500  1
  F  F30  1  0.98108400  0.13708900  0.42605000  1
  F  F31  1  0.23076100  0.88817200  0.92382900  1
  F  F32  1  0.27365100  0.60953500  0.07670400  1
  F  F33  1  0.03299700  0.85468700  0.57141900  1
  F  F34  1  0.52005300  0.36345600  0.57236400  1
  F  F35  1  0.76932500  0.11145800  0.07340900  1
  F  F36  1  0.82000200  0.86091300  0.90892000  1
  F  F37  1  0.56874500  0.11262400  0.40720200  1
  F  F38  1  0.06784200  0.60975400  0.40710400  1
  F  F39  1  0.31783700  0.36290400  0.90801800  1
  F  F40  1  0.18406500  0.13769400  0.09255800  1
  F  F41  1  0.93116000  0.38914300  0.59033700  1
  F  F42  1  0.43503400  0.88992800  0.59437000  1
  F  F43  1  0.68220300  0.63794000  0.09299600  1
