# generated using pymatgen
data_Li5Co3O8
_symmetry_space_group_name_H-M   'P 1'
_cell_length_a   4.99063797
_cell_length_b   5.79947780
_cell_length_c   5.91777394
_cell_angle_alpha   60.56167975
_cell_angle_beta   75.27653230
_cell_angle_gamma   73.02310353
_symmetry_Int_Tables_number   1
_chemical_formula_structural   Li5Co3O8
_chemical_formula_sum   'Li5 Co3 O8'
_cell_volume   141.39954457
_cell_formula_units_Z   1
loop_
 _symmetry_equiv_pos_site_id
 _symmetry_equiv_pos_as_xyz
  1  'x, y, z'
loop_
 _atom_site_type_symbol
 _atom_site_label
 _atom_site_symmetry_multiplicity
 _atom_site_fract_x
 _atom_site_fract_y
 _atom_site_fract_z
 _atom_site_occupancy
  Li  Li0  1  0.50000000  0.25000000  0.25000000  1
  Li  Li1  1  0.01033190  0.49650486  -0.00013896  1
  Li  Li2  1  0.98966810  0.00349514  0.50013896  1
  Li  Li3  1  0.50000000  0.75000000  0.75000000  1
  Li  Li4  1  0.50000000  0.25000000  0.75000000  1
  Co  Co5  1  -0.00117866  0.00403743  0.99095731  1
  Co  Co6  1  0.00117866  0.49596257  0.50904269  1
  Co  Co7  1  0.50000000  0.75000000  0.25000000  1
  O  O8  1  0.77494060  0.35248119  0.88086258  1
  O  O9  1  0.23467683  0.61918066  0.60002017  1
  O  O10  1  0.23851874  0.09757761  0.12005622  1
  O  O11  1  0.75289202  0.85385802  0.38518401  1
  O  O12  1  0.22505940  0.14751881  0.61913742  1
  O  O13  1  0.76148126  0.40242239  0.37994378  1
  O  O14  1  0.76532317  0.88081934  0.89997983  1
  O  O15  1  0.24710798  0.64614198  0.11481599  1
