# generated using pymatgen
data_Li9Mn7O16
_symmetry_space_group_name_H-M   'P 1'
_cell_length_a   10.25716543
_cell_length_b   10.25716543
_cell_length_c   5.25524256
_cell_angle_alpha   83.41509472
_cell_angle_beta   83.41509472
_cell_angle_gamma   32.80961909
_symmetry_Int_Tables_number   1
_chemical_formula_structural   Li9Mn7O16
_chemical_formula_sum   'Li9 Mn7 O16'
_cell_volume   297.44079883
_cell_formula_units_Z   1
loop_
 _symmetry_equiv_pos_site_id
 _symmetry_equiv_pos_as_xyz
  1  'x, y, z'
loop_
 _atom_site_type_symbol
 _atom_site_label
 _atom_site_symmetry_multiplicity
 _atom_site_fract_x
 _atom_site_fract_y
 _atom_site_fract_z
 _atom_site_occupancy
  Li  Li0  1  0.25955200  0.74044800  0.50000000  1
  Li  Li1  1  0.62035500  0.62035500  0.25184800  1
  Li  Li2  1  0.00000000  0.50000000  0.00000000  1
  Li  Li3  1  0.37964500  0.37964500  0.74815200  1
  Li  Li4  1  0.74044800  0.25955200  0.50000000  1
  Li  Li5  1  0.12372100  0.12372100  0.24201400  1
  Li  Li6  1  0.50000000  0.00000000  0.00000000  1
  Li  Li7  1  0.87627900  0.87627900  0.75798600  1
  Li  Li8  1  0.50000000  0.50000000  0.00000000  1
  Mn  Mn9  1  0.00000000  0.00000000  0.00000000  1
  Mn  Mn10  1  0.62464900  0.13226100  0.23373900  1
  Mn  Mn11  1  0.37535100  0.86773900  0.76626100  1
  Mn  Mn12  1  0.74984300  0.74984300  0.49935400  1
  Mn  Mn13  1  0.13226100  0.62464900  0.23373900  1
  Mn  Mn14  1  0.86773900  0.37535100  0.76626100  1
  Mn  Mn15  1  0.25015700  0.25015700  0.50064600  1
  O  O16  1  0.17622400  0.70524100  0.88370600  1
  O  O17  1  0.56983400  0.56983400  0.63003800  1
  O  O18  1  0.94431300  0.43996000  0.38858100  1
  O  O19  1  0.31866100  0.31866100  0.12676200  1
  O  O20  1  0.70524100  0.17622400  0.88370600  1
  O  O21  1  0.05968700  0.05968700  0.66741300  1
  O  O22  1  0.43996000  0.94431300  0.38858100  1
  O  O23  1  0.81978100  0.81978100  0.13461700  1
  O  O24  1  0.29475900  0.82377600  0.11629400  1
  O  O25  1  0.68133900  0.68133900  0.87323800  1
  O  O26  1  0.05568700  0.56004000  0.61141900  1
  O  O27  1  0.43016600  0.43016600  0.36996200  1
  O  O28  1  0.82377600  0.29475900  0.11629400  1
  O  O29  1  0.18021900  0.18021900  0.86538300  1
  O  O30  1  0.56004000  0.05568700  0.61141900  1
  O  O31  1  0.94031300  0.94031300  0.33258700  1
