# generated using pymatgen
data_Li2InGe
_symmetry_space_group_name_H-M   'P 1'
_cell_length_a   11.02691383
_cell_length_b   11.02691383
_cell_length_c   11.02691383
_cell_angle_alpha   120.44301218
_cell_angle_beta   119.75308474
_cell_angle_gamma   89.83130036
_symmetry_Int_Tables_number   1
_chemical_formula_structural   Li2InGe
_chemical_formula_sum   'Li2 In1 Ge1'
_cell_volume   946.63171726
_cell_formula_units_Z   1
loop_
 _symmetry_equiv_pos_site_id
 _symmetry_equiv_pos_as_xyz
  1  'x, y, z'
loop_
 _atom_site_type_symbol
 _atom_site_label
 _atom_site_symmetry_multiplicity
 _atom_site_fract_x
 _atom_site_fract_y
 _atom_site_fract_z
 _atom_site_occupancy
  Li  Li0  1  0.00000000  0.23423900  0.23423900  1
  Li  Li1  1  0.00000000  0.76576100  0.76576100  1
  In  In2  1  0.00000000  0.50000000  0.50000000  1
  Ge  Ge3  1  0.00000000  0.00000000  0.00000000  1
