# generated using pymatgen
data_LiMn2N3
_symmetry_space_group_name_H-M   'P 1'
_cell_length_a   5.46405425
_cell_length_b   5.48557675
_cell_length_c   4.95189188
_cell_angle_alpha   90.00000000
_cell_angle_beta   90.00000000
_cell_angle_gamma   120.13038315
_symmetry_Int_Tables_number   1
_chemical_formula_structural   LiMn2N3
_chemical_formula_sum   'Li2 Mn4 N6'
_cell_volume   128.37102096
_cell_formula_units_Z   2
loop_
 _symmetry_equiv_pos_site_id
 _symmetry_equiv_pos_as_xyz
  1  'x, y, z'
loop_
 _atom_site_type_symbol
 _atom_site_label
 _atom_site_symmetry_multiplicity
 _atom_site_fract_x
 _atom_site_fract_y
 _atom_site_fract_z
 _atom_site_occupancy
  Li  Li0  1  -0.00000000  0.66556391  0.46112807  1
  Li  Li1  1  0.00000000  0.33443609  0.96112807  1
  Mn  Mn2  1  0.33810850  0.33070218  0.48960597  1
  Mn  Mn3  1  0.66189150  0.99259368  0.48960597  1
  Mn  Mn4  1  0.66189150  0.66929782  0.98960597  1
  Mn  Mn5  1  0.33810850  0.00740632  0.98960597  1
  N  N6  1  0.38060708  0.33741728  0.85596611  1
  N  N7  1  0.61939292  0.95680920  0.85596611  1
  N  N8  1  0.61939292  0.66258272  0.35596611  1
  N  N9  1  0.38060708  0.04319080  0.35596611  1
  N  N10  1  1.00000000  0.71927793  0.91972677  1
  N  N11  1  0.00000000  0.28072207  0.41972677  1
