# generated using pymatgen
data_Li7Mn5O12
_symmetry_space_group_name_H-M   'P 1'
_cell_length_a   6.06633367
_cell_length_b   6.51126944
_cell_length_c   12.08773963
_cell_angle_alpha   105.18599478
_cell_angle_beta   95.36974104
_cell_angle_gamma   75.59874407
_symmetry_Int_Tables_number   1
_chemical_formula_structural   Li7Mn5O12
_chemical_formula_sum   'Li14 Mn10 O24'
_cell_volume   446.10193432
_cell_formula_units_Z   2
loop_
 _symmetry_equiv_pos_site_id
 _symmetry_equiv_pos_as_xyz
  1  'x, y, z'
loop_
 _atom_site_type_symbol
 _atom_site_label
 _atom_site_symmetry_multiplicity
 _atom_site_fract_x
 _atom_site_fract_y
 _atom_site_fract_z
 _atom_site_occupancy
  Li  Li0  1  0.66659400  0.33336000  0.16664600  1
  Li  Li1  1  0.16673700  0.33327100  0.66666200  1
  Li  Li2  1  0.34476400  0.64856000  0.08328200  1
  Li  Li3  1  0.83485700  0.65341700  0.59438700  1
  Li  Li4  1  0.98862500  0.01814000  0.25001100  1
  Li  Li5  1  0.49851800  0.01318200  0.73902500  1
  Li  Li6  1  0.65159300  0.33494400  0.42624300  1
  Li  Li7  1  0.14566900  0.32760200  0.92323400  1
  Li  Li8  1  0.18782700  0.33902700  0.41005700  1
  Li  Li9  1  0.68176000  0.33171800  0.90716700  1
  Li  Li10  1  0.84027800  0.66200300  0.07303200  1
  Li  Li11  1  0.31554400  0.66815800  0.59056000  1
  Li  Li12  1  0.49310400  0.00483200  0.26030300  1
  Li  Li13  1  0.01785400  0.99838300  0.74280700  1
  Mn  Mn14  1  0.66677400  0.33319500  0.66672800  1
  Mn  Mn15  1  0.16644700  0.33351000  0.16667900  1
  Mn  Mn16  1  0.98847700  0.99962300  0.00408600  1
  Mn  Mn17  1  0.49237800  0.00174600  0.50548800  1
  Mn  Mn18  1  0.34479400  0.66703400  0.32914100  1
  Mn  Mn19  1  0.84093900  0.66474800  0.82786000  1
  Mn  Mn20  1  0.49514200  0.99924800  0.00439900  1
  Mn  Mn21  1  0.00283700  0.00696000  0.50243100  1
  Mn  Mn22  1  0.83794600  0.66773500  0.32897500  1
  Mn  Mn23  1  0.33064300  0.65960800  0.83091800  1
  O  O24  1  0.77205500  0.98796300  0.37437600  1
  O  O25  1  0.22892400  0.98694100  0.89476300  1
  O  O26  1  0.10443700  0.67966400  0.43851000  1
  O  O27  1  0.56127200  0.67879600  0.95897100  1
  O  O28  1  0.92942000  0.31644500  0.04575300  1
  O  O29  1  0.43304800  0.31873000  0.54447900  1
  O  O30  1  0.40371000  0.35035700  0.28749700  1
  O  O31  1  0.90046800  0.34777500  0.78892200  1
  O  O32  1  0.56765800  0.66998500  0.22625100  1
  O  O33  1  0.09689800  0.66748700  0.71448900  1
  O  O34  1  0.76564800  0.99680600  0.10702400  1
  O  O35  1  0.23653600  0.99902200  0.61886000  1
  O  O36  1  0.26970000  0.98691300  0.37597400  1
  O  O37  1  0.75928100  0.98967200  0.88208700  1
  O  O38  1  0.57401500  0.67689700  0.45117300  1
  O  O39  1  0.06369100  0.67981400  0.95736900  1
  O  O40  1  0.38789200  0.31354000  0.05367700  1
  O  O41  1  0.88614900  0.32273800  0.55440600  1
  O  O42  1  0.94522600  0.35333300  0.27965300  1
  O  O43  1  0.44728400  0.34370700  0.77896800  1
  O  O44  1  0.11065200  0.64929300  0.20641200  1
  O  O45  1  0.60100000  0.65204700  0.70836600  1
  O  O46  1  0.22249200  0.01763200  0.12689800  1
  O  O47  1  0.73244200  0.01443500  0.62500300  1
