# generated using pymatgen
data_Li9Mn2Co5O16
_symmetry_space_group_name_H-M   'P 1'
_cell_length_a   9.00495501
_cell_length_b   9.00495501
_cell_length_c   5.87474780
_cell_angle_alpha   89.86270761
_cell_angle_beta   89.86270761
_cell_angle_gamma   37.45409799
_symmetry_Int_Tables_number   1
_chemical_formula_structural   Li9Mn2Co5O16
_chemical_formula_sum   'Li9 Mn2 Co5 O16'
_cell_volume   289.69716878
_cell_formula_units_Z   1
loop_
 _symmetry_equiv_pos_site_id
 _symmetry_equiv_pos_as_xyz
  1  'x, y, z'
loop_
 _atom_site_type_symbol
 _atom_site_label
 _atom_site_symmetry_multiplicity
 _atom_site_fract_x
 _atom_site_fract_y
 _atom_site_fract_z
 _atom_site_occupancy
  Li  Li0  1  0.12733200  0.63357000  0.25327000  1
  Li  Li1  1  0.36643000  0.87266800  0.74673000  1
  Li  Li2  1  0.00000000  0.00000000  0.00000000  1
  Li  Li3  1  0.24816500  0.24816500  0.49931600  1
  Li  Li4  1  0.87266800  0.36643000  0.74673000  1
  Li  Li5  1  0.75183500  0.75183500  0.50068400  1
  Li  Li6  1  0.63357000  0.12733200  0.25327000  1
  Li  Li7  1  0.50000000  0.50000000  0.00000000  1
  Li  Li8  1  0.00000000  0.00000000  0.50000000  1
  Mn  Mn9  1  0.24822500  0.24822500  0.99854200  1
  Mn  Mn10  1  0.75177500  0.75177500  0.00145800  1
  Co  Co11  1  0.50000000  0.50000000  0.50000000  1
  Co  Co12  1  0.12821600  0.63515200  0.74422700  1
  Co  Co13  1  0.36484800  0.87178400  0.25577300  1
  Co  Co14  1  0.63515200  0.12821600  0.74422700  1
  Co  Co15  1  0.87178400  0.36484800  0.25577300  1
  O  O16  1  0.00169600  0.50036700  0.22658900  1
  O  O17  1  0.26463200  0.72838700  0.73233400  1
  O  O18  1  0.87334200  0.87334200  0.99310700  1
  O  O19  1  0.12860900  0.12860900  0.47533500  1
  O  O20  1  0.72838700  0.26463200  0.73233400  1
  O  O21  1  0.61319100  0.61319100  0.49773200  1
  O  O22  1  0.50036700  0.00169600  0.22658900  1
  O  O23  1  0.36981400  0.36981400  0.97138900  1
  O  O24  1  0.27161300  0.73536800  0.26766600  1
  O  O25  1  0.49963300  0.99830400  0.77341100  1
  O  O26  1  0.12665800  0.12665800  0.00689300  1
  O  O27  1  0.38680900  0.38680900  0.50226800  1
  O  O28  1  0.99830400  0.49963300  0.77341100  1
  O  O29  1  0.87139100  0.87139100  0.52466500  1
  O  O30  1  0.73536800  0.27161300  0.26766600  1
  O  O31  1  0.63018600  0.63018600  0.02861100  1
