# generated using pymatgen
data_Li4MnCo2O7
_symmetry_space_group_name_H-M   'P 1'
_cell_length_a   5.09385200
_cell_length_b   5.14803749
_cell_length_c   10.55060696
_cell_angle_alpha   84.88426247
_cell_angle_beta   77.11849132
_cell_angle_gamma   70.82038503
_symmetry_Int_Tables_number   1
_chemical_formula_structural   Li4MnCo2O7
_chemical_formula_sum   'Li8 Mn2 Co4 O14'
_cell_volume   254.70043151
_cell_formula_units_Z   2
loop_
 _symmetry_equiv_pos_site_id
 _symmetry_equiv_pos_as_xyz
  1  'x, y, z'
loop_
 _atom_site_type_symbol
 _atom_site_label
 _atom_site_symmetry_multiplicity
 _atom_site_fract_x
 _atom_site_fract_y
 _atom_site_fract_z
 _atom_site_occupancy
  Li  Li0  1  0.06912600  0.50106500  0.85726300  1
  Li  Li1  1  0.63448600  0.49868000  0.72229700  1
  Li  Li2  1  0.21166800  0.50256900  0.57605300  1
  Li  Li3  1  0.78412900  0.50090200  0.43085100  1
  Li  Li4  1  0.35492900  0.49947400  0.28434900  1
  Li  Li5  1  0.94042500  0.49418500  0.13719800  1
  Li  Li6  1  0.50671900  0.50305900  0.99212000  1
  Li  Li7  1  0.56952000  0.00237300  0.85737600  1
  Mn  Mn8  1  0.00086600  0.99435000  0.99758700  1
  Mn  Mn9  1  0.28580100  0.00209600  0.42843100  1
  Co  Co10  1  0.14205200  0.01055900  0.72005400  1
  Co  Co11  1  0.70967300  0.99901500  0.58168100  1
  Co  Co12  1  0.85964900  0.99809000  0.28609800  1
  Co  Co13  1  0.43388200  0.99835500  0.13293300  1
  O  O14  1  0.76026300  0.77269400  0.00673100  1
  O  O15  1  0.28703500  0.77028100  0.86671400  1
  O  O16  1  0.89350500  0.77350600  0.70352400  1
  O  O17  1  0.45191100  0.77267100  0.56435100  1
  O  O18  1  0.04485100  0.77930300  0.42016700  1
  O  O19  1  0.58156700  0.78267100  0.29085500  1
  O  O20  1  0.16954100  0.76805800  0.13770300  1
  O  O21  1  0.38556000  0.23189600  0.70942900  1
  O  O22  1  0.98298300  0.22646100  0.56062700  1
  O  O23  1  0.53247500  0.21870500  0.42864100  1
  O  O24  1  0.11693300  0.22804800  0.29290000  1
  O  O25  1  0.70769000  0.21874800  0.13929200  1
  O  O26  1  0.24198200  0.22053700  0.01076600  1
  O  O27  1  0.84077800  0.23164500  0.86401000  1
