# generated using pymatgen
data_Li4MnCo2O7
_symmetry_space_group_name_H-M   'P 1'
_cell_length_a   9.82330882
_cell_length_b   9.82330882
_cell_length_c   9.77051846
_cell_angle_alpha   65.68157028
_cell_angle_beta   65.68157028
_cell_angle_gamma   17.13624838
_symmetry_Int_Tables_number   1
_chemical_formula_structural   Li4MnCo2O7
_chemical_formula_sum   'Li8 Mn2 Co4 O14'
_cell_volume   252.56356158
_cell_formula_units_Z   2
loop_
 _symmetry_equiv_pos_site_id
 _symmetry_equiv_pos_as_xyz
  1  'x, y, z'
loop_
 _atom_site_type_symbol
 _atom_site_label
 _atom_site_symmetry_multiplicity
 _atom_site_fract_x
 _atom_site_fract_y
 _atom_site_fract_z
 _atom_site_occupancy
  Li  Li0  1  0.43018100  0.43018100  0.79141300  1
  Li  Li1  1  0.13813500  0.13813500  0.93560800  1
  Li  Li2  1  0.86186500  0.86186500  0.06439200  1
  Li  Li3  1  0.56981900  0.56981900  0.20858700  1
  Li  Li4  1  0.28694700  0.28694700  0.35549200  1
  Li  Li5  1  0.00000000  0.00000000  0.50000000  1
  Li  Li6  1  0.71305300  0.71305300  0.64450800  1
  Li  Li7  1  0.50000000  0.50000000  0.00000000  1
  Mn  Mn8  1  0.06756700  0.06756700  0.72498100  1
  Mn  Mn9  1  0.93243300  0.93243300  0.27501900  1
  Co  Co10  1  0.78588000  0.78588000  0.85671600  1
  Co  Co11  1  0.21412000  0.21412000  0.14328400  1
  Co  Co12  1  0.64357900  0.64357900  0.42891000  1
  Co  Co13  1  0.35642100  0.35642100  0.57109000  1
  O  O14  1  0.54143800  0.54143800  0.61497900  1
  O  O15  1  0.25426100  0.25426100  0.75313600  1
  O  O16  1  0.97269700  0.97269700  0.87593100  1
  O  O17  1  0.68266400  0.68266400  0.03939100  1
  O  O18  1  0.39617700  0.39617700  0.19160800  1
  O  O19  1  0.11146100  0.11146100  0.32913800  1
  O  O20  1  0.82894200  0.82894200  0.46111400  1
  O  O21  1  0.31733600  0.31733600  0.96060900  1
  O  O22  1  0.02730300  0.02730300  0.12406900  1
  O  O23  1  0.74573900  0.74573900  0.24686400  1
  O  O24  1  0.45856200  0.45856200  0.38502100  1
  O  O25  1  0.17105800  0.17105800  0.53888600  1
  O  O26  1  0.88853900  0.88853900  0.67086200  1
  O  O27  1  0.60382300  0.60382300  0.80839200  1
