# generated using pymatgen
data_NaLiMg30O31
_symmetry_space_group_name_H-M   'P 1'
_cell_length_a   8.52807600
_cell_length_b   8.54799200
_cell_length_c   8.56608800
_cell_angle_alpha   90.00000000
_cell_angle_beta   90.00000000
_cell_angle_gamma   90.00000000
_symmetry_Int_Tables_number   1
_chemical_formula_structural   NaLiMg30O31
_chemical_formula_sum   'Na1 Li1 Mg30 O31'
_cell_volume   624.45004419
_cell_formula_units_Z   1
loop_
 _symmetry_equiv_pos_site_id
 _symmetry_equiv_pos_as_xyz
  1  'x, y, z'
loop_
 _atom_site_type_symbol
 _atom_site_label
 _atom_site_symmetry_multiplicity
 _atom_site_fract_x
 _atom_site_fract_y
 _atom_site_fract_z
 _atom_site_occupancy
  Na  Na0  1  0.99755100  0.50000000  0.50000000  1
  Li  Li1  1  0.99735700  0.00000000  0.00000000  1
  Mg  Mg2  1  0.98006600  0.00000000  0.50000000  1
  Mg  Mg3  1  0.99862800  0.50000000  0.00000000  1
  Mg  Mg4  1  0.50154700  0.00000000  0.00000000  1
  Mg  Mg5  1  0.52057400  0.00000000  0.50000000  1
  Mg  Mg6  1  0.50142200  0.50000000  0.00000000  1
  Mg  Mg7  1  0.50105200  0.50000000  0.50000000  1
  Mg  Mg8  1  0.00066400  0.24863500  0.24781200  1
  Mg  Mg9  1  0.00066400  0.24863500  0.75218800  1
  Mg  Mg10  1  0.00066400  0.75136500  0.24781200  1
  Mg  Mg11  1  0.00066400  0.75136500  0.75218800  1
  Mg  Mg12  1  0.49953400  0.24957200  0.24989200  1
  Mg  Mg13  1  0.49953400  0.24957200  0.75010800  1
  Mg  Mg14  1  0.49953400  0.75042800  0.24989200  1
  Mg  Mg15  1  0.49953400  0.75042800  0.75010800  1
  Mg  Mg16  1  0.24416600  0.00000000  0.22652900  1
  Mg  Mg17  1  0.24416600  0.00000000  0.77347100  1
  Mg  Mg18  1  0.24777100  0.50000000  0.24741500  1
  Mg  Mg19  1  0.24777100  0.50000000  0.75258500  1
  Mg  Mg20  1  0.75538900  0.00000000  0.24413400  1
  Mg  Mg21  1  0.75538900  0.00000000  0.75586600  1
  Mg  Mg22  1  0.75249400  0.50000000  0.24948400  1
  Mg  Mg23  1  0.75249400  0.50000000  0.75051600  1
  Mg  Mg24  1  0.24649100  0.25061600  0.00000000  1
  Mg  Mg25  1  0.24637100  0.27203500  0.50000000  1
  Mg  Mg26  1  0.24649100  0.74938400  0.00000000  1
  Mg  Mg27  1  0.24637100  0.72796500  0.50000000  1
  Mg  Mg28  1  0.75426600  0.24849300  0.00000000  1
  Mg  Mg29  1  0.75313600  0.25388200  0.50000000  1
  Mg  Mg30  1  0.75426600  0.75150700  0.00000000  1
  Mg  Mg31  1  0.75313600  0.74611800  0.50000000  1
  O  O32  1  0.25840800  0.00000000  0.00000000  1
  O  O33  1  0.25393400  0.50000000  0.00000000  1
  O  O34  1  0.26373700  0.50000000  0.50000000  1
  O  O35  1  0.74249100  0.00000000  0.00000000  1
  O  O36  1  0.74867500  0.00000000  0.50000000  1
  O  O37  1  0.74655700  0.50000000  0.00000000  1
  O  O38  1  0.73617800  0.50000000  0.50000000  1
  O  O39  1  0.25046100  0.24482600  0.25510000  1
  O  O40  1  0.25046100  0.24482600  0.74490000  1
  O  O41  1  0.25046100  0.75517400  0.25510000  1
  O  O42  1  0.25046100  0.75517400  0.74490000  1
  O  O43  1  0.74975500  0.24829600  0.25200200  1
  O  O44  1  0.74975500  0.24829600  0.74799800  1
  O  O45  1  0.74975500  0.75170400  0.25200200  1
  O  O46  1  0.74975500  0.75170400  0.74799800  1
  O  O47  1  0.00586300  0.00000000  0.25961200  1
  O  O48  1  0.00586300  0.00000000  0.74038800  1
  O  O49  1  0.00164300  0.50000000  0.23858100  1
  O  O50  1  0.00164300  0.50000000  0.76141900  1
  O  O51  1  0.49281600  0.00000000  0.25700700  1
  O  O52  1  0.49281600  0.00000000  0.74299300  1
  O  O53  1  0.49851600  0.50000000  0.24958300  1
  O  O54  1  0.49851600  0.50000000  0.75041700  1
  O  O55  1  0.00152900  0.25229800  0.00000000  1
  O  O56  1  0.00820300  0.23346600  0.50000000  1
  O  O57  1  0.00152900  0.74770200  0.00000000  1
  O  O58  1  0.00820300  0.76653400  0.50000000  1
  O  O59  1  0.49864900  0.24896500  0.00000000  1
  O  O60  1  0.49278400  0.24152000  0.50000000  1
  O  O61  1  0.49864900  0.75103500  0.00000000  1
  O  O62  1  0.49278400  0.75848000  0.50000000  1
