# generated using pymatgen
data_Li10Cu(SiO5)2
_symmetry_space_group_name_H-M   'P 1'
_cell_length_a   6.13450908
_cell_length_b   15.44524336
_cell_length_c   5.15715582
_cell_angle_alpha   80.17934946
_cell_angle_beta   89.92617928
_cell_angle_gamma   78.48004023
_symmetry_Int_Tables_number   1
_chemical_formula_structural   Li10Cu(SiO5)2
_chemical_formula_sum   'Li20 Cu2 Si4 O20'
_cell_volume   471.50393527
_cell_formula_units_Z   2
loop_
 _symmetry_equiv_pos_site_id
 _symmetry_equiv_pos_as_xyz
  1  'x, y, z'
loop_
 _atom_site_type_symbol
 _atom_site_label
 _atom_site_symmetry_multiplicity
 _atom_site_fract_x
 _atom_site_fract_y
 _atom_site_fract_z
 _atom_site_occupancy
  Li  Li0  1  0.50774755  0.98730055  0.74557449  1
  Li  Li1  1  0.36855272  0.84694385  0.27574202  1
  Li  Li2  1  0.78007175  0.85158294  0.26696616  1
  Li  Li3  1  0.13465496  0.72934184  0.49846497  1
  Li  Li4  1  0.34442286  0.73358550  0.02097631  1
  Li  Li5  1  0.91964498  0.73348685  0.02305544  1
  Li  Li6  1  0.67873511  0.65212745  0.41614062  1
  Li  Li7  1  0.44090152  0.60947773  0.78372192  1
  Li  Li8  1  0.95052658  0.60858728  0.78837485  1
  Li  Li9  1  0.72742534  0.53845862  0.13861148  1
  Li  Li10  1  0.27096802  0.46130237  0.85979024  1
  Li  Li11  1  0.55807447  0.39032378  0.21516756  1
  Li  Li12  1  0.04878902  0.39148223  0.21037675  1
  Li  Li13  1  0.31785451  0.34806040  0.58233718  1
  Li  Li14  1  0.07791821  0.26597809  0.97599937  1
  Li  Li15  1  0.65367544  0.26626700  0.97621164  1
  Li  Li16  1  0.86462532  0.27077060  0.50016928  1
  Li  Li17  1  0.62986682  0.15361136  0.71783827  1
  Li  Li18  1  0.21846007  0.14789148  0.73156645  1
  Li  Li19  1  0.49022393  0.01262810  0.25163822  1
  Cu  Cu20  1  0.04152649  0.92408432  0.99282036  1
  Cu  Cu21  1  0.95528577  0.07587891  0.00211925  1
  Si  Si22  1  0.60141441  0.79733929  0.70639296  1
  Si  Si23  1  0.21804275  0.56110293  0.30747746  1
  Si  Si24  1  0.78091879  0.43880059  0.69109539  1
  Si  Si25  1  0.39710714  0.20265984  0.29091019  1
  O  O26  1  0.55189752  0.89609357  0.51156087  1
  O  O27  1  0.09610849  0.80571321  0.15296731  1
  O  O28  1  0.59895494  0.79968233  0.02663007  1
  O  O29  1  0.41386467  0.74091224  0.63469702  1
  O  O30  1  0.84543372  0.74024204  0.63786315  1
  O  O31  1  0.41778086  0.61038447  0.16546842  1
  O  O32  1  0.96724312  0.61036901  0.16890071  1
  O  O33  1  0.21221819  0.57465484  0.61742581  1
  O  O34  1  0.72742068  0.54515986  0.72925085  1
  O  O35  1  0.27221867  0.45478554  0.26908157  1
  O  O36  1  0.78679149  0.42521067  0.38116239  1
  O  O37  1  0.03187463  0.38929631  0.82950000  1
  O  O38  1  0.58111694  0.38962367  0.83301918  1
  O  O39  1  0.15384520  0.26006393  0.36062797  1
  O  O40  1  0.58535020  0.25875813  0.36247659  1
  O  O41  1  0.39866197  0.20016535  0.97089250  1
  O  O42  1  0.90174930  0.19447526  0.84438750  1
  O  O43  1  0.44712722  0.10385620  0.48543292  1
  O  O44  1  0.24633606  0.00178388  0.99553676  1
  O  O45  1  0.75145862  0.99789559  0.00132856  1
