# generated using pymatgen
data_Li2V3CoO8
_symmetry_space_group_name_H-M   'P 1'
_cell_length_a   5.93115772
_cell_length_b   5.94933820
_cell_length_c   10.27273564
_cell_angle_alpha   106.73953102
_cell_angle_beta   90.01062471
_cell_angle_gamma   60.13064506
_symmetry_Int_Tables_number   1
_chemical_formula_structural   Li2V3CoO8
_chemical_formula_sum   'Li4 V6 Co2 O16'
_cell_volume   296.50341081
_cell_formula_units_Z   2
loop_
 _symmetry_equiv_pos_site_id
 _symmetry_equiv_pos_as_xyz
  1  'x, y, z'
loop_
 _atom_site_type_symbol
 _atom_site_label
 _atom_site_symmetry_multiplicity
 _atom_site_fract_x
 _atom_site_fract_y
 _atom_site_fract_z
 _atom_site_occupancy
  Li  Li0  1  0.31933700  0.36307600  0.56074000  1
  Li  Li1  1  0.81769100  0.36315600  0.06060800  1
  Li  Li2  1  0.74846400  0.50314000  0.75085000  1
  Li  Li3  1  0.24879400  0.50239300  0.24990300  1
  V  V4  1  0.75810200  0.00098700  0.75305000  1
  V  V5  1  0.25593000  0.00359700  0.25286600  1
  V  V6  1  0.99122000  0.00229800  0.50323300  1
  V  V7  1  0.49108800  0.00180100  0.00284200  1
  V  V8  1  0.24815100  0.00394400  0.74580400  1
  V  V9  1  0.74957000  0.00024000  0.24432600  1
  Co  Co10  1  0.18146500  0.63773900  0.93975700  1
  Co  Co11  1  0.67912000  0.64043000  0.44006200  1
  O  O12  1  0.11281500  0.77543400  0.62959500  1
  O  O13  1  0.61180200  0.77476900  0.12868200  1
  O  O14  1  0.38806400  0.22507200  0.87097800  1
  O  O15  1  0.88716200  0.22503700  0.37065500  1
  O  O16  1  0.67258000  0.21126900  0.61852500  1
  O  O17  1  0.17150300  0.21165200  0.11802600  1
  O  O18  1  0.87994000  0.21240800  0.85516200  1
  O  O19  1  0.38036600  0.21076800  0.35469900  1
  O  O20  1  0.13094500  0.21196200  0.63272500  1
  O  O21  1  0.63037900  0.21135500  0.13251100  1
  O  O22  1  0.36996100  0.78512700  0.86805600  1
  O  O23  1  0.87053000  0.78375600  0.36744500  1
  O  O24  1  0.62105500  0.78486300  0.64373300  1
  O  O25  1  0.12010900  0.78443700  0.14334400  1
  O  O26  1  0.83277300  0.78465600  0.88102600  1
  O  O27  1  0.33108600  0.78462600  0.38079800  1
