# generated using pymatgen
data_Li2Fe3TeO8
_symmetry_space_group_name_H-M   'P 1'
_cell_length_a   6.03571849
_cell_length_b   10.80179417
_cell_length_c   6.07411375
_cell_angle_alpha   72.53238676
_cell_angle_beta   60.40286799
_cell_angle_gamma   73.85720803
_symmetry_Int_Tables_number   1
_chemical_formula_structural   Li2Fe3TeO8
_chemical_formula_sum   'Li4 Fe6 Te2 O16'
_cell_volume   324.41538131
_cell_formula_units_Z   2
loop_
 _symmetry_equiv_pos_site_id
 _symmetry_equiv_pos_as_xyz
  1  'x, y, z'
loop_
 _atom_site_type_symbol
 _atom_site_label
 _atom_site_symmetry_multiplicity
 _atom_site_fract_x
 _atom_site_fract_y
 _atom_site_fract_z
 _atom_site_occupancy
  Li  Li0  1  0.42590300  0.70897600  0.43909700  1
  Li  Li1  1  0.92596000  0.20900200  0.93902900  1
  Li  Li2  1  0.07406300  0.79102700  0.06099000  1
  Li  Li3  1  0.57409200  0.29104700  0.56093700  1
  Fe  Fe4  1  0.50005900  0.99997600  0.49986800  1
  Fe  Fe5  1  0.50009700  0.00003500  0.99978600  1
  Fe  Fe6  1  0.49984800  0.49993600  0.00007700  1
  Fe  Fe7  1  0.99981000  0.49998400  0.00002900  1
  Fe  Fe8  1  0.99999800  0.50001700  0.49998000  1
  Fe  Fe9  1  0.00019900  0.99995600  0.49990100  1
  Te  Te10  1  0.24995700  0.25004100  0.24999900  1
  Te  Te11  1  0.75002300  0.74995500  0.75006400  1
  O  O12  1  0.35604200  0.90511900  0.38063100  1
  O  O13  1  0.85604100  0.40515700  0.88062200  1
  O  O14  1  0.14393400  0.59486900  0.11944100  1
  O  O15  1  0.64393200  0.09482200  0.61945100  1
  O  O16  1  0.58483300  0.13415100  0.14729900  1
  O  O17  1  0.08478900  0.63415200  0.64734900  1
  O  O18  1  0.13971600  0.12872900  0.59262900  1
  O  O19  1  0.63968000  0.62871700  0.09268500  1
  O  O20  1  0.13331400  0.13496800  0.14661500  1
  O  O21  1  0.63329400  0.63495400  0.64664700  1
  O  O22  1  0.36670500  0.36505700  0.35339000  1
  O  O23  1  0.86669700  0.86504700  0.85340200  1
  O  O24  1  0.36032400  0.37127900  0.90735700  1
  O  O25  1  0.86032000  0.87126900  0.40735800  1
  O  O26  1  0.91519900  0.36587700  0.35268300  1
  O  O27  1  0.41517000  0.86588400  0.85268400  1
