# generated using pymatgen
data_Li4MnCo2O7
_symmetry_space_group_name_H-M   'P 1'
_cell_length_a   5.11587000
_cell_length_b   7.67440830
_cell_length_c   7.73383317
_cell_angle_alpha   61.00761207
_cell_angle_beta   77.70161103
_cell_angle_gamma   72.03917976
_symmetry_Int_Tables_number   1
_chemical_formula_structural   Li4MnCo2O7
_chemical_formula_sum   'Li8 Mn2 Co4 O14'
_cell_volume   251.90868370
_cell_formula_units_Z   2
loop_
 _symmetry_equiv_pos_site_id
 _symmetry_equiv_pos_as_xyz
  1  'x, y, z'
loop_
 _atom_site_type_symbol
 _atom_site_label
 _atom_site_symmetry_multiplicity
 _atom_site_fract_x
 _atom_site_fract_y
 _atom_site_fract_z
 _atom_site_occupancy
  Li  Li0  1  0.49704100  0.85085300  0.22792900  1
  Li  Li1  1  0.49922700  0.42771100  0.36095000  1
  Li  Li2  1  0.49790900  0.58570500  0.63027600  1
  Li  Li3  1  0.49606100  0.14510200  0.78251500  1
  Li  Li4  1  0.50058500  0.28679500  0.06984000  1
  Li  Li5  1  0.51335600  0.98889100  0.50506100  1
  Li  Li6  1  0.49833100  0.71360400  0.92595600  1
  Li  Li7  1  0.99781000  0.71589000  0.42929100  1
  Mn  Mn8  1  0.00038200  0.99656800  0.00241800  1
  Mn  Mn9  1  0.99851800  0.57352700  0.14398900  1
  Co  Co10  1  0.00445500  0.13240900  0.28890700  1
  Co  Co11  1  0.99271200  0.29270400  0.56872300  1
  Co  Co12  1  0.00241300  0.85131200  0.70614600  1
  Co  Co13  1  0.00348800  0.43028500  0.85106500  1
  O  O14  1  0.23059000  0.13475700  0.03476600  1
  O  O15  1  0.21957500  0.72521100  0.16493900  1
  O  O16  1  0.24411100  0.87268700  0.46538300  1
  O  O17  1  0.22569700  0.41864700  0.62090400  1
  O  O18  1  0.22888200  0.57269600  0.90394000  1
  O  O19  1  0.22190400  0.30574900  0.30894700  1
  O  O20  1  0.21736700  0.99885400  0.76277600  1
  O  O21  1  0.76764600  0.56424700  0.37920500  1
  O  O22  1  0.77029900  0.14070900  0.53646000  1
  O  O23  1  0.77207600  0.26633300  0.83166600  1
  O  O24  1  0.77731000  0.84625700  0.97874100  1
  O  O25  1  0.77455200  0.01351100  0.23343400  1
  O  O26  1  0.76668100  0.71505700  0.68728300  1
  O  O27  1  0.78102100  0.43393200  0.09849000  1
