# generated using pymatgen
data_Li2TiV3O8
_symmetry_space_group_name_H-M   'P 1'
_cell_length_a   5.98007036
_cell_length_b   10.38552738
_cell_length_c   5.98170628
_cell_angle_alpha   90.39314063
_cell_angle_beta   60.08166693
_cell_angle_gamma   73.66643577
_symmetry_Int_Tables_number   1
_chemical_formula_structural   Li2TiV3O8
_chemical_formula_sum   'Li4 Ti2 V6 O16'
_cell_volume   304.12559581
_cell_formula_units_Z   2
loop_
 _symmetry_equiv_pos_site_id
 _symmetry_equiv_pos_as_xyz
  1  'x, y, z'
loop_
 _atom_site_type_symbol
 _atom_site_label
 _atom_site_symmetry_multiplicity
 _atom_site_fract_x
 _atom_site_fract_y
 _atom_site_fract_z
 _atom_site_occupancy
  Li  Li0  1  0.12710400  0.06356000  0.18293500  1
  Li  Li1  1  0.12058300  0.56407000  0.69196400  1
  Li  Li2  1  0.87162400  0.43595000  0.31559500  1
  Li  Li3  1  0.88078300  0.93637700  0.80913500  1
  Ti  Ti4  1  0.49330100  0.25401600  0.75518700  1
  Ti  Ti5  1  0.50022700  0.74651700  0.25104600  1
  V  V6  1  0.50017200  0.75070200  0.75088700  1
  V  V7  1  0.99891600  0.24978800  0.74941300  1
  V  V8  1  0.49599100  0.49993000  0.00418000  1
  V  V9  1  0.49992700  0.24676800  0.24959500  1
  V  V10  1  0.99836000  0.75214200  0.25328400  1
  V  V11  1  0.50855100  0.00005000  0.49158100  1
  O  O12  1  0.27153500  0.13942100  0.37446300  1
  O  O13  1  0.24083900  0.63502100  0.91670500  1
  O  O14  1  0.71802000  0.36503000  0.12422100  1
  O  O15  1  0.76588000  0.86069900  0.58784400  1
  O  O16  1  0.26865900  0.35711300  0.62028400  1
  O  O17  1  0.26299800  0.85704900  0.12478200  1
  O  O18  1  0.71501300  0.13456200  0.39093800  1
  O  O19  1  0.71044500  0.63358400  0.89971200  1
  O  O20  1  0.27113800  0.13109300  0.83722400  1
  O  O21  1  0.25830500  0.63673300  0.35463700  1
  O  O22  1  0.73326200  0.36675000  0.65636300  1
  O  O23  1  0.74392200  0.86535200  0.15043600  1
  O  O24  1  0.28187000  0.36303800  0.10520400  1
  O  O25  1  0.29396800  0.86894800  0.59723000  1
  O  O26  1  0.73193100  0.14289200  0.88051400  1
  O  O27  1  0.73667600  0.64284600  0.37464000  1
