# generated using pymatgen
data_K11Li4Ta15O45
_symmetry_space_group_name_H-M   'P 1'
_cell_length_a   4.02773972
_cell_length_b   18.17210259
_cell_length_c   28.77972574
_cell_angle_alpha   108.40368972
_cell_angle_beta   90.00000000
_cell_angle_gamma   90.00000000
_symmetry_Int_Tables_number   1
_chemical_formula_structural   K11Li4Ta15O45
_chemical_formula_sum   'K22 Li8 Ta30 O90'
_cell_volume   1998.72659733
_cell_formula_units_Z   2
loop_
 _symmetry_equiv_pos_site_id
 _symmetry_equiv_pos_as_xyz
  1  'x, y, z'
loop_
 _atom_site_type_symbol
 _atom_site_label
 _atom_site_symmetry_multiplicity
 _atom_site_fract_x
 _atom_site_fract_y
 _atom_site_fract_z
 _atom_site_occupancy
  K  K0  1  0.00000000  0.05741859  0.61483618  1
  K  K1  1  0.00000000  0.72423680  0.94847459  1
  K  K2  1  0.00000000  0.39082241  0.28164482  1
  K  K3  1  0.00000000  0.60883098  0.71766197  1
  K  K4  1  -0.00000000  0.27593540  0.05186980  1
  K  K5  1  0.00000000  0.94217682  0.38435464  1
  K  K6  1  0.00000000  0.67413783  0.50035439  1
  K  K7  1  0.00000000  0.34085212  0.83328863  1
  K  K8  1  0.00000000  0.00740223  0.16706613  1
  K  K9  1  -0.00000000  0.99243751  0.83328863  1
  K  K10  1  0.00000000  0.65966290  0.16706613  1
  K  K11  1  -0.00000000  0.32621656  0.50035439  1
  K  K12  1  0.00000000  0.83083221  0.66590746  1
  K  K13  1  0.00000000  0.50033063  0.00014050  1
  K  K14  1  0.00000000  0.16442973  0.33272356  1
  K  K15  1  0.00000000  0.33507425  0.66590746  1
  K  K16  1  0.00000000  0.99980987  0.00014050  1
  K  K17  1  0.00000000  0.66829483  0.33272356  1
  K  K18  1  0.00000000  0.79253685  0.08507269  1
  K  K19  1  0.00000000  0.45916747  0.41833594  1
  K  K20  1  0.00000000  0.12341755  0.74683510  1
  K  K21  1  0.00000000  0.20988392  0.91976884  1
  Li  Li22  1  0.00000000  0.87573900  0.25147799  1
  Li  Li23  1  0.00000000  0.54239227  0.58478354  1
  Li  Li24  1  0.00000000  0.54150390  0.83330933  1
  Li  Li25  1  0.00000000  0.20843068  0.16678994  1
  Li  Li26  1  0.00000000  0.87499847  0.50006540  1
  Li  Li27  1  0.00000000  0.45835826  0.16678994  1
  Li  Li28  1  -0.00000000  0.12506694  0.50006540  1
  Li  Li29  1  0.00000000  0.79180643  0.83330933  1
  Ta  Ta30  1  0.50000000  0.50140757  0.50281515  1
  Ta  Ta31  1  0.50000000  0.16665651  0.83331202  1
  Ta  Ta32  1  0.50000000  0.83478968  0.16958036  1
  Ta  Ta33  1  0.50000000  0.00021392  0.50042784  1
  Ta  Ta34  1  0.50000000  0.66664461  0.83328822  1
  Ta  Ta35  1  0.50000000  0.33354280  0.16708660  1
  Ta  Ta36  1  0.50000000  0.99075048  0.70889374  1
  Ta  Ta37  1  0.50000000  0.65876106  0.04296733  1
  Ta  Ta38  1  0.50000000  0.32513690  0.37620088  1
  Ta  Ta39  1  0.50000000  0.67038242  0.62285057  1
  Ta  Ta40  1  0.50000000  0.34230652  0.95769771  1
  Ta  Ta41  1  0.50000000  0.00377720  0.28957150  1
  Ta  Ta42  1  0.50000000  0.78142187  0.42760579  1
  Ta  Ta43  1  0.50000000  0.44792989  0.76088952  1
  Ta  Ta44  1  0.50000000  0.11445476  0.09496991  1
  Ta  Ta45  1  0.50000000  0.88562927  0.90523628  1
  Ta  Ta46  1  0.50000000  0.55374021  0.23890461  1
  Ta  Ta47  1  0.50000000  0.22036344  0.57186259  1
  Ta  Ta48  1  0.50000000  0.85150015  0.57186259  1
  Ta  Ta49  1  0.50000000  0.51960601  0.90523628  1
  Ta  Ta50  1  0.50000000  0.18516440  0.23890461  1
  Ta  Ta51  1  0.50000000  0.81295963  0.76088952  1
  Ta  Ta52  1  0.50000000  0.48051616  0.09496991  1
  Ta  Ta53  1  0.50000000  0.14618293  0.42760579  1
  Ta  Ta54  1  0.50000000  0.45246915  0.62285057  1
  Ta  Ta55  1  0.50000000  0.11539019  0.95769771  1
  Ta  Ta56  1  0.50000000  0.78579430  0.28957150  1
  Ta  Ta57  1  0.50000000  0.21814326  0.70889374  1
  Ta  Ta58  1  0.50000000  0.88420728  0.04296733  1
  Ta  Ta59  1  0.50000000  0.55106298  0.37620088  1
  O  O60  1  0.50000000  0.06296405  0.78007452  1
  O  O61  1  0.50000000  0.73096053  0.11489910  1
  O  O62  1  0.50000000  0.39761306  0.44825651  1
  O  O63  1  0.50000000  0.60362546  0.55309294  1
  O  O64  1  0.50000000  0.27022900  0.88647978  1
  O  O65  1  0.50000000  0.93694863  0.21972589  1
  O  O66  1  0.50000000  0.89659454  0.44962288  1
  O  O67  1  0.50000000  0.56332150  0.78293813  1
  O  O68  1  0.50000000  0.22990456  0.11652974  1
  O  O69  1  0.50000000  0.77008144  0.88343417  1
  O  O70  1  0.50000000  0.43725614  0.21677698  1
  O  O71  1  0.50000000  0.10389903  0.55003146  1
  O  O72  1  0.50000000  0.94613143  0.55003146  1
  O  O73  1  0.50000000  0.61335274  0.88343417  1
  O  O74  1  0.50000000  0.27952184  0.21677698  1
  O  O75  1  0.50000000  0.71961563  0.78293813  1
  O  O76  1  0.50000000  0.38662518  0.11652974  1
  O  O77  1  0.50000000  0.05302934  0.44962288  1
  O  O78  1  0.50000000  0.44946848  0.55309294  1
  O  O79  1  0.50000000  0.11624978  0.88647978  1
  O  O80  1  0.50000000  0.78277726  0.21972589  1
  O  O81  1  0.50000000  0.21711047  0.78007452  1
  O  O82  1  0.50000000  0.88393956  0.11489910  1
  O  O83  1  0.50000000  0.55064244  0.44825651  1
  O  O84  1  0.50000000  0.92392594  0.64031855  1
  O  O85  1  0.50000000  0.59148586  0.97412145  1
  O  O86  1  0.50000000  0.25785944  0.30755059  1
  O  O87  1  0.50000000  0.74030792  0.69152190  1
  O  O88  1  0.50000000  0.40902075  0.02617086  1
  O  O89  1  0.50000000  0.07365500  0.35814720  1
  O  O90  1  0.50000000  0.66604354  0.40328549  1
  O  O91  1  0.50000000  0.33301871  0.73649313  1
  O  O92  1  0.50000000  0.99913576  0.07018028  1
  O  O93  1  0.50000000  0.00050861  0.92985778  1
  O  O94  1  0.50000000  0.66869462  0.26333028  1
  O  O95  1  0.50000000  0.33536485  0.59661155  1
  O  O96  1  0.50000000  0.76124570  0.59661155  1
  O  O97  1  0.50000000  0.42934917  0.92985778  1
  O  O98  1  0.50000000  0.09463667  0.26333028  1
  O  O99  1  0.50000000  0.90347342  0.73649313  1
  O  O100  1  0.50000000  0.57104452  0.07018028  1
  O  O101  1  0.50000000  0.23724295  0.40328549  1
  O  O102  1  0.50000000  0.45121398  0.69152190  1
  O  O103  1  0.50000000  0.11715111  0.02617086  1
  O  O104  1  0.50000000  0.78449120  0.35814720  1
  O  O105  1  0.50000000  0.21639361  0.64031855  1
  O  O106  1  0.50000000  0.88263458  0.97412145  1
  O  O107  1  0.50000000  0.54969115  0.30755059  1
  O  O108  1  0.00000000  0.98551532  0.70600022  1
  O  O109  1  0.00000000  0.65449541  0.04017541  1
  O  O110  1  0.00000000  0.32083973  0.37349696  1
  O  O111  1  0.00000000  0.66462604  0.62236168  1
  O  O112  1  0.00000000  0.34746821  0.96055759  1
  O  O113  1  -0.00000000  0.99794338  0.28901777  1
  O  O114  1  0.00000000  0.78344022  0.43126928  1
  O  O115  1  0.00000000  0.45020151  0.76459564  1
  O  O116  1  0.00000000  0.11673924  0.09855208  1
  O  O117  1  0.00000000  0.88311130  0.90139172  1
  O  O118  1  -0.00000000  0.55044063  0.23501028  1
  O  O119  1  0.00000000  0.21709840  0.56819039  1
  O  O120  1  0.00000000  0.85109099  0.56819039  1
  O  O121  1  0.00000000  0.51828043  0.90139172  1
  O  O122  1  0.00000000  0.18457066  0.23501028  1
  O  O123  1  0.00000000  0.81439313  0.76459564  1
  O  O124  1  0.00000000  0.48181284  0.09855208  1
  O  O125  1  -0.00000000  0.14783006  0.43126928  1
  O  O126  1  0.00000000  0.45773464  0.62236168  1
  O  O127  1  -0.00000000  0.11308939  0.96055759  1
  O  O128  1  0.00000000  0.79107539  0.28901777  1
  O  O129  1  0.00000000  0.22048390  0.70600022  1
  O  O130  1  0.00000000  0.88568000  0.04017541  1
  O  O131  1  0.00000000  0.55265822  0.37349696  1
  O  O132  1  0.50000000  0.09569324  0.69138749  1
  O  O133  1  0.50000000  0.76296933  0.02593866  1
  O  O134  1  0.50000000  0.42963374  0.35926648  1
  O  O135  1  0.50000000  0.56954356  0.63908812  1
  O  O136  1  0.50000000  0.23761280  0.97522559  1
  O  O137  1  0.50000000  0.90285782  0.30571463  1
  O  O138  1  0.50000000  0.79102434  0.49960588  1
  O  O139  1  0.50000000  0.45798933  0.83297584  1
  O  O140  1  0.50000000  0.12427657  0.16681113  1
  O  O141  1  0.50000000  0.87498751  0.83297584  1
  O  O142  1  0.50000000  0.54253355  0.16681113  1
  O  O143  1  0.50000000  0.20858154  0.49960588  1
  O  O144  1  0.00000000  0.50460700  0.50921401  1
  O  O145  1  0.00000000  0.16665627  0.83331153  1
  O  O146  1  0.00000000  0.83792994  0.17586087  1
  O  O147  1  0.00000000  0.99996624  0.49993248  1
  O  O148  1  0.00000000  0.66663170  0.83326241  1
  O  O149  1  0.00000000  0.33332638  0.16665376  1
