# generated using pymatgen
data_Li2Mn3SnO8
_symmetry_space_group_name_H-M   'P 1'
_cell_length_a   6.05953086
_cell_length_b   6.22016350
_cell_length_c   8.42039498
_cell_angle_alpha   88.06793523
_cell_angle_beta   90.65332248
_cell_angle_gamma   87.92230713
_symmetry_Int_Tables_number   1
_chemical_formula_structural   Li2Mn3SnO8
_chemical_formula_sum   'Li4 Mn6 Sn2 O16'
_cell_volume   316.96112389
_cell_formula_units_Z   2
loop_
 _symmetry_equiv_pos_site_id
 _symmetry_equiv_pos_as_xyz
  1  'x, y, z'
loop_
 _atom_site_type_symbol
 _atom_site_label
 _atom_site_symmetry_multiplicity
 _atom_site_fract_x
 _atom_site_fract_y
 _atom_site_fract_z
 _atom_site_occupancy
  Li  Li0  1  0.00607500  0.24776300  0.11693500  1
  Li  Li1  1  0.50055200  0.74982300  0.62107400  1
  Li  Li2  1  0.99940700  0.75015100  0.87892000  1
  Li  Li3  1  0.49389000  0.25230100  0.38304400  1
  Mn  Mn4  1  0.74993100  0.24997600  0.74990800  1
  Mn  Mn5  1  0.75029600  0.74987700  0.25004700  1
  Mn  Mn6  1  0.24993700  0.24985600  0.75014400  1
  Mn  Mn7  1  0.00148300  0.50103100  0.50228000  1
  Mn  Mn8  1  0.49865800  0.99909900  0.99777500  1
  Mn  Mn9  1  0.24988900  0.75005800  0.24994000  1
  Sn  Sn10  1  0.00741800  0.99887700  0.50099000  1
  Sn  Sn11  1  0.49230400  0.50117300  0.99896800  1
  O  O12  1  0.00618400  0.54430300  0.26644800  1
  O  O13  1  0.49983200  0.04074100  0.76408100  1
  O  O14  1  0.00010100  0.45921800  0.73590300  1
  O  O15  1  0.49397000  0.95572000  0.23359800  1
  O  O16  1  0.24852600  0.75656600  0.47788600  1
  O  O17  1  0.73728700  0.26284800  0.98200000  1
  O  O18  1  0.78289600  0.74535700  0.49161100  1
  O  O19  1  0.27327300  0.24067500  0.98191700  1
  O  O20  1  0.02037400  0.97987100  0.25442400  1
  O  O21  1  0.46203700  0.47871000  0.75368600  1
  O  O22  1  0.03786700  0.02129300  0.74623300  1
  O  O23  1  0.47964700  0.52011200  0.24562000  1
  O  O24  1  0.22686500  0.25928200  0.51803800  1
  O  O25  1  0.71719800  0.75452100  0.00838400  1
  O  O26  1  0.76260400  0.23724800  0.51799100  1
  O  O27  1  0.25149900  0.74354700  0.02215500  1
