# generated using pymatgen
data_Li3MnN2
_symmetry_space_group_name_H-M   'P 1'
_cell_length_a   8.22294460
_cell_length_b   9.49503907
_cell_length_c   9.49503837
_cell_angle_alpha   90.00000292
_cell_angle_beta   125.26439292
_cell_angle_gamma   54.73561004
_symmetry_Int_Tables_number   1
_chemical_formula_structural   Li3MnN2
_chemical_formula_sum   'Li24 Mn8 N16'
_cell_volume   428.01619495
_cell_formula_units_Z   8
loop_
 _symmetry_equiv_pos_site_id
 _symmetry_equiv_pos_as_xyz
  1  'x, y, z'
loop_
 _atom_site_type_symbol
 _atom_site_label
 _atom_site_symmetry_multiplicity
 _atom_site_fract_x
 _atom_site_fract_y
 _atom_site_fract_z
 _atom_site_occupancy
  Li  Li0  1  0.21867930  0.04110010  0.98021442  1
  Li  Li1  1  0.78132070  0.75977939  0.51978558  1
  Li  Li2  1  0.78132070  0.45889990  0.76153512  1
  Li  Li3  1  0.21867930  0.74022061  0.73846488  1
  Li  Li4  1  0.25825046  0.76153512  0.27956498  1
  Li  Li5  1  0.74174954  0.73846488  0.02131451  1
  Li  Li6  1  0.25825046  0.98021442  0.47868549  1
  Li  Li7  1  0.74174954  0.51978558  0.22043502  1
  Li  Li8  1  0.69911951  0.02131451  0.74022061  1
  Li  Li9  1  0.69911951  0.27956498  0.45889990  1
  Li  Li10  1  0.30088049  0.22043502  0.75977939  1
  Li  Li11  1  0.30088049  0.47868549  0.04110010  1
  Li  Li12  1  0.78132070  0.95889990  0.01978558  1
  Li  Li13  1  0.21867930  0.24022061  0.48021442  1
  Li  Li14  1  0.21867930  0.54110010  0.23846488  1
  Li  Li15  1  0.78132070  0.25977939  0.26153512  1
  Li  Li16  1  0.74174954  0.23846488  0.72043502  1
  Li  Li17  1  0.25825046  0.26153512  0.97868549  1
  Li  Li18  1  0.74174954  0.01978558  0.52131451  1
  Li  Li19  1  0.25825046  0.48021442  0.77956498  1
  Li  Li20  1  0.30088049  0.97868549  0.25977939  1
  Li  Li21  1  0.30088049  0.72043502  0.54110010  1
  Li  Li22  1  0.69911951  0.77956498  0.24022061  1
  Li  Li23  1  0.69911951  0.52131451  0.95889990  1
  Mn  Mn24  1  0.22670934  0.00000000  0.72670934  1
  Mn  Mn25  1  0.77329066  0.72670934  0.77329066  1
  Mn  Mn26  1  0.77329066  0.50000000  0.50000000  1
  Mn  Mn27  1  0.22670934  0.77329066  0.00000000  1
  Mn  Mn28  1  0.77329066  1.00000000  0.27329066  1
  Mn  Mn29  1  0.22670934  0.27329066  0.22670934  1
  Mn  Mn30  1  0.22670934  0.50000000  0.50000000  1
  Mn  Mn31  1  0.77329066  0.22670934  1.00000000  1
  N  N32  1  -0.00000000  0.00000000  0.50000000  1
  N  N33  1  -0.00000000  0.50000000  -0.00000000  1
  N  N34  1  -0.00000000  0.50000000  0.50000000  1
  N  N35  1  -0.00000000  0.00000000  -0.00000000  1
  N  N36  1  0.50000000  0.96580528  0.75000000  1
  N  N37  1  0.50000000  0.53419472  0.25000000  1
  N  N38  1  1.00000000  0.25000000  0.71580528  1
  N  N39  1  0.00000000  0.75000000  0.78419472  1
  N  N40  1  0.56839045  0.71580528  0.53419472  1
  N  N41  1  0.43160955  0.78419472  0.96580528  1
  N  N42  1  0.50000000  0.03419472  0.25000000  1
  N  N43  1  0.50000000  0.46580528  0.75000000  1
  N  N44  1  0.00000000  0.75000000  0.28419472  1
  N  N45  1  1.00000000  0.25000000  0.21580528  1
  N  N46  1  0.43160955  0.28419472  0.46580528  1
  N  N47  1  0.56839045  0.21580528  0.03419472  1
