# generated using pymatgen
data_Li7Mn5O12
_symmetry_space_group_name_H-M   'P 1'
_cell_length_a   5.09376670
_cell_length_b   10.96151332
_cell_length_c   8.61792280
_cell_angle_alpha   104.89176032
_cell_angle_beta   106.40082787
_cell_angle_gamma   92.23272144
_symmetry_Int_Tables_number   1
_chemical_formula_structural   Li7Mn5O12
_chemical_formula_sum   'Li14 Mn10 O24'
_cell_volume   442.86231772
_cell_formula_units_Z   2
loop_
 _symmetry_equiv_pos_site_id
 _symmetry_equiv_pos_as_xyz
  1  'x, y, z'
loop_
 _atom_site_type_symbol
 _atom_site_label
 _atom_site_symmetry_multiplicity
 _atom_site_fract_x
 _atom_site_fract_y
 _atom_site_fract_z
 _atom_site_occupancy
  Li  Li0  1  0.98993600  0.24969800  0.24546900  1
  Li  Li1  1  0.01005300  0.75028600  0.75453200  1
  Li  Li2  1  0.49461000  0.12918800  0.96259100  1
  Li  Li3  1  0.49024800  0.61343200  0.45460600  1
  Li  Li4  1  0.50546800  0.87079400  0.03739300  1
  Li  Li5  1  0.50986000  0.38662500  0.54543000  1
  Li  Li6  1  0.51129900  0.37103000  0.20667000  1
  Li  Li7  1  0.52426000  0.87278500  0.71701300  1
  Li  Li8  1  0.48882600  0.62902900  0.79342300  1
  Li  Li9  1  0.47567900  0.12716400  0.28289200  1
  Li  Li10  1  0.51323000  0.38314000  0.88019300  1
  Li  Li11  1  0.51278300  0.87508500  0.37714600  1
  Li  Li12  1  0.48680100  0.61683200  0.11975500  1
  Li  Li13  1  0.48716600  0.12490100  0.62287700  1
  Mn  Mn14  1  0.00012300  0.49996900  0.49999800  1
  Mn  Mn15  1  0.00003200  0.99999400  0.99990600  1
  Mn  Mn16  1  0.98236500  0.24639500  0.91590200  1
  Mn  Mn17  1  0.01057600  0.74985800  0.42203400  1
  Mn  Mn18  1  0.01789700  0.75367000  0.08426400  1
  Mn  Mn19  1  0.98901000  0.25003800  0.57793700  1
  Mn  Mn20  1  0.99279800  0.49240200  0.16450100  1
  Mn  Mn21  1  0.99693200  0.99448500  0.66496800  1
  Mn  Mn22  1  0.00700400  0.50765000  0.83553700  1
  Mn  Mn23  1  0.00312500  0.00558200  0.33493100  1
  O  O24  1  0.22404500  0.44170400  0.35300500  1
  O  O25  1  0.22739700  0.94699000  0.85175100  1
  O  O26  1  0.77601400  0.55831000  0.64697800  1
  O  O27  1  0.77260300  0.05297300  0.14814900  1
  O  O28  1  0.20703800  0.17051400  0.08245800  1
  O  O29  1  0.22141700  0.66944500  0.58579300  1
  O  O30  1  0.79300700  0.82945200  0.91752900  1
  O  O31  1  0.77862400  0.33054400  0.41423900  1
  O  O32  1  0.24298700  0.69769800  0.27548900  1
  O  O33  1  0.19405300  0.17240400  0.75529800  1
  O  O34  1  0.75696300  0.30229900  0.72459000  1
  O  O35  1  0.80592500  0.82758800  0.24471100  1
  O  O36  1  0.22900400  0.44084500  0.01739600  1
  O  O37  1  0.23378000  0.94930500  0.52426400  1
  O  O38  1  0.77092400  0.55918300  0.98262100  1
  O  O39  1  0.76613600  0.05069500  0.47570100  1
  O  O40  1  0.23338600  0.44552300  0.68453800  1
  O  O41  1  0.23675200  0.95486800  0.19169900  1
  O  O42  1  0.76665600  0.55447000  0.31551900  1
  O  O43  1  0.76325300  0.04512300  0.80826000  1
  O  O44  1  0.25413800  0.69497700  0.95170900  1
  O  O45  1  0.20682400  0.17225800  0.43242600  1
  O  O46  1  0.74592600  0.30504500  0.04832400  1
  O  O47  1  0.79306400  0.82775600  0.56758700  1
