# generated using pymatgen
data_Li2Mn2(SiO3)3
_symmetry_space_group_name_H-M   'P 1'
_cell_length_a   10.60052349
_cell_length_b   7.28179932
_cell_length_c   11.92886623
_cell_angle_alpha   89.99517215
_cell_angle_beta   109.42958134
_cell_angle_gamma   89.98590122
_symmetry_Int_Tables_number   1
_chemical_formula_structural   Li2Mn2(SiO3)3
_chemical_formula_sum   'Li8 Mn8 Si12 O36'
_cell_volume   868.36111199
_cell_formula_units_Z   4
loop_
 _symmetry_equiv_pos_site_id
 _symmetry_equiv_pos_as_xyz
  1  'x, y, z'
loop_
 _atom_site_type_symbol
 _atom_site_label
 _atom_site_symmetry_multiplicity
 _atom_site_fract_x
 _atom_site_fract_y
 _atom_site_fract_z
 _atom_site_occupancy
  Li  Li0  1  0.05285984  0.94104663  0.61761734  1
  Li  Li1  1  0.05285344  0.55891727  0.11760603  1
  Li  Li2  1  0.42101629  0.07562510  0.68919290  1
  Li  Li3  1  0.57899713  0.57574238  0.81077562  1
  Li  Li4  1  0.42100287  0.42425762  0.18922438  1
  Li  Li5  1  0.57898371  0.92437490  0.31080710  1
  Li  Li6  1  0.94714656  0.44108273  0.88239397  1
  Li  Li7  1  0.94714016  0.05895337  0.38238266  1
  Mn  Mn8  1  0.04946814  0.88720519  0.91401821  1
  Mn  Mn9  1  0.04946970  0.61247197  0.41402761  1
  Mn  Mn10  1  0.43371551  0.66664737  0.54817603  1
  Mn  Mn11  1  0.56583457  0.16707007  0.95175855  1
  Mn  Mn12  1  0.43416543  0.83292993  0.04824145  1
  Mn  Mn13  1  0.56628449  0.33335263  0.45182397  1
  Mn  Mn14  1  0.95053030  0.38752803  0.58597239  1
  Mn  Mn15  1  0.95053186  0.11279481  0.08598179  1
  Si  Si16  1  0.22293687  0.52425673  0.94278596  1
  Si  Si17  1  0.23857208  0.14599047  0.84531537  1
  Si  Si18  1  0.26650602  0.48439557  0.70545105  1
  Si  Si19  1  0.22295254  0.97562436  0.44280961  1
  Si  Si20  1  0.23859363  0.35388741  0.34528523  1
  Si  Si21  1  0.26652097  0.01551217  0.20542751  1
  Si  Si22  1  0.73347903  0.98448783  0.79457249  1
  Si  Si23  1  0.76140637  0.64611259  0.65471477  1
  Si  Si24  1  0.77704746  0.02437564  0.55719039  1
  Si  Si25  1  0.73349398  0.51560443  0.29454895  1
  Si  Si26  1  0.76142792  0.85400953  0.15468463  1
  Si  Si27  1  0.77706313  0.47574327  0.05721404  1
  O  O28  1  0.09214128  0.61564550  0.96495035  1
  O  O29  1  0.11706093  0.00446369  0.78607106  1
  O  O30  1  0.13350597  0.50308807  0.58762724  1
  O  O31  1  0.18769440  0.30184196  0.92291664  1
  O  O32  1  0.09214746  0.88428257  0.46494762  1
  O  O33  1  0.23641108  0.59398852  0.81561485  1
  O  O34  1  0.28314619  0.25791845  0.74105868  1
  O  O35  1  0.11703887  0.49552158  0.28605766  1
  O  O36  1  0.36099632  0.56874089  0.04994478  1
  O  O37  1  0.13349772  0.99689918  0.08762577  1
  O  O38  1  0.37614667  0.04977240  0.92775340  1
  O  O39  1  0.18772960  0.19811637  0.42293641  1
  O  O40  1  0.23647080  0.90597155  0.31565207  1
  O  O41  1  0.40690744  0.55413002  0.69651206  1
  O  O42  1  0.28312209  0.24200145  0.24101828  1
  O  O43  1  0.36099847  0.93102678  0.54998120  1
  O  O44  1  0.37614519  0.45002661  0.42768369  1
  O  O45  1  0.40691729  0.94568101  0.19647478  1
  O  O46  1  0.59308271  0.05431899  0.80352522  1
  O  O47  1  0.62385481  0.54997339  0.57231631  1
  O  O48  1  0.63900153  0.06897322  0.45001880  1
  O  O49  1  0.71687791  0.75799855  0.75898172  1
  O  O50  1  0.59309256  0.44586998  0.30348794  1
  O  O51  1  0.76352920  0.09402845  0.68434793  1
  O  O52  1  0.81227040  0.80188363  0.57706359  1
  O  O53  1  0.62385333  0.95022760  0.07224660  1
  O  O54  1  0.86650228  0.00310082  0.91237423  1
  O  O55  1  0.63900368  0.43125911  0.95005522  1
  O  O56  1  0.88296113  0.50447842  0.71394234  1
  O  O57  1  0.71685381  0.74208155  0.25894132  1
  O  O58  1  0.76358892  0.40601148  0.18438515  1
  O  O59  1  0.90785254  0.11571743  0.53505238  1
  O  O60  1  0.81230560  0.69815804  0.07708336  1
  O  O61  1  0.86649403  0.49691193  0.41237276  1
  O  O62  1  0.88293907  0.99553631  0.21392894  1
  O  O63  1  0.90785872  0.38435450  0.03504965  1
