# generated using pymatgen
data_LiMn7O14
_symmetry_space_group_name_H-M   'P 1'
_cell_length_a   10.24403589
_cell_length_b   10.24403589
_cell_length_c   13.11612459
_cell_angle_alpha   82.79689762
_cell_angle_beta   82.79689762
_cell_angle_gamma   47.88288353
_symmetry_Int_Tables_number   1
_chemical_formula_structural   LiMn7O14
_chemical_formula_sum   'Li4 Mn28 O56'
_cell_volume   1011.33321595
_cell_formula_units_Z   4
loop_
 _symmetry_equiv_pos_site_id
 _symmetry_equiv_pos_as_xyz
  1  'x, y, z'
loop_
 _atom_site_type_symbol
 _atom_site_label
 _atom_site_symmetry_multiplicity
 _atom_site_fract_x
 _atom_site_fract_y
 _atom_site_fract_z
 _atom_site_occupancy
  Li  Li0  1  0.26818900  0.01843800  0.82107700  1
  Li  Li1  1  0.73181100  0.98156200  0.17892300  1
  Li  Li2  1  0.01843800  0.26818900  0.32107700  1
  Li  Li3  1  0.98156200  0.73181100  0.67892300  1
  Mn  Mn4  1  0.85703500  0.35903200  0.92886800  1
  Mn  Mn5  1  0.71406500  0.71243700  0.85729700  1
  Mn  Mn6  1  0.57111500  0.07361100  0.78549000  1
  Mn  Mn7  1  0.21321100  0.71338500  0.85865900  1
  Mn  Mn8  1  0.14252500  0.14598400  0.07022600  1
  Mn  Mn9  1  0.57133900  0.57017700  0.78620600  1
  Mn  Mn10  1  0.85747500  0.85401600  0.92977400  1
  Mn  Mn11  1  0.50000000  0.00000000  0.00000000  1
  Mn  Mn12  1  0.14296500  0.64096800  0.07113200  1
  Mn  Mn13  1  0.42888500  0.92638900  0.21451000  1
  Mn  Mn14  1  0.00000000  0.00000000  0.00000000  1
  Mn  Mn15  1  0.28593500  0.28756300  0.14270300  1
  Mn  Mn16  1  0.35903200  0.85703500  0.42886800  1
  Mn  Mn17  1  0.42866100  0.42982300  0.21379400  1
  Mn  Mn18  1  0.07361100  0.57111500  0.28549000  1
  Mn  Mn19  1  0.78678900  0.28661500  0.14134100  1
  Mn  Mn20  1  0.71243700  0.71406500  0.35729700  1
  Mn  Mn21  1  0.57017700  0.57133900  0.28620600  1
  Mn  Mn22  1  0.00000000  0.50000000  0.50000000  1
  Mn  Mn23  1  0.85401600  0.85747500  0.42977400  1
  Mn  Mn24  1  0.71338500  0.21321100  0.35865900  1
  Mn  Mn25  1  0.14598400  0.14252500  0.57022600  1
  Mn  Mn26  1  0.92638900  0.42888500  0.71451000  1
  Mn  Mn27  1  0.28756300  0.28593500  0.64270300  1
  Mn  Mn28  1  0.64096800  0.14296500  0.57113200  1
  Mn  Mn29  1  0.00000000  0.00000000  0.50000000  1
  Mn  Mn30  1  0.42982300  0.42866100  0.71379400  1
  Mn  Mn31  1  0.28661500  0.78678900  0.64134100  1
  O  O32  1  0.81364100  0.34609500  0.79045000  1
  O  O33  1  0.62615000  0.59705000  0.91539000  1
  O  O34  1  0.93839200  0.47191800  0.85240500  1
  O  O35  1  0.48638700  0.95781100  0.85923200  1
  O  O36  1  0.80470600  0.82887000  0.79776500  1
  O  O37  1  0.09356400  0.13095200  0.93696700  1
  O  O38  1  0.61450100  0.08052100  0.92457600  1
  O  O39  1  0.73860600  0.76897300  0.98576700  1
  O  O40  1  0.89810200  0.37007500  0.06799200  1
  O  O41  1  0.45375900  0.48442400  0.84321300  1
  O  O42  1  0.26139400  0.23102700  0.01423300  1
  O  O43  1  0.38549900  0.91947900  0.07542400  1
  O  O44  1  0.97440500  0.93952900  0.87050300  1
  O  O45  1  0.10189800  0.62992500  0.93200800  1
  O  O46  1  0.90643600  0.86904800  0.06303300  1
  O  O47  1  0.22708800  0.75057500  0.99603100  1
  O  O48  1  0.19529400  0.17113000  0.20223500  1
  O  O49  1  0.51361300  0.04218900  0.14076800  1
  O  O50  1  0.37385000  0.40295000  0.08461000  1
  O  O51  1  0.65954500  0.68635200  0.22837100  1
  O  O52  1  0.06160800  0.52808200  0.14759500  1
  O  O53  1  0.34609500  0.81364100  0.29045000  1
  O  O54  1  0.77291200  0.24942500  0.00396900  1
  O  O55  1  0.18635900  0.65390500  0.20955000  1
  O  O56  1  0.47191800  0.93839200  0.35240500  1
  O  O57  1  0.31364800  0.34045500  0.27162900  1
  O  O58  1  0.59705000  0.62615000  0.41539000  1
  O  O59  1  0.02559500  0.06047100  0.12949700  1
  O  O60  1  0.82887000  0.80470600  0.29776500  1
  O  O61  1  0.13095200  0.09356400  0.43696700  1
  O  O62  1  0.54624100  0.51557600  0.15678700  1
  O  O63  1  0.95781100  0.48638700  0.35923200  1
  O  O64  1  0.67341000  0.20037800  0.21708200  1
  O  O65  1  0.48442400  0.45375900  0.34321300  1
  O  O66  1  0.76897300  0.73860600  0.48576700  1
  O  O67  1  0.79962200  0.32659000  0.28291800  1
  O  O68  1  0.37007500  0.89810200  0.56799200  1
  O  O69  1  0.08052100  0.61450100  0.42457600  1
  O  O70  1  0.23102700  0.26139400  0.51423300  1
  O  O71  1  0.91947900  0.38549900  0.57542400  1
  O  O72  1  0.62992500  0.10189800  0.43200800  1
  O  O73  1  0.93952900  0.97440500  0.37050300  1
  O  O74  1  0.04218900  0.51361300  0.64076800  1
  O  O75  1  0.75057500  0.22708800  0.49603100  1
  O  O76  1  0.17113000  0.19529400  0.70223500  1
  O  O77  1  0.86904800  0.90643600  0.56303300  1
  O  O78  1  0.68635200  0.65954500  0.72837100  1
  O  O79  1  0.40295000  0.37385000  0.58461000  1
  O  O80  1  0.52808200  0.06160800  0.64759500  1
  O  O81  1  0.24942500  0.77291200  0.50396900  1
  O  O82  1  0.34045500  0.31364800  0.77162900  1
  O  O83  1  0.06047100  0.02559500  0.62949700  1
  O  O84  1  0.65390500  0.18635900  0.70955000  1
  O  O85  1  0.51557600  0.54624100  0.65678700  1
  O  O86  1  0.20037800  0.67341000  0.71708200  1
  O  O87  1  0.32659000  0.79962200  0.78291800  1
