# generated using pymatgen
data_LiV2OF7
_symmetry_space_group_name_H-M   'P 1'
_cell_length_a   5.67915583
_cell_length_b   9.51164985
_cell_length_c   5.67929473
_cell_angle_alpha   87.39547374
_cell_angle_beta   64.40143084
_cell_angle_gamma   87.39539107
_symmetry_Int_Tables_number   1
_chemical_formula_structural   LiV2OF7
_chemical_formula_sum   'Li2 V4 O2 F14'
_cell_volume   276.27270586
_cell_formula_units_Z   2
loop_
 _symmetry_equiv_pos_site_id
 _symmetry_equiv_pos_as_xyz
  1  'x, y, z'
loop_
 _atom_site_type_symbol
 _atom_site_label
 _atom_site_symmetry_multiplicity
 _atom_site_fract_x
 _atom_site_fract_y
 _atom_site_fract_z
 _atom_site_occupancy
  Li  Li0  1  0.23044300  0.99225400  0.23049000  1
  Li  Li1  1  0.73038100  0.49223700  0.73050900  1
  V  V2  1  0.24325800  0.76114000  0.75660000  1
  V  V3  1  0.25651700  0.26132700  0.74293700  1
  V  V4  1  0.74320800  0.26127200  0.25648900  1
  V  V5  1  0.75672300  0.76109600  0.24319800  1
  O  O6  1  0.57900100  0.34691100  0.57911400  1
  O  O7  1  0.07921100  0.84679200  0.07919600  1
  F  F8  1  0.40730300  0.15986000  0.40737700  1
  F  F9  1  0.90751600  0.65969900  0.90746200  1
  F  F10  1  0.91152600  0.16410800  0.91166800  1
  F  F11  1  0.41174100  0.66391900  0.41179300  1
  F  F12  1  0.08389000  0.35533000  0.08395400  1
  F  F13  1  0.58406700  0.85516900  0.58401100  1
  F  F14  1  0.90220500  0.12133100  0.36832300  1
  F  F15  1  0.40241400  0.62125000  0.86841100  1
  F  F16  1  0.36810400  0.12141800  0.90226300  1
  F  F17  1  0.86840300  0.62117900  0.40239400  1
  F  F18  1  0.08560800  0.38743400  0.61743600  1
  F  F19  1  0.58588000  0.88714200  0.11754400  1
  F  F20  1  0.61740400  0.38736000  0.08584200  1
  F  F21  1  0.11754100  0.88721800  0.58588500  1
