# generated using pymatgen
data_LiLa2Hg
_symmetry_space_group_name_H-M   'P 1'
_cell_length_a   11.98362322
_cell_length_b   11.98362322
_cell_length_c   11.98362322
_cell_angle_alpha   120.84203086
_cell_angle_beta   117.71402215
_cell_angle_gamma   91.27599329
_symmetry_Int_Tables_number   1
_chemical_formula_structural   LiLa2Hg
_chemical_formula_sum   'Li1 La2 Hg1'
_cell_volume   1228.71912384
_cell_formula_units_Z   1
loop_
 _symmetry_equiv_pos_site_id
 _symmetry_equiv_pos_as_xyz
  1  'x, y, z'
loop_
 _atom_site_type_symbol
 _atom_site_label
 _atom_site_symmetry_multiplicity
 _atom_site_fract_x
 _atom_site_fract_y
 _atom_site_fract_z
 _atom_site_occupancy
  Li  Li0  1  0.00000000  0.00000000  0.00000000  1
  La  La1  1  0.74518400  0.00000000  0.74518400  1
  La  La2  1  0.25481600  0.00000000  0.25481600  1
  Hg  Hg3  1  0.50000000  0.00000000  0.50000000  1
