# generated using pymatgen
data_Li2V5O10
_symmetry_space_group_name_H-M   'P 1'
_cell_length_a   5.12192647
_cell_length_b   10.20435253
_cell_length_c   8.23510555
_cell_angle_alpha   68.58827173
_cell_angle_beta   87.10966798
_cell_angle_gamma   103.33579247
_symmetry_Int_Tables_number   1
_chemical_formula_structural   Li2V5O10
_chemical_formula_sum   'Li4 V10 O20'
_cell_volume   385.57360557
_cell_formula_units_Z   2
loop_
 _symmetry_equiv_pos_site_id
 _symmetry_equiv_pos_as_xyz
  1  'x, y, z'
loop_
 _atom_site_type_symbol
 _atom_site_label
 _atom_site_symmetry_multiplicity
 _atom_site_fract_x
 _atom_site_fract_y
 _atom_site_fract_z
 _atom_site_occupancy
  Li  Li0  1  0.63428200  0.09284700  0.30707500  1
  Li  Li1  1  0.13687000  0.59578200  0.80165200  1
  Li  Li2  1  0.36577900  0.90721300  0.69272800  1
  Li  Li3  1  0.86317900  0.40423800  0.19844200  1
  V  V4  1  0.00014200  0.50013200  0.50003300  1
  V  V5  1  0.49984700  0.99986800  0.99994900  1
  V  V6  1  0.28823500  0.27888300  0.40799800  1
  V  V7  1  0.79578800  0.77274800  0.91160800  1
  V  V8  1  0.71194800  0.72123600  0.59184700  1
  V  V9  1  0.20403400  0.22705400  0.08860300  1
  V  V10  1  0.06219100  0.10082800  0.78914900  1
  V  V11  1  0.56320600  0.60097600  0.29394100  1
  V  V12  1  0.93780500  0.89925900  0.21079300  1
  V  V13  1  0.43686100  0.39900000  0.70618200  1
  O  O14  1  0.62423000  0.40421600  0.46383000  1
  O  O15  1  0.12686000  0.90810900  0.95812800  1
  O  O16  1  0.37594200  0.59587400  0.53620000  1
  O  O17  1  0.87283700  0.09179200  0.04186100  1
  O  O18  1  0.99728700  0.21720400  0.28876500  1
  O  O19  1  0.50437800  0.72538200  0.78395500  1
  O  O20  1  0.00270000  0.78281200  0.71130400  1
  O  O21  1  0.49568100  0.27462500  0.21596400  1
  O  O22  1  0.09029000  0.30162200  0.63421000  1
  O  O23  1  0.60970500  0.81314600  0.12217900  1
  O  O24  1  0.90981500  0.69849400  0.36577200  1
  O  O25  1  0.39013100  0.18670300  0.87784400  1
  O  O26  1  0.27516100  0.00577300  0.21048300  1
  O  O27  1  0.79462900  0.52532900  0.69745500  1
  O  O28  1  0.72480500  0.99423000  0.78945700  1
  O  O29  1  0.20542600  0.47471400  0.30253800  1
  O  O30  1  0.27025600  0.10340500  0.58807500  1
  O  O31  1  0.77608900  0.60177900  0.07922600  1
  O  O32  1  0.72971000  0.89667900  0.41183900  1
  O  O33  1  0.22390000  0.39804900  0.92091600  1
