# generated using pymatgen
data_Li2AlCoO4
_symmetry_space_group_name_H-M   'P 1'
_cell_length_a   5.01553800
_cell_length_b   6.25878000
_cell_length_c   10.97432700
_cell_angle_alpha   90.00000000
_cell_angle_beta   90.00000000
_cell_angle_gamma   90.00000000
_symmetry_Int_Tables_number   1
_chemical_formula_structural   Li2AlCoO4
_chemical_formula_sum   'Li8 Al4 Co4 O16'
_cell_volume   344.49673319
_cell_formula_units_Z   4
loop_
 _symmetry_equiv_pos_site_id
 _symmetry_equiv_pos_as_xyz
  1  'x, y, z'
loop_
 _atom_site_type_symbol
 _atom_site_label
 _atom_site_symmetry_multiplicity
 _atom_site_fract_x
 _atom_site_fract_y
 _atom_site_fract_z
 _atom_site_occupancy
  Li  Li0  1  0.18192300  0.00073000  0.58617300  1
  Li  Li1  1  0.31807700  0.00073000  0.08617300  1
  Li  Li2  1  0.31807700  0.49927000  0.08617300  1
  Li  Li3  1  0.18192300  0.49927000  0.58617300  1
  Li  Li4  1  0.68192300  0.50073000  0.91382700  1
  Li  Li5  1  0.81807700  0.50073000  0.41382700  1
  Li  Li6  1  0.81807700  0.99927000  0.41382700  1
  Li  Li7  1  0.68192300  0.99927000  0.91382700  1
  Al  Al8  1  0.67306500  0.25000000  0.66976400  1
  Al  Al9  1  0.82693500  0.25000000  0.16976400  1
  Al  Al10  1  0.32693500  0.75000000  0.33023600  1
  Al  Al11  1  0.17306500  0.75000000  0.83023600  1
  Co  Co12  1  0.17763700  0.25000000  0.83777200  1
  Co  Co13  1  0.32236300  0.25000000  0.33777200  1
  Co  Co14  1  0.67763700  0.75000000  0.66222800  1
  Co  Co15  1  0.82236300  0.75000000  0.16222800  1
  O  O16  1  0.77624200  0.01130500  0.59294800  1
  O  O17  1  0.72375800  0.01130500  0.09294800  1
  O  O18  1  0.31668600  0.25000000  0.67660500  1
  O  O19  1  0.69938200  0.25000000  0.32213100  1
  O  O20  1  0.18331400  0.25000000  0.17660500  1
  O  O21  1  0.80061800  0.25000000  0.82213100  1
  O  O22  1  0.72375800  0.48869500  0.09294800  1
  O  O23  1  0.77624200  0.48869500  0.59294800  1
  O  O24  1  0.22375800  0.51130500  0.40705200  1
  O  O25  1  0.27624200  0.51130500  0.90705200  1
  O  O26  1  0.68331400  0.75000000  0.32339500  1
  O  O27  1  0.81668600  0.75000000  0.82339500  1
  O  O28  1  0.30061800  0.75000000  0.67786900  1
  O  O29  1  0.19938200  0.75000000  0.17786900  1
  O  O30  1  0.22375800  0.98869500  0.40705200  1
  O  O31  1  0.27624200  0.98869500  0.90705200  1
