# generated using pymatgen
data_Li19V8(BO3)16
_symmetry_space_group_name_H-M   'P 1'
_cell_length_a   5.19809500
_cell_length_b   8.87598151
_cell_length_c   19.82396815
_cell_angle_alpha   89.60638395
_cell_angle_beta   88.07644367
_cell_angle_gamma   89.02181673
_symmetry_Int_Tables_number   1
_chemical_formula_structural   Li19V8(BO3)16
_chemical_formula_sum   'Li19 V8 B16 O48'
_cell_volume   913.97534689
_cell_formula_units_Z   1
loop_
 _symmetry_equiv_pos_site_id
 _symmetry_equiv_pos_as_xyz
  1  'x, y, z'
loop_
 _atom_site_type_symbol
 _atom_site_label
 _atom_site_symmetry_multiplicity
 _atom_site_fract_x
 _atom_site_fract_y
 _atom_site_fract_z
 _atom_site_occupancy
  Li  Li0  1  0.12906700  0.04392600  0.16237300  1
  Li  Li1  1  0.16833400  0.33445200  0.68956500  1
  Li  Li2  1  0.17593800  0.01431100  0.96455300  1
  Li  Li3  1  0.32342300  0.51631400  0.28707300  1
  Li  Li4  1  0.36876300  0.53950200  0.08892500  1
  Li  Li5  1  0.31351300  0.86415700  0.55964900  1
  Li  Li6  1  0.35887300  0.52364600  0.58421400  1
  Li  Li7  1  0.63528400  0.45949800  0.41326200  1
  Li  Li8  1  0.71537800  0.47912300  0.18991000  1
  Li  Li9  1  0.66942000  0.14486300  0.44069300  1
  Li  Li10  1  0.64668100  0.47384500  0.91254400  1
  Li  Li11  1  0.64573900  0.47409400  0.70927200  1
  Li  Li12  1  0.67358200  0.15686400  0.94243300  1
  Li  Li13  1  0.79137500  0.98047700  0.06307100  1
  Li  Li14  1  0.82843600  0.65243900  0.30769100  1
  Li  Li15  1  0.83430100  0.97546800  0.54049200  1
  Li  Li16  1  0.85536000  0.96771600  0.33513600  1
  Li  Li17  1  0.83944700  0.64802600  0.80917100  1
  Li  Li18  1  0.85750900  0.96805400  0.83666100  1
  V  V19  1  0.13615100  0.69057300  0.43883200  1
  V  V20  1  0.15173700  0.67864500  0.93796900  1
  V  V21  1  0.35198700  0.17834500  0.31161200  1
  V  V22  1  0.35712700  0.17938000  0.81456100  1
  V  V23  1  0.62603800  0.79992600  0.18403600  1
  V  V24  1  0.64841200  0.83089000  0.68747900  1
  V  V25  1  0.87298200  0.30017600  0.06565700  1
  V  V26  1  0.87220100  0.30102200  0.55965600  1
  B  B27  1  0.17673500  0.70120200  0.19468500  1
  B  B28  1  0.15645800  0.34459000  0.43157900  1
  B  B29  1  0.16832900  0.66781500  0.68952400  1
  B  B30  1  0.14906800  0.34279800  0.93393400  1
  B  B31  1  0.32639800  0.20047300  0.05557200  1
  B  B32  1  0.34861700  0.84304000  0.31659500  1
  B  B33  1  0.32918700  0.17849100  0.55926500  1
  B  B34  1  0.33878200  0.84286500  0.81442500  1
  B  B35  1  0.65077700  0.14786700  0.18499800  1
  B  B36  1  0.66425800  0.80471100  0.43743000  1
  B  B37  1  0.67507100  0.16696900  0.68817300  1
  B  B38  1  0.67175400  0.81953100  0.93827100  1
  B  B39  1  0.84670600  0.64863500  0.06440800  1
  B  B40  1  0.82862000  0.31870400  0.31037900  1
  B  B41  1  0.83239300  0.65678100  0.56568700  1
  B  B42  1  0.83353900  0.31608400  0.81436000  1
  O  O43  1  0.09100800  0.66267200  0.03145000  1
  O  O44  1  0.09372600  0.33408100  0.30289800  1
  O  O45  1  0.08178700  0.68350400  0.53830300  1
  O  O46  1  0.09283500  0.31637300  0.79682000  1
  O  O47  1  0.12284800  0.09879100  0.05797300  1
  O  O48  1  0.14484400  0.07271100  0.55555600  1
  O  O49  1  0.19255600  0.72390300  0.33780200  1
  O  O50  1  0.23322200  0.98855200  0.32403900  1
  O  O51  1  0.24600500  0.34824100  0.06412500  1
  O  O52  1  0.17843500  0.73342400  0.83800300  1
  O  O53  1  0.23069900  0.99118000  0.81723500  1
  O  O54  1  0.24204300  0.32463600  0.57562000  1
  O  O55  1  0.25083000  0.84905400  0.18689900  1
  O  O56  1  0.29456400  0.80631700  0.67999500  1
  O  O57  1  0.24784700  0.49651100  0.43141500  1
  O  O58  1  0.34032200  0.24202000  0.40915900  1
  O  O59  1  0.38403100  0.59875900  0.19205600  1
  O  O60  1  0.26757400  0.48537300  0.92683800  1
  O  O61  1  0.30258300  0.21939000  0.91357400  1
  O  O62  1  0.30073300  0.53768500  0.68288500  1
  O  O63  1  0.40651600  0.16344600  0.21765600  1
  O  O64  1  0.40401300  0.82156300  0.45477700  1
  O  O65  1  0.43866200  0.19112500  0.72009500  1
  O  O66  1  0.40571100  0.83329700  0.94603500  1
  O  O67  1  0.57869000  0.15949900  0.04214100  1
  O  O68  1  0.59864000  0.82768500  0.29480600  1
  O  O69  1  0.59161900  0.15221100  0.54659600  1
  O  O70  1  0.58946900  0.82567200  0.78939700  1
  O  O71  1  0.66829100  0.44226300  0.30906400  1
  O  O72  1  0.71773000  0.77652800  0.08525600  1
  O  O73  1  0.74477400  0.51036700  0.07814800  1
  O  O74  1  0.68777900  0.44307400  0.81154100  1
  O  O75  1  0.68815700  0.78397300  0.58844900  1
  O  O76  1  0.73486200  0.51534500  0.56878900  1
  O  O77  1  0.72466400  0.17561800  0.32347600  1
  O  O78  1  0.72028400  0.17691800  0.83230400  1
  O  O79  1  0.77051200  0.66247300  0.42238100  1
  O  O80  1  0.75402600  0.00849000  0.17081700  1
  O  O81  1  0.78071300  0.27426600  0.16447700  1
  O  O82  1  0.78162500  0.67723200  0.92329600  1
  O  O83  1  0.76796100  0.01714900  0.68157300  1
  O  O84  1  0.81371400  0.28506700  0.66470900  1
  O  O85  1  0.82768000  0.92245500  0.43891000  1
  O  O86  1  0.82974600  0.94119200  0.93955900  1
  O  O87  1  0.92673500  0.65894500  0.20781100  1
  O  O88  1  0.91033100  0.31828600  0.45429300  1
  O  O89  1  0.90068600  0.67471400  0.70395200  1
  O  O90  1  0.89959100  0.33113800  0.95586000  1
