# generated using pymatgen
data_LiPr(SO4)2
_symmetry_space_group_name_H-M   'P 1'
_cell_length_a   7.76861198
_cell_length_b   7.76437064
_cell_length_c   6.20564264
_cell_angle_alpha   90.00000000
_cell_angle_beta   90.00000000
_cell_angle_gamma   90.00000000
_symmetry_Int_Tables_number   1
_chemical_formula_structural   LiPr(SO4)2
_chemical_formula_sum   'Li2 Pr2 S4 O16'
_cell_volume   374.31432810
_cell_formula_units_Z   2
loop_
 _symmetry_equiv_pos_site_id
 _symmetry_equiv_pos_as_xyz
  1  'x, y, z'
loop_
 _atom_site_type_symbol
 _atom_site_label
 _atom_site_symmetry_multiplicity
 _atom_site_fract_x
 _atom_site_fract_y
 _atom_site_fract_z
 _atom_site_occupancy
  Li  Li0  1  0.50000000  0.50000000  0.00876709  1
  Li  Li1  1  0.00000000  0.00000000  0.50876709  1
  Pr  Pr2  1  0.50000000  0.50000000  0.50877065  1
  Pr  Pr3  1  0.00000000  0.00000000  0.00877065  1
  S  S4  1  0.77974351  0.22006592  0.50874735  1
  S  S5  1  0.22025649  0.77993408  0.50874735  1
  S  S6  1  0.72025649  0.72006592  0.00874735  1
  S  S7  1  0.27974351  0.27993408  0.00874735  1
  O  O8  1  0.79842148  0.39792058  0.59085550  1
  O  O9  1  0.20157852  0.60207942  0.59085550  1
  O  O10  1  0.70157852  0.89792058  0.09085550  1
  O  O11  1  0.29842148  0.10207942  0.09085550  1
  O  O12  1  0.82175546  0.09235829  0.68558685  1
  O  O13  1  0.17824454  0.90764171  0.68558685  1
  O  O14  1  0.67824454  0.59235829  0.18558685  1
  O  O15  1  0.32175546  0.40764171  0.18558685  1
  O  O16  1  0.60194563  0.20142750  0.42670182  1
  O  O17  1  0.39805437  0.79857250  0.42670182  1
  O  O18  1  0.89805437  0.70142750  0.92670182  1
  O  O19  1  0.10194563  0.29857250  0.92670182  1
  O  O20  1  0.90735505  0.17807422  0.33183910  1
  O  O21  1  0.09264495  0.82192578  0.33183910  1
  O  O22  1  0.59264495  0.67807422  0.83183910  1
  O  O23  1  0.40735505  0.32192578  0.83183910  1
