# generated using pymatgen
data_Sr2LiZrCrO6
_symmetry_space_group_name_H-M   'P 1'
_cell_length_a   6.10727166
_cell_length_b   5.69111282
_cell_length_c   6.10368040
_cell_angle_alpha   90.01140427
_cell_angle_beta   124.38054164
_cell_angle_gamma   117.79631232
_symmetry_Int_Tables_number   1
_chemical_formula_structural   Sr2LiZrCrO6
_chemical_formula_sum   'Sr2 Li1 Zr1 Cr1 O6'
_cell_volume   144.44066576
_cell_formula_units_Z   1
loop_
 _symmetry_equiv_pos_site_id
 _symmetry_equiv_pos_as_xyz
  1  'x, y, z'
loop_
 _atom_site_type_symbol
 _atom_site_label
 _atom_site_symmetry_multiplicity
 _atom_site_fract_x
 _atom_site_fract_y
 _atom_site_fract_z
 _atom_site_occupancy
  Sr  Sr0  1  0.51887900  0.25736000  0.73403000  1
  Sr  Sr1  1  0.59041400  0.79305700  0.19923100  1
  Li  Li2  1  0.26776300  0.63192900  0.35834100  1
  Zr  Zr3  1  0.95914000  0.47910300  0.51923200  1
  Cr  Cr4  1  0.99345700  0.99616500  0.00191000  1
  O  O5  1  0.98484300  0.24073300  0.25134900  1
  O  O6  1  0.99409500  0.75449300  0.76501400  1
  O  O7  1  0.47409500  0.23901500  0.26078700  1
  O  O8  1  0.49167600  0.74395200  0.75043000  1
  O  O9  1  0.98649000  0.74171100  0.24942100  1
  O  O10  1  0.98914700  0.24153000  0.76739700  1
