# generated using pymatgen
data_Li2Mn2(PO4)3
_symmetry_space_group_name_H-M   'P 1'
_cell_length_a   8.53309600
_cell_length_b   8.87209400
_cell_length_c   11.98658400
_cell_angle_alpha   90.00000000
_cell_angle_beta   90.00000000
_cell_angle_gamma   90.00000000
_symmetry_Int_Tables_number   1
_chemical_formula_structural   Li2Mn2(PO4)3
_chemical_formula_sum   'Li8 Mn8 P12 O48'
_cell_volume   907.46148041
_cell_formula_units_Z   4
loop_
 _symmetry_equiv_pos_site_id
 _symmetry_equiv_pos_as_xyz
  1  'x, y, z'
loop_
 _atom_site_type_symbol
 _atom_site_label
 _atom_site_symmetry_multiplicity
 _atom_site_fract_x
 _atom_site_fract_y
 _atom_site_fract_z
 _atom_site_occupancy
  Li  Li0  1  0.21750000  0.72215300  0.18122500  1
  Li  Li1  1  0.21750000  0.77784700  0.81877500  1
  Li  Li2  1  0.28250000  0.22215300  0.31877500  1
  Li  Li3  1  0.28250000  0.27784700  0.68122500  1
  Li  Li4  1  0.71750000  0.72215300  0.31877500  1
  Li  Li5  1  0.71750000  0.77784700  0.68122500  1
  Li  Li6  1  0.78250000  0.22215300  0.18122500  1
  Li  Li7  1  0.78250000  0.27784700  0.81877500  1
  Mn  Mn8  1  0.24952000  0.96361800  0.61391100  1
  Mn  Mn9  1  0.24952000  0.53638200  0.38608900  1
  Mn  Mn10  1  0.25048000  0.03638200  0.11391100  1
  Mn  Mn11  1  0.25048000  0.46361800  0.88608900  1
  Mn  Mn12  1  0.74952000  0.53638200  0.11391100  1
  Mn  Mn13  1  0.74952000  0.96361800  0.88608900  1
  Mn  Mn14  1  0.75048000  0.03638200  0.38608900  1
  Mn  Mn15  1  0.75048000  0.46361800  0.61391100  1
  P  P16  1  0.03329100  0.25000000  0.50000000  1
  P  P17  1  0.46670900  0.75000000  0.00000000  1
  P  P18  1  0.53329100  0.25000000  0.00000000  1
  P  P19  1  0.96670900  0.75000000  0.50000000  1
  P  P20  1  0.10454500  0.39596400  0.14747600  1
  P  P21  1  0.10454500  0.10403600  0.85252400  1
  P  P22  1  0.39545500  0.60403600  0.64747600  1
  P  P23  1  0.39545500  0.89596400  0.35252400  1
  P  P24  1  0.60454500  0.10403600  0.64747600  1
  P  P25  1  0.60454500  0.39596400  0.35252400  1
  P  P26  1  0.89545500  0.60403600  0.85252400  1
  P  P27  1  0.89545500  0.89596400  0.14747600  1
  O  O28  1  0.06071900  0.64157600  0.42552700  1
  O  O29  1  0.06071900  0.85842400  0.57447300  1
  O  O30  1  0.07758700  0.89778100  0.15738200  1
  O  O31  1  0.07758700  0.60221900  0.84261800  1
  O  O32  1  0.13994900  0.16511100  0.58361800  1
  O  O33  1  0.13994900  0.33488900  0.41638200  1
  O  O34  1  0.15472900  0.43841600  0.02896300  1
  O  O35  1  0.15472900  0.06158400  0.97103700  1
  O  O36  1  0.15651100  0.23602200  0.18175200  1
  O  O37  1  0.15651100  0.26397800  0.81824800  1
  O  O38  1  0.17688500  0.51760700  0.22609000  1
  O  O39  1  0.17688500  0.98239300  0.77391000  1
  O  O40  1  0.32311500  0.01760700  0.27391000  1
  O  O41  1  0.32311500  0.48239300  0.72609000  1
  O  O42  1  0.34348900  0.76397800  0.68175200  1
  O  O43  1  0.34348900  0.73602200  0.31824800  1
  O  O44  1  0.34527100  0.56158400  0.52896300  1
  O  O45  1  0.34527100  0.93841600  0.47103700  1
  O  O46  1  0.36005100  0.83488900  0.08361800  1
  O  O47  1  0.36005100  0.66511100  0.91638200  1
  O  O48  1  0.42241300  0.10221900  0.65738200  1
  O  O49  1  0.42241300  0.39778100  0.34261800  1
  O  O50  1  0.43928100  0.14157600  0.07447300  1
  O  O51  1  0.43928100  0.35842400  0.92552700  1
  O  O52  1  0.56071900  0.64157600  0.07447300  1
  O  O53  1  0.56071900  0.85842400  0.92552700  1
  O  O54  1  0.57758700  0.60221900  0.65738200  1
  O  O55  1  0.57758700  0.89778100  0.34261800  1
  O  O56  1  0.63994900  0.33488900  0.08361800  1
  O  O57  1  0.63994900  0.16511100  0.91638200  1
  O  O58  1  0.65472900  0.06158400  0.52896300  1
  O  O59  1  0.65472900  0.43841600  0.47103700  1
  O  O60  1  0.65651100  0.23602200  0.31824800  1
  O  O61  1  0.65651100  0.26397800  0.68175200  1
  O  O62  1  0.67688500  0.51760700  0.27391000  1
  O  O63  1  0.67688500  0.98239300  0.72609000  1
  O  O64  1  0.82311500  0.01760700  0.22609000  1
  O  O65  1  0.82311500  0.48239300  0.77391000  1
  O  O66  1  0.84348900  0.73602200  0.18175200  1
  O  O67  1  0.84348900  0.76397800  0.81824800  1
  O  O68  1  0.84527100  0.56158400  0.97103700  1
  O  O69  1  0.84527100  0.93841600  0.02896300  1
  O  O70  1  0.86005100  0.66511100  0.58361800  1
  O  O71  1  0.86005100  0.83488900  0.41638200  1
  O  O72  1  0.92241300  0.10221900  0.84261800  1
  O  O73  1  0.92241300  0.39778100  0.15738200  1
  O  O74  1  0.93928100  0.14157600  0.42552700  1
  O  O75  1  0.93928100  0.35842400  0.57447300  1
