# generated using pymatgen
data_Li9Mn2Co5O16
_symmetry_space_group_name_H-M   'P 1'
_cell_length_a   4.99958900
_cell_length_b   7.72129887
_cell_length_c   7.85914866
_cell_angle_alpha   98.72678530
_cell_angle_beta   99.77691255
_cell_angle_gamma   103.42093391
_symmetry_Int_Tables_number   1
_chemical_formula_structural   Li9Mn2Co5O16
_chemical_formula_sum   'Li9 Mn2 Co5 O16'
_cell_volume   284.97794293
_cell_formula_units_Z   1
loop_
 _symmetry_equiv_pos_site_id
 _symmetry_equiv_pos_as_xyz
  1  'x, y, z'
loop_
 _atom_site_type_symbol
 _atom_site_label
 _atom_site_symmetry_multiplicity
 _atom_site_fract_x
 _atom_site_fract_y
 _atom_site_fract_z
 _atom_site_occupancy
  Li  Li0  1  0.49374000  0.62995900  0.37769500  1
  Li  Li1  1  0.98854700  0.24903400  0.74432300  1
  Li  Li2  1  0.49815400  0.87419600  0.12968400  1
  Li  Li3  1  0.01145300  0.75096600  0.25567700  1
  Li  Li4  1  0.50626000  0.37004100  0.62230500  1
  Li  Li5  1  0.00000000  0.00000000  0.00000000  1
  Li  Li6  1  0.00000000  0.50000000  0.50000000  1
  Li  Li7  1  0.50184600  0.12580400  0.87031600  1
  Li  Li8  1  0.50000000  0.00000000  0.50000000  1
  Mn  Mn9  1  0.99980000  0.87473900  0.61836000  1
  Mn  Mn10  1  0.00020000  0.12526100  0.38164000  1
  Co  Co11  1  0.50000000  0.50000000  0.00000000  1
  Co  Co12  1  0.49718600  0.75322000  0.74547700  1
  Co  Co13  1  0.00424600  0.37347300  0.12558500  1
  Co  Co14  1  0.99575400  0.62652700  0.87441500  1
  Co  Co15  1  0.50281400  0.24678000  0.25452300  1
  O  O16  1  0.75126700  0.64136100  0.63025100  1
  O  O17  1  0.25174800  0.27041900  0.00243900  1
  O  O18  1  0.78470300  0.88622300  0.39198200  1
  O  O19  1  0.22994200  0.75720700  0.50582500  1
  O  O20  1  0.74417000  0.38223600  0.88514800  1
  O  O21  1  0.25367700  0.02376600  0.25129100  1
  O  O22  1  0.25463400  0.52540400  0.75496600  1
  O  O23  1  0.76530500  0.12717000  0.15120000  1
  O  O24  1  0.25583000  0.61776400  0.11485200  1
  O  O25  1  0.77005800  0.24279300  0.49417500  1
  O  O26  1  0.23469500  0.87283000  0.84880000  1
  O  O27  1  0.74825200  0.72958100  0.99756100  1
  O  O28  1  0.24873300  0.35863900  0.36974900  1
  O  O29  1  0.74632300  0.97623400  0.74870900  1
  O  O30  1  0.74536600  0.47459600  0.24503400  1
  O  O31  1  0.21529700  0.11377700  0.60801800  1
