# generated using pymatgen
data_Li4Mn3O7
_symmetry_space_group_name_H-M   'P 1'
_cell_length_a   5.07510900
_cell_length_b   5.09273951
_cell_length_c   10.48890892
_cell_angle_alpha   101.81642980
_cell_angle_beta   95.47486998
_cell_angle_gamma   100.68732895
_symmetry_Int_Tables_number   1
_chemical_formula_structural   Li4Mn3O7
_chemical_formula_sum   'Li8 Mn6 O14'
_cell_volume   258.23122268
_cell_formula_units_Z   2
loop_
 _symmetry_equiv_pos_site_id
 _symmetry_equiv_pos_as_xyz
  1  'x, y, z'
loop_
 _atom_site_type_symbol
 _atom_site_label
 _atom_site_symmetry_multiplicity
 _atom_site_fract_x
 _atom_site_fract_y
 _atom_site_fract_z
 _atom_site_occupancy
  Li  Li0  1  0.23404600  0.42814700  0.93528200  1
  Li  Li1  1  0.35931300  0.71253100  0.20941800  1
  Li  Li2  1  0.76595400  0.57185300  0.06471800  1
  Li  Li3  1  0.92039900  0.85866300  0.35120800  1
  Li  Li4  1  0.50000000  0.00000000  0.50000000  1
  Li  Li5  1  0.07960100  0.14133700  0.64879200  1
  Li  Li6  1  0.64068700  0.28746900  0.79058200  1
  Li  Li7  1  0.50000000  0.00000000  0.00000000  1
  Mn  Mn8  1  0.93503200  0.85315900  0.86613000  1
  Mn  Mn9  1  0.06496800  0.14684100  0.13387000  1
  Mn  Mn10  1  0.20848200  0.42889100  0.42633400  1
  Mn  Mn11  1  0.36709900  0.71196300  0.72536100  1
  Mn  Mn12  1  0.63290100  0.28803700  0.27463900  1
  Mn  Mn13  1  0.79151800  0.57110900  0.57366600  1
  O  O14  1  0.02071100  0.52372500  0.76032600  1
  O  O15  1  0.11871300  0.81152300  0.02731100  1
  O  O16  1  0.60215100  0.65126500  0.89409500  1
  O  O17  1  0.72835000  0.95842300  0.18413800  1
  O  O18  1  0.27129600  0.09543400  0.30429200  1
  O  O19  1  0.87028100  0.23676900  0.47130200  1
  O  O20  1  0.44694400  0.37835700  0.61107400  1
  O  O21  1  0.39784900  0.34873500  0.10590500  1
  O  O22  1  0.55305600  0.62164300  0.38892600  1
  O  O23  1  0.97928900  0.47627500  0.23967400  1
  O  O24  1  0.12971900  0.76323100  0.52869800  1
  O  O25  1  0.72870400  0.90456600  0.69570800  1
  O  O26  1  0.27165000  0.04157700  0.81586200  1
  O  O27  1  0.88128700  0.18847700  0.97268900  1
