# generated using pymatgen
data_Li4Ca2B16(H2O5)7
_symmetry_space_group_name_H-M   'P 1'
_cell_length_a   10.61752515
_cell_length_b   10.61752515
_cell_length_c   20.27333734
_cell_angle_alpha   86.22486478
_cell_angle_beta   86.22486478
_cell_angle_gamma   37.34087519
_symmetry_Int_Tables_number   1
_chemical_formula_structural   Li4Ca2B16(H2O5)7
_chemical_formula_sum   'Li8 Ca4 B32 H28 O70'
_cell_volume   1382.90134973
_cell_formula_units_Z   2
loop_
 _symmetry_equiv_pos_site_id
 _symmetry_equiv_pos_as_xyz
  1  'x, y, z'
loop_
 _atom_site_type_symbol
 _atom_site_label
 _atom_site_symmetry_multiplicity
 _atom_site_fract_x
 _atom_site_fract_y
 _atom_site_fract_z
 _atom_site_occupancy
  Li  Li0  1  0.11244400  0.25909700  0.27072200  1
  Li  Li1  1  0.74090300  0.88755600  0.22927800  1
  Li  Li2  1  0.88755600  0.74090300  0.72927800  1
  Li  Li3  1  0.25909700  0.11244400  0.77072200  1
  Li  Li4  1  0.50970200  0.40010700  0.34091700  1
  Li  Li5  1  0.59989300  0.49029800  0.15908300  1
  Li  Li6  1  0.49029800  0.59989300  0.65908300  1
  Li  Li7  1  0.40010700  0.50970200  0.84091700  1
  Ca  Ca8  1  0.38126900  0.15289700  0.09184200  1
  Ca  Ca9  1  0.84710300  0.61873100  0.40815800  1
  Ca  Ca10  1  0.61873100  0.84710300  0.90815800  1
  Ca  Ca11  1  0.15289700  0.38126900  0.59184200  1
  B  B12  1  0.12462600  0.45142500  0.19464000  1
  B  B13  1  0.54857500  0.87537400  0.30536000  1
  B  B14  1  0.87537400  0.54857500  0.80536000  1
  B  B15  1  0.45142500  0.12462600  0.69464000  1
  B  B16  1  0.20803100  0.45073100  0.30668600  1
  B  B17  1  0.54926900  0.79196900  0.19331400  1
  B  B18  1  0.79196900  0.54926900  0.69331400  1
  B  B19  1  0.45073100  0.20803100  0.80668600  1
  B  B20  1  0.44598800  0.33438400  0.21052700  1
  B  B21  1  0.66561600  0.55401200  0.28947300  1
  B  B22  1  0.55401200  0.66561600  0.78947300  1
  B  B23  1  0.33438400  0.44598800  0.71052700  1
  B  B24  1  0.93473000  0.70521000  0.09653300  1
  B  B25  1  0.29479000  0.06527000  0.40346700  1
  B  B26  1  0.06527000  0.29479000  0.90346700  1
  B  B27  1  0.70521000  0.93473000  0.59653300  1
  B  B28  1  0.73379200  0.96839300  0.00493200  1
  B  B29  1  0.03160700  0.26620800  0.49506800  1
  B  B30  1  0.26620800  0.03160700  0.99506800  1
  B  B31  1  0.96839300  0.73379200  0.50493200  1
  B  B32  1  0.05858800  0.59425500  0.98202000  1
  B  B33  1  0.40574500  0.94141200  0.51798000  1
  B  B34  1  0.94141200  0.40574500  0.01798000  1
  B  B35  1  0.59425500  0.05858800  0.48202000  1
  B  B36  1  0.26736000  0.43237800  0.43164000  1
  B  B37  1  0.56762200  0.73264000  0.06836000  1
  B  B38  1  0.73264000  0.56762200  0.56836000  1
  B  B39  1  0.43237800  0.26736000  0.93164000  1
  B  B40  1  0.70775700  0.20547400  0.95278400  1
  B  B41  1  0.79452600  0.29224300  0.54721600  1
  B  B42  1  0.29224300  0.79452600  0.04721600  1
  B  B43  1  0.20547400  0.70775700  0.45278400  1
  H  H44  1  0.92770000  0.15691700  0.96199400  1
  H  H45  1  0.84308300  0.07230000  0.53800600  1
  H  H46  1  0.07230000  0.84308300  0.03800600  1
  H  H47  1  0.15691700  0.92770000  0.46199400  1
  H  H48  1  0.97912000  0.41284300  0.15315200  1
  H  H49  1  0.58715700  0.02088000  0.34684800  1
  H  H50  1  0.02088000  0.58715700  0.84684800  1
  H  H51  1  0.41284300  0.97912000  0.65315200  1
  H  H52  1  0.34128400  0.54530400  0.13776500  1
  H  H53  1  0.45469600  0.65871600  0.36223500  1
  H  H54  1  0.65871600  0.45469600  0.86223500  1
  H  H55  1  0.54530400  0.34128400  0.63776500  1
  H  H56  1  0.75449900  0.11598200  0.18629500  1
  H  H57  1  0.88401800  0.24550100  0.31370500  1
  H  H58  1  0.24550100  0.88401800  0.81370500  1
  H  H59  1  0.11598200  0.75449900  0.68629500  1
  H  H60  1  0.87382000  0.04958700  0.39305300  1
  H  H61  1  0.95041300  0.12618000  0.10694700  1
  H  H62  1  0.12618000  0.95041300  0.60694700  1
  H  H63  1  0.04958700  0.87382000  0.89305300  1
  H  H64  1  0.90416600  0.02063300  0.31586800  1
  H  H65  1  0.97936700  0.09583400  0.18413200  1
  H  H66  1  0.09583400  0.97936700  0.68413200  1
  H  H67  1  0.02063300  0.90416600  0.81586800  1
  H  H68  1  0.18487600  0.75806200  0.22736100  1
  H  H69  1  0.24193800  0.81512400  0.27263900  1
  H  H70  1  0.81512400  0.24193800  0.77263900  1
  H  H71  1  0.75806200  0.18487600  0.72736100  1
  O  O72  1  0.33158000  0.33120100  0.17573700  1
  O  O73  1  0.66879900  0.66842000  0.32426300  1
  O  O74  1  0.66842000  0.66879900  0.82426300  1
  O  O75  1  0.33120100  0.33158000  0.67573700  1
  O  O76  1  0.08758200  0.47621600  0.26688300  1
  O  O77  1  0.52378400  0.91241800  0.23311700  1
  O  O78  1  0.91241800  0.52378400  0.73311700  1
  O  O79  1  0.47621600  0.08758200  0.76688300  1
  O  O80  1  0.37004100  0.39557400  0.28194700  1
  O  O81  1  0.60442600  0.62995900  0.21805300  1
  O  O82  1  0.62995900  0.60442600  0.71805300  1
  O  O83  1  0.39557400  0.37004100  0.78194700  1
  O  O84  1  0.09270500  0.54807100  0.05074700  1
  O  O85  1  0.45192900  0.90729500  0.44925300  1
  O  O86  1  0.90729500  0.45192900  0.94925300  1
  O  O87  1  0.54807100  0.09270500  0.55074700  1
  O  O88  1  0.75646400  0.90543900  0.07513100  1
  O  O89  1  0.09456100  0.24353600  0.42486900  1
  O  O90  1  0.24353600  0.09456100  0.92486900  1
  O  O91  1  0.90543900  0.75646400  0.57513100  1
  O  O92  1  0.86253000  0.78576400  0.96224400  1
  O  O93  1  0.21423600  0.13747000  0.53775600  1
  O  O94  1  0.13747000  0.21423600  0.03775600  1
  O  O95  1  0.78576400  0.86253000  0.46224400  1
  O  O96  1  0.20507700  0.45781500  0.93526300  1
  O  O97  1  0.54218500  0.79492300  0.56473700  1
  O  O98  1  0.79492300  0.54218500  0.06473700  1
  O  O99  1  0.45781500  0.20507700  0.43526300  1
  O  O100  1  0.51550500  0.13131400  0.98955500  1
  O  O101  1  0.86868600  0.48449500  0.51044500  1
  O  O102  1  0.48449500  0.86868600  0.01044500  1
  O  O103  1  0.13131400  0.51550500  0.48955500  1
  O  O104  1  0.81101000  0.03847600  0.99479200  1
  O  O105  1  0.96152400  0.18899000  0.50520800  1
  O  O106  1  0.18899000  0.96152400  0.00520800  1
  O  O107  1  0.03847600  0.81101000  0.49479200  1
  O  O108  1  0.32183500  0.52627300  0.42230400  1
  O  O109  1  0.47372700  0.67816500  0.07769600  1
  O  O110  1  0.67816500  0.47372700  0.57769600  1
  O  O111  1  0.52627300  0.32183500  0.92230400  1
  O  O112  1  0.79647900  0.25280200  0.93824000  1
  O  O113  1  0.74719800  0.20352100  0.56176000  1
  O  O114  1  0.20352100  0.74719800  0.06176000  1
  O  O115  1  0.25280200  0.79647900  0.43824000  1
  O  O116  1  0.95538300  0.66311700  0.16288100  1
  O  O117  1  0.33688300  0.04461700  0.33711900  1
  O  O118  1  0.04461700  0.33688300  0.83711900  1
  O  O119  1  0.66311700  0.95538300  0.66288100  1
  O  O120  1  0.41352900  0.49031100  0.17988200  1
  O  O121  1  0.50968900  0.58647100  0.32011800  1
  O  O122  1  0.58647100  0.50968900  0.82011800  1
  O  O123  1  0.49031100  0.41352900  0.67988200  1
  O  O124  1  0.66817600  0.12380200  0.21251200  1
  O  O125  1  0.87619800  0.33182400  0.28748800  1
  O  O126  1  0.33182400  0.87619800  0.78748800  1
  O  O127  1  0.12380200  0.66817600  0.71251200  1
  O  O128  1  0.10882300  0.33093300  0.17405400  1
  O  O129  1  0.66906700  0.89117700  0.32594600  1
  O  O130  1  0.89117700  0.66906700  0.82594600  1
  O  O131  1  0.33093300  0.10882300  0.67405400  1
  O  O132  1  0.15349300  0.48437600  0.37284100  1
  O  O133  1  0.51562400  0.84650700  0.12715900  1
  O  O134  1  0.84650700  0.51562400  0.62715900  1
  O  O135  1  0.48437600  0.15349300  0.87284100  1
  O  O136  1  0.80569900  0.12181200  0.35123900  1
  O  O137  1  0.87818800  0.19430100  0.14876100  1
  O  O138  1  0.19430100  0.87818800  0.64876100  1
  O  O139  1  0.12181200  0.80569900  0.85123900  1
  O  O140  1  0.12007800  0.87992200  0.25000000  1
  O  O141  1  0.87992200  0.12007800  0.75000000  1
