# generated using pymatgen
data_Li2Cu(Si2O5)2
_symmetry_space_group_name_H-M   'P 1'
_cell_length_a   6.84240400
_cell_length_b   9.54497800
_cell_length_c   14.35968800
_cell_angle_alpha   90.00000000
_cell_angle_beta   90.00000000
_cell_angle_gamma   90.00000000
_symmetry_Int_Tables_number   1
_chemical_formula_structural   Li2Cu(Si2O5)2
_chemical_formula_sum   'Li8 Cu4 Si16 O40'
_cell_volume   937.83977659
_cell_formula_units_Z   4
loop_
 _symmetry_equiv_pos_site_id
 _symmetry_equiv_pos_as_xyz
  1  'x, y, z'
loop_
 _atom_site_type_symbol
 _atom_site_label
 _atom_site_symmetry_multiplicity
 _atom_site_fract_x
 _atom_site_fract_y
 _atom_site_fract_z
 _atom_site_occupancy
  Li  Li0  1  0.64711000  0.09512200  0.82892100  1
  Li  Li1  1  0.93510000  0.11617400  0.52960000  1
  Li  Li2  1  0.43510000  0.38382600  0.47040000  1
  Li  Li3  1  0.14711000  0.40487800  0.17107900  1
  Li  Li4  1  0.35289000  0.59512200  0.67107900  1
  Li  Li5  1  0.06490000  0.61617400  0.97040000  1
  Li  Li6  1  0.56490000  0.88382600  0.02960000  1
  Li  Li7  1  0.85289000  0.90487800  0.32892100  1
  Cu  Cu8  1  0.97013000  0.18690900  0.34692400  1
  Cu  Cu9  1  0.47013000  0.31309100  0.65307600  1
  Cu  Cu10  1  0.02987000  0.68690900  0.15307600  1
  Cu  Cu11  1  0.52987000  0.81309100  0.84692400  1
  Si  Si12  1  0.48520400  0.04110400  0.56709600  1
  Si  Si13  1  0.25805700  0.06707900  0.90290200  1
  Si  Si14  1  0.28098600  0.09710400  0.22197100  1
  Si  Si15  1  0.71593400  0.12473200  0.16812200  1
  Si  Si16  1  0.21593400  0.37526800  0.83187800  1
  Si  Si17  1  0.78098600  0.40289600  0.77802900  1
  Si  Si18  1  0.75805700  0.43292100  0.09709800  1
  Si  Si19  1  0.98520400  0.45889600  0.43290400  1
  Si  Si20  1  0.51479600  0.54110400  0.93290400  1
  Si  Si21  1  0.74194300  0.56707900  0.59709800  1
  Si  Si22  1  0.71901400  0.59710400  0.27802900  1
  Si  Si23  1  0.28406600  0.62473200  0.33187800  1
  Si  Si24  1  0.78406600  0.87526800  0.66812200  1
  Si  Si25  1  0.21901400  0.90289600  0.72197100  1
  Si  Si26  1  0.24194300  0.93292100  0.40290200  1
  Si  Si27  1  0.01479600  0.95889600  0.06709600  1
  O  O28  1  0.15009000  0.99016000  0.81449800  1
  O  O29  1  0.15120800  0.98500800  0.15940500  1
  O  O30  1  0.03169500  0.00238000  0.42745900  1
  O  O31  1  0.78370700  0.99980500  0.09277100  1
  O  O32  1  0.09255300  0.06505300  0.98587400  1
  O  O33  1  0.47803600  0.13015700  0.16055500  1
  O  O34  1  0.79213200  0.08683500  0.27180300  1
  O  O35  1  0.48426600  0.20565700  0.53900700  1
  O  O36  1  0.30328400  0.22952100  0.87320700  1
  O  O37  1  0.16647000  0.23973600  0.24838700  1
  O  O38  1  0.66647000  0.26026400  0.75161300  1
  O  O39  1  0.80328400  0.27047900  0.12679300  1
  O  O40  1  0.98426600  0.29434300  0.46099300  1
  O  O41  1  0.29213200  0.41316500  0.72819700  1
  O  O42  1  0.97803600  0.36984300  0.83944500  1
  O  O43  1  0.59255300  0.43494700  0.01412600  1
  O  O44  1  0.28370700  0.50019500  0.90723000  1
  O  O45  1  0.53169500  0.49762000  0.57254100  1
  O  O46  1  0.65120800  0.51499200  0.84059500  1
  O  O47  1  0.65009000  0.50984000  0.18550200  1
  O  O48  1  0.84991000  0.49016000  0.68550200  1
  O  O49  1  0.84879200  0.48500800  0.34059500  1
  O  O50  1  0.96830500  0.50238000  0.07254100  1
  O  O51  1  0.21629300  0.49980500  0.40723000  1
  O  O52  1  0.90744700  0.56505300  0.51412600  1
  O  O53  1  0.52196400  0.63015700  0.33944500  1
  O  O54  1  0.20786800  0.58683500  0.22819700  1
  O  O55  1  0.51573400  0.70565700  0.96099300  1
  O  O56  1  0.69671600  0.72952100  0.62679300  1
  O  O57  1  0.83353000  0.73973600  0.25161300  1
  O  O58  1  0.33353000  0.76026400  0.74838700  1
  O  O59  1  0.19671600  0.77047900  0.37320700  1
  O  O60  1  0.01573400  0.79434300  0.03900700  1
  O  O61  1  0.70786800  0.91316500  0.77180300  1
  O  O62  1  0.02196400  0.86984300  0.66055500  1
  O  O63  1  0.40744700  0.93494700  0.48587400  1
  O  O64  1  0.71629300  0.00019500  0.59277000  1
  O  O65  1  0.46830500  0.99762000  0.92745900  1
  O  O66  1  0.34879200  0.01499200  0.65940500  1
  O  O67  1  0.34991000  0.00984000  0.31449800  1
