# generated using pymatgen
data_Li9Mn2Co5O16
_symmetry_space_group_name_H-M   'P 1'
_cell_length_a   5.91109600
_cell_length_b   6.43836279
_cell_length_c   7.87727237
_cell_angle_alpha   86.09304218
_cell_angle_beta   75.94694056
_cell_angle_gamma   76.98003855
_symmetry_Int_Tables_number   1
_chemical_formula_structural   Li9Mn2Co5O16
_chemical_formula_sum   'Li9 Mn2 Co5 O16'
_cell_volume   283.31402860
_cell_formula_units_Z   1
loop_
 _symmetry_equiv_pos_site_id
 _symmetry_equiv_pos_as_xyz
  1  'x, y, z'
loop_
 _atom_site_type_symbol
 _atom_site_label
 _atom_site_symmetry_multiplicity
 _atom_site_fract_x
 _atom_site_fract_y
 _atom_site_fract_z
 _atom_site_occupancy
  Li  Li0  1  0.07499700  0.13373100  0.62176200  1
  Li  Li1  1  0.81191000  0.62138200  0.12713700  1
  Li  Li2  1  0.54861100  0.12989300  0.61985700  1
  Li  Li3  1  0.94068200  0.86247100  0.38500400  1
  Li  Li4  1  0.68959100  0.38465400  0.86767600  1
  Li  Li5  1  0.43495400  0.86164100  0.38564300  1
  Li  Li6  1  0.31407300  0.62280800  0.13107400  1
  Li  Li7  1  0.18050500  0.38429800  0.86077100  1
  Li  Li8  1  0.24685300  0.50266900  0.50239700  1
  Mn  Mn9  1  0.00466600  0.99858700  0.99883500  1
  Mn  Mn10  1  0.62088200  0.25298100  0.25497600  1
  Co  Co11  1  0.74602100  0.49985400  0.50227600  1
  Co  Co12  1  0.50567000  0.99891300  0.00020900  1
  Co  Co13  1  0.37007100  0.75058400  0.74392100  1
  Co  Co14  1  0.12534900  0.25235500  0.25806700  1
  Co  Co15  1  0.88145800  0.74690800  0.74531300  1
  O  O16  1  0.27500100  0.05239400  0.81958800  1
  O  O17  1  0.01671900  0.53769600  0.31675700  1
  O  O18  1  0.79541200  0.04220500  0.83499200  1
  O  O19  1  0.13582800  0.81383000  0.57511500  1
  O  O20  1  0.89887300  0.29308400  0.06514400  1
  O  O21  1  0.64132300  0.79615600  0.56749600  1
  O  O22  1  0.53484200  0.54360300  0.30558400  1
  O  O23  1  0.41793800  0.28994800  0.08389200  1
  O  O24  1  0.83038200  0.20436700  0.42015600  1
  O  O25  1  0.60221400  0.71358400  0.92787000  1
  O  O26  1  0.35959200  0.18330800  0.42285400  1
  O  O27  1  0.73727200  0.94977600  0.18119200  1
  O  O28  1  0.47957700  0.45609500  0.68394000  1
  O  O29  1  0.20958000  0.96129900  0.16791700  1
  O  O30  1  0.11229900  0.70182800  0.93710400  1
  O  O31  1  0.95685900  0.45709700  0.68548000  1
