# generated using pymatgen
data_Li3ZrN2
_symmetry_space_group_name_H-M   'P 1'
_cell_length_a   8.82209009
_cell_length_b   10.18687176
_cell_length_c   10.18687232
_cell_angle_alpha   89.99999677
_cell_angle_beta   125.26438681
_cell_angle_gamma   54.73561096
_symmetry_Int_Tables_number   1
_chemical_formula_structural   Li3ZrN2
_chemical_formula_sum   'Li24 Zr8 N16'
_cell_volume   528.55790966
_cell_formula_units_Z   8
loop_
 _symmetry_equiv_pos_site_id
 _symmetry_equiv_pos_as_xyz
  1  'x, y, z'
loop_
 _atom_site_type_symbol
 _atom_site_label
 _atom_site_symmetry_multiplicity
 _atom_site_fract_x
 _atom_site_fract_y
 _atom_site_fract_z
 _atom_site_occupancy
  Li  Li0  1  0.20757518  0.06123897  0.00036423  1
  Li  Li1  1  0.79242482  0.76881515  0.49963577  1
  Li  Li2  1  0.79242482  0.43876103  0.79278806  1
  Li  Li3  1  0.20757518  0.73118485  0.70721194  1
  Li  Li4  1  0.20684771  0.79278806  0.26845091  1
  Li  Li5  1  0.79315229  0.70721194  0.06160320  1
  Li  Li6  1  0.20684771  0.00036423  0.43839680  1
  Li  Li7  1  0.79315229  0.49963577  0.23154909  1
  Li  Li8  1  0.66994588  0.06160320  0.73118485  1
  Li  Li9  1  0.66994588  0.26845091  0.43876103  1
  Li  Li10  1  0.33005412  0.23154909  0.76881515  1
  Li  Li11  1  0.33005412  0.43839680  0.06123897  1
  Li  Li12  1  0.79242482  0.93876103  0.99963577  1
  Li  Li13  1  0.20757518  0.23118485  0.50036423  1
  Li  Li14  1  0.20757518  0.56123897  0.20721194  1
  Li  Li15  1  0.79242482  0.26881515  0.29278806  1
  Li  Li16  1  0.79315229  0.20721194  0.73154909  1
  Li  Li17  1  0.20684771  0.29278806  0.93839680  1
  Li  Li18  1  0.79315229  0.99963577  0.56160320  1
  Li  Li19  1  0.20684771  0.50036423  0.76845091  1
  Li  Li20  1  0.33005412  0.93839680  0.26881515  1
  Li  Li21  1  0.33005412  0.73154909  0.56123897  1
  Li  Li22  1  0.66994588  0.76845091  0.23118485  1
  Li  Li23  1  0.66994588  0.56160320  0.93876103  1
  Zr  Zr24  1  0.24259682  0.00000000  0.74259682  1
  Zr  Zr25  1  0.75740318  0.74259682  0.75740318  1
  Zr  Zr26  1  0.75740318  0.50000000  0.50000000  1
  Zr  Zr27  1  0.24259682  0.75740318  0.00000000  1
  Zr  Zr28  1  0.75740318  0.00000000  0.25740318  1
  Zr  Zr29  1  0.24259682  0.25740318  0.24259682  1
  Zr  Zr30  1  0.24259682  0.50000000  0.50000000  1
  Zr  Zr31  1  0.75740318  0.24259682  0.00000000  1
  N  N32  1  0.00000000  0.00000000  0.50000000  1
  N  N33  1  0.00000000  0.50000000  0.00000000  1
  N  N34  1  0.00000000  0.50000000  0.50000000  1
  N  N35  1  0.00000000  0.00000000  0.00000000  1
  N  N36  1  0.50000000  0.99175719  0.75000000  1
  N  N37  1  0.50000000  0.50824281  0.25000000  1
  N  N38  1  0.00000000  0.25000000  0.74175719  1
  N  N39  1  0.00000000  0.75000000  0.75824281  1
  N  N40  1  0.51648461  0.74175719  0.50824281  1
  N  N41  1  0.48351539  0.75824281  0.99175719  1
  N  N42  1  0.50000000  0.00824281  0.25000000  1
  N  N43  1  0.50000000  0.49175719  0.75000000  1
  N  N44  1  0.00000000  0.75000000  0.25824281  1
  N  N45  1  0.00000000  0.25000000  0.24175719  1
  N  N46  1  0.48351539  0.25824281  0.49175719  1
  N  N47  1  0.51648461  0.24175719  0.00824281  1
