# generated using pymatgen
data_Li2MnP2O7
_symmetry_space_group_name_H-M   'P 1'
_cell_length_a   5.47437552
_cell_length_b   9.05938254
_cell_length_c   12.80054364
_cell_angle_alpha   111.63583064
_cell_angle_beta   97.21797022
_cell_angle_gamma   75.46820802
_symmetry_Int_Tables_number   1
_chemical_formula_structural   Li2MnP2O7
_chemical_formula_sum   'Li8 Mn4 P8 O28'
_cell_volume   570.84362934
_cell_formula_units_Z   4
loop_
 _symmetry_equiv_pos_site_id
 _symmetry_equiv_pos_as_xyz
  1  'x, y, z'
loop_
 _atom_site_type_symbol
 _atom_site_label
 _atom_site_symmetry_multiplicity
 _atom_site_fract_x
 _atom_site_fract_y
 _atom_site_fract_z
 _atom_site_occupancy
  Li  Li0  1  0.81568900  0.95527700  0.58465500  1
  Li  Li1  1  0.31565800  0.95511800  0.08460000  1
  Li  Li2  1  0.18447900  0.04491500  0.41536300  1
  Li  Li3  1  0.68425600  0.04470400  0.91532100  1
  Li  Li4  1  0.31160100  0.76954100  0.77697500  1
  Li  Li5  1  0.81126900  0.76965100  0.27688300  1
  Li  Li6  1  0.68867900  0.23031800  0.22309500  1
  Li  Li7  1  0.18854800  0.23038800  0.72300000  1
  Mn  Mn8  1  0.12619800  0.36886200  0.37578500  1
  Mn  Mn9  1  0.37327600  0.63131500  0.12435800  1
  Mn  Mn10  1  0.62590000  0.36833800  0.87577200  1
  Mn  Mn11  1  0.87453200  0.63126500  0.62441100  1
  P  P12  1  0.45933000  0.40615700  0.62386400  1
  P  P13  1  0.95912000  0.40607400  0.12382100  1
  P  P14  1  0.54088000  0.59394000  0.37615600  1
  P  P15  1  0.04068000  0.59381200  0.87614400  1
  P  P16  1  0.32567900  0.87112500  0.58577800  1
  P  P17  1  0.82564900  0.87108400  0.08564400  1
  P  P18  1  0.67435300  0.12893600  0.41429800  1
  P  P19  1  0.17434500  0.12885200  0.91424700  1
  O  O20  1  0.94551600  0.33586900  0.21441400  1
  O  O21  1  0.44542100  0.33596000  0.71443500  1
  O  O22  1  0.05463800  0.66411500  0.78565000  1
  O  O23  1  0.55436600  0.66414000  0.28555500  1
  O  O24  1  0.20512600  0.42696200  0.55681900  1
  O  O25  1  0.70477500  0.42678500  0.05683400  1
  O  O26  1  0.79509400  0.57329800  0.44317800  1
  O  O27  1  0.29489300  0.57311000  0.94322700  1
  O  O28  1  0.13496900  0.83536900  0.64655100  1
  O  O29  1  0.63484400  0.83548700  0.14652500  1
  O  O30  1  0.86520300  0.16454200  0.35346400  1
  O  O31  1  0.36514400  0.16460100  0.85345400  1
  O  O32  1  0.40437400  0.14416500  0.36267700  1
  O  O33  1  0.90441100  0.14392400  0.86264500  1
  O  O34  1  0.59570600  0.85602500  0.63736100  1
  O  O35  1  0.09564200  0.85590900  0.13726300  1
  O  O36  1  0.27601700  0.96402900  0.92958100  1
  O  O37  1  0.77570200  0.96404000  0.42957500  1
  O  O38  1  0.72421100  0.03599600  0.07035500  1
  O  O39  1  0.22403500  0.03592600  0.57038300  1
  O  O40  1  0.43797800  0.43940700  0.33162500  1
  O  O41  1  0.93755300  0.43939700  0.83164700  1
  O  O42  1  0.56237400  0.56068300  0.66836900  1
  O  O43  1  0.06191800  0.56056800  0.16832900  1
  O  O44  1  0.33233100  0.73167100  0.46051800  1
  O  O45  1  0.83209000  0.73181500  0.96050900  1
  O  O46  1  0.66790200  0.26821500  0.53944500  1
  O  O47  1  0.16764200  0.26831800  0.03944200  1
