# generated using pymatgen
data_Li4Co3O7
_symmetry_space_group_name_H-M   'P 1'
_cell_length_a   5.10216200
_cell_length_b   7.67889625
_cell_length_c   7.68966954
_cell_angle_alpha   60.50875328
_cell_angle_beta   71.31139742
_cell_angle_gamma   77.88420486
_symmetry_Int_Tables_number   1
_chemical_formula_structural   Li4Co3O7
_chemical_formula_sum   'Li8 Co6 O14'
_cell_volume   247.91362913
_cell_formula_units_Z   2
loop_
 _symmetry_equiv_pos_site_id
 _symmetry_equiv_pos_as_xyz
  1  'x, y, z'
loop_
 _atom_site_type_symbol
 _atom_site_label
 _atom_site_symmetry_multiplicity
 _atom_site_fract_x
 _atom_site_fract_y
 _atom_site_fract_z
 _atom_site_occupancy
  Li  Li0  1  0.49037200  0.78790100  0.63927500  1
  Li  Li1  1  0.50473200  0.06929600  0.78176700  1
  Li  Li2  1  0.50036800  0.36024700  0.92577900  1
  Li  Li3  1  0.49963200  0.63975300  0.07422100  1
  Li  Li4  1  0.49526800  0.93070400  0.21823300  1
  Li  Li5  1  0.50962800  0.21209900  0.36072500  1
  Li  Li6  1  0.50000000  0.50000000  0.50000000  1
  Li  Li7  1  0.00000000  0.00000000  0.50000000  1
  Co  Co8  1  0.99336300  0.57600500  0.78358400  1
  Co  Co9  1  0.00663700  0.42399500  0.21641600  1
  Co  Co10  1  0.00665400  0.85920000  0.92549000  1
  Co  Co11  1  0.99334600  0.14080000  0.07451000  1
  Co  Co12  1  0.00284400  0.71855400  0.36393600  1
  Co  Co13  1  0.99715600  0.28144600  0.63606400  1
  O  O14  1  0.23830200  0.74202800  0.49532400  1
  O  O15  1  0.22852200  0.02523300  0.66972300  1
  O  O16  1  0.20857400  0.31742900  0.80412400  1
  O  O17  1  0.22780100  0.62176600  0.93043000  1
  O  O18  1  0.21636100  0.90450800  0.06741900  1
  O  O19  1  0.21682200  0.18887200  0.19633300  1
  O  O20  1  0.24044800  0.45787100  0.36120500  1
  O  O21  1  0.78317800  0.81112800  0.80366700  1
  O  O22  1  0.78363900  0.09549200  0.93258100  1
  O  O23  1  0.77219900  0.37823400  0.06957000  1
  O  O24  1  0.79142600  0.68257100  0.19587600  1
  O  O25  1  0.77147800  0.97476700  0.33027700  1
  O  O26  1  0.76169800  0.25797200  0.50467600  1
  O  O27  1  0.75955200  0.54212900  0.63879500  1
