# generated using pymatgen
data_Li4V3P8O29
_symmetry_space_group_name_H-M   'P 1'
_cell_length_a   9.73943900
_cell_length_b   9.75094321
_cell_length_c   14.21608432
_cell_angle_alpha   89.95738495
_cell_angle_beta   90.13965979
_cell_angle_gamma   119.85046674
_symmetry_Int_Tables_number   1
_chemical_formula_structural   Li4V3P8O29
_chemical_formula_sum   'Li8 V6 P16 O58'
_cell_volume   1170.96054210
_cell_formula_units_Z   2
loop_
 _symmetry_equiv_pos_site_id
 _symmetry_equiv_pos_as_xyz
  1  'x, y, z'
loop_
 _atom_site_type_symbol
 _atom_site_label
 _atom_site_symmetry_multiplicity
 _atom_site_fract_x
 _atom_site_fract_y
 _atom_site_fract_z
 _atom_site_occupancy
  Li  Li0  1  0.90282200  0.66612300  0.05869600  1
  Li  Li1  1  0.76452000  0.09702400  0.05747100  1
  Li  Li2  1  0.32600100  0.23217600  0.06039000  1
  Li  Li3  1  0.67305900  0.90584400  0.44021900  1
  Li  Li4  1  0.33070800  0.09286900  0.56027400  1
  Li  Li5  1  0.23459300  0.33218100  0.44151700  1
  Li  Li6  1  0.00241100  0.99625600  0.99763700  1
  Li  Li7  1  0.97138300  0.94645100  0.50110700  1
  V  V8  1  0.56519300  0.00049700  0.25044500  1
  V  V9  1  0.43487400  0.99659300  0.75373000  1
  V  V10  1  0.56793500  0.56618000  0.75115200  1
  V  V11  1  0.43694200  0.43687400  0.24585200  1
  V  V12  1  0.00118600  0.56547200  0.25409700  1
  V  V13  1  0.99892800  0.43691300  0.74544300  1
  P  P14  1  0.91510800  0.68996800  0.84307800  1
  P  P15  1  0.77666700  0.69192300  0.34085600  1
  P  P16  1  0.91812300  0.22348400  0.34250500  1
  P  P17  1  0.67088200  0.33490200  0.13106700  1
  P  P18  1  0.66138400  0.33022300  0.63155900  1
  P  P19  1  0.78118700  0.09143200  0.83900000  1
  P  P20  1  0.68823100  0.91069100  0.65875200  1
  P  P21  1  0.31165000  0.22396500  0.84259500  1
  P  P22  1  0.69334600  0.77784000  0.15727800  1
  P  P23  1  0.31531700  0.08941100  0.34394500  1
  P  P24  1  0.21914600  0.91428300  0.16240200  1
  P  P25  1  0.33390100  0.66434000  0.36828400  1
  P  P26  1  0.33148200  0.66242000  0.86683300  1
  P  P27  1  0.08487800  0.78239500  0.66000800  1
  P  P28  1  0.22538300  0.31344400  0.66114300  1
  P  P29  1  0.08213100  0.30739500  0.15713000  1
  O  O30  1  0.00337900  0.80283800  0.57811000  1
  O  O31  1  0.91703500  0.65836600  0.33346700  1
  O  O32  1  0.79078900  0.78791600  0.07379700  1
  O  O33  1  0.74242000  0.65660000  0.83101300  1
  O  O34  1  0.91583800  0.53360200  0.82616300  1
  O  O35  1  0.81369900  0.48768700  0.17694200  1
  O  O36  1  0.91630700  0.38176800  0.32805700  1
  O  O37  1  0.99273100  0.20935100  0.07403500  1
  O  O38  1  0.91785900  0.26340300  0.82833700  1
  O  O39  1  0.65958800  0.47510000  0.67951100  1
  O  O40  1  0.61957400  0.53782600  0.33083300  1
  O  O41  1  0.81185900  0.33469700  0.67574300  1
  O  O42  1  0.68129100  0.34646600  0.02613100  1
  O  O43  1  0.65447800  0.32958300  0.52753700  1
  O  O44  1  0.67980100  0.18947600  0.16992100  1
  O  O45  1  0.46696800  0.38160000  0.82973600  1
  O  O46  1  0.51291100  0.32348600  0.16778300  1
  O  O47  1  0.74617800  0.08269700  0.34078600  1
  O  O48  1  0.79907200  0.00089000  0.74873100  1
  O  O49  1  0.76988100  0.98049400  0.56819000  1
  O  O50  1  0.79065500  0.01871000  0.92913100  1
  O  O51  1  0.62099600  0.08903300  0.82535800  1
  O  O52  1  0.51231500  0.17978300  0.67278300  1
  O  O53  1  0.65821100  0.91687500  0.16080800  1
  O  O54  1  0.47393100  0.09188900  0.32633100  1
  O  O55  1  0.34262500  0.26004800  0.33310100  1
  O  O56  1  0.79734800  0.79976400  0.24975000  1
  O  O57  1  0.79375200  0.79331800  0.42404400  1
  O  O58  1  0.22518800  0.22660300  0.57374900  1
  O  O59  1  0.65403700  0.73823400  0.66917400  1
  O  O60  1  0.53278700  0.91424300  0.67376800  1
  O  O61  1  0.34593500  0.08493600  0.83050400  1
  O  O62  1  0.48810700  0.81253100  0.33049900  1
  O  O63  1  0.37759000  0.91734100  0.17005700  1
  O  O64  1  0.20028800  0.00386500  0.08241800  1
  O  O65  1  0.24011500  0.02217100  0.43667100  1
  O  O66  1  0.19757100  0.98831500  0.26042600  1
  O  O67  1  0.26165400  0.91758000  0.66371600  1
  O  O68  1  0.47885900  0.66233800  0.82309600  1
  O  O69  1  0.53521400  0.61995200  0.16982700  1
  O  O70  1  0.33700200  0.81527000  0.82189000  1
  O  O71  1  0.32837600  0.66403400  0.97046000  1
  O  O72  1  0.32525900  0.66258500  0.47281300  1
  O  O73  1  0.18827300  0.66860900  0.31897600  1
  O  O74  1  0.38165100  0.46967500  0.67494900  1
  O  O75  1  0.32416100  0.51121400  0.32761800  1
  O  O76  1  0.07840500  0.74036100  0.16294600  1
  O  O77  1  0.01150800  0.80526100  0.75735900  1
  O  O78  1  0.98328000  0.77017300  0.93441800  1
  O  O79  1  0.07795900  0.62045400  0.66953800  1
  O  O80  1  0.18450300  0.52263900  0.81725600  1
  O  O81  1  0.07936500  0.46369800  0.17196100  1
  O  O82  1  0.25531700  0.34015800  0.15746800  1
  O  O83  1  0.22614600  0.20654600  0.93246200  1
  O  O84  1  0.20087700  0.20472300  0.75272900  1
  O  O85  1  0.08484400  0.34500400  0.66370600  1
  O  O86  1  0.00793900  0.21935200  0.42656600  1
  O  O87  1  0.00137300  0.20290100  0.25017900  1
