# generated using pymatgen
data_Li6V3P8O29
_symmetry_space_group_name_H-M   'P 1'
_cell_length_a   9.78987100
_cell_length_b   9.80513131
_cell_length_c   14.01287395
_cell_angle_alpha   89.30575206
_cell_angle_beta   89.13959099
_cell_angle_gamma   60.22653441
_symmetry_Int_Tables_number   1
_chemical_formula_structural   Li6V3P8O29
_chemical_formula_sum   'Li12 V6 P16 O58'
_cell_volume   1167.40043054
_cell_formula_units_Z   2
loop_
 _symmetry_equiv_pos_site_id
 _symmetry_equiv_pos_as_xyz
  1  'x, y, z'
loop_
 _atom_site_type_symbol
 _atom_site_label
 _atom_site_symmetry_multiplicity
 _atom_site_fract_x
 _atom_site_fract_y
 _atom_site_fract_z
 _atom_site_occupancy
  Li  Li0  1  0.09747100  0.66514300  0.56220400  1
  Li  Li1  1  0.31996300  0.33419400  0.88943700  1
  Li  Li2  1  0.23138100  0.67592800  0.06251000  1
  Li  Li3  1  0.67557000  0.09096200  0.06292700  1
  Li  Li4  1  0.33949700  0.76201700  0.43947400  1
  Li  Li5  1  0.66919000  0.23487800  0.56058300  1
  Li  Li6  1  0.33307200  0.90219400  0.93827500  1
  Li  Li7  1  0.76348300  0.33863500  0.94294100  1
  Li  Li8  1  0.90552700  0.33648000  0.43632800  1
  Li  Li9  1  0.76803500  0.90112500  0.44167700  1
  Li  Li10  1  0.00200900  0.00291300  0.00143300  1
  Li  Li11  1  0.03797800  0.01799700  0.50625600  1
  V  V12  1  0.43503800  0.56512200  0.25124600  1
  V  V13  1  0.56567700  0.43556200  0.74789400  1
  V  V14  1  0.43463000  0.00265400  0.74645500  1
  V  V15  1  0.56286700  0.99768100  0.25226600  1
  V  V16  1  0.00456600  0.43588300  0.24378000  1
  V  V17  1  0.99509400  0.56337700  0.75366200  1
  P  P18  1  0.08397300  0.21613100  0.83847000  1
  P  P19  1  0.21796200  0.08241200  0.33719100  1
  P  P20  1  0.08474300  0.68550600  0.34568700  1
  P  P21  1  0.33702600  0.33521600  0.12924600  1
  P  P22  1  0.33420300  0.33562000  0.63092900  1
  P  P23  1  0.22267700  0.68113100  0.84286300  1
  P  P24  1  0.31228900  0.77488400  0.65909900  1
  P  P25  1  0.68333500  0.09316900  0.84445700  1
  P  P26  1  0.31425900  0.91164800  0.15303600  1
  P  P27  1  0.68409900  0.22588200  0.34208000  1
  P  P28  1  0.77542100  0.31414500  0.15832400  1
  P  P29  1  0.67058100  0.66219600  0.36832700  1
  P  P30  1  0.66162500  0.66893300  0.86999500  1
  P  P31  1  0.91673700  0.31092600  0.65235900  1
  P  P32  1  0.77671900  0.91492300  0.66012400  1
  P  P33  1  0.91588100  0.78172100  0.16144900  1
  O  O34  1  0.98740300  0.22548700  0.56046500  1
  O  O35  1  0.08312800  0.25222400  0.33946800  1
  O  O36  1  0.23022400  0.98000000  0.06110100  1
  O  O37  1  0.25317000  0.07628500  0.84184000  1
  O  O38  1  0.09553000  0.36929300  0.83193000  1
  O  O39  1  0.19065200  0.33091700  0.17440100  1
  O  O40  1  0.08487100  0.53135300  0.33135800  1
  O  O41  1  0.00516400  0.80143600  0.07955700  1
  O  O42  1  0.08214300  0.65461600  0.84283900  1
  O  O43  1  0.33258700  0.18896100  0.67853500  1
  O  O44  1  0.38050300  0.07572400  0.32822100  1
  O  O45  1  0.18806500  0.48506100  0.67456500  1
  O  O46  1  0.33490900  0.33915900  0.02208500  1
  O  O47  1  0.33487200  0.33748300  0.52501100  1
  O  O48  1  0.32506000  0.49006600  0.16751200  1
  O  O49  1  0.52079200  0.10473900  0.83337400  1
  O  O50  1  0.48750600  0.18909600  0.16792600  1
  O  O51  1  0.25434400  0.66050700  0.34219200  1
  O  O52  1  0.20461600  0.78981800  0.75066000  1
  O  O53  1  0.22548700  0.77576600  0.56996900  1
  O  O54  1  0.22733800  0.76940000  0.92968800  1
  O  O55  1  0.37346600  0.51920800  0.82998500  1
  O  O56  1  0.49034900  0.32465500  0.66906300  1
  O  O57  1  0.34012000  0.74168900  0.16399800  1
  O  O58  1  0.52672100  0.37976800  0.32865700  1
  O  O59  1  0.65912100  0.08181000  0.34382600  1
  O  O60  1  0.19804600  0.00905500  0.23968600  1
  O  O61  1  0.20925300  0.98615000  0.41878300  1
  O  O62  1  0.77879200  0.00376900  0.57129300  1
  O  O63  1  0.34430200  0.91070100  0.66095100  1
  O  O64  1  0.46651100  0.61570900  0.67194200  1
  O  O65  1  0.65842400  0.26343000  0.83803000  1
  O  O66  1  0.51420800  0.67480300  0.32939100  1
  O  O67  1  0.61840900  0.46760200  0.17142600  1
  O  O68  1  0.77702000  0.22455000  0.07021400  1
  O  O69  1  0.77141100  0.22758600  0.42982300  1
  O  O70  1  0.79246300  0.20292300  0.24979800  1
  O  O71  1  0.74698300  0.33620300  0.66140300  1
  O  O72  1  0.51563400  0.81964500  0.82757700  1
  O  O73  1  0.46815700  0.91249200  0.16784500  1
  O  O74  1  0.66620200  0.51866900  0.82988200  1
  O  O75  1  0.65679100  0.67107900  0.97587400  1
  O  O76  1  0.67070200  0.65797500  0.47492700  1
  O  O77  1  0.81565200  0.51177600  0.32513300  1
  O  O78  1  0.62278400  0.91018300  0.67026800  1
  O  O79  1  0.67949400  0.81005800  0.33035800  1
  O  O80  1  0.91394900  0.34271200  0.16035600  1
  O  O81  1  0.01393200  0.19648300  0.73911700  1
  O  O82  1  0.98398300  0.20987000  0.91849000  1
  O  O83  1  0.91900600  0.46469400  0.66502400  1
  O  O84  1  0.81174700  0.66501300  0.82297300  1
  O  O85  1  0.91620500  0.62528200  0.16713700  1
  O  O86  1  0.74294000  0.92101200  0.16422000  1
  O  O87  1  0.76869900  0.01798100  0.93467100  1
  O  O88  1  0.79149100  0.00343700  0.75306800  1
  O  O89  1  0.92135500  0.74898100  0.66146400  1
  O  O90  1  0.00234200  0.77007000  0.43677200  1
  O  O91  1  0.99132300  0.80255800  0.25883700  1
