# generated using pymatgen
data_Li5V3P8O29
_symmetry_space_group_name_H-M   'P 1'
_cell_length_a   9.79037400
_cell_length_b   9.82058400
_cell_length_c   14.10881004
_cell_angle_alpha   89.90726421
_cell_angle_beta   90.56173774
_cell_angle_gamma   119.59652707
_symmetry_Int_Tables_number   1
_chemical_formula_structural   Li5V3P8O29
_chemical_formula_sum   'Li10 V6 P16 O58'
_cell_volume   1179.46520234
_cell_formula_units_Z   2
loop_
 _symmetry_equiv_pos_site_id
 _symmetry_equiv_pos_as_xyz
  1  'x, y, z'
loop_
 _atom_site_type_symbol
 _atom_site_label
 _atom_site_symmetry_multiplicity
 _atom_site_fract_x
 _atom_site_fract_y
 _atom_site_fract_z
 _atom_site_occupancy
  Li  Li0  1  0.90673600  0.67910500  0.05863600  1
  Li  Li1  1  0.77687400  0.08211100  0.05786600  1
  Li  Li2  1  0.31824900  0.22768200  0.05784900  1
  Li  Li3  1  0.67539900  0.90791700  0.44090200  1
  Li  Li4  1  0.33178200  0.09799300  0.56015100  1
  Li  Li5  1  0.22640600  0.90804400  0.94091400  1
  Li  Li6  1  0.32551600  0.66124700  0.61109400  1
  Li  Li7  1  0.22843800  0.31721000  0.44396200  1
  Li  Li8  1  0.08893900  0.32242900  0.93617800  1
  Li  Li9  1  0.96775700  0.95079900  0.50714300  1
  V  V10  1  0.56919600  0.00103100  0.25101800  1
  V  V11  1  0.43332400  0.00081700  0.75313900  1
  V  V12  1  0.57502400  0.57098900  0.75343700  1
  V  V13  1  0.43769700  0.44029100  0.25158100  1
  V  V14  1  0.00286600  0.56813800  0.25609600  1
  V  V15  1  0.99370700  0.43317600  0.74079000  1
  P  P16  1  0.91699900  0.68253800  0.84191300  1
  P  P17  1  0.77686000  0.69255100  0.34083500  1
  P  P18  1  0.91843600  0.22401400  0.34010800  1
  P  P19  1  0.66578100  0.33408500  0.13264700  1
  P  P20  1  0.65783600  0.33372100  0.62813400  1
  P  P21  1  0.77337100  0.08928300  0.84021300  1
  P  P22  1  0.68302700  0.90610500  0.65912000  1
  P  P23  1  0.31941600  0.23441200  0.84197700  1
  P  P24  1  0.68343100  0.76916800  0.15562800  1
  P  P25  1  0.31775300  0.09224100  0.34265200  1
  P  P26  1  0.23059300  0.91173300  0.16211700  1
  P  P27  1  0.33853700  0.66800600  0.37268100  1
  P  P28  1  0.32857700  0.66051300  0.86834500  1
  P  P29  1  0.08814400  0.78170600  0.65831100  1
  P  P30  1  0.22958600  0.31907500  0.65808400  1
  P  P31  1  0.08705700  0.32151800  0.15694800  1
  O  O32  1  0.00529000  0.80300500  0.57657000  1
  O  O33  1  0.91215800  0.65551500  0.33505300  1
  O  O34  1  0.76040100  0.75231900  0.07048800  1
  O  O35  1  0.74897500  0.66281400  0.83542400  1
  O  O36  1  0.90574900  0.52385400  0.82503000  1
  O  O37  1  0.81507600  0.48455900  0.16835500  1
  O  O38  1  0.91693700  0.37842300  0.33249300  1
  O  O39  1  0.00414400  0.24851500  0.06522200  1
  O  O40  1  0.91766000  0.25399600  0.83495800  1
  O  O41  1  0.66066400  0.47952800  0.67907400  1
  O  O42  1  0.61797800  0.53637600  0.32854700  1
  O  O43  1  0.81040700  0.33691000  0.67033900  1
  O  O44  1  0.64190600  0.32682300  0.02789300  1
  O  O45  1  0.65468400  0.34351800  0.52359600  1
  O  O46  1  0.67033000  0.18571900  0.17101100  1
  O  O47  1  0.47792200  0.38266100  0.82412100  1
  O  O48  1  0.51698100  0.33554300  0.17997600  1
  O  O49  1  0.74687500  0.08199800  0.33685800  1
  O  O50  1  0.78966400  0.99751800  0.74976400  1
  O  O51  1  0.76809200  0.97732900  0.56927200  1
  O  O52  1  0.76025300  0.00819200  0.93100700  1
  O  O53  1  0.62014700  0.09688600  0.81734900  1
  O  O54  1  0.51087900  0.18501100  0.66656200  1
  O  O55  1  0.66217100  0.91502600  0.15746700  1
  O  O56  1  0.47307400  0.09357600  0.32975500  1
  O  O57  1  0.34095500  0.26231600  0.33355400  1
  O  O58  1  0.79225100  0.79242200  0.24771300  1
  O  O59  1  0.78626800  0.78881400  0.42472900  1
  O  O60  1  0.23432300  0.23034000  0.57218900  1
  O  O61  1  0.65871900  0.73758000  0.66929700  1
  O  O62  1  0.51972800  0.89323000  0.66932000  1
  O  O63  1  0.33614600  0.08540000  0.84304400  1
  O  O64  1  0.49391600  0.81256200  0.33894900  1
  O  O65  1  0.38131300  0.90091200  0.18216800  1
  O  O66  1  0.24611700  0.00128600  0.07241100  1
  O  O67  1  0.23258700  0.02381700  0.43273200  1
  O  O68  1  0.20893200  0.00223700  0.25106400  1
  O  O69  1  0.26147300  0.92177000  0.66405500  1
  O  O70  1  0.47502500  0.65973200  0.82156700  1
  O  O71  1  0.52239700  0.61941500  0.17829100  1
  O  O72  1  0.32851000  0.81388300  0.83376900  1
  O  O73  1  0.32795300  0.64900800  0.97329400  1
  O  O74  1  0.33888100  0.65124100  0.47865100  1
  O  O75  1  0.19665200  0.67502000  0.33014000  1
  O  O76  1  0.38084000  0.47993800  0.67081800  1
  O  O77  1  0.33097200  0.51310500  0.32891000  1
  O  O78  1  0.08386100  0.74798800  0.16180500  1
  O  O79  1  0.01192600  0.79750500  0.75609900  1
  O  O80  1  0.99989900  0.75999000  0.93276300  1
  O  O81  1  0.10018600  0.62975900  0.66347300  1
  O  O82  1  0.18017500  0.51593700  0.82224600  1
  O  O83  1  0.09447100  0.47880700  0.17848000  1
  O  O84  1  0.25521800  0.34160300  0.16053200  1
  O  O85  1  0.24139100  0.24594100  0.93047200  1
  O  O86  1  0.21056900  0.21420800  0.75110800  1
  O  O87  1  0.08815200  0.34473100  0.65613200  1
  O  O88  1  0.00776300  0.20528300  0.42054700  1
  O  O89  1  0.99234800  0.20391500  0.24119000  1
