# generated using pymatgen
data_Li4MnCo2O7
_symmetry_space_group_name_H-M   'P 1'
_cell_length_a   2.97162800
_cell_length_b   8.08711663
_cell_length_c   10.65642616
_cell_angle_alpha   78.33317376
_cell_angle_beta   85.81616478
_cell_angle_gamma   88.99517199
_symmetry_Int_Tables_number   1
_chemical_formula_structural   Li4MnCo2O7
_chemical_formula_sum   'Li8 Mn2 Co4 O14'
_cell_volume   250.13391916
_cell_formula_units_Z   2
loop_
 _symmetry_equiv_pos_site_id
 _symmetry_equiv_pos_as_xyz
  1  'x, y, z'
loop_
 _atom_site_type_symbol
 _atom_site_label
 _atom_site_symmetry_multiplicity
 _atom_site_fract_x
 _atom_site_fract_y
 _atom_site_fract_z
 _atom_site_occupancy
  Li  Li0  1  0.15008900  0.07636900  0.71305900  1
  Li  Li1  1  0.86328000  0.92832500  0.28166200  1
  Li  Li2  1  0.56341200  0.77471500  0.85705600  1
  Li  Li3  1  0.71082900  0.36720800  0.57511600  1
  Li  Li4  1  0.43089500  0.21851400  0.14358700  1
  Li  Li5  1  0.27241300  0.63626700  0.43623900  1
  Li  Li6  1  0.00533200  0.49666000  0.00031300  1
  Li  Li7  1  0.15841300  0.56873600  0.70602200  1
  Mn  Mn8  1  0.00410200  0.00086800  0.99981800  1
  Mn  Mn9  1  0.70733300  0.84998300  0.57442800  1
  Co  Co10  1  0.42343100  0.71211900  0.14378300  1
  Co  Co11  1  0.85437000  0.42839500  0.28679400  1
  Co  Co12  1  0.58559500  0.29845300  0.85082400  1
  Co  Co13  1  0.27167200  0.14495600  0.43035500  1
  O  O14  1  0.59960900  0.05339500  0.86072000  1
  O  O15  1  0.24791700  0.89970600  0.44504600  1
  O  O16  1  0.02801200  0.75630600  0.00293600  1
  O  O17  1  0.16798700  0.31877600  0.72566000  1
  O  O18  1  0.87794500  0.18710300  0.29304800  1
  O  O19  1  0.72280600  0.62503100  0.56800600  1
  O  O20  1  0.45231300  0.47362800  0.15135600  1
  O  O21  1  0.68508000  0.10043800  0.56157100  1
  O  O22  1  0.40187800  0.95178100  0.14256400  1
  O  O23  1  0.17386300  0.82650800  0.69647000  1
  O  O24  1  0.26371200  0.38392300  0.42084700  1
  O  O25  1  0.98001600  0.24224400  0.99531800  1
  O  O26  1  0.83244300  0.66884200  0.27675500  1
  O  O27  1  0.56525300  0.51074700  0.86064700  1
