# generated using pymatgen
data_Li2CrCo3O8
_symmetry_space_group_name_H-M   'P 1'
_cell_length_a   5.80746767
_cell_length_b   10.17609744
_cell_length_c   5.80559574
_cell_angle_alpha   73.10414500
_cell_angle_beta   59.20437499
_cell_angle_gamma   72.55438566
_symmetry_Int_Tables_number   1
_chemical_formula_structural   Li2CrCo3O8
_chemical_formula_sum   'Li4 Cr2 Co6 O16'
_cell_volume   277.19696709
_cell_formula_units_Z   2
loop_
 _symmetry_equiv_pos_site_id
 _symmetry_equiv_pos_as_xyz
  1  'x, y, z'
loop_
 _atom_site_type_symbol
 _atom_site_label
 _atom_site_symmetry_multiplicity
 _atom_site_fract_x
 _atom_site_fract_y
 _atom_site_fract_z
 _atom_site_occupancy
  Li  Li0  1  0.56410700  0.31840400  0.56270400  1
  Li  Li1  1  0.06402300  0.81810700  0.05274300  1
  Li  Li2  1  0.93596700  0.18190300  0.94725700  1
  Li  Li3  1  0.43588200  0.68160700  0.43729600  1
  Cr  Cr4  1  0.25372900  0.24985500  0.25270400  1
  Cr  Cr5  1  0.74632400  0.75012900  0.74728600  1
  Co  Co6  1  0.49999400  0.50000300  0.00000000  1
  Co  Co7  1  0.99999900  0.50000000  0.00000400  1
  Co  Co8  1  0.49999700  0.99999900  0.00000000  1
  Co  Co9  1  0.99999400  0.00000000  0.50000000  1
  Co  Co10  1  0.49999800  0.99999800  0.50000600  1
  Co  Co11  1  0.99999700  0.49999800  0.49999800  1
  O  O12  1  0.84960800  0.39024000  0.85912100  1
  O  O13  1  0.36800900  0.89688700  0.36931900  1
  O  O14  1  0.63197900  0.10311900  0.63068600  1
  O  O15  1  0.15038000  0.60976500  0.14088300  1
  O  O16  1  0.35386300  0.38884800  0.35585400  1
  O  O17  1  0.85669800  0.88454300  0.84698600  1
  O  O18  1  0.90424400  0.39195000  0.35843200  1
  O  O19  1  0.40156200  0.89216100  0.84998500  1
  O  O20  1  0.35771600  0.38836700  0.90807200  1
  O  O21  1  0.84561500  0.88515000  0.39670000  1
  O  O22  1  0.15438600  0.11485200  0.60330100  1
  O  O23  1  0.64227700  0.61163300  0.09193400  1
  O  O24  1  0.59845300  0.10783200  0.15001100  1
  O  O25  1  0.09576700  0.60804400  0.64156300  1
  O  O26  1  0.14329700  0.11545600  0.15301300  1
  O  O27  1  0.64613400  0.61115100  0.64414200  1
