# generated using pymatgen
data_Li4Mn3Cr2Sn(PO4)6
_symmetry_space_group_name_H-M   'P 1'
_cell_length_a   8.62050300
_cell_length_b   8.77859546
_cell_length_c   8.90712680
_cell_angle_alpha   61.30258075
_cell_angle_beta   61.77538940
_cell_angle_gamma   62.21722447
_symmetry_Int_Tables_number   1
_chemical_formula_structural   Li4Mn3Cr2Sn(PO4)6
_chemical_formula_sum   'Li4 Mn3 Cr2 Sn1 P6 O24'
_cell_volume   495.41811427
_cell_formula_units_Z   1
loop_
 _symmetry_equiv_pos_site_id
 _symmetry_equiv_pos_as_xyz
  1  'x, y, z'
loop_
 _atom_site_type_symbol
 _atom_site_label
 _atom_site_symmetry_multiplicity
 _atom_site_fract_x
 _atom_site_fract_y
 _atom_site_fract_z
 _atom_site_occupancy
  Li  Li0  1  0.74723700  0.14912300  0.35022300  1
  Li  Li1  1  0.29620400  0.84448400  0.64136300  1
  Li  Li2  1  0.63722900  0.30763100  0.84639100  1
  Li  Li3  1  0.85989200  0.63173100  0.31842800  1
  Mn  Mn4  1  0.15292400  0.15088700  0.14968200  1
  Mn  Mn5  1  0.34725400  0.35365500  0.34852200  1
  Mn  Mn6  1  0.65333300  0.65791000  0.65965100  1
  Cr  Cr7  1  0.01460000  0.99790100  0.00367400  1
  Cr  Cr8  1  0.49379500  0.49979500  0.50035100  1
  Sn  Sn9  1  0.85012100  0.84662000  0.85119800  1
  P  P10  1  0.24396800  0.55647500  0.94899100  1
  P  P11  1  0.57274400  0.95589400  0.24724600  1
  P  P12  1  0.92412700  0.24328200  0.53859800  1
  P  P13  1  0.06356300  0.74155800  0.44989200  1
  P  P14  1  0.43564200  0.04911300  0.75071600  1
  P  P15  1  0.74753500  0.43701600  0.05286900  1
  O  O16  1  0.10073700  0.28266200  0.48279100  1
  O  O17  1  0.28756900  0.53754300  0.10439100  1
  O  O18  1  0.06683900  0.90354700  0.27184500  1
  O  O19  1  0.57952000  0.09314100  0.30093400  1
  O  O20  1  0.01443000  0.80364000  0.61026900  1
  O  O21  1  0.25490000  0.59310600  0.44057600  1
  O  O22  1  0.24866100  0.07004900  0.90522500  1
  O  O23  1  0.44852300  0.23130700  0.59421900  1
  O  O24  1  0.16159400  0.41686100  0.99139700  1
  O  O25  1  0.60235000  0.42386500  0.24347700  1
  O  O26  1  0.10357100  0.76672500  0.89444200  1
  O  O27  1  0.41859200  0.03230700  0.17034800  1
  O  O28  1  0.59569700  0.98355500  0.82624800  1
  O  O29  1  0.90122400  0.24814800  0.07393000  1
  O  O30  1  0.40910400  0.56282200  0.76553800  1
  O  O31  1  0.81078200  0.60107500  0.00109700  1
  O  O32  1  0.56787700  0.76792500  0.40382500  1
  O  O33  1  0.77586400  0.90345200  0.09701400  1
  O  O34  1  0.74543500  0.41617200  0.55434100  1
  O  O35  1  0.92698700  0.17351100  0.41078200  1
  O  O36  1  0.45811300  0.90531500  0.68412700  1
  O  O37  1  0.88656800  0.10613000  0.74398400  1
  O  O38  1  0.67861500  0.46701700  0.90750800  1
  O  O39  1  0.91628200  0.66405100  0.48690000  1
