# generated using pymatgen
data_Li7Mn5O12
_symmetry_space_group_name_H-M   'P 1'
_cell_length_a   5.95706784
_cell_length_b   10.22070116
_cell_length_c   8.09065888
_cell_angle_alpha   69.03290525
_cell_angle_beta   74.44529146
_cell_angle_gamma   87.55221305
_symmetry_Int_Tables_number   1
_chemical_formula_structural   Li7Mn5O12
_chemical_formula_sum   'Li14 Mn10 O24'
_cell_volume   442.36190665
_cell_formula_units_Z   2
loop_
 _symmetry_equiv_pos_site_id
 _symmetry_equiv_pos_as_xyz
  1  'x, y, z'
loop_
 _atom_site_type_symbol
 _atom_site_label
 _atom_site_symmetry_multiplicity
 _atom_site_fract_x
 _atom_site_fract_y
 _atom_site_fract_z
 _atom_site_occupancy
  Li  Li0  1  0.16663700  0.83336500  0.33332800  1
  Li  Li1  1  0.66667700  0.83336600  0.33333200  1
  Li  Li2  1  0.91826800  0.06776600  0.34677100  1
  Li  Li3  1  0.41831200  0.06771200  0.34678500  1
  Li  Li4  1  0.91506900  0.59893300  0.31991600  1
  Li  Li5  1  0.41501800  0.59893400  0.31992300  1
  Li  Li6  1  0.08736200  0.41924700  0.66628000  1
  Li  Li7  1  0.58744600  0.41926300  0.66626900  1
  Li  Li8  1  0.74587100  0.24730300  0.00048600  1
  Li  Li9  1  0.24590700  0.24731000  0.00047400  1
  Li  Li10  1  0.27166700  0.75603800  0.02049200  1
  Li  Li11  1  0.77170900  0.75606000  0.02049600  1
  Li  Li12  1  0.06158400  0.91055800  0.64625200  1
  Li  Li13  1  0.56154800  0.91053900  0.64623500  1
  Mn  Mn14  1  0.66675400  0.33348300  0.33340300  1
  Mn  Mn15  1  0.00887800  0.99373900  0.01273200  1
  Mn  Mn16  1  0.32452200  0.67295300  0.65386700  1
  Mn  Mn17  1  0.84354600  0.16650100  0.67091200  1
  Mn  Mn18  1  0.48964900  0.50015200  0.99560300  1
  Mn  Mn19  1  0.16675100  0.33328100  0.33333700  1
  Mn  Mn20  1  0.50875700  0.99367300  0.01263800  1
  Mn  Mn21  1  0.82458500  0.67297800  0.65405000  1
  Mn  Mn22  1  0.34361200  0.16648700  0.67101800  1
  Mn  Mn23  1  0.98979700  0.50018600  0.99571100  1
  O  O24  1  0.20764000  0.03546200  0.14741500  1
  O  O25  1  0.70758100  0.03545400  0.14740700  1
  O  O26  1  0.12571700  0.63121000  0.51925300  1
  O  O27  1  0.62577400  0.63120800  0.51924400  1
  O  O28  1  0.89079800  0.36444100  0.50333900  1
  O  O29  1  0.39065300  0.36452800  0.50338800  1
  O  O30  1  0.94259400  0.30224400  0.16331100  1
  O  O31  1  0.44271900  0.30215300  0.16323800  1
  O  O32  1  0.01799800  0.69647900  0.81312300  1
  O  O33  1  0.51791500  0.69649800  0.81311700  1
  O  O34  1  0.81536100  0.97020300  0.85349700  1
  O  O35  1  0.31536300  0.97017000  0.85353100  1
  O  O36  1  0.86231200  0.86100400  0.51567400  1
  O  O37  1  0.36234200  0.86089800  0.51563700  1
  O  O38  1  0.97099700  0.80579600  0.15098700  1
  O  O39  1  0.47098900  0.80566400  0.15100900  1
  O  O40  1  0.06410900  0.19558600  0.83832900  1
  O  O41  1  0.56407200  0.19555400  0.83829400  1
  O  O42  1  0.76921100  0.47112200  0.82835400  1
  O  O43  1  0.26925100  0.47108500  0.82829600  1
  O  O44  1  0.21741200  0.53476900  0.16700700  1
  O  O45  1  0.71732300  0.53492800  0.16691400  1
  O  O46  1  0.11601700  0.13177500  0.49972300  1
  O  O47  1  0.61592500  0.13193800  0.49960500  1
