# generated using pymatgen
data_Li4MnCo2O7
_symmetry_space_group_name_H-M   'P 1'
_cell_length_a   16.99969151
_cell_length_b   16.99969151
_cell_length_c   5.19069531
_cell_angle_alpha   86.01398670
_cell_angle_beta   86.01398670
_cell_angle_gamma   9.74044882
_symmetry_Int_Tables_number   1
_chemical_formula_structural   Li4MnCo2O7
_chemical_formula_sum   'Li8 Mn2 Co4 O14'
_cell_volume   253.16901224
_cell_formula_units_Z   2
loop_
 _symmetry_equiv_pos_site_id
 _symmetry_equiv_pos_as_xyz
  1  'x, y, z'
loop_
 _atom_site_type_symbol
 _atom_site_label
 _atom_site_symmetry_multiplicity
 _atom_site_fract_x
 _atom_site_fract_y
 _atom_site_fract_z
 _atom_site_occupancy
  Li  Li0  1  0.49728500  0.49728500  0.50387700  1
  Li  Li1  1  0.07117000  0.07117000  0.63460700  1
  Li  Li2  1  0.64120800  0.64120800  0.78872000  1
  Li  Li3  1  0.21193000  0.21193000  0.93248500  1
  Li  Li4  1  0.78826400  0.78826400  0.06129900  1
  Li  Li5  1  0.92641300  0.92641300  0.35181200  1
  Li  Li6  1  0.36115000  0.36115000  0.23186100  1
  Li  Li7  1  0.43021900  0.43021900  0.85137400  1
  Mn  Mn8  1  0.99829300  0.99829300  0.98917200  1
  Mn  Mn9  1  0.28596100  0.28596100  0.57568000  1
  Co  Co10  1  0.57141700  0.57141700  0.14127100  1
  Co  Co11  1  0.14268500  0.14268500  0.27876600  1
  Co  Co12  1  0.71316200  0.71316200  0.42880500  1
  Co  Co13  1  0.86364800  0.86364800  0.74665000  1
  O  O14  1  0.46895000  0.46895000  0.16125100  1
  O  O15  1  0.03679200  0.03679200  0.28487900  1
  O  O16  1  0.60751200  0.60751200  0.44583300  1
  O  O17  1  0.18121300  0.18121300  0.58124100  1
  O  O18  1  0.75409000  0.75409000  0.74111600  1
  O  O19  1  0.88935700  0.88935700  0.03268000  1
  O  O20  1  0.32031300  0.32031300  0.84972000  1
  O  O21  1  0.53328900  0.53328900  0.84094000  1
  O  O22  1  0.10600900  0.10600900  0.97697500  1
  O  O23  1  0.67823100  0.67823100  0.11324200  1
  O  O24  1  0.24756400  0.24756400  0.29560800  1
  O  O25  1  0.81499400  0.81499400  0.40293600  1
  O  O26  1  0.96841500  0.96841500  0.70926500  1
  O  O27  1  0.39046700  0.39046700  0.54793300  1
