# generated using pymatgen
data_LiB6H21N5
_symmetry_space_group_name_H-M   'P 1'
_cell_length_a   8.81827900
_cell_length_b   9.81189400
_cell_length_c   17.73734749
_cell_angle_alpha   68.75694002
_cell_angle_beta   90.00000000
_cell_angle_gamma   90.00000000
_symmetry_Int_Tables_number   1
_chemical_formula_structural   LiB6H21N5
_chemical_formula_sum   'Li4 B24 H84 N20'
_cell_volume   1430.42598100
_cell_formula_units_Z   4
loop_
 _symmetry_equiv_pos_site_id
 _symmetry_equiv_pos_as_xyz
  1  'x, y, z'
loop_
 _atom_site_type_symbol
 _atom_site_label
 _atom_site_symmetry_multiplicity
 _atom_site_fract_x
 _atom_site_fract_y
 _atom_site_fract_z
 _atom_site_occupancy
  Li  Li0  1  0.10894700  0.45307700  0.14486800  1
  Li  Li1  1  0.60894700  0.54692300  0.35513200  1
  Li  Li2  1  0.89105300  0.54692300  0.85513200  1
  Li  Li3  1  0.39105300  0.45307700  0.64486800  1
  B  B4  1  0.41295500  0.04019000  0.07442300  1
  B  B5  1  0.91295500  0.95981000  0.42557700  1
  B  B6  1  0.58704500  0.95981000  0.92557700  1
  B  B7  1  0.08704500  0.04019000  0.57442300  1
  B  B8  1  0.58623400  0.94067000  0.09142300  1
  B  B9  1  0.08623400  0.05933000  0.40857700  1
  B  B10  1  0.41376600  0.05933000  0.90857700  1
  B  B11  1  0.91376600  0.94067000  0.59142300  1
  B  B12  1  0.58370300  0.12859300  0.02872500  1
  B  B13  1  0.08370300  0.87140700  0.47127500  1
  B  B14  1  0.41629700  0.87140700  0.97127500  1
  B  B15  1  0.91629700  0.12859300  0.52872500  1
  B  B16  1  0.41180800  0.16355300  0.97237600  1
  B  B17  1  0.91180800  0.83644700  0.52762400  1
  B  B18  1  0.58819200  0.83644700  0.02762400  1
  B  B19  1  0.08819200  0.16355300  0.47237600  1
  B  B20  1  0.30783900  0.99740200  0.00015600  1
  B  B21  1  0.80783900  0.00259800  0.49984400  1
  B  B22  1  0.69216100  0.00259800  0.99984400  1
  B  B23  1  0.19216100  0.99740200  0.50015600  1
  B  B24  1  0.41596800  0.85959700  0.07377200  1
  B  B25  1  0.91596800  0.14040300  0.42622800  1
  B  B26  1  0.58403200  0.14040300  0.92622800  1
  B  B27  1  0.08403200  0.85959700  0.57377200  1
  H  H28  1  0.39772900  0.36743700  0.14732400  1
  H  H29  1  0.89772900  0.63256300  0.35267600  1
  H  H30  1  0.60227100  0.63256300  0.85267600  1
  H  H31  1  0.10227100  0.36743700  0.64732400  1
  H  H32  1  0.37742700  0.52743700  0.07516900  1
  H  H33  1  0.87742700  0.47256300  0.42483100  1
  H  H34  1  0.62257300  0.47256300  0.92483100  1
  H  H35  1  0.12257300  0.52743700  0.57516900  1
  H  H36  1  0.33907300  0.37721200  0.05887600  1
  H  H37  1  0.83907300  0.62278800  0.44112400  1
  H  H38  1  0.66092700  0.62278800  0.94112400  1
  H  H39  1  0.16092700  0.37721200  0.55887600  1
  H  H40  1  0.10007600  0.72233900  0.04291800  1
  H  H41  1  0.60007600  0.27766100  0.45708200  1
  H  H42  1  0.89992400  0.27766100  0.95708200  1
  H  H43  1  0.39992400  0.72233900  0.54291800  1
  H  H44  1  0.98466900  0.63549000  0.00423600  1
  H  H45  1  0.48466900  0.36451000  0.49576400  1
  H  H46  1  0.01533100  0.36451000  0.99576400  1
  H  H47  1  0.51533100  0.63549000  0.50423600  1
  H  H48  1  0.92447500  0.69413100  0.07314300  1
  H  H49  1  0.42447500  0.30586900  0.42685700  1
  H  H50  1  0.07552500  0.30586900  0.92685700  1
  H  H51  1  0.57552500  0.69413100  0.57314300  1
  H  H52  1  0.01658900  0.18194300  0.15522900  1
  H  H53  1  0.51658900  0.81805700  0.34477100  1
  H  H54  1  0.98341100  0.81805700  0.84477100  1
  H  H55  1  0.48341100  0.18194300  0.65522900  1
  H  H56  1  0.85859400  0.27160700  0.14696900  1
  H  H57  1  0.35859400  0.72839300  0.35303100  1
  H  H58  1  0.14140600  0.72839300  0.85303100  1
  H  H59  1  0.64140600  0.27160700  0.64696900  1
  H  H60  1  0.95386200  0.21910700  0.23173200  1
  H  H61  1  0.45386200  0.78089300  0.26826800  1
  H  H62  1  0.04613800  0.78089300  0.76826800  1
  H  H63  1  0.54613800  0.21910700  0.73173200  1
  H  H64  1  0.11054800  0.58860300  0.25221000  1
  H  H65  1  0.61054800  0.41139700  0.24779000  1
  H  H66  1  0.88945200  0.41139700  0.74779000  1
  H  H67  1  0.38945200  0.58860300  0.75221000  1
  H  H68  1  0.10772500  0.41122300  0.30592800  1
  H  H69  1  0.60772500  0.58877700  0.19407200  1
  H  H70  1  0.89227500  0.58877700  0.69407200  1
  H  H71  1  0.39227500  0.41122300  0.80592800  1
  H  H72  1  0.26355400  0.48926500  0.26214500  1
  H  H73  1  0.76355400  0.51073500  0.23785500  1
  H  H74  1  0.73644600  0.51073500  0.73785500  1
  H  H75  1  0.23644600  0.48926500  0.76214500  1
  H  H76  1  0.43256700  0.13578000  0.30503200  1
  H  H77  1  0.93256700  0.86422000  0.19496800  1
  H  H78  1  0.56743300  0.86422000  0.69496800  1
  H  H79  1  0.06743300  0.13578000  0.80503200  1
  H  H80  1  0.61742100  0.12757800  0.31394100  1
  H  H81  1  0.11742100  0.87242200  0.18605900  1
  H  H82  1  0.38257900  0.87242200  0.68605900  1
  H  H83  1  0.88257900  0.12757800  0.81394100  1
  H  H84  1  0.53653600  0.12009600  0.23214000  1
  H  H85  1  0.03653600  0.87990400  0.26786000  1
  H  H86  1  0.46346400  0.87990400  0.76786000  1
  H  H87  1  0.96346400  0.12009600  0.73214000  1
  H  H88  1  0.35099000  0.06862600  0.12743900  1
  H  H89  1  0.85099000  0.93137400  0.37256100  1
  H  H90  1  0.64901000  0.93137400  0.87256100  1
  H  H91  1  0.14901000  0.06862600  0.62743900  1
  H  H92  1  0.64738400  0.89881900  0.15659800  1
  H  H93  1  0.14738400  0.10118100  0.34340200  1
  H  H94  1  0.35261600  0.10118100  0.84340200  1
  H  H95  1  0.85261600  0.89881900  0.65659800  1
  H  H96  1  0.64335400  0.21982600  0.04950800  1
  H  H97  1  0.14335400  0.78017400  0.45049200  1
  H  H98  1  0.35664600  0.78017400  0.95049200  1
  H  H99  1  0.85664600  0.21982600  0.54950800  1
  H  H100  1  0.34867400  0.28043300  0.95278700  1
  H  H101  1  0.84867400  0.71956700  0.54721300  1
  H  H102  1  0.65132600  0.71956700  0.04721300  1
  H  H103  1  0.15132600  0.28043300  0.45278700  1
  H  H104  1  0.17161400  0.99566600  0.00017700  1
  H  H105  1  0.67161400  0.00433400  0.49982300  1
  H  H106  1  0.82838600  0.00433400  0.99982300  1
  H  H107  1  0.32838600  0.99566600  0.50017700  1
  H  H108  1  0.35564200  0.75983600  0.12650900  1
  H  H109  1  0.85564200  0.24016400  0.37349100  1
  H  H110  1  0.64435800  0.24016400  0.87349100  1
  H  H111  1  0.14435800  0.75983600  0.62650900  1
  N  N112  1  0.32821100  0.42647500  0.10056900  1
  N  N113  1  0.82821100  0.57352500  0.39943100  1
  N  N114  1  0.67178900  0.57352500  0.89943100  1
  N  N115  1  0.17178900  0.42647500  0.60056900  1
  N  N116  1  0.01561100  0.64529800  0.05765600  1
  N  N117  1  0.51561100  0.35470200  0.44234400  1
  N  N118  1  0.98438900  0.35470200  0.94234400  1
  N  N119  1  0.48438900  0.64529800  0.55765600  1
  N  N120  1  0.96616300  0.26255400  0.17004700  1
  N  N121  1  0.46616300  0.73744600  0.32995300  1
  N  N122  1  0.03383700  0.73744600  0.82995300  1
  N  N123  1  0.53383700  0.26255400  0.67004700  1
  N  N124  1  0.14881300  0.48853700  0.25393700  1
  N  N125  1  0.64881300  0.51146300  0.24606300  1
  N  N126  1  0.85118700  0.51146300  0.74606300  1
  N  N127  1  0.35118700  0.48853700  0.75393700  1
  N  N128  1  0.53134400  0.17025200  0.27351600  1
  N  N129  1  0.03134400  0.82974800  0.22648400  1
  N  N130  1  0.46865600  0.82974800  0.72648400  1
  N  N131  1  0.96865600  0.17025200  0.77351600  1
