# generated using pymatgen
data_LiB(H3N)4
_symmetry_space_group_name_H-M   'P 1'
_cell_length_a   6.58163200
_cell_length_b   7.83825900
_cell_length_c   12.08610600
_cell_angle_alpha   90.00000000
_cell_angle_beta   90.00000000
_cell_angle_gamma   90.00000000
_symmetry_Int_Tables_number   1
_chemical_formula_structural   LiB(H3N)4
_chemical_formula_sum   'Li4 B4 H48 N16'
_cell_volume   623.50451761
_cell_formula_units_Z   4
loop_
 _symmetry_equiv_pos_site_id
 _symmetry_equiv_pos_as_xyz
  1  'x, y, z'
loop_
 _atom_site_type_symbol
 _atom_site_label
 _atom_site_symmetry_multiplicity
 _atom_site_fract_x
 _atom_site_fract_y
 _atom_site_fract_z
 _atom_site_occupancy
  Li  Li0  1  0.51807400  0.26547900  0.75923000  1
  Li  Li1  1  0.48192600  0.76547900  0.24077000  1
  Li  Li2  1  0.51807400  0.76547900  0.74077000  1
  Li  Li3  1  0.48192600  0.26547900  0.25923000  1
  B  B4  1  0.20515300  0.52394900  0.00032700  1
  B  B5  1  0.79484700  0.02394900  0.99967300  1
  B  B6  1  0.20515300  0.02394900  0.49967300  1
  B  B7  1  0.79484700  0.52394900  0.50032700  1
  H  H8  1  0.09985000  0.52291100  0.08537100  1
  H  H9  1  0.90015000  0.02291100  0.91462900  1
  H  H10  1  0.09985000  0.02291100  0.41462900  1
  H  H11  1  0.90015000  0.52291100  0.58537100  1
  H  H12  1  0.30575700  0.39156500  0.99554400  1
  H  H13  1  0.69424300  0.89156500  0.00445600  1
  H  H14  1  0.30575700  0.89156500  0.50445600  1
  H  H15  1  0.69424300  0.39156500  0.49554400  1
  H  H16  1  0.31795100  0.64942100  0.00107500  1
  H  H17  1  0.68204900  0.14942100  0.99892500  1
  H  H18  1  0.31795100  0.14942100  0.49892500  1
  H  H19  1  0.68204900  0.64942100  0.50107500  1
  H  H20  1  0.09075800  0.53098700  0.91923100  1
  H  H21  1  0.90924200  0.03098700  0.08076900  1
  H  H22  1  0.09075800  0.03098700  0.58076900  1
  H  H23  1  0.90924200  0.53098700  0.41923100  1
  H  H24  1  0.84792000  0.66839100  0.84458400  1
  H  H25  1  0.15208000  0.16839100  0.15541600  1
  H  H26  1  0.84792000  0.16839100  0.65541600  1
  H  H27  1  0.15208000  0.66839100  0.34458400  1
  H  H28  1  0.80782300  0.56971800  0.72554900  1
  H  H29  1  0.19217700  0.06971800  0.27445100  1
  H  H30  1  0.80782300  0.06971800  0.77445100  1
  H  H31  1  0.19217700  0.56971800  0.22554900  1
  H  H32  1  0.58440600  0.47926200  0.91613800  1
  H  H33  1  0.41559400  0.97926200  0.08386200  1
  H  H34  1  0.58440600  0.97926200  0.58386200  1
  H  H35  1  0.41559400  0.47926200  0.41613800  1
  H  H36  1  0.81067500  0.39794200  0.89460900  1
  H  H37  1  0.18932500  0.89794200  0.10539100  1
  H  H38  1  0.81067500  0.89794200  0.60539100  1
  H  H39  1  0.18932500  0.39794200  0.39460900  1
  H  H40  1  0.17479200  0.63913500  0.65548000  1
  H  H41  1  0.82520800  0.13913500  0.34452000  1
  H  H42  1  0.17479200  0.13913500  0.84452000  1
  H  H43  1  0.82520800  0.63913500  0.15548000  1
  H  H44  1  0.23419000  0.56499600  0.77920600  1
  H  H45  1  0.76581000  0.06499600  0.22079400  1
  H  H46  1  0.23419000  0.06499600  0.72079400  1
  H  H47  1  0.76581000  0.56499600  0.27920600  1
  H  H48  1  0.45881300  0.45114400  0.59451800  1
  H  H49  1  0.54118700  0.95114400  0.40548200  1
  H  H50  1  0.45881300  0.95114400  0.90548200  1
  H  H51  1  0.54118700  0.45114400  0.09451800  1
  H  H52  1  0.23310200  0.36864100  0.61730100  1
  H  H53  1  0.76689800  0.86864100  0.38269900  1
  H  H54  1  0.23310200  0.86864100  0.88269900  1
  H  H55  1  0.76689800  0.36864100  0.11730100  1
  N  N56  1  0.68558500  0.44708900  0.85501500  1
  N  N57  1  0.31441500  0.94708900  0.14498500  1
  N  N58  1  0.68558500  0.94708900  0.64498500  1
  N  N59  1  0.31441500  0.44708900  0.35501500  1
  N  N60  1  0.74046500  0.60397500  0.79882500  1
  N  N61  1  0.25953500  0.10397500  0.20117500  1
  N  N62  1  0.74046500  0.10397500  0.70117500  1
  N  N63  1  0.25953500  0.60397500  0.29882500  1
  N  N64  1  0.35323900  0.42706000  0.65520900  1
  N  N65  1  0.64676100  0.92706000  0.34479100  1
  N  N66  1  0.35323900  0.92706000  0.84479100  1
  N  N67  1  0.64676100  0.42706000  0.15520900  1
  N  N68  1  0.29194900  0.58957600  0.70148100  1
  N  N69  1  0.70805100  0.08957600  0.29851900  1
  N  N70  1  0.29194900  0.08957600  0.79851900  1
  N  N71  1  0.70805100  0.58957600  0.20148100  1
