# generated using pymatgen
data_Li2CrCo3O8
_symmetry_space_group_name_H-M   'P 1'
_cell_length_a   8.19434300
_cell_length_b   8.32124447
_cell_length_c   8.32163138
_cell_angle_alpha   89.97577043
_cell_angle_beta   89.85762159
_cell_angle_gamma   89.60328290
_symmetry_Int_Tables_number   1
_chemical_formula_structural   Li2CrCo3O8
_chemical_formula_sum   'Li8 Cr4 Co12 O32'
_cell_volume   567.41277150
_cell_formula_units_Z   4
loop_
 _symmetry_equiv_pos_site_id
 _symmetry_equiv_pos_as_xyz
  1  'x, y, z'
loop_
 _atom_site_type_symbol
 _atom_site_label
 _atom_site_symmetry_multiplicity
 _atom_site_fract_x
 _atom_site_fract_y
 _atom_site_fract_z
 _atom_site_occupancy
  Li  Li0  1  0.99877700  0.99812800  0.00156000  1
  Li  Li1  1  0.25143400  0.25148000  0.24747100  1
  Li  Li2  1  0.24998700  0.75212300  0.74687300  1
  Li  Li3  1  0.50181400  0.99665000  0.50277200  1
  Li  Li4  1  0.50118800  0.50101400  0.00298000  1
  Li  Li5  1  0.74794600  0.25012700  0.74732300  1
  Li  Li6  1  0.74825500  0.74968200  0.24961200  1
  Li  Li7  1  0.99927600  0.50073500  0.50198700  1
  Cr  Cr8  1  0.12255200  0.87053700  0.37739100  1
  Cr  Cr9  1  0.37935900  0.12120600  0.87255800  1
  Cr  Cr10  1  0.62572600  0.62803200  0.62109900  1
  Cr  Cr11  1  0.87281100  0.37804900  0.12769600  1
  Co  Co12  1  0.12366800  0.12212600  0.62690000  1
  Co  Co13  1  0.13292400  0.37680800  0.87681500  1
  Co  Co14  1  0.12645100  0.62852100  0.12816200  1
  Co  Co15  1  0.37534100  0.37661600  0.62238000  1
  Co  Co16  1  0.37638800  0.62349200  0.37450700  1
  Co  Co17  1  0.38325600  0.87139400  0.12242100  1
  Co  Co18  1  0.62463400  0.37823100  0.37369400  1
  Co  Co19  1  0.62401600  0.12501300  0.12556800  1
  Co  Co20  1  0.62546400  0.87559100  0.87216500  1
  Co  Co21  1  0.87142800  0.12263900  0.37991000  1
  Co  Co22  1  0.87244600  0.87377900  0.62614500  1
  Co  Co23  1  0.87347400  0.62792900  0.87327600  1
  O  O24  1  0.10393300  0.11181900  0.38183300  1
  O  O25  1  0.10442700  0.88608900  0.61595100  1
  O  O26  1  0.11042400  0.60844600  0.88638900  1
  O  O27  1  0.14196200  0.14294700  0.87301600  1
  O  O28  1  0.11612700  0.39086200  0.10815400  1
  O  O29  1  0.13546400  0.36011500  0.64285200  1
  O  O30  1  0.14323000  0.63176200  0.36433400  1
  O  O31  1  0.13651300  0.85768800  0.13570700  1
  O  O32  1  0.36330400  0.13052500  0.64185300  1
  O  O33  1  0.36895500  0.36382800  0.86454300  1
  O  O34  1  0.35909400  0.62964500  0.14525000  1
  O  O35  1  0.38277400  0.61841700  0.60017100  1
  O  O36  1  0.36656000  0.85142400  0.36574800  1
  O  O37  1  0.39235100  0.39423000  0.37999800  1
  O  O38  1  0.38880900  0.11447400  0.10955900  1
  O  O39  1  0.39128200  0.88581200  0.87967300  1
  O  O40  1  0.61421500  0.38601800  0.60235900  1
  O  O41  1  0.60827300  0.60896900  0.38097000  1
  O  O42  1  0.61625800  0.88243100  0.10235600  1
  O  O43  1  0.63036700  0.36815700  0.14845300  1
  O  O44  1  0.61089500  0.10610100  0.88148900  1
  O  O45  1  0.63892400  0.14712000  0.36897900  1
  O  O46  1  0.64362700  0.86620200  0.64093600  1
  O  O47  1  0.64209700  0.64295800  0.86279300  1
  O  O48  1  0.85345400  0.37111200  0.36671300  1
  O  O49  1  0.85991900  0.13845900  0.13946400  1
  O  O50  1  0.86146800  0.86054300  0.85738500  1
  O  O51  1  0.87929700  0.87916200  0.39861000  1
  O  O52  1  0.86913200  0.64611100  0.63506900  1
  O  O53  1  0.88197100  0.10234800  0.61639700  1
  O  O54  1  0.88142400  0.39760700  0.88699300  1
  O  O55  1  0.89485300  0.61884700  0.11487500  1
