# generated using pymatgen
data_Li4MnCo2O7
_symmetry_space_group_name_H-M   'P 1'
_cell_length_a   3.02235000
_cell_length_b   5.11547089
_cell_length_c   17.10205358
_cell_angle_alpha   85.44302499
_cell_angle_beta   88.39904602
_cell_angle_gamma   75.55956793
_symmetry_Int_Tables_number   1
_chemical_formula_structural   Li4MnCo2O7
_chemical_formula_sum   'Li8 Mn2 Co4 O14'
_cell_volume   255.23857143
_cell_formula_units_Z   2
loop_
 _symmetry_equiv_pos_site_id
 _symmetry_equiv_pos_as_xyz
  1  'x, y, z'
loop_
 _atom_site_type_symbol
 _atom_site_label
 _atom_site_symmetry_multiplicity
 _atom_site_fract_x
 _atom_site_fract_y
 _atom_site_fract_z
 _atom_site_occupancy
  Li  Li0  1  0.71824100  0.57002600  0.92708100  1
  Li  Li1  1  0.14203800  0.71466300  0.78557600  1
  Li  Li2  1  0.56491500  0.85422700  0.64185200  1
  Li  Li3  1  0.00084000  0.99327700  0.50085100  1
  Li  Li4  1  0.42758900  0.14915700  0.35654300  1
  Li  Li5  1  0.86268700  0.28894500  0.21684800  1
  Li  Li6  1  0.28543500  0.42734900  0.07098600  1
  Li  Li7  1  0.71452900  0.57102200  0.42923800  1
  Mn  Mn8  1  0.99066200  0.00110400  0.99928700  1
  Mn  Mn9  1  0.57535600  0.85575700  0.14588300  1
  Co  Co10  1  0.42245000  0.14314100  0.85415300  1
  Co  Co11  1  0.85560300  0.28672100  0.71161900  1
  Co  Co12  1  0.28354300  0.43404100  0.56570600  1
  Co  Co13  1  0.15570100  0.70851900  0.29360700  1
  O  O14  1  0.32343700  0.27330600  0.95895300  1
  O  O15  1  0.79966000  0.41165100  0.81584900  1
  O  O16  1  0.23590200  0.54681100  0.67175200  1
  O  O17  1  0.63142100  0.68730500  0.53884000  1
  O  O18  1  0.07042300  0.85389900  0.38310800  1
  O  O19  1  0.48504300  0.98009100  0.24979000  1
  O  O20  1  0.90285600  0.13183500  0.10504800  1
  O  O21  1  0.04389400  0.87722200  0.89368900  1
  O  O22  1  0.48721500  0.01534400  0.75142600  1
  O  O23  1  0.95279700  0.16343400  0.60963300  1
  O  O24  1  0.35866500  0.28893400  0.47602900  1
  O  O25  1  0.80589300  0.45539700  0.31984600  1
  O  O26  1  0.23402100  0.59085000  0.18699000  1
  O  O27  1  0.66918300  0.72597200  0.03981900  1
