# generated using pymatgen
data_Li4MnCo2O7
_symmetry_space_group_name_H-M   'P 1'
_cell_length_a   14.83596841
_cell_length_b   14.83596841
_cell_length_c   5.94359287
_cell_angle_alpha   83.83805263
_cell_angle_beta   83.83805263
_cell_angle_gamma   11.15767400
_symmetry_Int_Tables_number   1
_chemical_formula_structural   Li4MnCo2O7
_chemical_formula_sum   'Li8 Mn2 Co4 O14'
_cell_volume   251.67662460
_cell_formula_units_Z   2
loop_
 _symmetry_equiv_pos_site_id
 _symmetry_equiv_pos_as_xyz
  1  'x, y, z'
loop_
 _atom_site_type_symbol
 _atom_site_label
 _atom_site_symmetry_multiplicity
 _atom_site_fract_x
 _atom_site_fract_y
 _atom_site_fract_z
 _atom_site_occupancy
  Li  Li0  1  0.93304700  0.93304700  0.79090500  1
  Li  Li1  1  0.06695300  0.06695300  0.20909500  1
  Li  Li2  1  0.21446200  0.21446200  0.64665600  1
  Li  Li3  1  0.50000000  0.50000000  0.50000000  1
  Li  Li4  1  0.64024000  0.64024000  0.92737200  1
  Li  Li5  1  0.78553800  0.78553800  0.35334400  1
  Li  Li6  1  0.35976000  0.35976000  0.07262800  1
  Li  Li7  1  0.50000000  0.50000000  0.00000000  1
  Mn  Mn8  1  0.35726400  0.35726400  0.56702700  1
  Mn  Mn9  1  0.64273600  0.64273600  0.43297300  1
  Co  Co10  1  0.78498600  0.78498600  0.86236400  1
  Co  Co11  1  0.93632000  0.93632000  0.26982500  1
  Co  Co12  1  0.06368000  0.06368000  0.73017500  1
  Co  Co13  1  0.21501400  0.21501400  0.13763600  1
  O  O14  1  0.85694600  0.85694600  0.79071100  1
  O  O15  1  0.99677500  0.99677500  0.25799900  1
  O  O16  1  0.14471100  0.14471100  0.64817500  1
  O  O17  1  0.42211700  0.42211700  0.51728600  1
  O  O18  1  0.57284000  0.57284000  0.94393700  1
  O  O19  1  0.70989600  0.70989600  0.38269300  1
  O  O20  1  0.28477000  0.28477000  0.10024500  1
  O  O21  1  0.00322500  0.00322500  0.74200100  1
  O  O22  1  0.14305400  0.14305400  0.20928900  1
  O  O23  1  0.29010400  0.29010400  0.61730700  1
  O  O24  1  0.57788300  0.57788300  0.48271400  1
  O  O25  1  0.71523000  0.71523000  0.89975500  1
  O  O26  1  0.85528900  0.85528900  0.35182500  1
  O  O27  1  0.42716000  0.42716000  0.05606300  1
