# generated using pymatgen
data_Li5Mn8(BO3)8
_symmetry_space_group_name_H-M   'P 1'
_cell_length_a   5.32217300
_cell_length_b   9.10645149
_cell_length_c   10.42225084
_cell_angle_alpha   89.90108832
_cell_angle_beta   87.44258480
_cell_angle_gamma   89.84003760
_symmetry_Int_Tables_number   1
_chemical_formula_structural   Li5Mn8(BO3)8
_chemical_formula_sum   'Li5 Mn8 B8 O24'
_cell_volume   504.62024259
_cell_formula_units_Z   1
loop_
 _symmetry_equiv_pos_site_id
 _symmetry_equiv_pos_as_xyz
  1  'x, y, z'
loop_
 _atom_site_type_symbol
 _atom_site_label
 _atom_site_symmetry_multiplicity
 _atom_site_fract_x
 _atom_site_fract_y
 _atom_site_fract_z
 _atom_site_occupancy
  Li  Li0  1  0.16196600  0.99786300  0.85251900  1
  Li  Li1  1  0.63449100  0.51773900  0.33284600  1
  Li  Li2  1  0.64518400  0.48877700  0.83527800  1
  Li  Li3  1  0.84428800  0.99888700  0.08768600  1
  Li  Li4  1  0.86483800  0.00737500  0.57977300  1
  Mn  Mn5  1  0.14855400  0.30831200  0.36608500  1
  Mn  Mn6  1  0.15270800  0.67496100  0.86468600  1
  Mn  Mn7  1  0.33209300  0.82895500  0.12760600  1
  Mn  Mn8  1  0.34593000  0.17115600  0.62262800  1
  Mn  Mn9  1  0.65452000  0.84757900  0.37118000  1
  Mn  Mn10  1  0.65402800  0.16269300  0.87524700  1
  Mn  Mn11  1  0.83759400  0.34531200  0.11994600  1
  Mn  Mn12  1  0.83654500  0.65561800  0.61445700  1
  B  B13  1  0.15956100  0.65346400  0.37133800  1
  B  B14  1  0.15804900  0.33934500  0.87480000  1
  B  B15  1  0.33197600  0.16110600  0.12305600  1
  B  B16  1  0.33706200  0.83443200  0.63610600  1
  B  B17  1  0.67795000  0.17995200  0.37375400  1
  B  B18  1  0.67099800  0.82771600  0.87073700  1
  B  B19  1  0.83324200  0.68431500  0.11962100  1
  B  B20  1  0.83594600  0.31408100  0.62535400  1
  O  O21  1  0.06434800  0.69415400  0.04858700  1
  O  O22  1  0.05873900  0.29681400  0.55091200  1
  O  O23  1  0.19438600  0.03875200  0.09989100  1
  O  O24  1  0.21621100  0.28570900  0.17974500  1
  O  O25  1  0.19789400  0.96145600  0.64874000  1
  O  O26  1  0.22492900  0.70049100  0.67865000  1
  O  O27  1  0.27883000  0.52106400  0.37307500  1
  O  O28  1  0.28727700  0.77882600  0.32709300  1
  O  O29  1  0.26932700  0.20635800  0.83383000  1
  O  O30  1  0.29164700  0.46671300  0.87207400  1
  O  O31  1  0.42757200  0.18414900  0.41516100  1
  O  O32  1  0.41283000  0.83157500  0.89986000  1
  O  O33  1  0.58852300  0.16795100  0.08432500  1
  O  O34  1  0.58298900  0.83428700  0.58297000  1
  O  O35  1  0.72302100  0.55446800  0.14943700  1
  O  O36  1  0.72541800  0.81762300  0.16259100  1
  O  O37  1  0.72630400  0.18228000  0.67160000  1
  O  O38  1  0.73429100  0.44601300  0.65597100  1
  O  O39  1  0.78488500  0.31296500  0.32594900  1
  O  O40  1  0.81537600  0.05534400  0.38797400  1
  O  O41  1  0.78080300  0.69489000  0.82782100  1
  O  O42  1  0.81247200  0.95124900  0.88928800  1
  O  O43  1  0.90387500  0.66814300  0.41427100  1
  O  O44  1  0.90283900  0.33678400  0.91919500  1
