# generated using pymatgen
data_Li9Co7O16
_symmetry_space_group_name_H-M   'P 1'
_cell_length_a   2.98362000
_cell_length_b   9.74424399
_cell_length_c   10.11371034
_cell_angle_alpha   77.44947545
_cell_angle_beta   89.18801387
_cell_angle_gamma   88.67283281
_symmetry_Int_Tables_number   1
_chemical_formula_structural   Li9Co7O16
_chemical_formula_sum   'Li9 Co7 O16'
_cell_volume   286.92146617
_cell_formula_units_Z   1
loop_
 _symmetry_equiv_pos_site_id
 _symmetry_equiv_pos_as_xyz
  1  'x, y, z'
loop_
 _atom_site_type_symbol
 _atom_site_label
 _atom_site_symmetry_multiplicity
 _atom_site_fract_x
 _atom_site_fract_y
 _atom_site_fract_z
 _atom_site_occupancy
  Li  Li0  1  0.00286200  0.49977200  0.75578900  1
  Li  Li1  1  0.50217300  0.24895700  0.37283200  1
  Li  Li2  1  0.00000000  0.00000000  0.00000000  1
  Li  Li3  1  0.49782700  0.75104300  0.62716800  1
  Li  Li4  1  0.49889500  0.24849600  0.87855900  1
  Li  Li5  1  0.00000000  0.00000000  0.50000000  1
  Li  Li6  1  0.50110500  0.75150400  0.12144100  1
  Li  Li7  1  0.99713800  0.50022800  0.24421100  1
  Li  Li8  1  0.50000000  0.50000000  0.00000000  1
  Co  Co9  1  0.00171100  0.73959300  0.87926500  1
  Co  Co10  1  0.99828900  0.26040700  0.12073500  1
  Co  Co11  1  0.50000000  0.50000000  0.50000000  1
  Co  Co12  1  0.50303000  0.99724700  0.75063000  1
  Co  Co13  1  0.00249900  0.75075100  0.36963800  1
  Co  Co14  1  0.99750100  0.24924900  0.63036200  1
  Co  Co15  1  0.49697000  0.00275300  0.24937000  1
  O  O16  1  0.47001400  0.63408600  0.81733200  1
  O  O17  1  0.98796000  0.37705700  0.44991500  1
  O  O18  1  0.45889900  0.12575400  0.07406100  1
  O  O19  1  0.00872900  0.86963400  0.70390600  1
  O  O20  1  0.99749000  0.35988600  0.95553600  1
  O  O21  1  0.50323400  0.12236900  0.57301400  1
  O  O22  1  0.00128900  0.87809300  0.19581200  1
  O  O23  1  0.51246400  0.62964500  0.31615700  1
  O  O24  1  0.48753600  0.37035500  0.68384300  1
  O  O25  1  0.99127100  0.13036600  0.29609400  1
  O  O26  1  0.54110100  0.87424600  0.92593900  1
  O  O27  1  0.01204000  0.62294300  0.55008500  1
  O  O28  1  0.99871100  0.12190700  0.80418800  1
  O  O29  1  0.49676600  0.87763100  0.42698600  1
  O  O30  1  0.00251000  0.64011400  0.04446400  1
  O  O31  1  0.52998600  0.36591400  0.18266800  1
