# generated using pymatgen
data_Li2V3CoO8
_symmetry_space_group_name_H-M   'P 1'
_cell_length_a   5.81564946
_cell_length_b   10.24384775
_cell_length_c   5.97644885
_cell_angle_alpha   89.47252224
_cell_angle_beta   120.12909418
_cell_angle_gamma   106.98398156
_symmetry_Int_Tables_number   1
_chemical_formula_structural   Li2V3CoO8
_chemical_formula_sum   'Li4 V6 Co2 O16'
_cell_volume   290.41905065
_cell_formula_units_Z   2
loop_
 _symmetry_equiv_pos_site_id
 _symmetry_equiv_pos_as_xyz
  1  'x, y, z'
loop_
 _atom_site_type_symbol
 _atom_site_label
 _atom_site_symmetry_multiplicity
 _atom_site_fract_x
 _atom_site_fract_y
 _atom_site_fract_z
 _atom_site_occupancy
  Li  Li0  1  0.62902300  0.43797800  0.31755500  1
  Li  Li1  1  0.62793100  0.94017800  0.81150500  1
  Li  Li2  1  0.37071700  0.06197500  0.18241200  1
  Li  Li3  1  0.37170800  0.56001800  0.68818500  1
  V  V4  1  0.99879800  0.50007700  0.00129000  1
  V  V5  1  0.00073300  0.25040000  0.25002000  1
  V  V6  1  0.99987200  0.24981100  0.74980700  1
  V  V7  1  0.00024800  0.00008600  0.49827700  1
  V  V8  1  0.00035700  0.74998900  0.75046700  1
  V  V9  1  0.99973000  0.75006800  0.25022900  1
  Co  Co10  1  0.50035600  0.75005900  0.25015300  1
  Co  Co11  1  0.49996600  0.24989900  0.75016000  1
  O  O12  1  0.78452900  0.12649900  0.37688000  1
  O  O13  1  0.78521000  0.62447900  0.90268400  1
  O  O14  1  0.21530200  0.37295900  0.12188800  1
  O  O15  1  0.21431000  0.87532900  0.59798100  1
  O  O16  1  0.75917300  0.86918700  0.15565100  1
  O  O17  1  0.76351700  0.37442900  0.66464100  1
  O  O18  1  0.76593100  0.64602000  0.37298600  1
  O  O19  1  0.76191300  0.14483600  0.88885300  1
  O  O20  1  0.75184500  0.86990100  0.59244000  1
  O  O21  1  0.74916800  0.36348100  0.09761100  1
  O  O22  1  0.24868400  0.63040600  0.90877500  1
  O  O23  1  0.24977200  0.13615500  0.40179400  1
  O  O24  1  0.23444700  0.85377000  0.12767200  1
  O  O25  1  0.23810900  0.35518900  0.61083500  1
  O  O26  1  0.24099000  0.63086900  0.34371300  1
  O  O27  1  0.23765900  0.12595200  0.83553500  1
