# generated using pymatgen
data_LiSn
_symmetry_space_group_name_H-M   'P 1'
_cell_length_a   13.41148033
_cell_length_b   13.41148033
_cell_length_c   13.41148033
_cell_angle_alpha   160.92307359
_cell_angle_beta   160.92307359
_cell_angle_gamma   27.10648742
_symmetry_Int_Tables_number   1
_chemical_formula_structural   LiSn
_chemical_formula_sum   'Li6 Sn6'
_cell_volume   257.58482936
_cell_formula_units_Z   6
loop_
 _symmetry_equiv_pos_site_id
 _symmetry_equiv_pos_as_xyz
  1  'x, y, z'
loop_
 _atom_site_type_symbol
 _atom_site_label
 _atom_site_symmetry_multiplicity
 _atom_site_fract_x
 _atom_site_fract_y
 _atom_site_fract_z
 _atom_site_occupancy
  Li  Li0  1  0.66333700  0.66333700  0.00000000  1
  Li  Li1  1  0.41333700  0.91333700  0.50000000  1
  Li  Li2  1  0.08666300  0.58666300  0.50000000  1
  Li  Li3  1  0.33666300  0.33666300  0.00000000  1
  Li  Li4  1  0.25000000  0.75000000  0.50000000  1
  Li  Li5  1  0.50000000  0.50000000  0.00000000  1
  Sn  Sn6  1  0.75000000  0.25000000  0.50000000  1
  Sn  Sn7  1  0.00000000  0.00000000  0.00000000  1
  Sn  Sn8  1  0.83007300  0.83007300  0.00000000  1
  Sn  Sn9  1  0.58007300  0.08007300  0.50000000  1
  Sn  Sn10  1  0.91992700  0.41992700  0.50000000  1
  Sn  Sn11  1  0.16992700  0.16992700  0.00000000  1
