# generated using pymatgen
data_Li9Mn2Co5O16
_symmetry_space_group_name_H-M   'P 1'
_cell_length_a   5.06936700
_cell_length_b   5.75631035
_cell_length_c   9.77621812
_cell_angle_alpha   97.77017506
_cell_angle_beta   96.02562309
_cell_angle_gamma   89.29613622
_symmetry_Int_Tables_number   1
_chemical_formula_structural   Li9Mn2Co5O16
_chemical_formula_sum   'Li9 Mn2 Co5 O16'
_cell_volume   281.09682251
_cell_formula_units_Z   1
loop_
 _symmetry_equiv_pos_site_id
 _symmetry_equiv_pos_as_xyz
  1  'x, y, z'
loop_
 _atom_site_type_symbol
 _atom_site_label
 _atom_site_symmetry_multiplicity
 _atom_site_fract_x
 _atom_site_fract_y
 _atom_site_fract_z
 _atom_site_occupancy
  Li  Li0  1  0.38361800  0.31591800  0.73563300  1
  Li  Li1  1  0.62430700  0.19512100  0.26354200  1
  Li  Li2  1  0.86560300  0.05934700  0.73977800  1
  Li  Li3  1  0.86754700  0.55741000  0.73807100  1
  Li  Li4  1  0.13245300  0.44259000  0.26192900  1
  Li  Li5  1  0.37569300  0.80487900  0.73645800  1
  Li  Li6  1  0.61638200  0.68408200  0.26436700  1
  Li  Li7  1  0.13439700  0.94065300  0.26022200  1
  Li  Li8  1  0.50000000  0.50000000  0.50000000  1
  Mn  Mn9  1  0.24616300  0.12794700  0.00044100  1
  Mn  Mn10  1  0.75383700  0.87205300  0.99955900  1
  Co  Co11  1  0.50000000  0.00000000  0.50000000  1
  Co  Co12  1  0.00828600  0.74421000  0.50385700  1
  Co  Co13  1  0.24950300  0.62431000  0.99868400  1
  Co  Co14  1  0.75049700  0.37569000  0.00131600  1
  Co  Co15  1  0.99171400  0.25579000  0.49614300  1
  O  O16  1  0.05867100  0.35241900  0.89431400  1
  O  O17  1  0.31947800  0.20337900  0.38626800  1
  O  O18  1  0.57971400  0.10097700  0.89115200  1
  O  O19  1  0.55989400  0.59527500  0.89265800  1
  O  O20  1  0.83383700  0.46025800  0.37746400  1
  O  O21  1  0.07485500  0.84722500  0.88610300  1
  O  O22  1  0.31400000  0.74173100  0.38837700  1
  O  O23  1  0.79690600  0.96221700  0.38799500  1
  O  O24  1  0.68600000  0.25826900  0.61162300  1
  O  O25  1  0.92514500  0.15277500  0.11389700  1
  O  O26  1  0.20309400  0.03778300  0.61200500  1
  O  O27  1  0.16616300  0.53974200  0.62253600  1
  O  O28  1  0.44010600  0.40472500  0.10734200  1
  O  O29  1  0.68052200  0.79662100  0.61373200  1
  O  O30  1  0.94132900  0.64758100  0.10568600  1
  O  O31  1  0.42028600  0.89902300  0.10884800  1
