# generated using pymatgen
data_Li7Mn5O12
_symmetry_space_group_name_H-M   'P 1'
_cell_length_a   6.91127630
_cell_length_b   7.77140904
_cell_length_c   8.59833585
_cell_angle_alpha   78.91787026
_cell_angle_beta   101.98020752
_cell_angle_gamma   87.81379212
_symmetry_Int_Tables_number   1
_chemical_formula_structural   Li7Mn5O12
_chemical_formula_sum   'Li14 Mn10 O24'
_cell_volume   441.86921734
_cell_formula_units_Z   2
loop_
 _symmetry_equiv_pos_site_id
 _symmetry_equiv_pos_as_xyz
  1  'x, y, z'
loop_
 _atom_site_type_symbol
 _atom_site_label
 _atom_site_symmetry_multiplicity
 _atom_site_fract_x
 _atom_site_fract_y
 _atom_site_fract_z
 _atom_site_occupancy
  Li  Li0  1  0.25001400  0.25000400  0.16669600  1
  Li  Li1  1  0.75006800  0.75004600  0.16668600  1
  Li  Li2  1  0.36348300  0.87231100  0.91832900  1
  Li  Li3  1  0.86345700  0.37232500  0.91831800  1
  Li  Li4  1  0.63652600  0.12768300  0.41495700  1
  Li  Li5  1  0.13649900  0.62771300  0.41493600  1
  Li  Li6  1  0.63836000  0.11423100  0.08826700  1
  Li  Li7  1  0.13827100  0.61422200  0.08824800  1
  Li  Li8  1  0.36164400  0.88571100  0.24504200  1
  Li  Li9  1  0.86163800  0.38575400  0.24504400  1
  Li  Li10  1  0.62739800  0.12000000  0.75074100  1
  Li  Li11  1  0.12737800  0.61990600  0.75081100  1
  Li  Li12  1  0.37267100  0.87996500  0.58254300  1
  Li  Li13  1  0.87260900  0.37991800  0.58256500  1
  Mn  Mn14  1  0.50001100  0.50011400  0.66650700  1
  Mn  Mn15  1  0.00007500  0.99987200  0.00092400  1
  Mn  Mn16  1  0.99986600  0.00033200  0.33228500  1
  Mn  Mn17  1  0.24969100  0.24987800  0.49683600  1
  Mn  Mn18  1  0.75028400  0.74989000  0.83650400  1
  Mn  Mn19  1  0.99999800  0.00002800  0.66653300  1
  Mn  Mn20  1  0.50004100  0.49980100  0.00098300  1
  Mn  Mn21  1  0.49974900  0.50017900  0.33236000  1
  Mn  Mn22  1  0.74989200  0.74985900  0.49693700  1
  Mn  Mn23  1  0.25030000  0.25020100  0.83653200  1
  O  O24  1  0.56269700  0.33007100  0.87430500  1
  O  O25  1  0.06266100  0.82989600  0.87431300  1
  O  O26  1  0.43730600  0.67006500  0.45907200  1
  O  O27  1  0.93734300  0.17001700  0.45909500  1
  O  O28  1  0.27950100  0.06292200  0.02911300  1
  O  O29  1  0.77954100  0.56293800  0.02916000  1
  O  O30  1  0.72056900  0.93704900  0.30426200  1
  O  O31  1  0.22040400  0.43707500  0.30423900  1
  O  O32  1  0.31185500  0.07965300  0.70579800  1
  O  O33  1  0.81183000  0.57959400  0.70582800  1
  O  O34  1  0.68830300  0.92019700  0.62761300  1
  O  O35  1  0.18822000  0.42027100  0.62761800  1
  O  O36  1  0.56183900  0.32869800  0.53695800  1
  O  O37  1  0.06192900  0.82865400  0.53689700  1
  O  O38  1  0.43809900  0.67138900  0.79641300  1
  O  O39  1  0.93813000  0.17130900  0.79635200  1
  O  O40  1  0.27483700  0.06462900  0.37517200  1
  O  O41  1  0.77478400  0.56457000  0.37519600  1
  O  O42  1  0.72518300  0.93541900  0.95812800  1
  O  O43  1  0.22520800  0.43539900  0.95821100  1
  O  O44  1  0.56307900  0.33421300  0.20585500  1
  O  O45  1  0.06308700  0.83423800  0.20581300  1
  O  O46  1  0.43679600  0.66587300  0.12754800  1
  O  O47  1  0.93687800  0.16591800  0.12745900  1
