# generated using pymatgen
data_Li2MgZr2H4(OF3)4
_symmetry_space_group_name_H-M   'P 1'
_cell_length_a   6.90816949
_cell_length_b   6.93206174
_cell_length_c   7.53719421
_cell_angle_alpha   64.40401205
_cell_angle_beta   89.84812586
_cell_angle_gamma   73.84982646
_symmetry_Int_Tables_number   1
_chemical_formula_structural   Li2MgZr2H4(OF3)4
_chemical_formula_sum   'Li2 Mg1 Zr2 H4 O4 F12'
_cell_volume   309.78160922
_cell_formula_units_Z   1
loop_
 _symmetry_equiv_pos_site_id
 _symmetry_equiv_pos_as_xyz
  1  'x, y, z'
loop_
 _atom_site_type_symbol
 _atom_site_label
 _atom_site_symmetry_multiplicity
 _atom_site_fract_x
 _atom_site_fract_y
 _atom_site_fract_z
 _atom_site_occupancy
  Li  Li0  1  0.07219417  0.47333918  0.32477892  1
  Li  Li1  1  0.92780583  0.52666082  0.67522108  1
  Mg  Mg2  1  0.50000000  0.00000000  -0.00000000  1
  Zr  Zr3  1  0.99894082  0.99095837  0.75042301  1
  Zr  Zr4  1  0.00105918  0.00904163  0.24957699  1
  H  H5  1  0.24816746  0.45053763  0.86194219  1
  H  H6  1  0.75183254  0.54946237  0.13805781  1
  H  H7  1  0.46421103  0.43942690  0.79754571  1
  H  H8  1  0.53578897  0.56057310  0.20245429  1
  O  O9  1  0.38182768  0.34473242  0.87185059  1
  O  O10  1  0.61817232  0.65526758  0.12814941  1
  O  O11  1  0.39786458  0.34717282  0.33079942  1
  O  O12  1  0.60213542  0.65282718  0.66920058  1
  F  F13  1  0.03510074  0.65876838  0.81194665  1
  F  F14  1  0.96489926  0.34123162  0.18805335  1
  F  F15  1  0.29172845  0.97088370  0.83214916  1
  F  F16  1  0.70827155  0.02911630  0.16785084  1
  F  F17  1  0.04283920  0.79254991  0.08235207  1
  F  F18  1  0.95716080  0.20745009  0.91764793  1
  F  F19  1  0.69910217  0.03478343  0.80386685  1
  F  F20  1  0.30089783  0.96521657  0.19613315  1
  F  F21  1  0.17771531  0.97188366  0.51462242  1
  F  F22  1  0.82228469  0.02811634  0.48537758  1
  F  F23  1  0.93764688  0.32891434  0.55428023  1
  F  F24  1  0.06235312  0.67108566  0.44571977  1
