# generated using pymatgen
data_Li3V5O12
_symmetry_space_group_name_H-M   'P 1'
_cell_length_a   5.03859500
_cell_length_b   5.36099755
_cell_length_c   7.40446827
_cell_angle_alpha   95.53835669
_cell_angle_beta   90.46963225
_cell_angle_gamma   90.56920541
_symmetry_Int_Tables_number   1
_chemical_formula_structural   Li3V5O12
_chemical_formula_sum   'Li3 V5 O12'
_cell_volume   199.05679823
_cell_formula_units_Z   1
loop_
 _symmetry_equiv_pos_site_id
 _symmetry_equiv_pos_as_xyz
  1  'x, y, z'
loop_
 _atom_site_type_symbol
 _atom_site_label
 _atom_site_symmetry_multiplicity
 _atom_site_fract_x
 _atom_site_fract_y
 _atom_site_fract_z
 _atom_site_occupancy
  Li  Li0  1  0.50369900  0.07068700  0.21198800  1
  Li  Li1  1  0.00406700  0.57214900  0.21497400  1
  Li  Li2  1  0.49713100  0.07049500  0.71201300  1
  V  V3  1  0.00496000  0.01076400  0.99639800  1
  V  V4  1  0.49038100  0.48836400  0.49901800  1
  V  V5  1  0.99600700  0.99810900  0.48201900  1
  V  V6  1  0.51000500  0.50436700  0.01055000  1
  V  V7  1  0.00032100  0.59259500  0.71300500  1
  O  O8  1  0.28858500  0.77851900  0.59024500  1
  O  O9  1  0.12474500  0.96407800  0.26383400  1
  O  O10  1  0.30906800  0.15412400  0.95912700  1
  O  O11  1  0.18065400  0.27733900  0.58756900  1
  O  O12  1  0.81158300  0.26805600  0.07737700  1
  O  O13  1  0.38499900  0.46155200  0.26839300  1
  O  O14  1  0.63565400  0.46016000  0.75634700  1
  O  O15  1  0.17267200  0.64827400  0.95207900  1
  O  O16  1  0.82883500  0.66211300  0.46787400  1
  O  O17  1  0.69213700  0.77350900  0.08092800  1
  O  O18  1  0.87044500  0.95733500  0.77375200  1
  O  O19  1  0.69405400  0.14661200  0.45291100  1
