# generated using pymatgen
data_Li9Mn2Co5O16
_symmetry_space_group_name_H-M   'P 1'
_cell_length_a   5.07351200
_cell_length_b   5.92991568
_cell_length_c   10.17068372
_cell_angle_alpha   89.74401463
_cell_angle_beta   100.37095061
_cell_angle_gamma   105.89960752
_symmetry_Int_Tables_number   1
_chemical_formula_structural   Li9Mn2Co5O16
_chemical_formula_sum   'Li9 Mn2 Co5 O16'
_cell_volume   289.15064586
_cell_formula_units_Z   1
loop_
 _symmetry_equiv_pos_site_id
 _symmetry_equiv_pos_as_xyz
  1  'x, y, z'
loop_
 _atom_site_type_symbol
 _atom_site_label
 _atom_site_symmetry_multiplicity
 _atom_site_fract_x
 _atom_site_fract_y
 _atom_site_fract_z
 _atom_site_occupancy
  Li  Li0  1  0.49476400  0.36800500  0.12755900  1
  Li  Li1  1  0.99083700  0.24858200  0.24502500  1
  Li  Li2  1  0.00744800  0.50693400  0.00241700  1
  Li  Li3  1  0.50449800  0.12375100  0.36483300  1
  Li  Li4  1  0.00245400  0.99816500  0.49912300  1
  Li  Li5  1  0.49971800  0.87168800  0.62790800  1
  Li  Li6  1  0.99843000  0.74840900  0.75193300  1
  Li  Li7  1  0.49876100  0.63077800  0.88124500  1
  Li  Li8  1  0.49998900  0.87366600  0.12388500  1
  Mn  Mn9  1  0.99917100  0.99538900  0.00115500  1
  Mn  Mn10  1  0.00229100  0.50106000  0.49970000  1
  Co  Co11  1  0.99567800  0.76181800  0.24717200  1
  Co  Co12  1  0.49684300  0.63120000  0.36641000  1
  Co  Co13  1  0.50220700  0.37475800  0.62572900  1
  Co  Co14  1  0.99998800  0.24775100  0.75088400  1
  Co  Co15  1  0.49777200  0.11738700  0.88288500  1
  O  O16  1  0.22652400  0.05489100  0.17658500  1
  O  O17  1  0.76136400  0.92092200  0.31214100  1
  O  O18  1  0.75307000  0.17825600  0.04657300  1
  O  O19  1  0.24259500  0.78913500  0.44249600  1
  O  O20  1  0.75581100  0.66763600  0.55303700  1
  O  O21  1  0.23462500  0.55014500  0.67862400  1
  O  O22  1  0.74085700  0.42080500  0.79914600  1
  O  O23  1  0.23212100  0.29010400  0.93806500  1
  O  O24  1  0.77548700  0.70984300  0.05971600  1
  O  O25  1  0.25357200  0.57223400  0.20353500  1
  O  O26  1  0.23474100  0.83026600  0.93843000  1
  O  O27  1  0.76757300  0.44808900  0.32318100  1
  O  O28  1  0.25098800  0.32888300  0.45201700  1
  O  O29  1  0.76600900  0.21125000  0.56109000  1
  O  O30  1  0.25454500  0.08062100  0.69801900  1
  O  O31  1  0.75926900  0.94757600  0.81948300  1
