# generated using pymatgen
data_SrLiNdCoO4
_symmetry_space_group_name_H-M   'P 1'
_cell_length_a   3.87005953
_cell_length_b   3.35990552
_cell_length_c   8.28468879
_cell_angle_alpha   90.24118850
_cell_angle_beta   90.42045691
_cell_angle_gamma   90.26700923
_symmetry_Int_Tables_number   1
_chemical_formula_structural   SrLiNdCoO4
_chemical_formula_sum   'Sr1 Li1 Nd1 Co1 O4'
_cell_volume   107.72105275
_cell_formula_units_Z   1
loop_
 _symmetry_equiv_pos_site_id
 _symmetry_equiv_pos_as_xyz
  1  'x, y, z'
loop_
 _atom_site_type_symbol
 _atom_site_label
 _atom_site_symmetry_multiplicity
 _atom_site_fract_x
 _atom_site_fract_y
 _atom_site_fract_z
 _atom_site_occupancy
  Sr  Sr0  1  0.14728052  0.14952393  0.34746616  1
  Li  Li1  1  0.64810775  0.64421301  0.07472020  1
  Nd  Nd2  1  0.64888074  0.64318518  0.68829944  1
  Co  Co3  1  0.14827857  0.14111211  0.95249796  1
  O  O4  1  0.14685881  0.16048113  0.66990538  1
  O  O5  1  0.64724452  0.65278473  0.41614596  1
  O  O6  1  0.64663948  0.14069065  0.91123362  1
  O  O7  1  0.14528060  0.64658127  0.10639628  1
