# generated using pymatgen
data_Li2MgCo3O8
_symmetry_space_group_name_H-M   'P 1'
_cell_length_a   5.73466714
_cell_length_b   8.26488564
_cell_length_c   5.85543187
_cell_angle_alpha   92.25281165
_cell_angle_beta   90.86380454
_cell_angle_gamma   89.45515696
_symmetry_Int_Tables_number   1
_chemical_formula_structural   Li2MgCo3O8
_chemical_formula_sum   'Li4 Mg2 Co6 O16'
_cell_volume   277.26914938
_cell_formula_units_Z   2
loop_
 _symmetry_equiv_pos_site_id
 _symmetry_equiv_pos_as_xyz
  1  'x, y, z'
loop_
 _atom_site_type_symbol
 _atom_site_label
 _atom_site_symmetry_multiplicity
 _atom_site_fract_x
 _atom_site_fract_y
 _atom_site_fract_z
 _atom_site_occupancy
  Li  Li0  1  0.75013400  0.74952600  0.24982000  1
  Li  Li1  1  0.24976200  0.25046100  0.75013900  1
  Li  Li2  1  0.49995000  0.99995700  0.50002100  1
  Li  Li3  1  0.00006900  0.50003900  0.99999300  1
  Mg  Mg4  1  0.00002200  0.00000700  0.99997600  1
  Mg  Mg5  1  0.49999100  0.50000400  0.50002500  1
  Co  Co6  1  0.25008000  0.25014200  0.24993900  1
  Co  Co7  1  0.74992600  0.74986300  0.75007000  1
  Co  Co8  1  0.50000500  0.00000700  0.00000700  1
  Co  Co9  1  0.75009800  0.25010100  0.24990000  1
  Co  Co10  1  0.24991100  0.74989400  0.75011400  1
  Co  Co11  1  0.00001100  0.50001000  0.50000300  1
  O  O12  1  0.00563900  0.26683400  0.47192500  1
  O  O13  1  0.50572000  0.76680500  0.97207200  1
  O  O14  1  0.49427300  0.23318100  0.02791500  1
  O  O15  1  0.99436400  0.73317100  0.52808900  1
  O  O16  1  0.77237700  0.52391500  0.72349200  1
  O  O17  1  0.27176900  0.02415200  0.22406300  1
  O  O18  1  0.72824500  0.97583200  0.77595000  1
  O  O19  1  0.22763200  0.47609700  0.27651900  1
  O  O20  1  0.23372100  0.51984400  0.72650600  1
  O  O21  1  0.73314100  0.01986700  0.22583100  1
  O  O22  1  0.99944000  0.75365200  0.95992900  1
  O  O23  1  0.49969700  0.25368200  0.45965600  1
  O  O24  1  0.50029900  0.74631800  0.54032900  1
  O  O25  1  0.00057100  0.24635500  0.04007500  1
  O  O26  1  0.26688100  0.98012400  0.77414200  1
  O  O27  1  0.76627200  0.48015700  0.27350300  1
