# generated using pymatgen
data_Li3TiNi3O8
_symmetry_space_group_name_H-M   'P 1'
_cell_length_a   5.81563420
_cell_length_b   5.87060100
_cell_length_c   10.03535515
_cell_angle_alpha   88.64157280
_cell_angle_beta   106.33273585
_cell_angle_gamma   118.96438166
_symmetry_Int_Tables_number   1
_chemical_formula_structural   Li3TiNi3O8
_chemical_formula_sum   'Li6 Ti2 Ni6 O16'
_cell_volume   285.07520294
_cell_formula_units_Z   2
loop_
 _symmetry_equiv_pos_site_id
 _symmetry_equiv_pos_as_xyz
  1  'x, y, z'
loop_
 _atom_site_type_symbol
 _atom_site_label
 _atom_site_symmetry_multiplicity
 _atom_site_fract_x
 _atom_site_fract_y
 _atom_site_fract_z
 _atom_site_occupancy
  Li  Li0  1  0.50006100  0.24998400  0.75001600  1
  Li  Li1  1  0.49995700  0.74984100  0.24999100  1
  Li  Li2  1  0.49959000  0.99999600  0.49976700  1
  Li  Li3  1  0.50037700  0.49980700  0.00028500  1
  Li  Li4  1  0.49991100  0.24988300  0.24998200  1
  Li  Li5  1  0.49998600  0.74996300  0.75003400  1
  Ti  Ti6  1  0.00017800  0.00010400  0.00000000  1
  Ti  Ti7  1  0.99979500  0.49981300  0.50002500  1
  Ni  Ni8  1  0.00005900  0.25009000  0.75000600  1
  Ni  Ni9  1  0.00001300  0.24998400  0.25001600  1
  Ni  Ni10  1  0.00003200  0.75010700  0.74995100  1
  Ni  Ni11  1  0.99993400  0.74994300  0.25000500  1
  Ni  Ni12  1  0.99963600  0.99988600  0.49991200  1
  Ni  Ni13  1  0.00036900  0.50014700  0.00004600  1
  O  O14  1  0.22053100  0.84492400  0.62512300  1
  O  O15  1  0.22092400  0.34511100  0.12528400  1
  O  O16  1  0.77958600  0.65522600  0.87482500  1
  O  O17  1  0.77903600  0.15490900  0.37470400  1
  O  O18  1  0.20354100  0.08783900  0.35364900  1
  O  O19  1  0.20382100  0.58808200  0.85355100  1
  O  O20  1  0.79633900  0.41212000  0.14633200  1
  O  O21  1  0.79622700  0.91214300  0.64642900  1
  O  O22  1  0.22926800  0.13928400  0.87316400  1
  O  O23  1  0.22884400  0.63883200  0.37314200  1
  O  O24  1  0.22004500  0.36464400  0.62772600  1
  O  O25  1  0.22022300  0.86474900  0.12785200  1
  O  O26  1  0.78007600  0.13544800  0.87230100  1
  O  O27  1  0.77970900  0.63517400  0.37218800  1
  O  O28  1  0.77082500  0.36085900  0.62684600  1
  O  O29  1  0.77110800  0.86111000  0.12684900  1
