# generated using pymatgen
data_Li7Mn4CoO12
_symmetry_space_group_name_H-M   'P 1'
_cell_length_a   5.23355978
_cell_length_b   10.02748929
_cell_length_c   9.68545311
_cell_angle_alpha   63.29737080
_cell_angle_beta   82.68976580
_cell_angle_gamma   101.51917009
_symmetry_Int_Tables_number   1
_chemical_formula_structural   Li7Mn4CoO12
_chemical_formula_sum   'Li14 Mn8 Co2 O24'
_cell_volume   431.04765770
_cell_formula_units_Z   2
loop_
 _symmetry_equiv_pos_site_id
 _symmetry_equiv_pos_as_xyz
  1  'x, y, z'
loop_
 _atom_site_type_symbol
 _atom_site_label
 _atom_site_symmetry_multiplicity
 _atom_site_fract_x
 _atom_site_fract_y
 _atom_site_fract_z
 _atom_site_occupancy
  Li  Li0  1  0.83332500  0.16667600  0.16668600  1
  Li  Li1  1  0.33332300  0.16667600  0.66668300  1
  Li  Li2  1  0.56684000  0.66665500  0.91924100  1
  Li  Li3  1  0.09982700  0.66667100  0.41407300  1
  Li  Li4  1  0.08334100  0.16683000  0.41661600  1
  Li  Li5  1  0.58324400  0.16650800  0.91675700  1
  Li  Li6  1  0.41217600  0.32593100  0.08646600  1
  Li  Li7  1  0.91398300  0.32593500  0.58751800  1
  Li  Li8  1  0.25446900  0.00743700  0.24688700  1
  Li  Li9  1  0.75267100  0.00742000  0.74583000  1
  Li  Li10  1  0.00513600  0.49976000  0.99925100  1
  Li  Li11  1  0.49490000  0.49985300  0.50078800  1
  Li  Li12  1  0.17174900  0.83348800  0.83253900  1
  Li  Li13  1  0.66155200  0.83357400  0.33405400  1
  Mn  Mn14  1  0.00007000  0.99999200  0.99999900  1
  Mn  Mn15  1  0.49985100  0.99950100  0.50022800  1
  Mn  Mn16  1  0.66658900  0.33333300  0.33335100  1
  Mn  Mn17  1  0.16681700  0.33382800  0.83311400  1
  Mn  Mn18  1  0.24820800  0.49692700  0.25162800  1
  Mn  Mn19  1  0.74814300  0.49618900  0.75176800  1
  Mn  Mn20  1  0.41846200  0.83639800  0.08169600  1
  Mn  Mn21  1  0.91855100  0.83714900  0.58154900  1
  Co  Co22  1  0.83334800  0.66666100  0.16665900  1
  Co  Co23  1  0.33334200  0.66667200  0.66666500  1
  O  O24  1  0.48074700  0.16702800  0.29880200  1
  O  O25  1  0.98030300  0.16621100  0.79916700  1
  O  O26  1  0.18591400  0.16631000  0.03455000  1
  O  O27  1  0.68636200  0.16712500  0.53418800  1
  O  O28  1  0.21707200  0.66661400  0.05279500  1
  O  O29  1  0.68344600  0.66666600  0.56356800  1
  O  O30  1  0.98321800  0.66666100  0.76977500  1
  O  O31  1  0.44962100  0.66671000  0.28051500  1
  O  O32  1  0.01461500  0.34011900  0.22375400  1
  O  O33  1  0.51377500  0.33987800  0.72373500  1
  O  O34  1  0.34131900  0.99321600  0.89714500  1
  O  O35  1  0.84069900  0.99330600  0.39711600  1
  O  O36  1  0.82597600  0.34002300  0.93620600  1
  O  O37  1  0.32534300  0.34011600  0.43618700  1
  O  O38  1  0.15289200  0.99344100  0.60959200  1
  O  O39  1  0.65207500  0.99319300  0.10958300  1
  O  O40  1  0.64686900  0.50084300  0.13212200  1
  O  O41  1  0.14157900  0.49875000  0.63261600  1
  O  O42  1  0.81266100  0.83245700  0.96610000  1
  O  O43  1  0.30942400  0.83446900  0.46478900  1
  O  O44  1  0.35723800  0.49886600  0.86853400  1
  O  O45  1  0.85400500  0.50085800  0.36723100  1
  O  O46  1  0.52511400  0.83459500  0.70069300  1
  O  O47  1  0.01982200  0.83248000  0.20119400  1
