# generated using pymatgen
data_Li4V3P8O29
_symmetry_space_group_name_H-M   'P 1'
_cell_length_a   9.76679100
_cell_length_b   9.80491666
_cell_length_c   14.35444579
_cell_angle_alpha   90.80145196
_cell_angle_beta   90.17972160
_cell_angle_gamma   119.68919006
_symmetry_Int_Tables_number   1
_chemical_formula_structural   Li4V3P8O29
_chemical_formula_sum   'Li8 V6 P16 O58'
_cell_volume   1193.96857157
_cell_formula_units_Z   2
loop_
 _symmetry_equiv_pos_site_id
 _symmetry_equiv_pos_as_xyz
  1  'x, y, z'
loop_
 _atom_site_type_symbol
 _atom_site_label
 _atom_site_symmetry_multiplicity
 _atom_site_fract_x
 _atom_site_fract_y
 _atom_site_fract_z
 _atom_site_occupancy
  Li  Li0  1  0.22273700  0.91910200  0.05917400  1
  Li  Li1  1  0.68658000  0.77641200  0.04727400  1
  Li  Li2  1  0.07802300  0.30271600  0.06129900  1
  Li  Li3  1  0.77368300  0.69033000  0.44136700  1
  Li  Li4  1  0.23166100  0.32614500  0.56316000  1
  Li  Li5  1  0.91190400  0.68595100  0.93487900  1
  Li  Li6  1  0.64727600  0.31809700  0.60172100  1
  Li  Li7  1  0.00262300  0.98422800  0.50923400  1
  V  V8  1  0.56229600  0.56403200  0.24988100  1
  V  V9  1  0.43383100  0.43139600  0.75169500  1
  V  V10  1  0.01162100  0.56829800  0.74560800  1
  V  V11  1  0.99492400  0.43165500  0.25221400  1
  V  V12  1  0.43944800  0.00239900  0.26115700  1
  V  V13  1  0.56690800  0.99875700  0.74668200  1
  P  P14  1  0.23188800  0.91590500  0.84113100  1
  P  P15  1  0.08277400  0.78012900  0.33645200  1
  P  P16  1  0.70118000  0.91870600  0.34434300  1
  P  P17  1  0.33238700  0.66858500  0.13546200  1
  P  P18  1  0.33768400  0.66474900  0.62934900  1
  P  P19  1  0.67999300  0.77119600  0.83393000  1
  P  P20  1  0.77512400  0.67774600  0.65682800  1
  P  P21  1  0.08753500  0.31699400  0.84590300  1
  P  P22  1  0.90932700  0.67663000  0.15528000  1
  P  P23  1  0.22932800  0.31822000  0.34430400  1
  P  P24  1  0.31325400  0.22212500  0.16619300  1
  P  P25  1  0.66709100  0.33843300  0.36868400  1
  P  P26  1  0.67510600  0.33872200  0.86529600  1
  P  P27  1  0.29908400  0.08112300  0.65923200  1
  P  P28  1  0.91216000  0.21746400  0.66563900  1
  P  P29  1  0.76729100  0.08148500  0.16187300  1
  O  O30  1  0.19163000  0.99018400  0.58095800  1
  O  O31  1  0.25784900  0.91594400  0.33267200  1
  O  O32  1  0.99006200  0.74674300  0.06510600  1
  O  O33  1  0.08614100  0.74606700  0.83243600  1
  O  O34  1  0.38434700  0.91024700  0.81766500  1
  O  O35  1  0.33757600  0.81651600  0.18313500  1
  O  O36  1  0.54332500  0.92486800  0.33504600  1
  O  O37  1  0.75038700  0.98509800  0.07783300  1
  O  O38  1  0.66533800  0.92184800  0.82742500  1
  O  O39  1  0.18855200  0.66377000  0.67582400  1
  O  O40  1  0.07610400  0.62115300  0.33211600  1
  O  O41  1  0.48197300  0.81368400  0.67479800  1
  O  O42  1  0.35334100  0.68329200  0.03274300  1
  O  O43  1  0.32951500  0.66517200  0.52632100  1
  O  O44  1  0.48112300  0.66229200  0.17966400  1
  O  O45  1  0.09494800  0.47528700  0.81733900  1
  O  O46  1  0.18257000  0.51892100  0.16773000  1
  O  O47  1  0.65972500  0.74235400  0.33341600  1
  O  O48  1  0.78982300  0.78520300  0.74651200  1
  O  O49  1  0.79116400  0.76496600  0.56938100  1
  O  O50  1  0.76100700  0.76516700  0.92187000  1
  O  O51  1  0.51693300  0.62672700  0.82018100  1
  O  O52  1  0.33646600  0.51443100  0.66636000  1
  O  O53  1  0.74148900  0.65795300  0.15978900  1
  O  O54  1  0.38499700  0.47514100  0.32490900  1
  O  O55  1  0.08959900  0.34671700  0.32648100  1
  O  O56  1  0.00981400  0.79769700  0.23762900  1
  O  O57  1  0.99562500  0.80728000  0.41291000  1
  O  O58  1  0.00777300  0.20528100  0.58863100  1
  O  O59  1  0.91821100  0.64990000  0.66842900  1
  O  O60  1  0.62416800  0.51673200  0.66520000  1
  O  O61  1  0.25164100  0.33862600  0.83335600  1
  O  O62  1  0.67107300  0.49081700  0.32897100  1
  O  O63  1  0.47504400  0.37786000  0.18130000  1
  O  O64  1  0.22282000  0.22873900  0.08508800  1
  O  O65  1  0.22631100  0.25152100  0.43672400  1
  O  O66  1  0.21883900  0.20070700  0.26234700  1
  O  O67  1  0.33692800  0.25432000  0.66006600  1
  O  O68  1  0.82521100  0.48488700  0.82539100  1
  O  O69  1  0.89974400  0.51853000  0.17668300  1
  O  O70  1  0.53003300  0.34714500  0.82129400  1
  O  O71  1  0.67539000  0.34004400  0.96849100  1
  O  O72  1  0.66155900  0.34528500  0.47264600  1
  O  O73  1  0.51290200  0.19034300  0.32784300  1
  O  O74  1  0.90741100  0.37526400  0.67013500  1
  O  O75  1  0.80658600  0.32794800  0.32783200  1
  O  O76  1  0.34059400  0.07964300  0.16476200  1
  O  O77  1  0.21335900  0.01333300  0.75886700  1
  O  O78  1  0.23457800  0.98402300  0.93451800  1
  O  O79  1  0.46296700  0.08686400  0.66647800  1
  O  O80  1  0.66128300  0.18687500  0.81629000  1
  O  O81  1  0.61622800  0.09116200  0.18532700  1
  O  O82  1  0.91152400  0.24874200  0.16165800  1
  O  O83  1  0.01102600  0.26177900  0.93694400  1
  O  O84  1  0.97663600  0.19687800  0.76422700  1
  O  O85  1  0.73676700  0.08467900  0.66175200  1
  O  O86  1  0.79878700  0.98861600  0.42919900  1
  O  O87  1  0.79601200  0.00035600  0.25201000  1
