# generated using pymatgen
data_Li4V3Fe5O16
_symmetry_space_group_name_H-M   'P 1'
_cell_length_a   5.92763200
_cell_length_b   5.94274607
_cell_length_c   9.62594386
_cell_angle_alpha   90.89934084
_cell_angle_beta   89.55775128
_cell_angle_gamma   119.89596229
_symmetry_Int_Tables_number   1
_chemical_formula_structural   Li4V3Fe5O16
_chemical_formula_sum   'Li4 V3 Fe5 O16'
_cell_volume   293.92951485
_cell_formula_units_Z   1
loop_
 _symmetry_equiv_pos_site_id
 _symmetry_equiv_pos_as_xyz
  1  'x, y, z'
loop_
 _atom_site_type_symbol
 _atom_site_label
 _atom_site_symmetry_multiplicity
 _atom_site_fract_x
 _atom_site_fract_y
 _atom_site_fract_z
 _atom_site_occupancy
  Li  Li0  1  0.67498800  0.33564800  0.89381800  1
  Li  Li1  1  0.99159500  0.99294400  0.99551700  1
  Li  Li2  1  0.99851900  0.00259200  0.49597900  1
  Li  Li3  1  0.34155200  0.66272600  0.39414800  1
  V  V4  1  0.83452600  0.17336100  0.21564600  1
  V  V5  1  0.66398000  0.84448800  0.71192700  1
  V  V6  1  0.18320700  0.34556600  0.71710500  1
  Fe  Fe7  1  0.82595300  0.65879100  0.21310200  1
  Fe  Fe8  1  0.66012300  0.33385300  0.49105800  1
  Fe  Fe9  1  0.33851100  0.16351500  0.21552800  1
  Fe  Fe10  1  0.16476900  0.82756700  0.71211900  1
  Fe  Fe11  1  0.32422100  0.66945300  0.99181300  1
  O  O12  1  0.81925300  0.67756000  0.60155000  1
  O  O13  1  0.52198800  0.47623200  0.33967800  1
  O  O14  1  0.67506300  0.31640000  0.10368500  1
  O  O15  1  0.99121200  0.00623400  0.30993200  1
  O  O16  1  0.00088000  0.00883000  0.80937300  1
  O  O17  1  0.32444400  0.16548200  0.59923400  1
  O  O18  1  0.96427000  0.46332600  0.33553300  1
  O  O19  1  0.53598100  0.03513800  0.33674300  1
  O  O20  1  0.15750500  0.83589900  0.09858200  1
  O  O21  1  0.84465500  0.17337600  0.60592600  1
  O  O22  1  0.49813400  0.96234500  0.83528600  1
  O  O23  1  0.04204700  0.52262100  0.83883700  1
  O  O24  1  0.33531300  0.66213800  0.60192000  1
  O  O25  1  0.66856900  0.84712900  0.10353300  1
  O  O26  1  0.47355300  0.51217800  0.83676900  1
  O  O27  1  0.14548900  0.32490800  0.10349900  1
