# generated using pymatgen
data_Li7Mn4CoO12
_symmetry_space_group_name_H-M   'P 1'
_cell_length_a   2.87037009
_cell_length_b   23.04291333
_cell_length_c   6.77883564
_cell_angle_alpha   94.84365624
_cell_angle_beta   102.21957383
_cell_angle_gamma   86.42738670
_symmetry_Int_Tables_number   1
_chemical_formula_structural   Li7Mn4CoO12
_chemical_formula_sum   'Li14 Mn8 Co2 O24'
_cell_volume   436.18554263
_cell_formula_units_Z   2
loop_
 _symmetry_equiv_pos_site_id
 _symmetry_equiv_pos_as_xyz
  1  'x, y, z'
loop_
 _atom_site_type_symbol
 _atom_site_label
 _atom_site_symmetry_multiplicity
 _atom_site_fract_x
 _atom_site_fract_y
 _atom_site_fract_z
 _atom_site_occupancy
  Li  Li0  1  0.66660600  0.41670400  0.74992600  1
  Li  Li1  1  0.66678300  0.91667600  0.25024000  1
  Li  Li2  1  0.66302400  0.03835600  0.36464900  1
  Li  Li3  1  0.66344300  0.53823500  0.86532700  1
  Li  Li4  1  0.66956300  0.29523200  0.63417300  1
  Li  Li5  1  0.67004300  0.79491100  0.13475500  1
  Li  Li6  1  0.00407900  0.12593300  0.13387700  1
  Li  Li7  1  0.00371200  0.62579500  0.63297400  1
  Li  Li8  1  0.32952600  0.20763700  0.86694500  1
  Li  Li9  1  0.32925900  0.70723000  0.36591700  1
  Li  Li10  1  0.32909900  0.45744900  0.11573800  1
  Li  Li11  1  0.32935000  0.95732400  0.61610100  1
  Li  Li12  1  0.00404500  0.37591400  0.38393400  1
  Li  Li13  1  0.00422800  0.87589200  0.88425800  1
  Mn  Mn14  1  0.32148500  0.83595900  0.47884600  1
  Mn  Mn15  1  0.33563300  0.58214800  0.25330100  1
  Mn  Mn16  1  0.99733000  0.25111700  0.24627800  1
  Mn  Mn17  1  0.01175300  0.49732100  0.52081500  1
  Mn  Mn18  1  0.01208300  0.99713700  0.02128000  1
  Mn  Mn19  1  0.32146800  0.33599800  0.97891200  1
  Mn  Mn20  1  0.33613900  0.08248200  0.75439700  1
  Mn  Mn21  1  0.99724400  0.75117300  0.74584100  1
  Co  Co22  1  0.66708000  0.16656700  0.50068700  1
  Co  Co23  1  0.66622500  0.66680400  0.99929700  1
  O  O24  1  0.50547400  0.05475400  0.06565700  1
  O  O25  1  0.50560800  0.55478700  0.56599300  1
  O  O26  1  0.82750900  0.27851000  0.93352700  1
  O  O27  1  0.82777300  0.77854100  0.43408500  1
  O  O28  1  0.83642800  0.13923900  0.81198400  1
  O  O29  1  0.83770300  0.63888600  0.31423000  1
  O  O30  1  0.49563500  0.19434400  0.18570000  1
  O  O31  1  0.49689500  0.69437000  0.68819500  1
  O  O32  1  0.16845300  0.22133700  0.55835300  1
  O  O33  1  0.16920900  0.72170600  0.06019900  1
  O  O34  1  0.16458100  0.11159200  0.44057900  1
  O  O35  1  0.16459300  0.61202300  0.94119200  1
  O  O36  1  0.15251600  0.48140700  0.78663500  1
  O  O37  1  0.15286100  0.98143400  0.28737100  1
  O  O38  1  0.18063900  0.35195500  0.71306100  1
  O  O39  1  0.18083400  0.85187000  0.21332500  1
  O  O40  1  0.83341600  0.38938900  0.05629500  1
  O  O41  1  0.83350500  0.88946000  0.55651000  1
  O  O42  1  0.49980600  0.44388800  0.44344700  1
  O  O43  1  0.49994400  0.94367700  0.94351100  1
  O  O44  1  0.48955400  0.30979300  0.28919100  1
  O  O45  1  0.48961000  0.80982000  0.78922700  1
  O  O46  1  0.84469600  0.02376400  0.71291000  1
  O  O47  1  0.84355400  0.52346000  0.21035200  1
