# generated using pymatgen
data_Li4Co3O7
_symmetry_space_group_name_H-M   'P 1'
_cell_length_a   5.86511724
_cell_length_b   7.73293320
_cell_length_c   6.56506526
_cell_angle_alpha   104.37615442
_cell_angle_beta   76.02166469
_cell_angle_gamma   67.56834921
_symmetry_Int_Tables_number   1
_chemical_formula_structural   Li4Co3O7
_chemical_formula_sum   'Li8 Co6 O14'
_cell_volume   247.08878716
_cell_formula_units_Z   2
loop_
 _symmetry_equiv_pos_site_id
 _symmetry_equiv_pos_as_xyz
  1  'x, y, z'
loop_
 _atom_site_type_symbol
 _atom_site_label
 _atom_site_symmetry_multiplicity
 _atom_site_fract_x
 _atom_site_fract_y
 _atom_site_fract_z
 _atom_site_occupancy
  Li  Li0  1  0.35714300  0.71428600  0.14285700  1
  Li  Li1  1  0.20866534  0.43413329  0.28099509  1
  Li  Li2  1  0.64487978  0.28245737  0.85235389  1
  Li  Li3  1  0.50562066  0.99443771  0.00471891  1
  Li  Li4  1  0.93238723  0.84747519  0.56151154  1
  Li  Li5  1  0.78189777  0.58109681  0.72420346  1
  Li  Li6  1  0.06940622  0.14611363  0.43336011  1
  Li  Li7  1  0.85714300  0.71428600  0.14285700  1
  Co  Co8  1  0.00174236  0.99601172  0.00508872  1
  Co  Co9  1  0.71254364  0.43255928  0.28062528  1
  Co  Co10  1  0.56820650  0.14163091  0.42711266  1
  Co  Co11  1  0.44229960  0.84881079  0.56158784  1
  Co  Co12  1  0.27198540  0.57976121  0.72412716  1
  Co  Co13  1  0.14607950  0.28694009  0.85860134  1
  O  O14  1  0.93336098  0.95411737  0.29072945  1
  O  O15  1  0.80013522  0.64605002  0.43832784  1
  O  O16  1  0.24547519  0.47952077  0.97847255  1
  O  O17  1  0.10263786  0.21967630  0.12371016  1
  O  O18  1  0.51365376  0.08554201  0.70291054  1
  O  O19  1  0.38522904  0.78275777  0.85933408  1
  O  O20  1  0.65762851  0.35163545  0.55283106  1
  O  O21  1  0.78092502  0.47445363  -0.00501545  1
  O  O22  1  0.61164714  0.20889570  0.16200484  1
  O  O23  1  0.05665749  0.07693655  0.73288294  1
  O  O24  1  0.91415078  0.78252098  0.84738616  1
  O  O25  1  0.32905696  0.64581323  0.42637992  1
  O  O26  1  0.20063224  0.34302899  0.58280346  1
  O  O27  1  0.46880981  0.94905123  0.30724245  1
