# generated using pymatgen
data_Li9Mn2Co5O16
_symmetry_space_group_name_H-M   'P 1'
_cell_length_a   5.00612600
_cell_length_b   6.63210025
_cell_length_c   8.82966702
_cell_angle_alpha   98.05848146
_cell_angle_beta   95.15285648
_cell_angle_gamma   97.68256645
_symmetry_Int_Tables_number   1
_chemical_formula_structural   Li9Mn2Co5O16
_chemical_formula_sum   'Li9 Mn2 Co5 O16'
_cell_volume   285.88906668
_cell_formula_units_Z   1
loop_
 _symmetry_equiv_pos_site_id
 _symmetry_equiv_pos_as_xyz
  1  'x, y, z'
loop_
 _atom_site_type_symbol
 _atom_site_label
 _atom_site_symmetry_multiplicity
 _atom_site_fract_x
 _atom_site_fract_y
 _atom_site_fract_z
 _atom_site_occupancy
  Li  Li0  1  0.25602400  0.30405600  0.67849500  1
  Li  Li1  1  0.24959500  0.57195800  0.44093900  1
  Li  Li2  1  0.73424700  0.18145700  0.79725300  1
  Li  Li3  1  0.75040500  0.42804200  0.55906100  1
  Li  Li4  1  0.24731000  0.06633800  0.93503800  1
  Li  Li5  1  0.26575300  0.81854300  0.20274700  1
  Li  Li6  1  0.74397600  0.69594400  0.32150500  1
  Li  Li7  1  0.75269000  0.93366200  0.06496200  1
  Li  Li8  1  0.50000000  0.00000000  0.50000000  1
  Mn  Mn9  1  0.00031500  0.62187100  0.87372800  1
  Mn  Mn10  1  0.99968500  0.37812900  0.12627200  1
  Co  Co11  1  0.01118000  0.88446500  0.62332800  1
  Co  Co12  1  0.98882000  0.11553500  0.37667200  1
  Co  Co13  1  0.50000000  0.50000000  0.00000000  1
  Co  Co14  1  0.50602300  0.75250800  0.74115000  1
  Co  Co15  1  0.49397700  0.24749200  0.25885000  1
  O  O16  1  0.12160500  0.59690400  0.67413900  1
  O  O17  1  0.11294900  0.85148700  0.41104800  1
  O  O18  1  0.63949800  0.47821700  0.80065700  1
  O  O19  1  0.63311800  0.71973700  0.54954800  1
  O  O20  1  0.13350000  0.36561600  0.92060500  1
  O  O21  1  0.12247000  0.11936500  0.15149900  1
  O  O22  1  0.63995000  0.98333200  0.27782200  1
  O  O23  1  0.63572000  0.24821600  0.04209300  1
  O  O24  1  0.36005000  0.01666800  0.72217800  1
  O  O25  1  0.36688200  0.28026300  0.45045200  1
  O  O26  1  0.87753000  0.88063500  0.84850100  1
  O  O27  1  0.88705100  0.14851300  0.58895200  1
  O  O28  1  0.36428000  0.75178400  0.95790700  1
  O  O29  1  0.36050200  0.52178300  0.19934300  1
  O  O30  1  0.87839500  0.40309600  0.32586100  1
  O  O31  1  0.86650000  0.63438400  0.07939500  1
