# generated using pymatgen
data_Li7Mn4CoO12
_symmetry_space_group_name_H-M   'P 1'
_cell_length_a   5.12521045
_cell_length_b   8.72223693
_cell_length_c   10.23452896
_cell_angle_alpha   106.74822195
_cell_angle_beta   98.49282897
_cell_angle_gamma   89.94852601
_symmetry_Int_Tables_number   1
_chemical_formula_structural   Li7Mn4CoO12
_chemical_formula_sum   'Li14 Mn8 Co2 O24'
_cell_volume   432.88591866
_cell_formula_units_Z   2
loop_
 _symmetry_equiv_pos_site_id
 _symmetry_equiv_pos_as_xyz
  1  'x, y, z'
loop_
 _atom_site_type_symbol
 _atom_site_label
 _atom_site_symmetry_multiplicity
 _atom_site_fract_x
 _atom_site_fract_y
 _atom_site_fract_z
 _atom_site_occupancy
  Li  Li0  1  0.50002200  0.83336700  0.00000000  1
  Li  Li1  1  0.49997200  0.83316600  0.49999700  1
  Li  Li2  1  0.25737500  0.91262300  0.23650700  1
  Li  Li3  1  0.25424800  0.91529600  0.75510300  1
  Li  Li4  1  0.74582400  0.75135600  0.24482800  1
  Li  Li5  1  0.74268000  0.75401500  0.76338500  1
  Li  Li6  1  0.74412300  0.07243800  0.23795900  1
  Li  Li7  1  0.75593000  0.08309200  0.75784600  1
  Li  Li8  1  0.24402400  0.58366900  0.24225400  1
  Li  Li9  1  0.25652100  0.59437300  0.76214400  1
  Li  Li10  1  0.75210400  0.41563800  0.24072300  1
  Li  Li11  1  0.74934000  0.41935100  0.75963900  1
  Li  Li12  1  0.25064700  0.24733700  0.24035700  1
  Li  Li13  1  0.24768900  0.25106600  0.75934300  1
  Mn  Mn14  1  0.00144000  0.99718500  0.49984600  1
  Mn  Mn15  1  0.00072000  0.99926600  0.99997300  1
  Mn  Mn16  1  0.99921200  0.66738000  0.00002000  1
  Mn  Mn17  1  0.99855000  0.66956100  0.50013400  1
  Mn  Mn18  1  0.50018600  0.16294800  0.50006300  1
  Mn  Mn19  1  0.50103000  0.16378700  0.99943400  1
  Mn  Mn20  1  0.49894300  0.50287900  0.00056900  1
  Mn  Mn21  1  0.49975100  0.50356400  0.49991700  1
  Co  Co22  1  0.00003200  0.33338700  0.50003600  1
  Co  Co23  1  0.99998300  0.33335900  0.00001600  1
  O  O24  1  0.89691200  0.87159500  0.11381800  1
  O  O25  1  0.89458600  0.87049600  0.61004000  1
  O  O26  1  0.10527100  0.79637000  0.38999500  1
  O  O27  1  0.10310100  0.79507800  0.88608700  1
  O  O28  1  0.35628800  0.04356100  0.11000600  1
  O  O29  1  0.35119700  0.04892200  0.60979900  1
  O  O30  1  0.64873100  0.61763900  0.39027400  1
  O  O31  1  0.64363500  0.62310100  0.88992600  1
  O  O32  1  0.35449700  0.69824500  0.11260900  1
  O  O33  1  0.35058700  0.69160100  0.61169500  1
  O  O34  1  0.64945000  0.97495100  0.38826900  1
  O  O35  1  0.64545100  0.96839500  0.88734200  1
  O  O36  1  0.89032300  0.55336600  0.12047000  1
  O  O37  1  0.84996000  0.54858800  0.60883100  1
  O  O38  1  0.15003500  0.11812900  0.39118800  1
  O  O39  1  0.10963100  0.11334800  0.87949900  1
  O  O40  1  0.38902600  0.37244100  0.11438500  1
  O  O41  1  0.39031100  0.37003900  0.60986000  1
  O  O42  1  0.60974900  0.29636200  0.39016900  1
  O  O43  1  0.61093100  0.29423100  0.88562600  1
  O  O44  1  0.89126900  0.19439300  0.12384200  1
  O  O45  1  0.85261600  0.19221500  0.61013700  1
  O  O46  1  0.14736400  0.47455300  0.38992900  1
  O  O47  1  0.10873100  0.47228100  0.87611100  1
