# generated using pymatgen
data_Li4Zn(PS4)2
_symmetry_space_group_name_H-M   'P 1'
_cell_length_a   9.56214900
_cell_length_b   11.50389314
_cell_length_c   22.95510434
_cell_angle_alpha   89.85316199
_cell_angle_beta   89.87562707
_cell_angle_gamma   89.94082601
_symmetry_Int_Tables_number   1
_chemical_formula_structural   Li4Zn(PS4)2
_chemical_formula_sum   'Li32 Zn8 P16 S64'
_cell_volume   2525.09044146
_cell_formula_units_Z   8
loop_
 _symmetry_equiv_pos_site_id
 _symmetry_equiv_pos_as_xyz
  1  'x, y, z'
loop_
 _atom_site_type_symbol
 _atom_site_label
 _atom_site_symmetry_multiplicity
 _atom_site_fract_x
 _atom_site_fract_y
 _atom_site_fract_z
 _atom_site_occupancy
  Li  Li0  1  0.25184500  0.75855000  0.00175600  1
  Li  Li1  1  0.25082800  0.24964900  0.74777300  1
  Li  Li2  1  0.25731900  0.74700700  0.74487400  1
  Li  Li3  1  0.74685000  0.49029800  0.87153000  1
  Li  Li4  1  0.75125800  0.00830500  0.87350500  1
  Li  Li5  1  0.75101500  0.00402600  0.62983200  1
  Li  Li6  1  0.25199400  0.74464800  0.24626500  1
  Li  Li7  1  0.74848900  0.49836600  0.37409400  1
  Li  Li8  1  0.00843700  0.24888200  0.87613900  1
  Li  Li9  1  0.00001500  0.25221600  0.62431300  1
  Li  Li10  1  0.00106400  0.74647800  0.62364200  1
  Li  Li11  1  0.50936200  0.49720300  0.74846600  1
  Li  Li12  1  0.49891600  0.99948400  0.74999700  1
  Li  Li13  1  0.98412700  0.74980600  0.12521000  1
  Li  Li14  1  0.50072600  0.49762400  0.24900400  1
  Li  Li15  1  0.50005100  0.00354000  0.00060800  1
  Li  Li16  1  0.99738300  0.99909200  0.00447100  1
  Li  Li17  1  0.99896900  0.49575300  0.00035200  1
  Li  Li18  1  0.00249400  0.00323400  0.74964700  1
  Li  Li19  1  0.99936100  0.50153000  0.74715700  1
  Li  Li20  1  0.49026700  0.24728000  0.87732600  1
  Li  Li21  1  0.49942000  0.75133200  0.87457800  1
  Li  Li22  1  0.00277600  0.99920700  0.49858800  1
  Li  Li23  1  0.00015500  0.49877400  0.50381700  1
  Li  Li24  1  0.50369500  0.25353100  0.62433600  1
  Li  Li25  1  0.50563300  0.74695800  0.62410000  1
  Li  Li26  1  0.99472400  0.00281100  0.25064200  1
  Li  Li27  1  0.99928700  0.50009500  0.24756500  1
  Li  Li28  1  0.48914800  0.24957800  0.37316500  1
  Li  Li29  1  0.49173600  0.75268600  0.37583800  1
  Li  Li30  1  0.49859000  0.24868500  0.12593600  1
  Li  Li31  1  0.51594300  0.74926900  0.12539000  1
  Zn  Zn32  1  0.99959800  0.75145200  0.87403600  1
  Zn  Zn33  1  0.00636400  0.24963600  0.37354400  1
  Zn  Zn34  1  0.99862300  0.74996600  0.37708600  1
  Zn  Zn35  1  0.49242400  0.49951200  0.50205300  1
  Zn  Zn36  1  0.49375700  0.00327400  0.49912100  1
  Zn  Zn37  1  0.00165200  0.25014400  0.12503400  1
  Zn  Zn38  1  0.50802300  0.99856500  0.25045900  1
  Zn  Zn39  1  0.49988000  0.49904300  0.00057500  1
  P  P40  1  0.24612600  0.99601800  0.87681000  1
  P  P41  1  0.25338500  0.50752100  0.87292400  1
  P  P42  1  0.25083300  0.99557900  0.62494000  1
  P  P43  1  0.25146900  0.49476500  0.62569600  1
  P  P44  1  0.75378400  0.24795700  0.75145000  1
  P  P45  1  0.74811900  0.75725600  0.75127700  1
  P  P46  1  0.25186900  0.99997100  0.37396200  1
  P  P47  1  0.24578600  0.50625000  0.37569100  1
  P  P48  1  0.74307700  0.24548200  0.49821100  1
  P  P49  1  0.75207800  0.74637100  0.49870500  1
  P  P50  1  0.25035600  0.00310100  0.12405300  1
  P  P51  1  0.25016100  0.49666300  0.12660400  1
  P  P52  1  0.75408100  0.24908400  0.25324000  1
  P  P53  1  0.74701400  0.75446000  0.25077300  1
  P  P54  1  0.75021000  0.25650100  0.99750600  1
  P  P55  1  0.74999100  0.74371400  0.99885200  1
  S  S56  1  0.36731200  0.10530500  0.07248600  1
  S  S57  1  0.36785900  0.60591800  0.06986800  1
  S  S58  1  0.36370800  0.10048300  0.82268700  1
  S  S59  1  0.37460900  0.60917200  0.81996000  1
  S  S60  1  0.87016900  0.35930900  0.94400200  1
  S  S61  1  0.86715000  0.85437900  0.94333500  1
  S  S62  1  0.37261400  0.10363000  0.57211500  1
  S  S63  1  0.37027400  0.60385700  0.57243600  1
  S  S64  1  0.87022000  0.35213500  0.69944100  1
  S  S65  1  0.87478300  0.85693600  0.69845800  1
  S  S66  1  0.36121400  0.10300000  0.31673900  1
  S  S67  1  0.36537700  0.60713800  0.32088400  1
  S  S68  1  0.86903800  0.35104100  0.44419800  1
  S  S69  1  0.85911100  0.85562400  0.44269000  1
  S  S70  1  0.86479500  0.35300500  0.19602700  1
  S  S71  1  0.86870600  0.85654000  0.20031500  1
  S  S72  1  0.13131800  0.40070900  0.82314500  1
  S  S73  1  0.13260300  0.88601000  0.82025500  1
  S  S74  1  0.13723700  0.39226100  0.57282800  1
  S  S75  1  0.13063500  0.89522300  0.57299600  1
  S  S76  1  0.63531100  0.64983800  0.70063500  1
  S  S77  1  0.62990700  0.14439300  0.69877200  1
  S  S78  1  0.13387900  0.39432500  0.32268800  1
  S  S79  1  0.13139200  0.88813200  0.32240400  1
  S  S80  1  0.62453800  0.64016600  0.44642000  1
  S  S81  1  0.62779100  0.13962700  0.44429300  1
  S  S82  1  0.13286700  0.39145800  0.07276000  1
  S  S83  1  0.13337000  0.88933400  0.07500400  1
  S  S84  1  0.63689300  0.64328000  0.20068500  1
  S  S85  1  0.63982400  0.13997200  0.20019200  1
  S  S86  1  0.62986100  0.63583000  0.94393900  1
  S  S87  1  0.63433700  0.14510100  0.94698800  1
  S  S88  1  0.37110200  0.89271700  0.92846500  1
  S  S89  1  0.36253700  0.40122900  0.92947000  1
  S  S90  1  0.37443500  0.89141700  0.67747400  1
  S  S91  1  0.37213200  0.39199800  0.67957500  1
  S  S92  1  0.87384100  0.14300900  0.80503700  1
  S  S93  1  0.87100800  0.64641300  0.80464500  1
  S  S94  1  0.35978800  0.89515200  0.43094000  1
  S  S95  1  0.36248000  0.39966700  0.42953900  1
  S  S96  1  0.86359700  0.14400700  0.55154400  1
  S  S97  1  0.85735700  0.64327000  0.55369400  1
  S  S98  1  0.37077200  0.89553600  0.18069400  1
  S  S99  1  0.36724900  0.39487600  0.17837900  1
  S  S100  1  0.86839900  0.14305600  0.30812800  1
  S  S101  1  0.86827600  0.64573900  0.30708200  1
  S  S102  1  0.86316700  0.15204000  0.05409800  1
  S  S103  1  0.87013300  0.64212400  0.04967900  1
  S  S104  1  0.12388100  0.09586900  0.92776600  1
  S  S105  1  0.13032000  0.61293400  0.92766400  1
  S  S106  1  0.13629200  0.10708400  0.67714700  1
  S  S107  1  0.13687500  0.60702300  0.67742400  1
  S  S108  1  0.62630600  0.34947500  0.80414000  1
  S  S109  1  0.63334000  0.86212400  0.80580700  1
  S  S110  1  0.13855200  0.11093100  0.42611300  1
  S  S111  1  0.13013100  0.61223100  0.42999900  1
  S  S112  1  0.63666900  0.36102600  0.55033000  1
  S  S113  1  0.62990600  0.85958800  0.54926900  1
  S  S114  1  0.13006400  0.10743600  0.17777700  1
  S  S115  1  0.13189400  0.60964400  0.17598100  1
  S  S116  1  0.63428400  0.35759200  0.30429300  1
  S  S117  1  0.63195000  0.86073100  0.30629600  1
  S  S118  1  0.63147200  0.36085400  0.05170200  1
  S  S119  1  0.63255800  0.85190900  0.04767500  1
