# generated using pymatgen
data_Li4Co3Sn5O16
_symmetry_space_group_name_H-M   'P 1'
_cell_length_a   6.14627186
_cell_length_b   6.14627186
_cell_length_c   9.88771755
_cell_angle_alpha   89.94289574
_cell_angle_beta   89.94289574
_cell_angle_gamma   60.01418919
_symmetry_Int_Tables_number   1
_chemical_formula_structural   Li4Co3Sn5O16
_chemical_formula_sum   'Li4 Co3 Sn5 O16'
_cell_volume   323.52809852
_cell_formula_units_Z   1
loop_
 _symmetry_equiv_pos_site_id
 _symmetry_equiv_pos_as_xyz
  1  'x, y, z'
loop_
 _atom_site_type_symbol
 _atom_site_label
 _atom_site_symmetry_multiplicity
 _atom_site_fract_x
 _atom_site_fract_y
 _atom_site_fract_z
 _atom_site_occupancy
  Li  Li0  1  0.66994100  0.66994100  0.89187400  1
  Li  Li1  1  0.98447700  0.98447700  0.98917200  1
  Li  Li2  1  0.99172300  0.99172300  0.49661300  1
  Li  Li3  1  0.33219400  0.33219400  0.40301300  1
  Co  Co4  1  0.83047200  0.83047200  0.21399000  1
  Co  Co5  1  0.66187500  0.17181400  0.71354200  1
  Co  Co6  1  0.17181400  0.66187500  0.71354200  1
  Sn  Sn7  1  0.83283000  0.33969600  0.21489500  1
  Sn  Sn8  1  0.66984600  0.66984600  0.49333800  1
  Sn  Sn9  1  0.33969600  0.83283000  0.21489500  1
  Sn  Sn10  1  0.17026100  0.17026100  0.71441000  1
  Sn  Sn11  1  0.34122100  0.34122100  0.98640000  1
  O  O12  1  0.83539200  0.32325100  0.59758700  1
  O  O13  1  0.51478600  0.51478600  0.34504600  1
  O  O14  1  0.66500800  0.66500800  0.10064500  1
  O  O15  1  0.00030000  0.00030000  0.31162400  1
  O  O16  1  0.99731700  0.99731700  0.80546600  1
  O  O17  1  0.32325100  0.83539200  0.59758700  1
  O  O18  1  0.96648200  0.51083000  0.34757900  1
  O  O19  1  0.51083000  0.96648200  0.34757900  1
  O  O20  1  0.16306800  0.16306800  0.09212800  1
  O  O21  1  0.83707200  0.83707200  0.60577100  1
  O  O22  1  0.48610400  0.03878300  0.84255600  1
  O  O23  1  0.03878300  0.48610400  0.84255600  1
  O  O24  1  0.33595200  0.33595200  0.60619300  1
  O  O25  1  0.67487800  0.16987100  0.09467000  1
  O  O26  1  0.48358800  0.48358800  0.83053500  1
  O  O27  1  0.16987100  0.67487800  0.09467000  1
