# generated using pymatgen
data_LiV3Zn2O8
_symmetry_space_group_name_H-M   'P 1'
_cell_length_a   5.98038182
_cell_length_b   5.96949257
_cell_length_c   10.35327057
_cell_angle_alpha   89.62288374
_cell_angle_beta   106.60960131
_cell_angle_gamma   60.07261570
_symmetry_Int_Tables_number   1
_chemical_formula_structural   LiV3Zn2O8
_chemical_formula_sum   'Li2 V6 Zn4 O16'
_cell_volume   301.96641593
_cell_formula_units_Z   2
loop_
 _symmetry_equiv_pos_site_id
 _symmetry_equiv_pos_as_xyz
  1  'x, y, z'
loop_
 _atom_site_type_symbol
 _atom_site_label
 _atom_site_symmetry_multiplicity
 _atom_site_fract_x
 _atom_site_fract_y
 _atom_site_fract_z
 _atom_site_occupancy
  Li  Li0  1  0.37499700  0.06250200  0.31249500  1
  Li  Li1  1  0.37499900  0.56250100  0.81249900  1
  V  V2  1  0.37346300  0.31345600  0.06225700  1
  V  V3  1  0.37658500  0.81153300  0.56276200  1
  V  V4  1  0.87500400  0.56249200  0.81250200  1
  V  V5  1  0.37499500  0.56251200  0.31248900  1
  V  V6  1  0.37501400  0.06248500  0.81250300  1
  V  V7  1  0.87499900  0.06249500  0.31249600  1
  Zn  Zn8  1  0.99444400  0.99338900  0.00304700  1
  Zn  Zn9  1  0.99411000  0.49381600  0.50282400  1
  Zn  Zn10  1  0.75587900  0.63119200  0.12217400  1
  Zn  Zn11  1  0.75554000  0.13161500  0.62195400  1
  O  O12  1  0.62214800  0.41803600  0.18688800  1
  O  O13  1  0.60358200  0.93752200  0.68729200  1
  O  O14  1  0.12785700  0.70695600  0.43812000  1
  O  O15  1  0.14641500  0.18746400  0.93771100  1
  O  O16  1  0.15870300  0.43388800  0.18547300  1
  O  O17  1  0.15896300  0.93732200  0.68762400  1
  O  O18  1  0.59129300  0.69112000  0.43952400  1
  O  O19  1  0.59101500  0.18768800  0.93737000  1
  O  O20  1  0.11302900  0.93483900  0.20687900  1
  O  O21  1  0.13722800  0.40938700  0.70673300  1
  O  O22  1  0.13113600  0.14935900  0.44021900  1
  O  O23  1  0.13646300  0.64727500  0.94200400  1
  O  O24  1  0.61887200  0.97564500  0.18478600  1
  O  O25  1  0.61353400  0.47772900  0.68299200  1
  O  O26  1  0.63696100  0.19016700  0.41812500  1
  O  O27  1  0.61277200  0.71561200  0.91826000  1
