# generated using pymatgen
data_Li2Cr3CuO8
_symmetry_space_group_name_H-M   'P 1'
_cell_length_a   8.34304455
_cell_length_b   8.34304455
_cell_length_c   8.32502285
_cell_angle_alpha   89.90096908
_cell_angle_beta   89.90096908
_cell_angle_gamma   89.95915091
_symmetry_Int_Tables_number   1
_chemical_formula_structural   Li2Cr3CuO8
_chemical_formula_sum   'Li8 Cr12 Cu4 O32'
_cell_volume   579.47292950
_cell_formula_units_Z   4
loop_
 _symmetry_equiv_pos_site_id
 _symmetry_equiv_pos_as_xyz
  1  'x, y, z'
loop_
 _atom_site_type_symbol
 _atom_site_label
 _atom_site_symmetry_multiplicity
 _atom_site_fract_x
 _atom_site_fract_y
 _atom_site_fract_z
 _atom_site_occupancy
  Li  Li0  1  0.00093300  0.24794800  0.87278100  1
  Li  Li1  1  0.24915200  0.00088600  0.62752400  1
  Li  Li2  1  0.75205200  0.99906700  0.12721900  1
  Li  Li3  1  0.99911400  0.75084800  0.37247600  1
  Li  Li4  1  0.49517000  0.74913600  0.87478500  1
  Li  Li5  1  0.25086400  0.50483000  0.12521500  1
  Li  Li6  1  0.74641000  0.49514700  0.62263000  1
  Li  Li7  1  0.50485300  0.25359000  0.37737000  1
  Cr  Cr8  1  0.12701500  0.12551300  0.25276700  1
  Cr  Cr9  1  0.37816700  0.12572000  0.99960000  1
  Cr  Cr10  1  0.62273300  0.12273900  0.74764900  1
  Cr  Cr11  1  0.37481700  0.87486100  0.25173700  1
  Cr  Cr12  1  0.62414300  0.87503500  0.50207000  1
  Cr  Cr13  1  0.87448700  0.87298500  0.74723300  1
  Cr  Cr14  1  0.37327400  0.62672600  0.50000000  1
  Cr  Cr15  1  0.12513900  0.62518300  0.74826300  1
  Cr  Cr16  1  0.87428000  0.62183300  0.00040000  1
  Cr  Cr17  1  0.12496500  0.37585800  0.49793000  1
  Cr  Cr18  1  0.87726100  0.37726700  0.25235100  1
  Cr  Cr19  1  0.62482100  0.37517900  0.00000000  1
  Cu  Cu20  1  0.87789900  0.12210100  0.50000000  1
  Cu  Cu21  1  0.12516700  0.87483300  0.00000000  1
  Cu  Cu22  1  0.62651500  0.62451300  0.24824600  1
  Cu  Cu23  1  0.37548700  0.37348500  0.75175400  1
  O  O24  1  0.12234800  0.13849000  0.48119900  1
  O  O25  1  0.89873000  0.13605100  0.25538100  1
  O  O26  1  0.60638400  0.13089600  0.98902600  1
  O  O27  1  0.14318300  0.11840700  0.01991000  1
  O  O28  1  0.38549600  0.13232600  0.76594300  1
  O  O29  1  0.36273000  0.10977900  0.24195700  1
  O  O30  1  0.63677100  0.10436600  0.50892100  1
  O  O31  1  0.86394900  0.10127000  0.74461900  1
  O  O32  1  0.14468000  0.88750000  0.24045700  1
  O  O33  1  0.36920000  0.89448100  0.01447500  1
  O  O34  1  0.63650800  0.87828700  0.73166500  1
  O  O35  1  0.60664300  0.87453100  0.26920400  1
  O  O36  1  0.86151000  0.87765200  0.51880100  1
  O  O37  1  0.38620300  0.86550800  0.48837200  1
  O  O38  1  0.11250000  0.85532000  0.75954300  1
  O  O39  1  0.88159300  0.85681700  0.98009000  1
  O  O40  1  0.38124400  0.64680200  0.26087100  1
  O  O41  1  0.61025900  0.64398400  0.49120000  1
  O  O42  1  0.89022100  0.63727000  0.75804300  1
  O  O43  1  0.35319800  0.61875600  0.73912900  1
  O  O44  1  0.10551900  0.63080000  0.98552500  1
  O  O45  1  0.13449200  0.61379700  0.51162800  1
  O  O46  1  0.86767400  0.61450400  0.23405700  1
  O  O47  1  0.64470100  0.61190600  0.00174200  1
  O  O48  1  0.35601600  0.38974100  0.50880000  1
  O  O49  1  0.12546900  0.39335700  0.73079600  1
  O  O50  1  0.86910400  0.39361600  0.01097400  1
  O  O51  1  0.89563400  0.36322900  0.49107900  1
  O  O52  1  0.64033600  0.38423700  0.23631900  1
  O  O53  1  0.12171300  0.36349200  0.26833500  1
  O  O54  1  0.38809400  0.35529900  0.99825800  1
  O  O55  1  0.61576300  0.35966400  0.76368100  1
