# generated using pymatgen
data_Li5Ni3(SnO5)2
_symmetry_space_group_name_H-M   'P 1'
_cell_length_a   5.19369116
_cell_length_b   10.50243607
_cell_length_c   8.04573535
_cell_angle_alpha   70.77006085
_cell_angle_beta   77.72974545
_cell_angle_gamma   99.71897613
_symmetry_Int_Tables_number   1
_chemical_formula_structural   Li5Ni3(SnO5)2
_chemical_formula_sum   'Li10 Ni6 Sn4 O20'
_cell_volume   391.11404763
_cell_formula_units_Z   2
loop_
 _symmetry_equiv_pos_site_id
 _symmetry_equiv_pos_as_xyz
  1  'x, y, z'
loop_
 _atom_site_type_symbol
 _atom_site_label
 _atom_site_symmetry_multiplicity
 _atom_site_fract_x
 _atom_site_fract_y
 _atom_site_fract_z
 _atom_site_occupancy
  Li  Li0  1  0.99546290  0.99973055  0.49922787  1
  Li  Li1  1  0.49536963  0.49974212  0.99927790  1
  Li  Li2  1  0.58804074  0.08557401  0.32184461  1
  Li  Li3  1  0.08785978  0.58552156  0.82192277  1
  Li  Li4  1  0.39628480  0.90654297  0.68326540  1
  Li  Li5  1  0.89608299  0.40642368  0.18327517  1
  Li  Li6  1  0.69747020  0.19297564  0.60954540  1
  Li  Li7  1  0.19761376  0.69292445  0.10942810  1
  Li  Li8  1  0.31920034  0.81625759  0.38554008  1
  Li  Li9  1  0.81904181  0.31625474  0.88546483  1
  Ni  Ni10  1  0.99630748  0.49841609  0.50018992  1
  Ni  Ni11  1  0.59988358  0.59958684  0.29965310  1
  Ni  Ni12  1  0.40110814  0.40010032  0.70133854  1
  Ni  Ni13  1  0.49575526  0.99834414  0.00057010  1
  Ni  Ni14  1  0.09958838  0.09950651  0.79967783  1
  Ni  Ni15  1  0.90090024  0.89998076  0.20109311  1
  Sn  Sn16  1  0.30637202  0.29841497  0.40456797  1
  Sn  Sn17  1  0.80632691  0.79844111  0.90441422  1
  Sn  Sn18  1  0.69473245  0.70270288  0.59866720  1
  Sn  Sn19  1  0.19448566  0.20260243  0.09874149  1
  O  O20  1  0.64600043  0.40179408  0.45251487  1
  O  O21  1  0.14592016  0.90180581  0.95242084  1
  O  O22  1  0.37048808  0.59746584  0.52927047  1
  O  O23  1  0.87023937  0.09742376  0.02932820  1
  O  O24  1  0.05951319  0.30309968  0.64267947  1
  O  O25  1  0.55948825  0.80305795  0.14268902  1
  O  O26  1  0.92018577  0.69295912  0.35164104  1
  O  O27  1  0.41983934  0.19289336  0.85179063  1
  O  O28  1  0.96432635  0.20384674  0.34339043  1
  O  O29  1  0.46439551  0.70382335  0.84329889  1
  O  O30  1  0.03557609  0.79391020  0.65989233  1
  O  O31  1  0.53546514  0.29384194  0.15994378  1
  O  O32  1  0.25193242  0.00599532  0.23393590  1
  O  O33  1  0.75226086  0.50603746  0.73365823  1
  O  O34  1  0.77060371  0.00195990  0.76630527  1
  O  O35  1  0.27113505  0.50201626  0.26608110  1
  O  O36  1  0.33034228  0.10358474  0.57009615  1
  O  O37  1  0.83050995  0.60365126  0.07007975  1
  O  O38  1  0.65703388  0.89538671  0.44657635  1
  O  O39  1  0.15685709  0.39540314  0.94670169  1
