# generated using pymatgen
data_LiMn4O8
_symmetry_space_group_name_H-M   'P 1'
_cell_length_a   5.91744200
_cell_length_b   9.61648600
_cell_length_c   13.90729553
_cell_angle_alpha   47.84309512
_cell_angle_beta   90.00000000
_cell_angle_gamma   90.00000000
_symmetry_Int_Tables_number   1
_chemical_formula_structural   LiMn4O8
_chemical_formula_sum   'Li4 Mn16 O32'
_cell_volume   586.66845177
_cell_formula_units_Z   4
loop_
 _symmetry_equiv_pos_site_id
 _symmetry_equiv_pos_as_xyz
  1  'x, y, z'
loop_
 _atom_site_type_symbol
 _atom_site_label
 _atom_site_symmetry_multiplicity
 _atom_site_fract_x
 _atom_site_fract_y
 _atom_site_fract_z
 _atom_site_occupancy
  Li  Li0  1  0.86899300  0.83048700  0.39411700  1
  Li  Li1  1  0.36899300  0.16951300  0.10588300  1
  Li  Li2  1  0.63100700  0.83048700  0.89411700  1
  Li  Li3  1  0.13100700  0.16951300  0.60588300  1
  Mn  Mn4  1  0.87613900  0.52100700  0.39755300  1
  Mn  Mn5  1  0.37348400  0.53555200  0.39252900  1
  Mn  Mn6  1  0.87434800  0.18414600  0.91133400  1
  Mn  Mn7  1  0.37514500  0.18217800  0.90569900  1
  Mn  Mn8  1  0.37434800  0.81585400  0.58866600  1
  Mn  Mn9  1  0.87514500  0.81782200  0.59430100  1
  Mn  Mn10  1  0.37613900  0.47899300  0.10244700  1
  Mn  Mn11  1  0.87348400  0.46444800  0.10747100  1
  Mn  Mn12  1  0.12651600  0.53555200  0.89252900  1
  Mn  Mn13  1  0.62386100  0.52100700  0.89755300  1
  Mn  Mn14  1  0.12485500  0.18217800  0.40569900  1
  Mn  Mn15  1  0.62565200  0.18414600  0.41133400  1
  Mn  Mn16  1  0.12565200  0.81585400  0.08866600  1
  Mn  Mn17  1  0.62485500  0.81782200  0.09430100  1
  Mn  Mn18  1  0.12386100  0.47899300  0.60244700  1
  Mn  Mn19  1  0.62651600  0.46444800  0.60747100  1
  O  O20  1  0.12775400  0.60135900  0.10702800  1
  O  O21  1  0.62329500  0.60980600  0.10148900  1
  O  O22  1  0.12739900  0.73654100  0.70765600  1
  O  O23  1  0.62248200  0.73022200  0.70959300  1
  O  O24  1  0.12248200  0.26977800  0.79040700  1
  O  O25  1  0.62739900  0.26345900  0.79234400  1
  O  O26  1  0.12329500  0.39019400  0.39851100  1
  O  O27  1  0.62775400  0.39864100  0.39297200  1
  O  O28  1  0.37224600  0.60135900  0.60702800  1
  O  O29  1  0.87670500  0.60980600  0.60148900  1
  O  O30  1  0.37260100  0.73654100  0.20765600  1
  O  O31  1  0.87751800  0.73022200  0.20959300  1
  O  O32  1  0.87260100  0.26345900  0.29234400  1
  O  O33  1  0.37751800  0.26977800  0.29040700  1
  O  O34  1  0.87224600  0.39864100  0.89297200  1
  O  O35  1  0.37670500  0.39019400  0.89851100  1
  O  O36  1  0.85873400  0.64152200  0.91760500  1
  O  O37  1  0.39403400  0.65196200  0.91299600  1
  O  O38  1  0.36841800  0.07075600  0.53401900  1
  O  O39  1  0.88223100  0.07068700  0.53668800  1
  O  O40  1  0.35873400  0.35847800  0.58239500  1
  O  O41  1  0.89403400  0.34803800  0.58700400  1
  O  O42  1  0.86841800  0.92924400  0.96598100  1
  O  O43  1  0.38223100  0.92931300  0.96331200  1
  O  O44  1  0.10596600  0.65196200  0.41299600  1
  O  O45  1  0.64126600  0.64152200  0.41760500  1
  O  O46  1  0.13158200  0.07075600  0.03401900  1
  O  O47  1  0.61776900  0.07068700  0.03668800  1
  O  O48  1  0.14126600  0.35847800  0.08239500  1
  O  O49  1  0.60596600  0.34803800  0.08700400  1
  O  O50  1  0.11776900  0.92931300  0.46331200  1
  O  O51  1  0.63158200  0.92924400  0.46598100  1
