# generated using pymatgen
data_Li4MnCo2O7
_symmetry_space_group_name_H-M   'P 1'
_cell_length_a   9.84701762
_cell_length_b   9.84701762
_cell_length_c   9.76463832
_cell_angle_alpha   66.05079435
_cell_angle_beta   66.05079435
_cell_angle_gamma   17.06033031
_symmetry_Int_Tables_number   1
_chemical_formula_structural   Li4MnCo2O7
_chemical_formula_sum   'Li8 Mn2 Co4 O14'
_cell_volume   253.29659155
_cell_formula_units_Z   2
loop_
 _symmetry_equiv_pos_site_id
 _symmetry_equiv_pos_as_xyz
  1  'x, y, z'
loop_
 _atom_site_type_symbol
 _atom_site_label
 _atom_site_symmetry_multiplicity
 _atom_site_fract_x
 _atom_site_fract_y
 _atom_site_fract_z
 _atom_site_occupancy
  Li  Li0  1  0.35476800  0.35476800  0.07304600  1
  Li  Li1  1  0.07459100  0.07459100  0.22423700  1
  Li  Li2  1  0.77588600  0.77588600  0.37319100  1
  Li  Li3  1  0.50772400  0.50772400  0.50095700  1
  Li  Li4  1  0.21488400  0.21488400  0.63703000  1
  Li  Li5  1  0.93335900  0.93335900  0.77334000  1
  Li  Li6  1  0.64114200  0.64114200  0.92157200  1
  Li  Li7  1  0.14100500  0.14100500  0.42701700  1
  Mn  Mn8  1  0.99983700  0.99983700  0.99579000  1
  Mn  Mn9  1  0.71042100  0.71042100  0.15245300  1
  Co  Co10  1  0.42767500  0.42767500  0.28862700  1
  Co  Co11  1  0.85744900  0.85744900  0.57276600  1
  Co  Co12  1  0.58157900  0.58157900  0.68732100  1
  Co  Co13  1  0.28603800  0.28603800  0.85856800  1
  O  O14  1  0.46616000  0.46616000  0.90781200  1
  O  O15  1  0.18364200  0.18364200  0.04469300  1
  O  O16  1  0.90153300  0.90153300  0.17623400  1
  O  O17  1  0.61572200  0.61572200  0.30390700  1
  O  O18  1  0.32695800  0.32695800  0.46439300  1
  O  O19  1  0.03664000  0.03664000  0.61373400  1
  O  O20  1  0.75505500  0.75505500  0.75507400  1
  O  O21  1  0.24644300  0.24644300  0.23688400  1
  O  O22  1  0.95926300  0.95926300  0.38858800  1
  O  O23  1  0.67613700  0.67613700  0.54751000  1
  O  O24  1  0.38749000  0.38749000  0.67882700  1
  O  O25  1  0.09598900  0.09598900  0.83238100  1
  O  O26  1  0.81290300  0.81290300  0.96808900  1
  O  O27  1  0.52970900  0.52970900  0.09595700  1
