# generated using pymatgen
data_Li4TiCrO6
_symmetry_space_group_name_H-M   'P 1'
_cell_length_a   5.07357884
_cell_length_b   9.81401028
_cell_length_c   8.78583144
_cell_angle_alpha   89.99615488
_cell_angle_beta   90.00370965
_cell_angle_gamma   80.39690654
_symmetry_Int_Tables_number   1
_chemical_formula_structural   Li4TiCrO6
_chemical_formula_sum   'Li16 Ti4 Cr4 O24'
_cell_volume   431.33528808
_cell_formula_units_Z   4
loop_
 _symmetry_equiv_pos_site_id
 _symmetry_equiv_pos_as_xyz
  1  'x, y, z'
loop_
 _atom_site_type_symbol
 _atom_site_label
 _atom_site_symmetry_multiplicity
 _atom_site_fract_x
 _atom_site_fract_y
 _atom_site_fract_z
 _atom_site_occupancy
  Li  Li0  1  0.25002500  0.00006600  0.25003700  1
  Li  Li1  1  0.74989600  0.99991600  0.74995600  1
  Li  Li2  1  0.75000900  0.50003900  0.24998200  1
  Li  Li3  1  0.24983700  0.49996800  0.75002400  1
  Li  Li4  1  0.99967800  0.74870800  0.24814200  1
  Li  Li5  1  0.50063400  0.75142800  0.74820500  1
  Li  Li6  1  0.99936700  0.24859900  0.75175500  1
  Li  Li7  1  0.50036400  0.25138500  0.25195700  1
  Li  Li8  1  0.26679900  0.50044200  0.41058000  1
  Li  Li9  1  0.76070900  0.49590900  0.91041800  1
  Li  Li10  1  0.26702000  0.00050500  0.58940600  1
  Li  Li11  1  0.75982500  0.99598300  0.08922800  1
  Li  Li12  1  0.74007700  0.00409300  0.41080100  1
  Li  Li13  1  0.23266400  0.99954800  0.91052000  1
  Li  Li14  1  0.73902100  0.50416200  0.58947100  1
  Li  Li15  1  0.23320400  0.49959300  0.08936100  1
  Ti  Ti16  1  0.00635600  0.26013000  0.41820900  1
  Ti  Ti17  1  0.49327400  0.23991000  0.91766700  1
  Ti  Ti18  1  0.00672800  0.76004100  0.58247000  1
  Ti  Ti19  1  0.49370100  0.73993500  0.08182700  1
  Cr  Cr20  1  0.51063200  0.24970100  0.58484100  1
  Cr  Cr21  1  0.98941000  0.75011100  0.91516800  1
  Cr  Cr22  1  0.98935600  0.25008400  0.08479400  1
  Cr  Cr23  1  0.51090900  0.74981900  0.41497400  1
  O  O24  1  0.10805500  0.36771000  0.25150000  1
  O  O25  1  0.60088100  0.36394400  0.74583200  1
  O  O26  1  0.89969200  0.13584700  0.24629300  1
  O  O27  1  0.39190400  0.13219000  0.75116700  1
  O  O28  1  0.10810300  0.86773900  0.74890600  1
  O  O29  1  0.60036300  0.86421700  0.25363100  1
  O  O30  1  0.89910300  0.63603800  0.75419200  1
  O  O31  1  0.39198400  0.63232400  0.24848100  1
  O  O32  1  0.14579500  0.86399300  0.42554900  1
  O  O33  1  0.65091500  0.86041000  0.92732700  1
  O  O34  1  0.84948700  0.63942100  0.42763800  1
  O  O35  1  0.35335900  0.63628800  0.92521400  1
  O  O36  1  0.14669100  0.36369300  0.57483000  1
  O  O37  1  0.65051200  0.36063800  0.07233800  1
  O  O38  1  0.84910300  0.13955900  0.57274500  1
  O  O39  1  0.35430300  0.13598400  0.07448900  1
  O  O40  1  0.36282200  0.14046000  0.43159000  1
  O  O41  1  0.85523600  0.13485700  0.92722300  1
  O  O42  1  0.36209700  0.64020200  0.56877100  1
  O  O43  1  0.85537400  0.63488900  0.07267100  1
  O  O44  1  0.64471700  0.36504000  0.42742900  1
  O  O45  1  0.13798100  0.35980400  0.93121300  1
  O  O46  1  0.64486600  0.86517100  0.57275800  1
  O  O47  1  0.13716000  0.85951000  0.06841900  1
