# generated using pymatgen
data_Li4MnP2O9
_symmetry_space_group_name_H-M   'P 1'
_cell_length_a   12.64299361
_cell_length_b   7.11321606
_cell_length_c   19.40089177
_cell_angle_alpha   90.00000000
_cell_angle_beta   98.17872792
_cell_angle_gamma   90.00000000
_symmetry_Int_Tables_number   1
_chemical_formula_structural   Li4MnP2O9
_chemical_formula_sum   'Li40 Mn10 P20 O90'
_cell_volume   1727.02186595
_cell_formula_units_Z   10
loop_
 _symmetry_equiv_pos_site_id
 _symmetry_equiv_pos_as_xyz
  1  'x, y, z'
loop_
 _atom_site_type_symbol
 _atom_site_label
 _atom_site_symmetry_multiplicity
 _atom_site_fract_x
 _atom_site_fract_y
 _atom_site_fract_z
 _atom_site_occupancy
  Li  Li0  1  0.09386524  0.51514746  0.94916655  1
  Li  Li1  1  0.08627743  0.27461271  0.82844963  1
  Li  Li2  1  0.10419331  0.01459222  0.70112322  1
  Li  Li3  1  0.10699760  0.78807254  0.56250470  1
  Li  Li4  1  0.09386524  0.48485254  0.44916655  1
  Li  Li5  1  0.08627743  0.72538729  0.32844963  1
  Li  Li6  1  0.10419331  0.98540778  0.20112322  1
  Li  Li7  1  0.10699760  0.21192746  0.06250470  1
  Li  Li8  1  0.29467933  0.78628015  0.97814952  1
  Li  Li9  1  0.29963506  0.95529112  0.83789421  1
  Li  Li10  1  0.30396149  0.54262070  0.84635198  1
  Li  Li11  1  0.29380246  0.95334078  0.64227756  1
  Li  Li12  1  0.29467933  0.21371985  0.47814952  1
  Li  Li13  1  0.29963506  0.04470888  0.33789421  1
  Li  Li14  1  0.30396149  0.45737930  0.34635198  1
  Li  Li15  1  0.29380246  0.04665922  0.14227756  1
  Li  Li16  1  0.51567820  0.25988788  0.86761467  1
  Li  Li17  1  0.50000000  0.57250629  0.75000000  1
  Li  Li18  1  0.48432180  0.25988788  0.63238533  1
  Li  Li19  1  0.50000000  0.00000000  0.50000000  1
  Li  Li20  1  0.51567820  0.74011212  0.36761467  1
  Li  Li21  1  0.50000000  0.42749371  0.25000000  1
  Li  Li22  1  0.48432180  0.74011212  0.13238533  1
  Li  Li23  1  0.50000000  0.00000000  0.00000000  1
  Li  Li24  1  0.70619754  0.95334078  0.85772244  1
  Li  Li25  1  0.69603851  0.54262070  0.65364802  1
  Li  Li26  1  0.70036494  0.95529112  0.66210579  1
  Li  Li27  1  0.70532067  0.78628015  0.52185048  1
  Li  Li28  1  0.70619754  0.04665922  0.35772244  1
  Li  Li29  1  0.69603851  0.45737930  0.15364802  1
  Li  Li30  1  0.70036494  0.04470888  0.16210579  1
  Li  Li31  1  0.70532067  0.21371985  0.02185048  1
  Li  Li32  1  0.89300240  0.78807254  0.93749530  1
  Li  Li33  1  0.89580669  0.01459222  0.79887678  1
  Li  Li34  1  0.91372257  0.27461271  0.67155037  1
  Li  Li35  1  0.90613476  0.51514746  0.55083345  1
  Li  Li36  1  0.89300240  0.21192746  0.43749530  1
  Li  Li37  1  0.89580669  0.98540778  0.29887678  1
  Li  Li38  1  0.91372257  0.72538729  0.17155037  1
  Li  Li39  1  0.90613476  0.48485254  0.05083345  1
  Mn  Mn40  1  0.10055900  0.53929399  0.69845268  1
  Mn  Mn41  1  0.10055900  0.46070601  0.19845268  1
  Mn  Mn42  1  0.29763465  0.51990428  0.59766149  1
  Mn  Mn43  1  0.29763465  0.48009572  0.09766149  1
  Mn  Mn44  1  0.50000000  0.50000000  0.50000000  1
  Mn  Mn45  1  0.50000000  0.50000000  0.00000000  1
  Mn  Mn46  1  0.70236535  0.51990428  0.90233851  1
  Mn  Mn47  1  0.70236535  0.48009572  0.40233851  1
  Mn  Mn48  1  0.89944100  0.53929399  0.80154732  1
  Mn  Mn49  1  0.89944100  0.46070601  0.30154732  1
  P  P50  1  0.10056089  0.80038385  0.83348921  1
  P  P51  1  0.09918588  0.24474837  0.56886579  1
  P  P52  1  0.10056089  0.19961615  0.33348921  1
  P  P53  1  0.09918588  0.75525163  0.06886579  1
  P  P54  1  0.29316514  0.25673003  0.95400968  1
  P  P55  1  0.30449532  0.28045879  0.73973925  1
  P  P56  1  0.29316514  0.74326997  0.45400968  1
  P  P57  1  0.30449532  0.71954121  0.23973925  1
  P  P58  1  0.50522943  0.79370404  0.87400373  1
  P  P59  1  0.49477057  0.79370404  0.62599627  1
  P  P60  1  0.50522943  0.20629596  0.37400373  1
  P  P61  1  0.49477057  0.20629596  0.12599627  1
  P  P62  1  0.69550468  0.28045879  0.76026075  1
  P  P63  1  0.70683486  0.25673003  0.54599032  1
  P  P64  1  0.69550468  0.71954121  0.26026075  1
  P  P65  1  0.70683486  0.74326997  0.04599032  1
  P  P66  1  0.90081412  0.24474837  0.93113421  1
  P  P67  1  0.89943911  0.80038385  0.66651079  1
  P  P68  1  0.90081412  0.75525163  0.43113421  1
  P  P69  1  0.89943911  0.19961615  0.16651079  1
  O  O70  1  0.01635403  0.66649812  0.86115890  1
  O  O71  1  -0.00000000  0.42478001  0.75000000  1
  O  O72  1  0.00163142  0.27584316  0.51358119  1
  O  O73  1  0.06185500  0.00402387  0.82907142  1
  O  O74  1  0.01635403  0.33350188  0.36115890  1
  O  O75  1  -0.00000000  0.57521999  0.25000000  1
  O  O76  1  0.07235424  0.32034374  0.64061763  1
  O  O77  1  0.11668525  0.75628024  0.75596227  1
  O  O78  1  0.00163142  0.72415684  0.01358119  1
  O  O79  1  0.06185500  0.99597613  0.32907142  1
  O  O80  1  0.14141753  0.04565915  0.58480158  1
  O  O81  1  0.20627068  0.76079200  0.88075743  1
  O  O82  1  0.07235424  0.67965626  0.14061763  1
  O  O83  1  0.19341905  0.32893427  0.90753334  1
  O  O84  1  0.11668525  0.24371976  0.25596227  1
  O  O85  1  0.21287072  0.41373993  0.75934184  1
  O  O86  1  0.19407240  0.64631090  0.64176413  1
  O  O87  1  0.18860871  0.36918945  0.54032913  1
  O  O88  1  0.14141753  0.95434085  0.08480158  1
  O  O89  1  0.20627068  0.23920800  0.38075743  1
  O  O90  1  0.19341905  0.67106573  0.40753334  1
  O  O91  1  0.26687396  0.07483275  0.74147681  1
  O  O92  1  0.21287072  0.58626007  0.25934184  1
  O  O93  1  0.19407240  0.35368910  0.14176413  1
  O  O94  1  0.32711440  0.05322360  0.94294080  1
  O  O95  1  0.18860871  0.63081055  0.04032913  1
  O  O96  1  0.27562124  0.72562485  0.53252842  1
  O  O97  1  0.32580470  0.31662967  0.66327434  1
  O  O98  1  0.26687396  0.92516725  0.24147681  1
  O  O99  1  0.38555388  0.39159168  0.93598808  1
  O  O100  1  0.32711440  0.94677640  0.44294080  1
  O  O101  1  0.40283243  0.33243747  0.79151063  1
  O  O102  1  0.27562124  0.27437515  0.03252842  1
  O  O103  1  0.40398635  0.76373093  0.82186637  1
  O  O104  1  0.32580470  0.68337033  0.16327434  1
  O  O105  1  0.40863814  0.66396104  0.65355346  1
  O  O106  1  0.39814303  0.39388928  0.55071964  1
  O  O107  1  0.38555388  0.60840832  0.43598808  1
  O  O108  1  0.48343674  0.73509610  0.94937811  1
  O  O109  1  0.40283243  0.66756253  0.29151063  1
  O  O110  1  0.40398635  0.23626907  0.32186637  1
  O  O111  1  0.45174702  0.99454781  0.61715469  1
  O  O112  1  0.40863814  0.33603896  0.15355346  1
  O  O113  1  0.39814303  0.60611072  0.05071964  1
  O  O114  1  0.54825298  0.99454781  0.88284531  1
  O  O115  1  0.48343674  0.26490390  0.44937811  1
  O  O116  1  0.51656326  0.73509610  0.55062189  1
  O  O117  1  0.45174702  0.00545219  0.11715469  1
  O  O118  1  0.60185697  0.39388928  0.94928036  1
  O  O119  1  0.59136186  0.66396104  0.84644654  1
  O  O120  1  0.54825298  0.00545219  0.38284531  1
  O  O121  1  0.59601365  0.76373093  0.67813363  1
  O  O122  1  0.59716757  0.33243747  0.70848937  1
  O  O123  1  0.51656326  0.26490390  0.05062189  1
  O  O124  1  0.61444612  0.39159168  0.56401192  1
  O  O125  1  0.60185697  0.60611072  0.44928036  1
  O  O126  1  0.59136186  0.33603896  0.34644654  1
  O  O127  1  0.67419530  0.31662967  0.83672566  1
  O  O128  1  0.59601365  0.23626907  0.17813363  1
  O  O129  1  0.72437876  0.72562485  0.96747158  1
  O  O130  1  0.59716757  0.66756253  0.20848937  1
  O  O131  1  0.67288560  0.05322360  0.55705920  1
  O  O132  1  0.61444612  0.60840832  0.06401192  1
  O  O133  1  0.73312604  0.07483275  0.75852319  1
  O  O134  1  0.67419530  0.68337033  0.33672566  1
  O  O135  1  0.72437876  0.27437515  0.46747158  1
  O  O136  1  0.81139129  0.36918945  0.95967087  1
  O  O137  1  0.67288560  0.94677640  0.05705920  1
  O  O138  1  0.80592760  0.64631090  0.85823587  1
  O  O139  1  0.78712928  0.41373993  0.74065816  1
  O  O140  1  0.73312604  0.92516725  0.25852319  1
  O  O141  1  0.80658095  0.32893427  0.59246666  1
  O  O142  1  0.79372932  0.76079200  0.61924257  1
  O  O143  1  0.85858247  0.04565915  0.91519842  1
  O  O144  1  0.81139129  0.63081055  0.45967087  1
  O  O145  1  0.80592760  0.35368910  0.35823587  1
  O  O146  1  0.78712928  0.58626007  0.24065816  1
  O  O147  1  0.88331475  0.75628024  0.74403773  1
  O  O148  1  0.80658095  0.67106573  0.09246666  1
  O  O149  1  0.92764576  0.32034374  0.85938237  1
  O  O150  1  0.79372932  0.23920800  0.11924257  1
  O  O151  1  0.85858247  0.95434085  0.41519842  1
  O  O152  1  0.93814500  0.00402387  0.67092858  1
  O  O153  1  0.99836858  0.27584316  0.98641881  1
  O  O154  1  0.88331475  0.24371976  0.24403773  1
  O  O155  1  0.92764576  0.67965626  0.35938237  1
  O  O156  1  0.98364597  0.66649812  0.63884110  1
  O  O157  1  0.93814500  0.99597613  0.17092858  1
  O  O158  1  0.99836858  0.72415684  0.48641881  1
  O  O159  1  0.98364597  0.33350188  0.13884110  1
