# generated using pymatgen
data_Li2Co3TeO8
_symmetry_space_group_name_H-M   'P 1'
_cell_length_a   5.92473147
_cell_length_b   5.92473147
_cell_length_c   9.77777039
_cell_angle_alpha   89.95083199
_cell_angle_beta   89.95083199
_cell_angle_gamma   119.98634794
_symmetry_Int_Tables_number   1
_chemical_formula_structural   Li2Co3TeO8
_chemical_formula_sum   'Li4 Co6 Te2 O16'
_cell_volume   297.28082525
_cell_formula_units_Z   2
loop_
 _symmetry_equiv_pos_site_id
 _symmetry_equiv_pos_as_xyz
  1  'x, y, z'
loop_
 _atom_site_type_symbol
 _atom_site_label
 _atom_site_symmetry_multiplicity
 _atom_site_fract_x
 _atom_site_fract_y
 _atom_site_fract_z
 _atom_site_occupancy
  Li  Li0  1  0.66281800  0.33203600  0.09300700  1
  Li  Li1  1  0.00041300  0.00045300  0.01266400  1
  Li  Li2  1  0.00045300  0.00041300  0.51266400  1
  Li  Li3  1  0.33203600  0.66281800  0.59300700  1
  Co  Co4  1  0.83116500  0.66322600  0.77845900  1
  Co  Co5  1  0.35378900  0.16716100  0.78835500  1
  Co  Co6  1  0.81270900  0.16725800  0.78762200  1
  Co  Co7  1  0.16725800  0.81270900  0.28762200  1
  Co  Co8  1  0.66322600  0.83116500  0.27845900  1
  Co  Co9  1  0.16716100  0.35378900  0.28835500  1
  Te  Te10  1  0.66228000  0.33040900  0.51313500  1
  Te  Te11  1  0.33040900  0.66228000  0.01313500  1
  O  O12  1  0.83213100  0.65828600  0.41131700  1
  O  O13  1  0.51875200  0.48058400  0.64901400  1
  O  O14  1  0.67709000  0.35340900  0.89177800  1
  O  O15  1  0.99756900  0.99595700  0.70466600  1
  O  O16  1  0.99595700  0.99756900  0.20466600  1
  O  O17  1  0.33996400  0.17062100  0.41080000  1
  O  O18  1  0.95949000  0.47967300  0.64785000  1
  O  O19  1  0.51528800  0.03137300  0.64611200  1
  O  O20  1  0.17381600  0.83259100  0.91130200  1
  O  O21  1  0.83259100  0.17381600  0.41130200  1
  O  O22  1  0.47967300  0.95949000  0.14785000  1
  O  O23  1  0.03137300  0.51528800  0.14611200  1
  O  O24  1  0.35340900  0.67709000  0.39177800  1
  O  O25  1  0.65828600  0.83213100  0.91131700  1
  O  O26  1  0.48058400  0.51875200  0.14901400  1
  O  O27  1  0.17062100  0.33996400  0.91080000  1
