# generated using pymatgen
data_Li2Mn3CoO8
_symmetry_space_group_name_H-M   'P 1'
_cell_length_a   8.35215400
_cell_length_b   8.35215400
_cell_length_c   8.35215400
_cell_angle_alpha   90.00000000
_cell_angle_beta   90.00000000
_cell_angle_gamma   90.00000000
_symmetry_Int_Tables_number   1
_chemical_formula_structural   Li2Mn3CoO8
_chemical_formula_sum   'Li8 Mn12 Co4 O32'
_cell_volume   582.63353803
_cell_formula_units_Z   4
loop_
 _symmetry_equiv_pos_site_id
 _symmetry_equiv_pos_as_xyz
  1  'x, y, z'
loop_
 _atom_site_type_symbol
 _atom_site_label
 _atom_site_symmetry_multiplicity
 _atom_site_fract_x
 _atom_site_fract_y
 _atom_site_fract_z
 _atom_site_occupancy
  Li  Li0  1  0.50460900  0.50460900  0.50460900  1
  Li  Li1  1  0.74539100  0.74539100  0.74539100  1
  Li  Li2  1  0.75460900  0.25460900  0.24539100  1
  Li  Li3  1  0.99539100  0.49539100  0.00460900  1
  Li  Li4  1  0.00460900  0.99539100  0.49539100  1
  Li  Li5  1  0.24539100  0.75460900  0.25460900  1
  Li  Li6  1  0.25460900  0.24539100  0.75460900  1
  Li  Li7  1  0.49539100  0.00460900  0.99539100  1
  Mn  Mn8  1  0.61962900  0.63037100  0.12500000  1
  Mn  Mn9  1  0.62500000  0.88037100  0.36962900  1
  Mn  Mn10  1  0.63037100  0.12500000  0.61962900  1
  Mn  Mn11  1  0.86962900  0.87500000  0.11962900  1
  Mn  Mn12  1  0.87500000  0.11962900  0.86962900  1
  Mn  Mn13  1  0.88037100  0.36962900  0.62500000  1
  Mn  Mn14  1  0.11962900  0.86962900  0.87500000  1
  Mn  Mn15  1  0.12500000  0.61962900  0.63037100  1
  Mn  Mn16  1  0.13037100  0.37500000  0.38037100  1
  Mn  Mn17  1  0.36962900  0.62500000  0.88037100  1
  Mn  Mn18  1  0.37500000  0.38037100  0.13037100  1
  Mn  Mn19  1  0.38037100  0.13037100  0.37500000  1
  Co  Co20  1  0.62500000  0.37500000  0.87500000  1
  Co  Co21  1  0.87500000  0.62500000  0.37500000  1
  Co  Co22  1  0.12500000  0.12500000  0.12500000  1
  Co  Co23  1  0.37500000  0.87500000  0.62500000  1
  O  O24  1  0.59908400  0.62601600  0.89359400  1
  O  O25  1  0.60640600  0.40091600  0.12601600  1
  O  O26  1  0.61563700  0.11563700  0.38436300  1
  O  O27  1  0.62398400  0.65091600  0.35640600  1
  O  O28  1  0.62601600  0.89359400  0.59908400  1
  O  O29  1  0.63436300  0.86563700  0.13436300  1
  O  O30  1  0.64359400  0.12398400  0.84908400  1
  O  O31  1  0.65091600  0.35640600  0.62398400  1
  O  O32  1  0.84908400  0.64359400  0.12398400  1
  O  O33  1  0.85640600  0.87601600  0.34908400  1
  O  O34  1  0.86563700  0.13436300  0.63436300  1
  O  O35  1  0.87398400  0.10640600  0.09908400  1
  O  O36  1  0.87601600  0.34908400  0.85640600  1
  O  O37  1  0.88436300  0.88436300  0.88436300  1
  O  O38  1  0.89359400  0.59908400  0.62601600  1
  O  O39  1  0.90091600  0.37398400  0.39359400  1
  O  O40  1  0.09908400  0.87398400  0.10640600  1
  O  O41  1  0.10640600  0.09908400  0.87398400  1
  O  O42  1  0.11563700  0.38436300  0.61563700  1
  O  O43  1  0.12398400  0.84908400  0.64359400  1
  O  O44  1  0.12601600  0.60640600  0.40091600  1
  O  O45  1  0.13436300  0.63436300  0.86563700  1
  O  O46  1  0.14359400  0.37601600  0.15091600  1
  O  O47  1  0.15091600  0.14359400  0.37601600  1
  O  O48  1  0.34908400  0.85640600  0.87601600  1
  O  O49  1  0.35640600  0.62398400  0.65091600  1
  O  O50  1  0.36563700  0.36563700  0.36563700  1
  O  O51  1  0.37398400  0.39359400  0.90091600  1
  O  O52  1  0.37601600  0.15091600  0.14359400  1
  O  O53  1  0.38436300  0.61563700  0.11563700  1
  O  O54  1  0.39359400  0.90091600  0.37398400  1
  O  O55  1  0.40091600  0.12601600  0.60640600  1
