# generated using pymatgen
data_Li4TiCo5O12
_symmetry_space_group_name_H-M   'P 1'
_cell_length_a   4.99199641
_cell_length_b   4.97532086
_cell_length_c   9.99360229
_cell_angle_alpha   93.98661887
_cell_angle_beta   97.96483958
_cell_angle_gamma   59.89017421
_symmetry_Int_Tables_number   1
_chemical_formula_structural   Li4TiCo5O12
_chemical_formula_sum   'Li4 Ti1 Co5 O12'
_cell_volume   212.64565375
_cell_formula_units_Z   1
loop_
 _symmetry_equiv_pos_site_id
 _symmetry_equiv_pos_as_xyz
  1  'x, y, z'
loop_
 _atom_site_type_symbol
 _atom_site_label
 _atom_site_symmetry_multiplicity
 _atom_site_fract_x
 _atom_site_fract_y
 _atom_site_fract_z
 _atom_site_occupancy
  Li  Li0  1  0.24026500  0.33393800  0.74706800  1
  Li  Li1  1  0.42578500  0.33395900  0.25293100  1
  Li  Li2  1  0.57421100  0.66604200  0.74706900  1
  Li  Li3  1  0.75972900  0.66606700  0.25293100  1
  Ti  Ti4  1  0.00000200  0.00000000  0.00000000  1
  Co  Co5  1  0.16522100  0.66955500  0.50000200  1
  Co  Co6  1  0.66650300  0.66699900  0.00000000  1
  Co  Co7  1  0.33350300  0.33300000  0.00000000  1
  Co  Co8  1  0.83477300  0.33044400  0.49999900  1
  Co  Co9  1  0.49999900  0.00000100  0.50000000  1
  O  O10  1  0.02862400  0.65868200  0.10564400  1
  O  O11  1  0.31270100  0.65868000  0.89435600  1
  O  O12  1  0.16035200  0.32423800  0.39327000  1
  O  O13  1  0.48457800  0.67577200  0.39326600  1
  O  O14  1  0.51542600  0.32422100  0.60673600  1
  O  O15  1  0.21580400  0.99998900  0.60530000  1
  O  O16  1  0.83964500  0.67576800  0.60673200  1
  O  O17  1  0.68730400  0.34132000  0.10564400  1
  O  O18  1  0.37118500  0.00000100  0.10462100  1
  O  O19  1  0.97138200  0.34131700  0.89435600  1
  O  O20  1  0.62882000  0.00000000  0.89537900  1
  O  O21  1  0.78418800  0.00001000  0.39469800  1
