# generated using pymatgen
data_Li2Zn2(MoO4)3
_symmetry_space_group_name_H-M   'P 1'
_cell_length_a   5.18302700
_cell_length_b   10.67790700
_cell_length_c   17.85860000
_cell_angle_alpha   90.00000000
_cell_angle_beta   90.00000000
_cell_angle_gamma   90.00000000
_symmetry_Int_Tables_number   1
_chemical_formula_structural   Li2Zn2(MoO4)3
_chemical_formula_sum   'Li8 Zn8 Mo12 O48'
_cell_volume   988.36422045
_cell_formula_units_Z   4
loop_
 _symmetry_equiv_pos_site_id
 _symmetry_equiv_pos_as_xyz
  1  'x, y, z'
loop_
 _atom_site_type_symbol
 _atom_site_label
 _atom_site_symmetry_multiplicity
 _atom_site_fract_x
 _atom_site_fract_y
 _atom_site_fract_z
 _atom_site_occupancy
  Li  Li0  1  0.25625100  0.25000000  0.69818100  1
  Li  Li1  1  0.74374900  0.75000000  0.30181900  1
  Li  Li2  1  0.24374900  0.75000000  0.19818100  1
  Li  Li3  1  0.75625100  0.25000000  0.80181900  1
  Li  Li4  1  0.10594300  0.25000000  0.24899800  1
  Li  Li5  1  0.89405700  0.75000000  0.75100200  1
  Li  Li6  1  0.39405700  0.75000000  0.74899800  1
  Li  Li7  1  0.60594300  0.25000000  0.25100200  1
  Zn  Zn8  1  0.24511400  0.07873400  0.52985500  1
  Zn  Zn9  1  0.75488600  0.92126600  0.47014500  1
  Zn  Zn10  1  0.25488600  0.92126600  0.02985500  1
  Zn  Zn11  1  0.75488600  0.57873400  0.47014500  1
  Zn  Zn12  1  0.74511400  0.07873400  0.97014500  1
  Zn  Zn13  1  0.24511400  0.42126600  0.52985500  1
  Zn  Zn14  1  0.74511400  0.42126600  0.97014500  1
  Zn  Zn15  1  0.25488600  0.57873400  0.02985500  1
  Mo  Mo16  1  0.27766800  0.52653300  0.34294000  1
  Mo  Mo17  1  0.72233200  0.47346700  0.65706000  1
  Mo  Mo18  1  0.22233200  0.47346700  0.84294000  1
  Mo  Mo19  1  0.72233200  0.02653300  0.65706000  1
  Mo  Mo20  1  0.77766800  0.52653300  0.15706000  1
  Mo  Mo21  1  0.27766800  0.97346700  0.34294000  1
  Mo  Mo22  1  0.77766800  0.97346700  0.15706000  1
  Mo  Mo23  1  0.22233200  0.02653300  0.84294000  1
  Mo  Mo24  1  0.27827300  0.25000000  0.05714600  1
  Mo  Mo25  1  0.72172700  0.75000000  0.94285400  1
  Mo  Mo26  1  0.22172700  0.75000000  0.55714600  1
  Mo  Mo27  1  0.77827300  0.25000000  0.44285400  1
  O  O28  1  0.06047000  0.25000000  0.50700200  1
  O  O29  1  0.93953000  0.75000000  0.49299800  1
  O  O30  1  0.43953000  0.75000000  0.00700200  1
  O  O31  1  0.56047000  0.25000000  0.99299800  1
  O  O32  1  0.35403500  0.11427800  0.29548100  1
  O  O33  1  0.64596500  0.88572200  0.70451900  1
  O  O34  1  0.14596500  0.88572200  0.79548100  1
  O  O35  1  0.64596500  0.61427800  0.70451900  1
  O  O36  1  0.85403500  0.11427800  0.20451900  1
  O  O37  1  0.35403500  0.38572200  0.29548100  1
  O  O38  1  0.85403500  0.38572200  0.20451900  1
  O  O39  1  0.14596500  0.61427800  0.79548100  1
  O  O40  1  0.35948600  0.25000000  0.15242100  1
  O  O41  1  0.64051400  0.75000000  0.84757900  1
  O  O42  1  0.14051400  0.75000000  0.65242100  1
  O  O43  1  0.85948600  0.25000000  0.34757900  1
  O  O44  1  0.08047700  0.01148500  0.42665200  1
  O  O45  1  0.91952300  0.98851500  0.57334800  1
  O  O46  1  0.41952300  0.98851500  0.92665200  1
  O  O47  1  0.91952300  0.51148500  0.57334800  1
  O  O48  1  0.58047700  0.01148500  0.07334800  1
  O  O49  1  0.08047700  0.48851500  0.42665200  1
  O  O50  1  0.58047700  0.48851500  0.07334800  1
  O  O51  1  0.41952300  0.51148500  0.92665200  1
  O  O52  1  0.07825600  0.62293500  0.28683400  1
  O  O53  1  0.92174400  0.37706500  0.71316600  1
  O  O54  1  0.42174400  0.37706500  0.78683400  1
  O  O55  1  0.92174400  0.12293500  0.71316600  1
  O  O56  1  0.57825600  0.62293500  0.21316600  1
  O  O57  1  0.07825600  0.87706500  0.28683400  1
  O  O58  1  0.57825600  0.87706500  0.21316600  1
  O  O59  1  0.42174400  0.12293500  0.78683400  1
  O  O60  1  0.07857300  0.11491400  0.03693500  1
  O  O61  1  0.92142700  0.88508600  0.96306500  1
  O  O62  1  0.42142700  0.88508600  0.53693500  1
  O  O63  1  0.92142700  0.61491400  0.96306500  1
  O  O64  1  0.57857300  0.11491400  0.46306500  1
  O  O65  1  0.07857300  0.38508600  0.03693500  1
  O  O66  1  0.57857300  0.38508600  0.46306500  1
  O  O67  1  0.42142700  0.61491400  0.53693500  1
  O  O68  1  0.06245000  0.61340900  0.12585900  1
  O  O69  1  0.93755000  0.38659100  0.87414100  1
  O  O70  1  0.43755000  0.38659100  0.62585900  1
  O  O71  1  0.93755000  0.11340900  0.87414100  1
  O  O72  1  0.56245000  0.61340900  0.37414100  1
  O  O73  1  0.06245000  0.88659100  0.12585900  1
  O  O74  1  0.56245000  0.88659100  0.37414100  1
  O  O75  1  0.43755000  0.11340900  0.62585900  1
