# generated using pymatgen
data_Li7Co5O12
_symmetry_space_group_name_H-M   'P 1'
_cell_length_a   6.66250097
_cell_length_b   10.06153375
_cell_length_c   6.53603409
_cell_angle_alpha   97.14840354
_cell_angle_beta   84.31013868
_cell_angle_gamma   98.52864823
_symmetry_Int_Tables_number   1
_chemical_formula_structural   Li7Co5O12
_chemical_formula_sum   'Li14 Co10 O24'
_cell_volume   428.47387898
_cell_formula_units_Z   2
loop_
 _symmetry_equiv_pos_site_id
 _symmetry_equiv_pos_as_xyz
  1  'x, y, z'
loop_
 _atom_site_type_symbol
 _atom_site_label
 _atom_site_symmetry_multiplicity
 _atom_site_fract_x
 _atom_site_fract_y
 _atom_site_fract_z
 _atom_site_occupancy
  Li  Li0  1  0.83546100  0.25189900  0.17176700  1
  Li  Li1  1  0.82746100  0.74917300  0.16695500  1
  Li  Li2  1  0.07399500  0.13247700  0.41886100  1
  Li  Li3  1  0.08474500  0.62523400  0.40313200  1
  Li  Li4  1  0.58358000  0.37073900  0.92831900  1
  Li  Li5  1  0.58083600  0.86955200  0.93209700  1
  Li  Li6  1  0.75265100  0.12737500  0.75256000  1
  Li  Li7  1  0.74679100  0.62039600  0.74865800  1
  Li  Li8  1  0.41925000  0.11599200  0.08341300  1
  Li  Li9  1  0.41880100  0.61699900  0.08177700  1
  Li  Li10  1  0.24534600  0.38235100  0.25383700  1
  Li  Li11  1  0.25509900  0.87997300  0.25217800  1
  Li  Li12  1  0.91455800  0.37651800  0.57843200  1
  Li  Li13  1  0.91799800  0.88271000  0.58283800  1
  Co  Co14  1  0.33830900  0.99917900  0.66671400  1
  Co  Co15  1  0.32985100  0.49927900  0.65950800  1
  Co  Co16  1  0.67880700  0.00781800  0.33547900  1
  Co  Co17  1  0.66962700  0.50299800  0.32924600  1
  Co  Co18  1  0.16614600  0.74972200  0.83736900  1
  Co  Co19  1  0.98880500  0.49532500  0.00224900  1
  Co  Co20  1  0.99815000  0.99965400  0.00720900  1
  Co  Co21  1  0.50807900  0.25116300  0.49379800  1
  Co  Co22  1  0.50188600  0.74765200  0.48145000  1
  Co  Co23  1  0.16900900  0.25237700  0.83651100  1
  O  O24  1  0.45420800  0.18345600  0.77447600  1
  O  O25  1  0.44958000  0.68518600  0.76901900  1
  O  O26  1  0.22073700  0.31697200  0.54808500  1
  O  O27  1  0.21461800  0.81873000  0.55802000  1
  O  O28  1  0.95702100  0.44383000  0.27115900  1
  O  O29  1  0.93801300  0.94537700  0.29055700  1
  O  O30  1  0.71048300  0.05380600  0.06805300  1
  O  O31  1  0.70821500  0.55433700  0.05700000  1
  O  O32  1  0.11543000  0.16530400  0.10886600  1
  O  O33  1  0.11718500  0.66835500  0.09314900  1
  O  O34  1  0.77723700  0.18596800  0.46253900  1
  O  O35  1  0.76978500  0.67033600  0.44697600  1
  O  O36  1  0.89019400  0.32723700  0.88467200  1
  O  O37  1  0.89879800  0.83427500  0.88638400  1
  O  O38  1  0.54718900  0.32734500  0.23531200  1
  O  O39  1  0.53568900  0.81329600  0.23009300  1
  O  O40  1  0.61591500  0.44261000  0.60391300  1
  O  O41  1  0.62415100  0.94135900  0.60175000  1
  O  O42  1  0.28855100  0.42450000  0.94489100  1
  O  O43  1  0.28588700  0.93371300  0.95165200  1
  O  O44  1  0.40111900  0.06171500  0.37954500  1
  O  O45  1  0.37313200  0.56322800  0.37999700  1
  O  O46  1  0.05730400  0.07178500  0.72352800  1
  O  O47  1  0.04431600  0.56072600  0.72600700  1
