# generated using pymatgen
data_Li4MnCo2O7
_symmetry_space_group_name_H-M   'P 1'
_cell_length_a   10.56020250
_cell_length_b   10.56020250
_cell_length_c   8.50683253
_cell_angle_alpha   78.44102973
_cell_angle_beta   78.44102973
_cell_angle_gamma   15.58558729
_symmetry_Int_Tables_number   1
_chemical_formula_structural   Li4MnCo2O7
_chemical_formula_sum   'Li8 Mn2 Co4 O14'
_cell_volume   249.61751672
_cell_formula_units_Z   2
loop_
 _symmetry_equiv_pos_site_id
 _symmetry_equiv_pos_as_xyz
  1  'x, y, z'
loop_
 _atom_site_type_symbol
 _atom_site_label
 _atom_site_symmetry_multiplicity
 _atom_site_fract_x
 _atom_site_fract_y
 _atom_site_fract_z
 _atom_site_occupancy
  Li  Li0  1  0.57432500  0.57432500  0.22792500  1
  Li  Li1  1  0.71072700  0.71072700  0.63423900  1
  Li  Li2  1  0.85593200  0.85593200  0.07341600  1
  Li  Li3  1  0.00087000  0.00087000  0.49853200  1
  Li  Li4  1  0.14305700  0.14305700  0.92311500  1
  Li  Li5  1  0.28139100  0.28139100  0.36060300  1
  Li  Li6  1  0.42939200  0.42939200  0.78120300  1
  Li  Li7  1  0.14544800  0.14544800  0.42653800  1
  Mn  Mn8  1  0.00057000  0.00057000  0.99594900  1
  Mn  Mn9  1  0.71437300  0.71437300  0.15480400  1
  Co  Co10  1  0.28571000  0.28571000  0.85919200  1
  Co  Co11  1  0.42822200  0.42822200  0.28711400  1
  Co  Co12  1  0.57592000  0.57592000  0.68049100  1
  Co  Co13  1  0.85575500  0.85575500  0.57238300  1
  O  O14  1  0.56313200  0.56313200  0.97855600  1
  O  O15  1  0.71509600  0.71509600  0.36916700  1
  O  O16  1  0.84927600  0.84927600  0.82717000  1
  O  O17  1  0.99221600  0.99221600  0.23918300  1
  O  O18  1  0.14018700  0.14018700  0.68570200  1
  O  O19  1  0.27964200  0.27964200  0.11239600  1
  O  O20  1  0.42002000  0.42002000  0.54076600  1
  O  O21  1  0.56750300  0.56750300  0.47499000  1
  O  O22  1  0.72229800  0.72229800  0.90635100  1
  O  O23  1  0.86574500  0.86574500  0.31668500  1
  O  O24  1  0.00399500  0.00399500  0.77133800  1
  O  O25  1  0.15112500  0.15112500  0.16922400  1
  O  O26  1  0.29227500  0.29227500  0.60485900  1
  O  O27  1  0.43579900  0.43579900  0.02811000  1
