# generated using pymatgen
data_Li9Mn2Co5O16
_symmetry_space_group_name_H-M   'P 1'
_cell_length_a   5.17472600
_cell_length_b   7.61681287
_cell_length_c   7.73907677
_cell_angle_alpha   93.87549471
_cell_angle_beta   108.30429102
_cell_angle_gamma   96.70824686
_symmetry_Int_Tables_number   1
_chemical_formula_structural   Li9Mn2Co5O16
_chemical_formula_sum   'Li9 Mn2 Co5 O16'
_cell_volume   285.85404271
_cell_formula_units_Z   1
loop_
 _symmetry_equiv_pos_site_id
 _symmetry_equiv_pos_as_xyz
  1  'x, y, z'
loop_
 _atom_site_type_symbol
 _atom_site_label
 _atom_site_symmetry_multiplicity
 _atom_site_fract_x
 _atom_site_fract_y
 _atom_site_fract_z
 _atom_site_occupancy
  Li  Li0  1  0.56522300  0.18414400  0.06074600  1
  Li  Li1  1  0.94691900  0.31470800  0.44577700  1
  Li  Li2  1  0.30227200  0.43490100  0.80435800  1
  Li  Li3  1  0.68878800  0.56591800  0.19041800  1
  Li  Li4  1  0.06898000  0.69211200  0.56722600  1
  Li  Li5  1  0.43640100  0.81031400  0.93017800  1
  Li  Li6  1  0.81335700  0.93317300  0.32482300  1
  Li  Li7  1  0.17165300  0.05956400  0.67462500  1
  Li  Li8  1  0.62537000  0.87555700  0.62518500  1
  Mn  Mn9  1  0.00039200  0.00028500  0.99774600  1
  Mn  Mn10  1  0.12763900  0.37495000  0.12548900  1
  Co  Co11  1  0.38687100  0.12421700  0.38422900  1
  Co  Co12  1  0.75152600  0.24975100  0.74642900  1
  Co  Co13  1  0.50115300  0.50683000  0.50267700  1
  Co  Co14  1  0.86048500  0.63249100  0.86572100  1
  Co  Co15  1  0.25425400  0.75411100  0.25738900  1
  O  O16  1  0.15879000  0.21721600  0.92491600  1
  O  O17  1  0.49315900  0.33725100  0.27453200  1
  O  O18  1  0.88304800  0.46310200  0.65916900  1
  O  O19  1  0.26660100  0.58643600  0.04499500  1
  O  O20  1  0.63621200  0.70680000  0.40573800  1
  O  O21  1  0.03603800  0.84499500  0.80192800  1
  O  O22  1  0.37525700  0.96808100  0.15219400  1
  O  O23  1  0.76488100  0.10690100  0.53574900  1
  O  O24  1  0.98093700  0.15801800  0.20280000  1
  O  O25  1  0.34922700  0.28236900  0.58839900  1
  O  O26  1  0.76075800  0.40415900  0.96671300  1
  O  O27  1  0.09803500  0.52140000  0.32932600  1
  O  O28  1  0.48164500  0.64557600  0.72389700  1
  O  O29  1  0.85482000  0.79478700  0.08576300  1
  O  O30  1  0.21695200  0.90648700  0.45240600  1
  O  O31  1  0.64235700  0.04338900  0.84845600  1
