# generated using pymatgen
data_LiTiMnF6
_symmetry_space_group_name_H-M   'P 1'
_cell_length_a   8.91916211
_cell_length_b   8.91916211
_cell_length_c   4.71960800
_cell_angle_alpha   90.00000000
_cell_angle_beta   90.00000000
_cell_angle_gamma   120.00000082
_symmetry_Int_Tables_number   1
_chemical_formula_structural   LiTiMnF6
_chemical_formula_sum   'Li3 Ti3 Mn3 F18'
_cell_volume   325.15068387
_cell_formula_units_Z   3
loop_
 _symmetry_equiv_pos_site_id
 _symmetry_equiv_pos_as_xyz
  1  'x, y, z'
loop_
 _atom_site_type_symbol
 _atom_site_label
 _atom_site_symmetry_multiplicity
 _atom_site_fract_x
 _atom_site_fract_y
 _atom_site_fract_z
 _atom_site_occupancy
  Li  Li0  1  0.00000000  0.00000000  0.00000000  1
  Li  Li1  1  0.33333300  0.66666700  0.49335000  1
  Li  Li2  1  0.66666700  0.33333300  0.50665000  1
  Ti  Ti3  1  0.31445100  0.00000000  0.50000000  1
  Ti  Ti4  1  0.68554900  0.68554900  0.50000000  1
  Ti  Ti5  1  0.00000000  0.31445100  0.50000000  1
  Mn  Mn6  1  0.64767900  0.00000000  0.00000000  1
  Mn  Mn7  1  0.35232100  0.35232100  0.00000000  1
  Mn  Mn8  1  0.00000000  0.64767900  0.00000000  1
  F  F9  1  0.21937300  0.10804800  0.24383400  1
  F  F10  1  0.78020100  0.22019900  0.73081200  1
  F  F11  1  0.77980100  0.56000200  0.73081200  1
  F  F12  1  0.43999800  0.21979900  0.73081200  1
  F  F13  1  0.56000200  0.77980100  0.26918800  1
  F  F14  1  0.21979900  0.43999800  0.26918800  1
  F  F15  1  0.88867600  0.78062700  0.24383400  1
  F  F16  1  0.11132400  0.89195200  0.75616600  1
  F  F17  1  0.89195200  0.11132400  0.24383400  1
  F  F18  1  0.10804800  0.21937300  0.75616600  1
  F  F19  1  0.46531900  0.57207600  0.72385100  1
  F  F20  1  0.78062700  0.88867600  0.75616600  1
  F  F21  1  0.57207600  0.46531900  0.27614900  1
  F  F22  1  0.42792400  0.89324300  0.72385100  1
  F  F23  1  0.10675700  0.53468100  0.72385100  1
  F  F24  1  0.89324300  0.42792400  0.27614900  1
  F  F25  1  0.53468100  0.10675700  0.27614900  1
  F  F26  1  0.22019900  0.78020100  0.26918800  1
