# generated using pymatgen
data_Li5Mn5(SeO3)8
_symmetry_space_group_name_H-M   'P 1'
_cell_length_a   7.66721300
_cell_length_b   8.52171647
_cell_length_c   10.64435251
_cell_angle_alpha   106.21872208
_cell_angle_beta   88.42396113
_cell_angle_gamma   115.71983644
_symmetry_Int_Tables_number   1
_chemical_formula_structural   Li5Mn5(SeO3)8
_chemical_formula_sum   'Li5 Mn5 Se8 O24'
_cell_volume   598.09914899
_cell_formula_units_Z   1
loop_
 _symmetry_equiv_pos_site_id
 _symmetry_equiv_pos_as_xyz
  1  'x, y, z'
loop_
 _atom_site_type_symbol
 _atom_site_label
 _atom_site_symmetry_multiplicity
 _atom_site_fract_x
 _atom_site_fract_y
 _atom_site_fract_z
 _atom_site_occupancy
  Li  Li0  1  0.25179200  0.45748600  0.07161700  1
  Li  Li1  1  0.75235800  0.54618000  0.92368100  1
  Li  Li2  1  0.65239000  0.54711100  0.41930200  1
  Li  Li3  1  0.35352000  0.45749900  0.58528200  1
  Li  Li4  1  0.94222000  0.62153600  0.66821200  1
  Mn  Mn5  1  0.06129800  0.71673400  0.22024600  1
  Mn  Mn6  1  0.94098500  0.28759900  0.77778700  1
  Mn  Mn7  1  0.99830900  0.99863600  0.50211400  1
  Mn  Mn8  1  0.99962000  0.99932800  0.99764900  1
  Mn  Mn9  1  0.05857400  0.37856900  0.33517100  1
  Se  Se10  1  0.28687300  0.78806300  0.52575900  1
  Se  Se11  1  0.71030200  0.21319100  0.47972100  1
  Se  Se12  1  0.32431800  0.25818900  0.79617200  1
  Se  Se13  1  0.67509500  0.74098400  0.20395800  1
  Se  Se14  1  0.26049200  0.75337500  0.93143000  1
  Se  Se15  1  0.73565600  0.24350100  0.06669700  1
  Se  Se16  1  0.68408700  0.82098000  0.73565200  1
  Se  Se17  1  0.31811000  0.17715100  0.26308200  1
  O  O18  1  0.85711400  0.75260000  0.09511500  1
  O  O19  1  0.14207900  0.24700900  0.90508100  1
  O  O20  1  0.21562100  0.66334800  0.35811600  1
  O  O21  1  0.78474200  0.33942500  0.64131400  1
  O  O22  1  0.19238300  0.26014400  0.66256400  1
  O  O23  1  0.80868500  0.74034500  0.33730200  1
  O  O24  1  0.76954600  0.04590000  0.02283900  1
  O  O25  1  0.22950200  0.95423700  0.97940700  1
  O  O26  1  0.35055000  0.36837500  0.38869300  1
  O  O27  1  0.64426200  0.63084700  0.60965100  1
  O  O28  1  0.80083500  0.99417600  0.66294900  1
  O  O29  1  0.20130400  0.00723400  0.33649900  1
  O  O30  1  0.77314800  0.37954600  0.40115700  1
  O  O31  1  0.22460900  0.61259100  0.59212800  1
  O  O32  1  0.87764500  0.82284200  0.82455200  1
  O  O33  1  0.12229700  0.17665500  0.17551700  1
  O  O34  1  0.26609200  0.70986200  0.07938900  1
  O  O35  1  0.73569800  0.29142000  0.92123300  1
  O  O36  1  0.03688700  0.58748000  0.85180500  1
  O  O37  1  0.96230500  0.41062400  0.15001800  1
  O  O38  1  0.90247200  0.15997200  0.42736900  1
  O  O39  1  0.09749200  0.84026100  0.57274100  1
  O  O40  1  0.51286000  0.51886500  0.15061800  1
  O  O41  1  0.48587200  0.48012900  0.85041000  1
