# generated using pymatgen
data_Li4Si2NiO7
_symmetry_space_group_name_H-M   'P 1'
_cell_length_a   6.77698993
_cell_length_b   9.62007065
_cell_length_c   9.01927017
_cell_angle_alpha   90.21746944
_cell_angle_beta   90.58307928
_cell_angle_gamma   79.95786725
_symmetry_Int_Tables_number   1
_chemical_formula_structural   Li4Si2NiO7
_chemical_formula_sum   'Li16 Si8 Ni4 O28'
_cell_volume   578.97274530
_cell_formula_units_Z   4
loop_
 _symmetry_equiv_pos_site_id
 _symmetry_equiv_pos_as_xyz
  1  'x, y, z'
loop_
 _atom_site_type_symbol
 _atom_site_label
 _atom_site_symmetry_multiplicity
 _atom_site_fract_x
 _atom_site_fract_y
 _atom_site_fract_z
 _atom_site_occupancy
  Li  Li0  1  0.44324000  0.85139000  0.49026900  1
  Li  Li1  1  0.44151100  0.35258500  0.24360600  1
  Li  Li2  1  0.43293700  0.85380500  0.99292800  1
  Li  Li3  1  0.43754500  0.35240200  0.74051300  1
  Li  Li4  1  0.56695000  0.64877900  0.24041700  1
  Li  Li5  1  0.55791800  0.14996900  0.99121000  1
  Li  Li6  1  0.56250700  0.64849800  0.74347900  1
  Li  Li7  1  0.56913600  0.14719400  0.49353400  1
  Li  Li8  1  0.14756100  0.78774500  0.24133900  1
  Li  Li9  1  0.14784200  0.28794000  0.99757800  1
  Li  Li10  1  0.14205100  0.78584700  0.75037800  1
  Li  Li11  1  0.14676200  0.28472600  0.49703500  1
  Li  Li12  1  0.85321300  0.70929900  0.49691900  1
  Li  Li13  1  0.85460500  0.21211900  0.25248800  1
  Li  Li14  1  0.85469700  0.71232600  0.99604500  1
  Li  Li15  1  0.84941600  0.20958700  0.74335600  1
  Si  Si16  1  0.71583700  0.92664700  0.25379400  1
  Si  Si17  1  0.71192500  0.42437100  0.00629900  1
  Si  Si18  1  0.70539500  0.92462400  0.75593500  1
  Si  Si19  1  0.70916100  0.42797300  0.50705800  1
  Si  Si20  1  0.28652200  0.57786100  0.50286600  1
  Si  Si21  1  0.29337400  0.07628800  0.25626400  1
  Si  Si22  1  0.28945900  0.57409200  0.00338300  1
  Si  Si23  1  0.28288700  0.07443900  0.75377000  1
  Ni  Ni24  1  0.00663200  0.48834000  0.74971600  1
  Ni  Ni25  1  0.00970500  0.98511900  0.49987600  1
  Ni  Ni26  1  0.00679000  0.49139200  0.24987300  1
  Ni  Ni27  1  0.99173500  0.01211200  0.99996100  1
  O  O28  1  0.49951600  0.50426100  0.40895300  1
  O  O29  1  0.50301700  0.00326400  0.15887500  1
  O  O30  1  0.50084100  0.49880200  0.90862500  1
  O  O31  1  0.49361000  0.99902600  0.65878400  1
  O  O32  1  0.23194900  0.94824200  0.35654800  1
  O  O33  1  0.22964500  0.44785500  0.10768600  1
  O  O34  1  0.21887500  0.95071600  0.86048600  1
  O  O35  1  0.22651200  0.45025400  0.60509100  1
  O  O36  1  0.77514300  0.55287200  0.61271400  1
  O  O37  1  0.78093700  0.05105500  0.36111000  1
  O  O38  1  0.77817800  0.55077500  0.10963400  1
  O  O39  1  0.76705800  0.05334900  0.85721200  1
  O  O40  1  0.89171600  0.87296100  0.13142600  1
  O  O41  1  0.88780400  0.36546100  0.88617200  1
  O  O42  1  0.88264500  0.86748300  0.63651700  1
  O  O43  1  0.88634900  0.37092000  0.38747000  1
  O  O44  1  0.10812200  0.63252700  0.38052300  1
  O  O45  1  0.11391400  0.13483600  0.13677900  1
  O  O46  1  0.10969600  0.62737200  0.88183100  1
  O  O47  1  0.10450700  0.12869800  0.63118800  1
  O  O48  1  0.66161600  0.79665000  0.34984400  1
  O  O49  1  0.65888700  0.29472900  0.10425800  1
  O  O50  1  0.65156000  0.79682000  0.85506300  1
  O  O51  1  0.65409400  0.29835300  0.60303200  1
  O  O52  1  0.33850400  0.70845500  0.60144800  1
  O  O53  1  0.34719100  0.20599400  0.35514500  1
  O  O54  1  0.34427800  0.70413400  0.10045900  1
  O  O55  1  0.33651900  0.20666700  0.84923700  1
