# generated using pymatgen
data_Li9Mn2Co5O16
_symmetry_space_group_name_H-M   'P 1'
_cell_length_a   5.93089735
_cell_length_b   5.93089735
_cell_length_c   9.71336333
_cell_angle_alpha   82.36200660
_cell_angle_beta   82.36200660
_cell_angle_gamma   58.33494662
_symmetry_Int_Tables_number   1
_chemical_formula_structural   Li9Mn2Co5O16
_chemical_formula_sum   'Li9 Mn2 Co5 O16'
_cell_volume   287.41983800
_cell_formula_units_Z   1
loop_
 _symmetry_equiv_pos_site_id
 _symmetry_equiv_pos_as_xyz
  1  'x, y, z'
loop_
 _atom_site_type_symbol
 _atom_site_label
 _atom_site_symmetry_multiplicity
 _atom_site_fract_x
 _atom_site_fract_y
 _atom_site_fract_z
 _atom_site_occupancy
  Li  Li0  1  0.50116100  0.25375600  0.75740300  1
  Li  Li1  1  0.00068600  0.75199200  0.75303500  1
  Li  Li2  1  0.12792600  0.38762100  0.99396600  1
  Li  Li3  1  0.61237900  0.87207400  0.00603400  1
  Li  Li4  1  0.74624400  0.49883900  0.24259700  1
  Li  Li5  1  0.24800800  0.99931400  0.24696500  1
  Li  Li6  1  0.37933800  0.62066200  0.50000000  1
  Li  Li7  1  0.87767600  0.12232400  0.50000000  1
  Li  Li8  1  0.62180500  0.37819500  0.00000000  1
  Mn  Mn9  1  0.00439500  0.24945000  0.75358900  1
  Mn  Mn10  1  0.75055000  0.99560500  0.24641100  1
  Co  Co11  1  0.50115000  0.74262300  0.75865000  1
  Co  Co12  1  0.12117700  0.87882300  0.00000000  1
  Co  Co13  1  0.25737700  0.49885000  0.24135000  1
  Co  Co14  1  0.87661800  0.61902400  0.49995900  1
  Co  Co15  1  0.38097600  0.12338200  0.50004100  1
  O  O16  1  0.70636000  0.43051500  0.63246200  1
  O  O17  1  0.20037500  0.94893500  0.63303300  1
  O  O18  1  0.30445600  0.59907300  0.87940700  1
  O  O19  1  0.84630800  0.07462300  0.86977200  1
  O  O20  1  0.92086200  0.69704000  0.13474000  1
  O  O21  1  0.44197900  0.18815500  0.13894800  1
  O  O22  1  0.57612300  0.82390400  0.37050600  1
  O  O23  1  0.07369900  0.31538300  0.38709900  1
  O  O24  1  0.30296000  0.07913800  0.86526000  1
  O  O25  1  0.81184500  0.55802100  0.86105200  1
  O  O26  1  0.92537700  0.15369200  0.13022800  1
  O  O27  1  0.40092700  0.69554400  0.12059300  1
  O  O28  1  0.56948500  0.29364000  0.36753800  1
  O  O29  1  0.05106500  0.79962500  0.36696700  1
  O  O30  1  0.17609600  0.42387700  0.62949400  1
  O  O31  1  0.68461700  0.92630100  0.61290100  1
