# generated using pymatgen
data_Li2BeCl4
_symmetry_space_group_name_H-M   'P 1'
_cell_length_a   5.85109800
_cell_length_b   7.37954400
_cell_length_c   12.63833700
_cell_angle_alpha   90.00000000
_cell_angle_beta   90.00000000
_cell_angle_gamma   90.00000000
_symmetry_Int_Tables_number   1
_chemical_formula_structural   Li2BeCl4
_chemical_formula_sum   'Li8 Be4 Cl16'
_cell_volume   545.70361442
_cell_formula_units_Z   4
loop_
 _symmetry_equiv_pos_site_id
 _symmetry_equiv_pos_as_xyz
  1  'x, y, z'
loop_
 _atom_site_type_symbol
 _atom_site_label
 _atom_site_symmetry_multiplicity
 _atom_site_fract_x
 _atom_site_fract_y
 _atom_site_fract_z
 _atom_site_occupancy
  Li  Li0  1  0.99491700  0.75000000  0.73136200  1
  Li  Li1  1  0.00508300  0.25000000  0.26863800  1
  Li  Li2  1  0.49491700  0.25000000  0.76863800  1
  Li  Li3  1  0.50508300  0.75000000  0.23136200  1
  Li  Li4  1  0.50000000  0.50000000  0.50000000  1
  Li  Li5  1  0.00000000  0.50000000  0.00000000  1
  Li  Li6  1  0.50000000  0.00000000  0.50000000  1
  Li  Li7  1  0.00000000  0.00000000  0.00000000  1
  Be  Be8  1  0.60103800  0.75000000  0.90973000  1
  Be  Be9  1  0.39896200  0.25000000  0.09027000  1
  Be  Be10  1  0.10103800  0.25000000  0.59027000  1
  Be  Be11  1  0.89896200  0.75000000  0.40973000  1
  Cl  Cl12  1  0.25806400  0.75000000  0.90939500  1
  Cl  Cl13  1  0.74193600  0.25000000  0.09060500  1
  Cl  Cl14  1  0.75806400  0.25000000  0.59060500  1
  Cl  Cl15  1  0.24193600  0.75000000  0.40939500  1
  Cl  Cl16  1  0.75986900  0.75000000  0.56010900  1
  Cl  Cl17  1  0.24013100  0.25000000  0.43989100  1
  Cl  Cl18  1  0.25986900  0.25000000  0.93989100  1
  Cl  Cl19  1  0.74013100  0.75000000  0.06010900  1
  Cl  Cl20  1  0.73841500  0.52780700  0.83584100  1
  Cl  Cl21  1  0.26158500  0.47219300  0.16415900  1
  Cl  Cl22  1  0.23841500  0.47219300  0.66415900  1
  Cl  Cl23  1  0.26158500  0.02780700  0.16415900  1
  Cl  Cl24  1  0.76158500  0.52780700  0.33584100  1
  Cl  Cl25  1  0.73841500  0.97219300  0.83584100  1
  Cl  Cl26  1  0.76158500  0.97219300  0.33584100  1
  Cl  Cl27  1  0.23841500  0.02780700  0.66415900  1
