# generated using pymatgen
data_Li9Mn2Co5O16
_symmetry_space_group_name_H-M   'P 1'
_cell_length_a   11.34268000
_cell_length_b   5.18875200
_cell_length_c   5.19973143
_cell_angle_alpha   67.74004809
_cell_angle_beta   90.00000000
_cell_angle_gamma   90.00000000
_symmetry_Int_Tables_number   1
_chemical_formula_structural   Li9Mn2Co5O16
_chemical_formula_sum   'Li9 Mn2 Co5 O16'
_cell_volume   283.22009717
_cell_formula_units_Z   1
loop_
 _symmetry_equiv_pos_site_id
 _symmetry_equiv_pos_as_xyz
  1  'x, y, z'
loop_
 _atom_site_type_symbol
 _atom_site_label
 _atom_site_symmetry_multiplicity
 _atom_site_fract_x
 _atom_site_fract_y
 _atom_site_fract_z
 _atom_site_occupancy
  Li  Li0  1  0.12220600  0.50000000  0.00000000  1
  Li  Li1  1  0.24745600  0.50000000  0.50000000  1
  Li  Li2  1  0.37134000  0.50000000  0.00000000  1
  Li  Li3  1  0.50352000  0.50000000  0.50000000  1
  Li  Li4  1  0.63295100  0.50000000  0.00000000  1
  Li  Li5  1  0.75509800  0.50000000  0.50000000  1
  Li  Li6  1  0.87109900  0.50000000  0.00000000  1
  Li  Li7  1  0.99408700  0.50000000  0.50000000  1
  Li  Li8  1  0.87277800  0.00000000  0.50000000  1
  Mn  Mn9  1  0.99958800  0.00000000  0.00000000  1
  Mn  Mn10  1  0.50087500  0.00000000  0.00000000  1
  Co  Co11  1  0.12464400  0.00000000  0.50000000  1
  Co  Co12  1  0.25002100  0.00000000  0.00000000  1
  Co  Co13  1  0.37294200  0.00000000  0.50000000  1
  Co  Co14  1  0.63090500  0.00000000  0.50000000  1
  Co  Co15  1  0.75078100  0.00000000  0.00000000  1
  O  O16  1  0.12705800  0.23305500  0.77304100  1
  O  O17  1  0.25134200  0.22277600  0.27028100  1
  O  O18  1  0.37534400  0.23472500  0.77330700  1
  O  O19  1  0.49805000  0.20413700  0.25295500  1
  O  O20  1  0.62224100  0.23607200  0.77784000  1
  O  O21  1  0.74183900  0.22787900  0.26397000  1
  O  O22  1  0.87635500  0.23629300  0.78458000  1
  O  O23  1  0.00762500  0.21014400  0.24517300  1
  O  O24  1  0.12705800  0.76694500  0.22695900  1
  O  O25  1  0.25134200  0.77722400  0.72971900  1
  O  O26  1  0.37534400  0.76527500  0.22669300  1
  O  O27  1  0.49805000  0.79586300  0.74704500  1
  O  O28  1  0.62224100  0.76392800  0.22216000  1
  O  O29  1  0.74183900  0.77212100  0.73603000  1
  O  O30  1  0.87635500  0.76370700  0.21542000  1
  O  O31  1  0.00762500  0.78985600  0.75482700  1
