# generated using pymatgen
data_Li3Mn2O5
_symmetry_space_group_name_H-M   'P 1'
_cell_length_a   2.88847552
_cell_length_b   9.87905589
_cell_length_c   6.74665461
_cell_angle_alpha   103.25424006
_cell_angle_beta   77.63972211
_cell_angle_gamma   90.00126146
_symmetry_Int_Tables_number   1
_chemical_formula_structural   Li3Mn2O5
_chemical_formula_sum   'Li6 Mn4 O10'
_cell_volume   182.80298181
_cell_formula_units_Z   2
loop_
 _symmetry_equiv_pos_site_id
 _symmetry_equiv_pos_as_xyz
  1  'x, y, z'
loop_
 _atom_site_type_symbol
 _atom_site_label
 _atom_site_symmetry_multiplicity
 _atom_site_fract_x
 _atom_site_fract_y
 _atom_site_fract_z
 _atom_site_occupancy
  Li  Li0  1  0.29484100  0.10267200  0.41045800  1
  Li  Li1  1  0.90524800  0.29732600  0.18955300  1
  Li  Li2  1  0.69330500  0.90894000  0.61340500  1
  Li  Li3  1  0.10006100  0.70000300  0.79999400  1
  Li  Li4  1  0.50668000  0.49105700  0.98663100  1
  Li  Li5  1  0.59999800  0.19998700  0.79999500  1
  Mn  Mn6  1  0.00916200  0.00773600  0.98167200  1
  Mn  Mn7  1  0.19085100  0.39225700  0.61831200  1
  Mn  Mn8  1  0.79868700  0.59607400  0.40259500  1
  Mn  Mn9  1  0.40125200  0.80393700  0.19744700  1
  O  O10  1  0.45462100  0.13489900  0.09080000  1
  O  O11  1  0.06165600  0.35471900  0.87655500  1
  O  O12  1  0.86263500  0.94373400  0.27478200  1
  O  O13  1  0.25244900  0.73125800  0.49512200  1
  O  O14  1  0.65134800  0.53020500  0.69728500  1
  O  O15  1  0.13831100  0.04526800  0.72343000  1
  O  O16  1  0.74537500  0.26509900  0.50919700  1
  O  O17  1  0.54865900  0.86978600  0.90269800  1
  O  O18  1  0.94750500  0.66876100  0.10487200  1
  O  O19  1  0.33735700  0.45628100  0.32519700  1
