# generated using pymatgen
data_LiAlH8C16(O2F9)4
_symmetry_space_group_name_H-M   'P 1'
_cell_length_a   10.63616946
_cell_length_b   10.63616946
_cell_length_c   10.63616946
_cell_angle_alpha   101.21698498
_cell_angle_beta   101.21698498
_cell_angle_gamma   127.65820553
_symmetry_Int_Tables_number   1
_chemical_formula_structural   LiAlH8C16(O2F9)4
_chemical_formula_sum   'Li1 Al1 H8 C16 O8 F36'
_cell_volume   854.92023874
_cell_formula_units_Z   1
loop_
 _symmetry_equiv_pos_site_id
 _symmetry_equiv_pos_as_xyz
  1  'x, y, z'
loop_
 _atom_site_type_symbol
 _atom_site_label
 _atom_site_symmetry_multiplicity
 _atom_site_fract_x
 _atom_site_fract_y
 _atom_site_fract_z
 _atom_site_occupancy
  Li  Li0  1  0.75000000  0.25000000  0.50000000  1
  Al  Al1  1  0.00000000  0.00000000  0.00000000  1
  H  H2  1  0.68892800  0.96649900  0.47515600  1
  H  H3  1  0.49134300  0.21377200  0.52484400  1
  H  H4  1  0.78622800  0.31107200  0.27757100  1
  H  H5  1  0.03350100  0.50865700  0.72242900  1
  H  H6  1  0.58373200  0.94185600  0.33336300  1
  H  H7  1  0.60849200  0.25036900  0.66663700  1
  H  H8  1  0.74963100  0.41626800  0.35812400  1
  H  H9  1  0.05814400  0.39150800  0.64187600  1
  C  C10  1  0.11523500  0.00589800  0.76482300  1
  C  C11  1  0.24107500  0.35041200  0.23517700  1
  C  C12  1  0.64958800  0.88476500  0.89066300  1
  C  C13  1  0.99410200  0.75892500  0.10933700  1
  C  C14  1  0.31735100  0.13099800  0.85287400  1
  C  C15  1  0.27812400  0.46447700  0.14712600  1
  C  C16  1  0.53552300  0.68264900  0.81364700  1
  C  C17  1  0.86900200  0.72187600  0.18635300  1
  C  C18  1  0.08551100  0.06616000  0.64571700  1
  C  C19  1  0.42044300  0.43979400  0.35428300  1
  C  C20  1  0.56020600  0.91448900  0.98064900  1
  C  C21  1  0.93384000  0.57955700  0.01935100  1
  C  C22  1  0.03799100  0.81446400  0.69252900  1
  C  C23  1  0.12193500  0.34546300  0.30747100  1
  C  C24  1  0.65453700  0.96200900  0.77647200  1
  C  C25  1  0.18553600  0.87806500  0.22352800  1
  O  O26  1  0.03518100  0.01367200  0.84656500  1
  O  O27  1  0.16710700  0.18861600  0.15343500  1
  O  O28  1  0.81138400  0.96481900  0.97849100  1
  O  O29  1  0.98632800  0.83289300  0.02150900  1
  O  O30  1  0.68060500  0.02873300  0.42330300  1
  O  O31  1  0.60543000  0.25730200  0.57669700  1
  O  O32  1  0.74269800  0.31939500  0.34812800  1
  O  O33  1  0.97126700  0.39457000  0.65187200  1
  F  F34  1  0.39698600  0.09750500  0.78522300  1
  F  F35  1  0.31228200  0.61176300  0.21477700  1
  F  F36  1  0.38823700  0.60301400  0.70051900  1
  F  F37  1  0.90249500  0.68771800  0.29948100  1
  F  F38  1  0.34774000  0.11577100  0.97615700  1
  F  F39  1  0.13961400  0.37158300  0.02384300  1
  F  F40  1  0.62841700  0.65226000  0.76803100  1
  F  F41  1  0.88422900  0.86038600  0.23196900  1
  F  F42  1  0.39553000  0.29815400  0.88180800  1
  F  F43  1  0.41634600  0.51372200  0.11819200  1
  F  F44  1  0.48627800  0.60447000  0.90262400  1
  F  F45  1  0.70184600  0.58365400  0.09737600  1
  F  F46  1  0.19692900  0.10778000  0.58180700  1
  F  F47  1  0.52597200  0.61512100  0.41819300  1
  F  F48  1  0.38487900  0.80307100  0.91085100  1
  F  F49  1  0.89222000  0.47402800  0.08914900  1
  F  F50  1  0.10684700  0.20751800  0.69980400  1
  F  F51  1  0.50771400  0.40704300  0.30019600  1
  F  F52  1  0.59295700  0.89315300  0.10067100  1
  F  F53  1  0.79248200  0.49228600  0.89932900  1
  F  F54  1  0.92129900  0.93934900  0.54480500  1
  F  F55  1  0.39454400  0.37649400  0.45519500  1
  F  F56  1  0.62350600  0.07870100  0.01804900  1
  F  F57  1  0.06065100  0.60545600  0.98195100  1
  F  F58  1  0.08131700  0.79174300  0.58340300  1
  F  F59  1  0.20833900  0.49791400  0.41659700  1
  F  F60  1  0.50208600  0.91868300  0.71042600  1
  F  F61  1  0.20825700  0.79166100  0.28957400  1
  F  F62  1  0.86294100  0.69787900  0.64404700  1
  F  F63  1  0.05383200  0.21889400  0.35595300  1
  F  F64  1  0.78110600  0.13705900  0.83493800  1
  F  F65  1  0.30212100  0.94616800  0.16506200  1
  F  F66  1  0.09757500  0.77298800  0.78662700  1
  F  F67  1  0.98636000  0.31094700  0.21337300  1
  F  F68  1  0.68905300  0.90242500  0.67541300  1
  F  F69  1  0.22701200  0.01364000  0.32458700  1
