# generated using pymatgen
data_Li4MnCo2O7
_symmetry_space_group_name_H-M   'P 1'
_cell_length_a   3.00949679
_cell_length_b   3.00949679
_cell_length_c   34.31712377
_cell_angle_alpha   87.87213460
_cell_angle_beta   87.87213460
_cell_angle_gamma   56.12970737
_symmetry_Int_Tables_number   1
_chemical_formula_structural   Li4MnCo2O7
_chemical_formula_sum   'Li8 Mn2 Co4 O14'
_cell_volume   257.83958797
_cell_formula_units_Z   2
loop_
 _symmetry_equiv_pos_site_id
 _symmetry_equiv_pos_as_xyz
  1  'x, y, z'
loop_
 _atom_site_type_symbol
 _atom_site_label
 _atom_site_symmetry_multiplicity
 _atom_site_fract_x
 _atom_site_fract_y
 _atom_site_fract_z
 _atom_site_occupancy
  Li  Li0  1  0.50000000  0.50000000  0.00000000  1
  Li  Li1  1  0.06829500  0.06829500  0.14474900  1
  Li  Li2  1  0.64243600  0.64243600  0.28603100  1
  Li  Li3  1  0.20227900  0.20227900  0.43128500  1
  Li  Li4  1  0.79772100  0.79772100  0.56871500  1
  Li  Li5  1  0.35756400  0.35756400  0.71396900  1
  Li  Li6  1  0.93170500  0.93170500  0.85525100  1
  Li  Li7  1  0.50000000  0.50000000  0.50000000  1
  Mn  Mn8  1  0.21470700  0.21470700  0.92808600  1
  Mn  Mn9  1  0.78529300  0.78529300  0.07191400  1
  Co  Co10  1  0.35672300  0.35672300  0.21479200  1
  Co  Co11  1  0.92626900  0.92626900  0.35649700  1
  Co  Co12  1  0.07373100  0.07373100  0.64350300  1
  Co  Co13  1  0.64327700  0.64327700  0.78520800  1
  O  O14  1  0.83608800  0.83608800  0.96182800  1
  O  O15  1  0.40777700  0.40777700  0.10550200  1
  O  O16  1  0.98453400  0.98453400  0.24631700  1
  O  O17  1  0.56578200  0.56578200  0.38590900  1
  O  O18  1  0.13812800  0.13812800  0.53695900  1
  O  O19  1  0.70354200  0.70354200  0.67550400  1
  O  O20  1  0.26979600  0.26979600  0.81723300  1
  O  O21  1  0.16391200  0.16391200  0.03817200  1
  O  O22  1  0.73020400  0.73020400  0.18276700  1
  O  O23  1  0.29645800  0.29645800  0.32449600  1
  O  O24  1  0.86187200  0.86187200  0.46304100  1
  O  O25  1  0.43421800  0.43421800  0.61409100  1
  O  O26  1  0.01546600  0.01546600  0.75368300  1
  O  O27  1  0.59222300  0.59222300  0.89449800  1
