# generated using pymatgen
data_Li5Fe(SiO4)2
_symmetry_space_group_name_H-M   'P 1'
_cell_length_a   9.93159948
_cell_length_b   14.10487751
_cell_length_c   9.78405598
_cell_angle_alpha   90.00000000
_cell_angle_beta   90.00000000
_cell_angle_gamma   90.00000000
_symmetry_Int_Tables_number   1
_chemical_formula_structural   Li5Fe(SiO4)2
_chemical_formula_sum   'Li40 Fe8 Si16 O64'
_cell_volume   1370.58964060
_cell_formula_units_Z   8
loop_
 _symmetry_equiv_pos_site_id
 _symmetry_equiv_pos_as_xyz
  1  'x, y, z'
loop_
 _atom_site_type_symbol
 _atom_site_label
 _atom_site_symmetry_multiplicity
 _atom_site_fract_x
 _atom_site_fract_y
 _atom_site_fract_z
 _atom_site_occupancy
  Li  Li0  1  0.03388433  0.50716583  0.70577886  1
  Li  Li1  1  0.03388433  0.99283417  0.70577886  1
  Li  Li2  1  0.00549377  0.12060878  0.53138334  1
  Li  Li3  1  0.00549377  0.37939122  0.53138334  1
  Li  Li4  1  0.30802349  0.75000000  0.03058905  1
  Li  Li5  1  0.17306948  0.75000000  0.45637654  1
  Li  Li6  1  0.20264839  0.62312775  0.23760578  1
  Li  Li7  1  0.20264839  0.87687225  0.23760578  1
  Li  Li8  1  0.22596241  0.63930752  0.74225639  1
  Li  Li9  1  0.22596241  0.86069248  0.74225639  1
  Li  Li10  1  0.27403759  0.13930752  0.24225639  1
  Li  Li11  1  0.27403759  0.36069248  0.24225639  1
  Li  Li12  1  0.29735161  0.37687225  0.73760578  1
  Li  Li13  1  0.29735161  0.12312775  0.73760578  1
  Li  Li14  1  0.32693052  0.25000000  0.95637654  1
  Li  Li15  1  0.19197651  0.25000000  0.53058905  1
  Li  Li16  1  0.49450623  0.62060878  0.03138334  1
  Li  Li17  1  0.49450623  0.87939122  0.03138334  1
  Li  Li18  1  0.46611567  0.00716583  0.20577886  1
  Li  Li19  1  0.46611567  0.49283417  0.20577886  1
  Li  Li20  1  0.53388433  0.50716583  0.79422114  1
  Li  Li21  1  0.53388433  0.99283417  0.79422114  1
  Li  Li22  1  0.50549377  0.12060878  0.96861666  1
  Li  Li23  1  0.50549377  0.37939122  0.96861666  1
  Li  Li24  1  0.80802349  0.75000000  0.46941095  1
  Li  Li25  1  0.67306948  0.75000000  0.04362346  1
  Li  Li26  1  0.70264839  0.62312775  0.26239422  1
  Li  Li27  1  0.70264839  0.87687225  0.26239422  1
  Li  Li28  1  0.72596241  0.86069248  0.75774361  1
  Li  Li29  1  0.72596241  0.63930752  0.75774361  1
  Li  Li30  1  0.77403759  0.13930752  0.25774361  1
  Li  Li31  1  0.77403759  0.36069248  0.25774361  1
  Li  Li32  1  0.79735161  0.12312775  0.76239422  1
  Li  Li33  1  0.79735161  0.37687225  0.76239422  1
  Li  Li34  1  0.82693052  0.25000000  0.54362346  1
  Li  Li35  1  0.69197651  0.25000000  0.96941095  1
  Li  Li36  1  0.99450623  0.87939122  0.46861666  1
  Li  Li37  1  0.99450623  0.62060878  0.46861666  1
  Li  Li38  1  0.96611567  0.00716583  0.29422114  1
  Li  Li39  1  0.96611567  0.49283417  0.29422114  1
  Fe  Fe40  1  0.00513994  0.12746574  0.03321868  1
  Fe  Fe41  1  0.00513994  0.37253426  0.03321868  1
  Fe  Fe42  1  0.49486006  0.62746574  0.53321868  1
  Fe  Fe43  1  0.49486006  0.87253426  0.53321868  1
  Fe  Fe44  1  0.50513994  0.12746574  0.46678132  1
  Fe  Fe45  1  0.50513994  0.37253426  0.46678132  1
  Fe  Fe46  1  0.99486006  0.62746574  0.96678132  1
  Fe  Fe47  1  0.99486006  0.87253426  0.96678132  1
  Si  Si48  1  0.04993308  0.25000000  0.77347120  1
  Si  Si49  1  0.02323821  0.25000000  0.29872418  1
  Si  Si50  1  0.25794454  0.00032164  0.98732736  1
  Si  Si51  1  0.25794454  0.49967836  0.98732736  1
  Si  Si52  1  0.24205546  0.50032164  0.48732736  1
  Si  Si53  1  0.24205546  0.99967836  0.48732736  1
  Si  Si54  1  0.47676179  0.75000000  0.79872418  1
  Si  Si55  1  0.45006692  0.75000000  0.27347120  1
  Si  Si56  1  0.54993308  0.25000000  0.72652880  1
  Si  Si57  1  0.52323821  0.25000000  0.20127582  1
  Si  Si58  1  0.75794454  0.00032164  0.51267264  1
  Si  Si59  1  0.75794454  0.49967836  0.51267264  1
  Si  Si60  1  0.74205546  0.99967836  0.01267264  1
  Si  Si61  1  0.74205546  0.50032164  0.01267264  1
  Si  Si62  1  0.97676179  0.75000000  0.70127582  1
  Si  Si63  1  0.95006692  0.75000000  0.22652880  1
  O  O64  1  0.00278558  0.25000000  0.12350820  1
  O  O65  1  0.02200881  0.65578294  0.15201668  1
  O  O66  1  0.02200881  0.84421706  0.15201668  1
  O  O67  1  0.05103785  0.84749098  0.65240024  1
  O  O68  1  0.05103785  0.65250902  0.65240024  1
  O  O69  1  0.98977933  0.75000000  0.38858478  1
  O  O70  1  0.13495068  0.55075359  0.89367534  1
  O  O71  1  0.13495068  0.94924641  0.89367534  1
  O  O72  1  0.13170596  0.54459278  0.38320246  1
  O  O73  1  0.13170596  0.95540722  0.38320246  1
  O  O74  1  0.21270116  0.25000000  0.79673321  1
  O  O75  1  0.17697834  0.07406227  0.59609809  1
  O  O76  1  0.17697834  0.42593773  0.59609809  1
  O  O77  1  0.18500186  0.25000000  0.33073662  1
  O  O78  1  0.17857920  0.08507354  0.07712783  1
  O  O79  1  0.17857920  0.41492646  0.07712783  1
  O  O80  1  0.32142080  0.58507354  0.57712783  1
  O  O81  1  0.32142080  0.91492646  0.57712783  1
  O  O82  1  0.31499814  0.75000000  0.83073662  1
  O  O83  1  0.32302166  0.57406227  0.09609809  1
  O  O84  1  0.32302166  0.92593773  0.09609809  1
  O  O85  1  0.28729884  0.75000000  0.29673321  1
  O  O86  1  0.36829404  0.04459278  0.88320246  1
  O  O87  1  0.36829404  0.45540722  0.88320246  1
  O  O88  1  0.36504932  0.05075359  0.39367534  1
  O  O89  1  0.36504932  0.44924641  0.39367534  1
  O  O90  1  0.51022067  0.25000000  0.88858478  1
  O  O91  1  0.44896215  0.34749098  0.15240024  1
  O  O92  1  0.44896215  0.15250902  0.15240024  1
  O  O93  1  0.47799119  0.34421706  0.65201668  1
  O  O94  1  0.47799119  0.15578294  0.65201668  1
  O  O95  1  0.49721442  0.75000000  0.62350820  1
  O  O96  1  0.50278558  0.25000000  0.37649180  1
  O  O97  1  0.52200881  0.65578294  0.34798332  1
  O  O98  1  0.52200881  0.84421706  0.34798332  1
  O  O99  1  0.55103785  0.65250902  0.84759976  1
  O  O100  1  0.55103785  0.84749098  0.84759976  1
  O  O101  1  0.48977933  0.75000000  0.11141522  1
  O  O102  1  0.63495068  0.94924641  0.60632466  1
  O  O103  1  0.63495068  0.55075359  0.60632466  1
  O  O104  1  0.63170596  0.95540722  0.11679754  1
  O  O105  1  0.63170596  0.54459278  0.11679754  1
  O  O106  1  0.71270116  0.25000000  0.70326679  1
  O  O107  1  0.67697834  0.07406227  0.90390191  1
  O  O108  1  0.67697834  0.42593773  0.90390191  1
  O  O109  1  0.68500186  0.25000000  0.16926338  1
  O  O110  1  0.67857920  0.08507354  0.42287217  1
  O  O111  1  0.67857920  0.41492646  0.42287217  1
  O  O112  1  0.82142080  0.91492646  0.92287217  1
  O  O113  1  0.82142080  0.58507354  0.92287217  1
  O  O114  1  0.81499814  0.75000000  0.66926338  1
  O  O115  1  0.82302166  0.57406227  0.40390191  1
  O  O116  1  0.82302166  0.92593773  0.40390191  1
  O  O117  1  0.78729884  0.75000000  0.20326679  1
  O  O118  1  0.86829404  0.04459278  0.61679754  1
  O  O119  1  0.86829404  0.45540722  0.61679754  1
  O  O120  1  0.86504932  0.05075359  0.10632466  1
  O  O121  1  0.86504932  0.44924641  0.10632466  1
  O  O122  1  0.01022067  0.25000000  0.61141522  1
  O  O123  1  0.94896215  0.15250902  0.34759976  1
  O  O124  1  0.94896215  0.34749098  0.34759976  1
  O  O125  1  0.97799119  0.15578294  0.84798332  1
  O  O126  1  0.97799119  0.34421706  0.84798332  1
  O  O127  1  0.99721442  0.75000000  0.87649180  1
