# generated using pymatgen
data_Li5V3P8O29
_symmetry_space_group_name_H-M   'P 1'
_cell_length_a   9.77136800
_cell_length_b   9.79133529
_cell_length_c   14.07535453
_cell_angle_alpha   89.96753098
_cell_angle_beta   89.94084944
_cell_angle_gamma   60.23315636
_symmetry_Int_Tables_number   1
_chemical_formula_structural   Li5V3P8O29
_chemical_formula_sum   'Li10 V6 P16 O58'
_cell_volume   1168.96792591
_cell_formula_units_Z   2
loop_
 _symmetry_equiv_pos_site_id
 _symmetry_equiv_pos_as_xyz
  1  'x, y, z'
loop_
 _atom_site_type_symbol
 _atom_site_label
 _atom_site_symmetry_multiplicity
 _atom_site_fract_x
 _atom_site_fract_y
 _atom_site_fract_z
 _atom_site_occupancy
  Li  Li0  1  0.68228400  0.23050800  0.94098500  1
  Li  Li1  1  0.68476200  0.08710000  0.43588500  1
  Li  Li2  1  0.23165300  0.67388100  0.43913200  1
  Li  Li3  1  0.33608900  0.33509800  0.11474000  1
  Li  Li4  1  0.08933500  0.67586400  0.93961000  1
  Li  Li5  1  0.23488700  0.08836200  0.94144600  1
  Li  Li6  1  0.09563500  0.23500200  0.43786000  1
  Li  Li7  1  0.77249700  0.31700600  0.55977200  1
  Li  Li8  1  0.31160400  0.91059700  0.55937400  1
  Li  Li9  1  0.99687700  0.99683600  0.01065400  1
  V  V10  1  0.99847500  0.56871400  0.74971600  1
  V  V11  1  0.99401400  0.43666300  0.24678200  1
  V  V12  1  0.57090600  0.99580600  0.25059400  1
  V  V13  1  0.43453100  0.00183900  0.75184600  1
  V  V14  1  0.56409000  0.43344200  0.75565800  1
  V  V15  1  0.43564800  0.56772500  0.24697900  1
  P  P16  1  0.68659700  0.22329500  0.15792500  1
  P  P17  1  0.67973600  0.08985100  0.65580200  1
  P  P18  1  0.23354100  0.67724000  0.65792500  1
  P  P19  1  0.32863400  0.33493000  0.87502300  1
  P  P20  1  0.33257700  0.33427100  0.37076400  1
  P  P21  1  0.08730200  0.68765100  0.15385600  1
  P  P22  1  0.91734100  0.77115300  0.33900300  1
  P  P23  1  0.22358200  0.09161200  0.15773900  1
  P  P24  1  0.77811400  0.91619100  0.83865400  1
  P  P25  1  0.08714800  0.23305500  0.65661600  1
  P  P26  1  0.91712600  0.30867900  0.84080200  1
  P  P27  1  0.66615600  0.66427400  0.63258500  1
  P  P28  1  0.66775600  0.66610200  0.12833400  1
  P  P29  1  0.76937500  0.31995900  0.34113700  1
  P  P30  1  0.31418100  0.91430400  0.34100100  1
  P  P31  1  0.30838200  0.77622400  0.84050400  1
  O  O32  1  0.76701200  0.23566300  0.42977600  1
  O  O33  1  0.66291000  0.25573500  0.66591100  1
  O  O34  1  0.79780500  0.00528600  0.91854500  1
  O  O35  1  0.65973800  0.08057400  0.16850400  1
  O  O36  1  0.52163600  0.37273100  0.16717400  1
  O  O37  1  0.48636700  0.32308300  0.83913500  1
  O  O38  1  0.37993300  0.51680300  0.67861800  1
  O  O39  1  0.20237400  0.79050100  0.92068800  1
  O  O40  1  0.25564900  0.65727300  0.16171500  1
  O  O41  1  0.48624100  0.18462300  0.33510400  1
  O  O42  1  0.51799600  0.10198700  0.68100300  1
  O  O43  1  0.33493800  0.48258000  0.32759400  1
  O  O44  1  0.32050700  0.34277500  0.98189800  1
  O  O45  1  0.31940800  0.34286500  0.47634700  1
  O  O46  1  0.18474100  0.48959600  0.83297000  1
  O  O47  1  0.37314000  0.10619300  0.16833900  1
  O  O48  1  0.31885100  0.19028100  0.83747900  1
  O  O49  1  0.08480300  0.65927100  0.66794200  1
  O  O50  1  0.99007300  0.79655900  0.24176600  1
  O  O51  1  0.01325000  0.76244100  0.42219300  1
  O  O52  1  0.00906200  0.76832100  0.06342900  1
  O  O53  1  0.09588200  0.52341200  0.16906400  1
  O  O54  1  0.18465900  0.33230200  0.32531000  1
  O  O55  1  0.91966200  0.74268500  0.83801600  1
  O  O56  1  0.09990000  0.38193000  0.67896000  1
  O  O57  1  0.25116000  0.08383900  0.65961900  1
  O  O58  1  0.79888600  0.98685900  0.73894600  1
  O  O59  1  0.74229800  0.01773800  0.56218800  1
  O  O60  1  0.23702300  0.00504000  0.43009900  1
  O  O61  1  0.74845600  0.91474900  0.34105600  1
  O  O62  1  0.90980800  0.61773100  0.32074900  1
  O  O63  1  0.07910100  0.26112800  0.16739400  1
  O  O64  1  0.81595900  0.66180400  0.68229100  1
  O  O65  1  0.91926900  0.46517600  0.82931900  1
  O  O66  1  0.01018100  0.20520900  0.92101400  1
  O  O67  1  0.00193400  0.24855400  0.56509000  1
  O  O68  1  0.98733300  0.21544900  0.74132800  1
  O  O69  1  0.92057700  0.33653400  0.33930900  1
  O  O70  1  0.66983500  0.80877600  0.17233600  1
  O  O71  1  0.62218000  0.91542300  0.83210700  1
  O  O72  1  0.81605000  0.51578200  0.17748000  1
  O  O73  1  0.67773800  0.64998600  0.02408800  1
  O  O74  1  0.67931900  0.65886900  0.52750000  1
  O  O75  1  0.67013600  0.51367700  0.67368400  1
  O  O76  1  0.47379500  0.90637700  0.32208000  1
  O  O77  1  0.51580700  0.81526800  0.66990600  1
  O  O78  1  0.74499900  0.34048600  0.84248800  1
  O  O79  1  0.79146800  0.21223300  0.24893600  1
  O  O80  1  0.77459300  0.21080300  0.06862000  1
  O  O81  1  0.62144100  0.47930500  0.32778100  1
  O  O82  1  0.52180200  0.66057800  0.17321900  1
  O  O83  1  0.46533000  0.62028600  0.83221200  1
  O  O84  1  0.34024600  0.91723500  0.83876600  1
  O  O85  1  0.21041900  0.01603800  0.06878500  1
  O  O86  1  0.20692900  0.00173000  0.24927400  1
  O  O87  1  0.33227200  0.74964200  0.34128100  1
  O  O88  1  0.24277900  0.75001600  0.56628900  1
  O  O89  1  0.21573900  0.79694700  0.74115900  1
