# generated using pymatgen
data_Li6V5SbO12
_symmetry_space_group_name_H-M   'P 1'
_cell_length_a   5.43990241
_cell_length_b   9.07269866
_cell_length_c   11.36590492
_cell_angle_alpha   113.53403247
_cell_angle_beta   94.40242423
_cell_angle_gamma   89.99851633
_symmetry_Int_Tables_number   1
_chemical_formula_structural   Li6V5SbO12
_chemical_formula_sum   'Li12 V10 Sb2 O24'
_cell_volume   512.49545010
_cell_formula_units_Z   2
loop_
 _symmetry_equiv_pos_site_id
 _symmetry_equiv_pos_as_xyz
  1  'x, y, z'
loop_
 _atom_site_type_symbol
 _atom_site_label
 _atom_site_symmetry_multiplicity
 _atom_site_fract_x
 _atom_site_fract_y
 _atom_site_fract_z
 _atom_site_occupancy
  Li  Li0  1  0.11556900  0.35724000  0.71244300  1
  Li  Li1  1  0.61538000  0.85750800  0.71273800  1
  Li  Li2  1  0.38466800  0.14467900  0.28754400  1
  Li  Li3  1  0.88476600  0.64464400  0.28720400  1
  Li  Li4  1  0.88913100  0.31086000  0.28589400  1
  Li  Li5  1  0.38947300  0.80984100  0.28616900  1
  Li  Li6  1  0.61108000  0.52511300  0.71411100  1
  Li  Li7  1  0.11068600  0.02373300  0.71380600  1
  Li  Li8  1  0.88588500  0.97387000  0.28474400  1
  Li  Li9  1  0.38635700  0.47389400  0.28422200  1
  Li  Li10  1  0.61431300  0.18914300  0.71521200  1
  Li  Li11  1  0.11378200  0.68974400  0.71577000  1
  V  V12  1  0.75017500  0.24808200  0.50004700  1
  V  V13  1  0.49976200  0.15895400  0.00002100  1
  V  V14  1  0.99988700  0.65898400  0.00011300  1
  V  V15  1  0.49988500  0.84070700  0.00032200  1
  V  V16  1  0.99975000  0.34045000  0.99974100  1
  V  V17  1  0.25007700  0.74681100  0.49996900  1
  V  V18  1  0.75014600  0.58862600  0.49998600  1
  V  V19  1  0.25008600  0.08876800  0.49997400  1
  V  V20  1  0.75008100  0.91414800  0.49997300  1
  V  V21  1  0.25019300  0.41404100  0.49997900  1
  Sb  Sb22  1  0.49969300  0.49985700  0.99962500  1
  Sb  Sb23  1  0.99991900  0.00021200  0.00030700  1
  O  O24  1  0.06444400  0.18654800  0.38573400  1
  O  O25  1  0.56309000  0.68647100  0.38642700  1
  O  O26  1  0.43577200  0.30087500  0.61425200  1
  O  O27  1  0.93710000  0.80010100  0.61352900  1
  O  O28  1  0.16792700  0.44800900  0.89335100  1
  O  O29  1  0.66829700  0.94794400  0.89385900  1
  O  O30  1  0.33169600  0.05465400  0.10669500  1
  O  O31  1  0.83128600  0.55421100  0.10618400  1
  O  O32  1  0.85604500  0.21316200  0.10225000  1
  O  O33  1  0.35606000  0.71275800  0.10224800  1
  O  O34  1  0.64366500  0.61090600  0.89779400  1
  O  O35  1  0.14361800  0.11046800  0.89777800  1
  O  O36  1  0.85733700  0.88781300  0.10169300  1
  O  O37  1  0.35700700  0.38770000  0.10112300  1
  O  O38  1  0.64230800  0.28607100  0.89832100  1
  O  O39  1  0.14264600  0.78647500  0.89892700  1
  O  O40  1  0.92099800  0.47097800  0.60874600  1
  O  O41  1  0.42187000  0.97039600  0.60773800  1
  O  O42  1  0.57935500  0.36218500  0.39125700  1
  O  O43  1  0.07833600  0.86259000  0.39219600  1
  O  O44  1  0.93200800  0.14617900  0.61211200  1
  O  O45  1  0.43365700  0.64581000  0.61203800  1
  O  O46  1  0.56819800  0.03407900  0.38791900  1
  O  O47  1  0.06658200  0.53370500  0.38792100  1
