# generated using pymatgen
data_Li3Fe2(P2O7)2
_symmetry_space_group_name_H-M   'P 1'
_cell_length_a   9.79090900
_cell_length_b   9.83338869
_cell_length_c   11.16984685
_cell_angle_alpha   77.73227312
_cell_angle_beta   89.67061218
_cell_angle_gamma   89.49583620
_symmetry_Int_Tables_number   1
_chemical_formula_structural   Li3Fe2(P2O7)2
_chemical_formula_sum   'Li12 Fe8 P16 O56'
_cell_volume   1050.80296473
_cell_formula_units_Z   4
loop_
 _symmetry_equiv_pos_site_id
 _symmetry_equiv_pos_as_xyz
  1  'x, y, z'
loop_
 _atom_site_type_symbol
 _atom_site_label
 _atom_site_symmetry_multiplicity
 _atom_site_fract_x
 _atom_site_fract_y
 _atom_site_fract_z
 _atom_site_occupancy
  Li  Li0  1  0.42676000  0.17119900  0.45670300  1
  Li  Li1  1  0.91215400  0.34482200  0.04247400  1
  Li  Li2  1  0.39027200  0.14340500  0.95835800  1
  Li  Li3  1  0.61292300  0.41288800  0.02837200  1
  Li  Li4  1  0.91878400  0.32290500  0.55066100  1
  Li  Li5  1  0.78063100  0.61398300  0.54448900  1
  Li  Li6  1  0.08376800  0.66570400  0.45650700  1
  Li  Li7  1  0.39981100  0.59247100  0.96703500  1
  Li  Li8  1  0.10752000  0.65506500  0.96480700  1
  Li  Li9  1  0.90773400  0.91898600  0.02553800  1
  Li  Li10  1  0.57883900  0.83467300  0.54121100  1
  Li  Li11  1  0.28357200  0.88696900  0.45340700  1
  Fe  Fe12  1  0.92303200  0.19728900  0.33172100  1
  Fe  Fe13  1  0.20986500  0.24706000  0.17679400  1
  Fe  Fe14  1  0.71940300  0.23718000  0.82676000  1
  Fe  Fe15  1  0.42232300  0.30067200  0.67245100  1
  Fe  Fe16  1  0.57591100  0.70013700  0.31538300  1
  Fe  Fe17  1  0.28182200  0.75203700  0.17532800  1
  Fe  Fe18  1  0.77796000  0.74842300  0.83017300  1
  Fe  Fe19  1  0.07054400  0.80520400  0.67619100  1
  P  P20  1  0.45207000  0.02162300  0.24282800  1
  P  P21  1  0.71224800  0.11507600  0.12001700  1
  P  P22  1  0.92417200  0.06882800  0.75351500  1
  P  P23  1  0.14879100  0.12423900  0.57827400  1
  P  P24  1  0.64808100  0.37800200  0.42341000  1
  P  P25  1  0.42949000  0.43658800  0.24050300  1
  P  P26  1  0.04813700  0.51502300  0.25066200  1
  P  P27  1  0.20552700  0.38606000  0.88527300  1
  P  P28  1  0.79849400  0.61956200  0.11531900  1
  P  P29  1  0.95083300  0.48059600  0.75677200  1
  P  P30  1  0.57425300  0.56337400  0.75490000  1
  P  P31  1  0.35095200  0.62427100  0.58201700  1
  P  P32  1  0.85194100  0.87469100  0.42038100  1
  P  P33  1  0.07448900  0.92830900  0.24385000  1
  P  P34  1  0.28777300  0.88407500  0.88493800  1
  P  P35  1  0.54210600  0.98221100  0.74493800  1
  O  O36  1  0.40627800  0.02592900  0.37187800  1
  O  O37  1  0.84115000  0.02618200  0.42962700  1
  O  O38  1  0.07952400  0.07831700  0.26876700  1
  O  O39  1  0.59916100  0.09448100  0.22965400  1
  O  O40  1  0.36285100  0.10441400  0.14065200  1
  O  O41  1  0.82726500  0.19252800  0.17429100  1
  O  O42  1  0.64977600  0.21863000  0.00726900  1
  O  O43  1  0.26499400  0.02363500  0.91218900  1
  O  O44  1  0.07645600  0.12364700  0.70738200  1
  O  O45  1  0.91052300  0.06938200  0.88718100  1
  O  O46  1  0.52162800  0.13143000  0.77501600  1
  O  O47  1  0.29018100  0.18718500  0.58786600  1
  O  O48  1  0.82441300  0.17725900  0.68083800  1
  O  O49  1  0.05562900  0.20766600  0.47884400  1
  O  O50  1  0.55496000  0.29399400  0.52196600  1
  O  O51  1  0.32471500  0.32951300  0.30200000  1
  O  O52  1  0.79090700  0.31560100  0.41355900  1
  O  O53  1  0.02588500  0.36326800  0.22815200  1
  O  O54  1  0.57797600  0.37709200  0.29403300  1
  O  O55  1  0.43998300  0.44474400  0.10430300  1
  O  O56  1  0.77632600  0.48135200  0.08084300  1
  O  O57  1  0.13916700  0.29378200  0.99909000  1
  O  O58  1  0.32807000  0.31392700  0.83462300  1
  O  O59  1  0.09853000  0.40664900  0.77221200  1
  O  O60  1  0.58145100  0.41337700  0.73113100  1
  O  O61  1  0.85887600  0.39787200  0.85654000  1
  O  O62  1  0.34224400  0.47280700  0.57266100  1
  O  O63  1  0.08371700  0.51764400  0.38009400  1
  O  O64  1  0.91169400  0.48088200  0.62570900  1
  O  O65  1  0.65868300  0.53244800  0.43295600  1
  O  O66  1  0.14121100  0.59341600  0.14852300  1
  O  O67  1  0.41634400  0.58300000  0.27439600  1
  O  O68  1  0.90119400  0.59370400  0.23018800  1
  O  O69  1  0.67193800  0.67973400  0.16946300  1
  O  O70  1  0.86545800  0.72457100  0.00792600  1
  O  O71  1  0.23587900  0.52977200  0.90517700  1
  O  O72  1  0.58031500  0.57053000  0.88879000  1
  O  O73  1  0.42539200  0.62650800  0.70961000  1
  O  O74  1  0.96652700  0.63376300  0.77823900  1
  O  O75  1  0.20884200  0.69183000  0.59084400  1
  O  O76  1  0.67873100  0.66370800  0.68004200  1
  O  O77  1  0.43496300  0.71953200  0.48108300  1
  O  O78  1  0.93801200  0.78127100  0.52217300  1
  O  O79  1  0.18034900  0.82933900  0.32225500  1
  O  O80  1  0.71151900  0.80559700  0.41350800  1
  O  O81  1  0.46805900  0.86718000  0.22814400  1
  O  O82  1  0.08333700  0.91363900  0.11336100  1
  O  O83  1  0.92647800  0.86752900  0.29413700  1
  O  O84  1  0.74862400  0.97594200  0.09749100  1
  O  O85  1  0.33483900  0.76994400  0.99599800  1
  O  O86  1  0.16417800  0.81980300  0.82818900  1
  O  O87  1  0.65004400  0.90553100  0.83182000  1
  O  O88  1  0.40212900  0.89454400  0.77904300  1
  O  O89  1  0.91653200  0.92090500  0.72226400  1
  O  O90  1  0.16269300  0.96999200  0.56692400  1
  O  O91  1  0.55963800  0.98842700  0.61005400  1
