# generated using pymatgen
data_LiV2F9
_symmetry_space_group_name_H-M   'P 1'
_cell_length_a   7.83605000
_cell_length_b   8.21277200
_cell_length_c   10.76211600
_cell_angle_alpha   90.00000000
_cell_angle_beta   90.00000000
_cell_angle_gamma   90.00000000
_symmetry_Int_Tables_number   1
_chemical_formula_structural   LiV2F9
_chemical_formula_sum   'Li4 V8 F36'
_cell_volume   692.60342289
_cell_formula_units_Z   4
loop_
 _symmetry_equiv_pos_site_id
 _symmetry_equiv_pos_as_xyz
  1  'x, y, z'
loop_
 _atom_site_type_symbol
 _atom_site_label
 _atom_site_symmetry_multiplicity
 _atom_site_fract_x
 _atom_site_fract_y
 _atom_site_fract_z
 _atom_site_occupancy
  Li  Li0  1  0.02108600  0.38089800  0.75000000  1
  Li  Li1  1  0.47891400  0.88089800  0.25000000  1
  Li  Li2  1  0.52108600  0.11910200  0.75000000  1
  Li  Li3  1  0.97891400  0.61910200  0.25000000  1
  V  V4  1  0.11113300  0.74831700  0.56896300  1
  V  V5  1  0.11113300  0.74831700  0.93103700  1
  V  V6  1  0.38886700  0.24831700  0.06896300  1
  V  V7  1  0.38886700  0.24831700  0.43103700  1
  V  V8  1  0.61113300  0.75168300  0.56896300  1
  V  V9  1  0.61113300  0.75168300  0.93103700  1
  V  V10  1  0.88886700  0.25168300  0.06896300  1
  V  V11  1  0.88886700  0.25168300  0.43103700  1
  F  F12  1  0.88700100  0.03699200  0.07829900  1
  F  F13  1  0.88700100  0.03699200  0.42170100  1
  F  F14  1  0.13739200  0.25999300  0.07305400  1
  F  F15  1  0.13739200  0.25999300  0.42694600  1
  F  F16  1  0.10051700  0.76822200  0.75000000  1
  F  F17  1  0.12265800  0.53154900  0.60859300  1
  F  F18  1  0.12265800  0.53154900  0.89140700  1
  F  F19  1  0.10884800  0.72005700  0.10209200  1
  F  F20  1  0.10884800  0.72005700  0.39790800  1
  F  F21  1  0.39115200  0.22005700  0.60209200  1
  F  F22  1  0.39115200  0.22005700  0.89790800  1
  F  F23  1  0.37734200  0.03154900  0.10859300  1
  F  F24  1  0.37734200  0.03154900  0.39140700  1
  F  F25  1  0.39948300  0.26822200  0.25000000  1
  F  F26  1  0.36260800  0.75999300  0.57305400  1
  F  F27  1  0.36260800  0.75999300  0.92694600  1
  F  F28  1  0.61299900  0.53699200  0.57829900  1
  F  F29  1  0.61299900  0.53699200  0.92170100  1
  F  F30  1  0.38700100  0.46300800  0.07829900  1
  F  F31  1  0.38700100  0.46300800  0.42170100  1
  F  F32  1  0.63739200  0.24000700  0.07305400  1
  F  F33  1  0.63739200  0.24000700  0.42694600  1
  F  F34  1  0.60051700  0.73177800  0.75000000  1
  F  F35  1  0.62265800  0.96845100  0.60859300  1
  F  F36  1  0.62265800  0.96845100  0.89140700  1
  F  F37  1  0.60884800  0.77994300  0.10209200  1
  F  F38  1  0.60884800  0.77994300  0.39790800  1
  F  F39  1  0.89115200  0.27994300  0.60209200  1
  F  F40  1  0.89115200  0.27994300  0.89790800  1
  F  F41  1  0.87734200  0.46845100  0.10859300  1
  F  F42  1  0.87734200  0.46845100  0.39140700  1
  F  F43  1  0.89948300  0.23177800  0.25000000  1
  F  F44  1  0.86260800  0.74000700  0.57305400  1
  F  F45  1  0.86260800  0.74000700  0.92694600  1
  F  F46  1  0.11299900  0.96300800  0.92170100  1
  F  F47  1  0.11299900  0.96300800  0.57829900  1
