# generated using pymatgen
data_Li3Mn3CoO8
_symmetry_space_group_name_H-M   'P 1'
_cell_length_a   5.91215615
_cell_length_b   5.91215615
_cell_length_c   9.53594400
_cell_angle_alpha   90.00000000
_cell_angle_beta   90.00000000
_cell_angle_gamma   121.59044063
_symmetry_Int_Tables_number   1
_chemical_formula_structural   Li3Mn3CoO8
_chemical_formula_sum   'Li6 Mn6 Co2 O16'
_cell_volume   283.92290775
_cell_formula_units_Z   2
loop_
 _symmetry_equiv_pos_site_id
 _symmetry_equiv_pos_as_xyz
  1  'x, y, z'
loop_
 _atom_site_type_symbol
 _atom_site_label
 _atom_site_symmetry_multiplicity
 _atom_site_fract_x
 _atom_site_fract_y
 _atom_site_fract_z
 _atom_site_occupancy
  Li  Li0  1  0.34853300  0.17557100  0.94305900  1
  Li  Li1  1  0.82442900  0.65146700  0.94305900  1
  Li  Li2  1  0.82550800  0.17449200  0.94396700  1
  Li  Li3  1  0.17449200  0.82550800  0.44396700  1
  Li  Li4  1  0.17557100  0.34853300  0.44305900  1
  Li  Li5  1  0.65146700  0.82442900  0.44305900  1
  Mn  Mn6  1  0.33478700  0.16712300  0.21351900  1
  Mn  Mn7  1  0.83287700  0.66521300  0.21351900  1
  Mn  Mn8  1  0.83225100  0.16774900  0.21542800  1
  Mn  Mn9  1  0.16774900  0.83225100  0.71542800  1
  Mn  Mn10  1  0.16712300  0.33478700  0.71351900  1
  Mn  Mn11  1  0.66521300  0.83287700  0.71351900  1
  Co  Co12  1  0.66465100  0.33534900  0.49678000  1
  Co  Co13  1  0.33534900  0.66465100  0.99678000  1
  O  O14  1  0.31209000  0.16150000  0.60342800  1
  O  O15  1  0.51660500  0.48339500  0.33320100  1
  O  O16  1  0.65096100  0.34903900  0.09513000  1
  O  O17  1  0.51166900  0.03251900  0.33498900  1
  O  O18  1  0.83850000  0.68791000  0.60342800  1
  O  O19  1  0.96748100  0.48833100  0.33498900  1
  O  O20  1  0.84296000  0.15704000  0.59868400  1
  O  O21  1  0.15704000  0.84296000  0.09868400  1
  O  O22  1  0.03251900  0.51166900  0.83498900  1
  O  O23  1  0.34903900  0.65096100  0.59513000  1
  O  O24  1  0.16150000  0.31209000  0.10342800  1
  O  O25  1  0.01620000  0.98380000  0.32793600  1
  O  O26  1  0.98380000  0.01620000  0.82793600  1
  O  O27  1  0.48833100  0.96748100  0.83498900  1
  O  O28  1  0.48339500  0.51660500  0.83320100  1
  O  O29  1  0.68791000  0.83850000  0.10342800  1
