# generated using pymatgen
data_Li6MnV3(PO4)6
_symmetry_space_group_name_H-M   'P 1'
_cell_length_a   9.77308600
_cell_length_b   9.84121375
_cell_length_c   9.84791823
_cell_angle_alpha   84.79160983
_cell_angle_beta   86.51949190
_cell_angle_gamma   87.31216780
_symmetry_Int_Tables_number   1
_chemical_formula_structural   Li6MnV3(PO4)6
_chemical_formula_sum   'Li12 Mn2 V6 P12 O48'
_cell_volume   940.69639434
_cell_formula_units_Z   2
loop_
 _symmetry_equiv_pos_site_id
 _symmetry_equiv_pos_as_xyz
  1  'x, y, z'
loop_
 _atom_site_type_symbol
 _atom_site_label
 _atom_site_symmetry_multiplicity
 _atom_site_fract_x
 _atom_site_fract_y
 _atom_site_fract_z
 _atom_site_occupancy
  Li  Li0  1  0.24031500  0.51315200  0.98567500  1
  Li  Li1  1  0.38523900  0.26382600  0.00006700  1
  Li  Li2  1  0.46546500  0.56702300  0.78087100  1
  Li  Li3  1  0.17708700  0.73436700  0.76994700  1
  Li  Li4  1  0.61205000  0.99027300  0.74561000  1
  Li  Li5  1  0.81397300  0.74560200  0.62398900  1
  Li  Li6  1  0.75366300  0.01309100  0.49188100  1
  Li  Li7  1  0.53581200  0.21965900  0.43643200  1
  Li  Li8  1  0.97350800  0.92539700  0.30125200  1
  Li  Li9  1  0.82127700  0.23230800  0.26462600  1
  Li  Li10  1  0.18883400  0.37836200  0.24859500  1
  Li  Li11  1  0.02400000  0.69128000  0.07869200  1
  Mn  Mn12  1  0.50103800  0.75701600  0.24915800  1
  Mn  Mn13  1  0.72223000  0.73608500  0.02906700  1
  V  V14  1  0.78246700  0.24919500  0.97023900  1
  V  V15  1  0.99964300  0.24611600  0.75112000  1
  V  V16  1  0.21751700  0.02832900  0.75230100  1
  V  V17  1  0.00189100  0.46592300  0.53073800  1
  V  V18  1  0.50175700  0.53356200  0.46756100  1
  V  V19  1  0.27988700  0.96798300  0.25640600  1
  P  P20  1  0.40477000  0.82157400  0.95176500  1
  P  P21  1  0.89880700  0.94449200  0.82686300  1
  P  P22  1  0.93018700  0.54927200  0.83936900  1
  P  P23  1  0.30186200  0.34168800  0.68043800  1
  P  P24  1  0.69791800  0.31888600  0.65849200  1
  P  P25  1  0.42460800  0.83835100  0.55921300  1
  P  P26  1  0.06964800  0.15534700  0.44901300  1
  P  P27  1  0.80230700  0.68243700  0.34806100  1
  P  P28  1  0.20200400  0.65209400  0.31501700  1
  P  P29  1  0.57705500  0.44384200  0.16018600  1
  P  P30  1  0.59351800  0.05228900  0.18487600  1
  P  P31  1  0.09662800  0.17333300  0.05368400  1
  O  O32  1  0.85919100  0.86793900  0.96806300  1
  O  O33  1  0.56172500  0.82091200  0.91801200  1
  O  O34  1  0.79136200  0.61045300  0.88887300  1
  O  O35  1  0.34240500  0.95943900  0.89016800  1
  O  O36  1  0.33816900  0.69718300  0.90354100  1
  O  O37  1  0.92594200  0.38906700  0.87374500  1
  O  O38  1  0.05523400  0.60126600  0.90423800  1
  O  O39  1  0.12407800  0.16313900  0.89401100  1
  O  O40  1  0.87268800  0.10291300  0.83893100  1
  O  O41  1  0.66959700  0.30958400  0.81608500  1
  O  O42  1  0.05437500  0.90874100  0.79800400  1
  O  O43  1  0.34938500  0.40439200  0.80581800  1
  O  O44  1  0.80982100  0.90993600  0.71337300  1
  O  O45  1  0.94327200  0.58791500  0.68052600  1
  O  O46  1  0.32840100  0.18444900  0.68805500  1
  O  O47  1  0.14058200  0.37706900  0.67273400  1
  O  O48  1  0.28636000  0.87615200  0.63577200  1
  O  O49  1  0.54882800  0.91017300  0.59763100  1
  O  O50  1  0.86022300  0.32499800  0.62165200  1
  O  O51  1  0.63402000  0.45767300  0.60408400  1
  O  O52  1  0.44420400  0.67816800  0.59260500  1
  O  O53  1  0.64934400  0.19391900  0.59591000  1
  O  O54  1  0.07435000  0.12180800  0.60872300  1
  O  O55  1  0.36856800  0.39678700  0.54203900  1
  O  O56  1  0.84348600  0.80526100  0.42050900  1
  O  O57  1  0.14343500  0.59134000  0.45320600  1
  O  O58  1  0.86265800  0.54489900  0.40898200  1
  O  O59  1  0.40881300  0.87407200  0.40143300  1
  O  O60  1  0.64067300  0.67157700  0.37315900  1
  O  O61  1  0.94056600  0.09700900  0.39846700  1
  O  O62  1  0.06929800  0.31383600  0.41033700  1
  O  O63  1  0.20485700  0.09333200  0.38746100  1
  O  O64  1  0.36462400  0.62851600  0.32425500  1
  O  O65  1  0.15731700  0.80698100  0.29561100  1
  O  O66  1  0.55804200  0.41138200  0.31998400  1
  O  O67  1  0.65674700  0.10606400  0.30786800  1
  O  O68  1  0.84517200  0.69915300  0.19277500  1
  O  O69  1  0.62657500  0.89326700  0.18545600  1
  O  O70  1  0.16133100  0.57915300  0.19268500  1
  O  O71  1  0.43565400  0.08542800  0.18351200  1
  O  O72  1  0.59291600  0.60449900  0.12305900  1
  O  O73  1  0.37334200  0.82817900  0.11245000  1
  O  O74  1  0.71475600  0.37061400  0.11937900  1
  O  O75  1  0.94155800  0.20707100  0.09042700  1
  O  O76  1  0.45199300  0.40527400  0.09050700  1
  O  O77  1  0.13016300  0.03248600  0.12829300  1
  O  O78  1  0.18869100  0.28648900  0.08721700  1
  O  O79  1  0.65824100  0.11068900  0.04637100  1
