# generated using pymatgen
data_Li9Mn2Co5O16
_symmetry_space_group_name_H-M   'P 1'
_cell_length_a   2.98373300
_cell_length_b   5.06281971
_cell_length_c   19.10541814
_cell_angle_alpha   92.61153527
_cell_angle_beta   92.65135702
_cell_angle_gamma   91.26643813
_symmetry_Int_Tables_number   1
_chemical_formula_structural   Li9Mn2Co5O16
_chemical_formula_sum   'Li9 Mn2 Co5 O16'
_cell_volume   287.91525620
_cell_formula_units_Z   1
loop_
 _symmetry_equiv_pos_site_id
 _symmetry_equiv_pos_as_xyz
  1  'x, y, z'
loop_
 _atom_site_type_symbol
 _atom_site_label
 _atom_site_symmetry_multiplicity
 _atom_site_fract_x
 _atom_site_fract_y
 _atom_site_fract_z
 _atom_site_occupancy
  Li  Li0  1  0.01143000  0.60610500  0.87365900  1
  Li  Li1  1  0.49222900  0.75437500  0.74958200  1
  Li  Li2  1  0.99781900  0.87433300  0.62613600  1
  Li  Li3  1  0.49752900  0.00026900  0.50118600  1
  Li  Li4  1  0.00062100  0.12567100  0.37495900  1
  Li  Li5  1  0.50292200  0.24808600  0.25045000  1
  Li  Li6  1  0.99190400  0.38143500  0.12665800  1
  Li  Li7  1  0.50418400  0.49175200  0.99554700  1
  Li  Li8  1  0.48830800  0.14092700  0.87662400  1
  Mn  Mn9  1  0.00523900  0.00444200  0.99630500  1
  Mn  Mn10  1  0.50745300  0.62613900  0.37590700  1
  Co  Co11  1  0.99753700  0.24960500  0.75494200  1
  Co  Co12  1  0.49313300  0.36946300  0.62583400  1
  Co  Co13  1  0.99007600  0.49895200  0.50160200  1
  Co  Co14  1  0.00115200  0.75091300  0.24830900  1
  Co  Co15  1  0.50769200  0.86841600  0.12395000  1
  O  O16  1  0.48696800  0.83779900  0.94510700  1
  O  O17  1  0.99993900  0.97156000  0.80444600  1
  O  O18  1  0.53522100  0.08200200  0.68724300  1
  O  O19  1  0.98689100  0.20946700  0.56232600  1
  O  O20  1  0.52740900  0.33209600  0.43896200  1
  O  O21  1  0.04408400  0.45445200  0.31038500  1
  O  O22  1  0.48949800  0.58223300  0.18640900  1
  O  O23  1  0.03813300  0.71148100  0.06438100  1
  O  O24  1  0.47236200  0.43097100  0.80743500  1
  O  O25  1  0.00491000  0.52903900  0.68892400  1
  O  O26  1  0.45704000  0.66566600  0.56352800  1
  O  O27  1  0.97086000  0.79302700  0.44016800  1
  O  O28  1  0.51456900  0.91873500  0.31177500  1
  O  O29  1  0.96581500  0.04278700  0.18571200  1
  O  O30  1  0.52363600  0.15093100  0.05806500  1
  O  O31  1  0.99344400  0.29687400  0.94348200  1
