# generated using pymatgen
data_Li5Mn4(P2O7)4
_symmetry_space_group_name_H-M   'P 1'
_cell_length_a   9.76407300
_cell_length_b   9.87425154
_cell_length_c   11.16133660
_cell_angle_alpha   79.60876252
_cell_angle_beta   89.81237846
_cell_angle_gamma   89.76290737
_symmetry_Int_Tables_number   1
_chemical_formula_structural   Li5Mn4(P2O7)4
_chemical_formula_sum   'Li10 Mn8 P16 O56'
_cell_volume   1058.43542005
_cell_formula_units_Z   2
loop_
 _symmetry_equiv_pos_site_id
 _symmetry_equiv_pos_as_xyz
  1  'x, y, z'
loop_
 _atom_site_type_symbol
 _atom_site_label
 _atom_site_symmetry_multiplicity
 _atom_site_fract_x
 _atom_site_fract_y
 _atom_site_fract_z
 _atom_site_occupancy
  Li  Li0  1  0.71291800  0.11757900  0.55074100  1
  Li  Li1  1  0.10484900  0.08978800  0.97945500  1
  Li  Li2  1  0.60020500  0.42352800  0.02099800  1
  Li  Li3  1  0.20476500  0.39176600  0.45537100  1
  Li  Li4  1  0.79836400  0.60286000  0.54271700  1
  Li  Li5  1  0.59389400  0.85159900  0.04727800  1
  Li  Li6  1  0.09559400  0.64506500  0.95003300  1
  Li  Li7  1  0.89200500  0.90939000  0.02494300  1
  Li  Li8  1  0.57486600  0.83168400  0.54379700  1
  Li  Li9  1  0.28286000  0.88618800  0.45061200  1
  Mn  Mn10  1  0.92527300  0.19784400  0.33336200  1
  Mn  Mn11  1  0.22621400  0.28545900  0.16058100  1
  Mn  Mn12  1  0.70923700  0.23881000  0.82783100  1
  Mn  Mn13  1  0.42359500  0.30306800  0.66582300  1
  Mn  Mn14  1  0.58026600  0.69978600  0.32680200  1
  Mn  Mn15  1  0.28928900  0.76676500  0.16710100  1
  Mn  Mn16  1  0.77789200  0.72324800  0.83202400  1
  Mn  Mn17  1  0.07136800  0.79948300  0.67093200  1
  P  P18  1  0.43999300  0.02883100  0.24362700  1
  P  P19  1  0.70797700  0.12315900  0.11822900  1
  P  P20  1  0.93107300  0.05726100  0.75867500  1
  P  P21  1  0.14663400  0.12922800  0.56666700  1
  P  P22  1  0.64704500  0.37226400  0.42938800  1
  P  P23  1  0.42497100  0.43814600  0.24189700  1
  P  P24  1  0.06162700  0.53788200  0.23820700  1
  P  P25  1  0.21051600  0.37865400  0.88067100  1
  P  P26  1  0.79859400  0.61640500  0.11213100  1
  P  P27  1  0.94468600  0.46159400  0.75535600  1
  P  P28  1  0.57168600  0.56242600  0.75097600  1
  P  P29  1  0.34309200  0.62708000  0.58130700  1
  P  P30  1  0.85644700  0.87386300  0.43744700  1
  P  P31  1  0.06765700  0.94262000  0.24391500  1
  P  P32  1  0.28950500  0.88408800  0.88243300  1
  P  P33  1  0.55745500  0.97390300  0.76619300  1
  O  O34  1  0.42180900  0.00939500  0.37859600  1
  O  O35  1  0.84564700  0.02309100  0.45396900  1
  O  O36  1  0.07571100  0.09013100  0.27423300  1
  O  O37  1  0.33500700  0.11602000  0.16125000  1
  O  O38  1  0.58537700  0.10413300  0.21706100  1
  O  O39  1  0.82488200  0.18276200  0.18494600  1
  O  O40  1  0.65840400  0.22908500  0.00597200  1
  O  O41  1  0.25217500  0.02181300  0.90813600  1
  O  O42  1  0.06557800  0.12580400  0.69369400  1
  O  O43  1  0.93996000  0.06033900  0.89252000  1
  O  O44  1  0.54635600  0.12638400  0.78971500  1
  O  O45  1  0.27992600  0.20436600  0.58339400  1
  O  O46  1  0.80865100  0.14743200  0.70315300  1
  O  O47  1  0.06407500  0.22118700  0.46452000  1
  O  O48  1  0.56537600  0.28211700  0.53365100  1
  O  O49  1  0.30730000  0.34414100  0.30572500  1
  O  O50  1  0.78013500  0.29466300  0.41270300  1
  O  O51  1  0.06039400  0.39261600  0.19780700  1
  O  O52  1  0.56457100  0.37537400  0.30382800  1
  O  O53  1  0.42574600  0.41565700  0.11147500  1
  O  O54  1  0.76497200  0.47867100  0.08408800  1
  O  O55  1  0.16567100  0.27084400  0.99594400  1
  O  O56  1  0.32959700  0.31564800  0.81701500  1
  O  O57  1  0.08852300  0.38124700  0.78305000  1
  O  O58  1  0.57789100  0.40860400  0.73170000  1
  O  O59  1  0.84147300  0.37701000  0.84690900  1
  O  O60  1  0.10331600  0.53852200  0.36609600  1
  O  O61  1  0.33411900  0.48034900  0.55719000  1
  O  O62  1  0.66557900  0.52139900  0.44227600  1
  O  O63  1  0.91288300  0.46300100  0.62463600  1
  O  O64  1  0.14760200  0.63675600  0.13875800  1
  O  O65  1  0.41244700  0.58833700  0.26169300  1
  O  O66  1  0.90769700  0.59432700  0.22493900  1
  O  O67  1  0.67908000  0.69477000  0.15939700  1
  O  O68  1  0.87265000  0.71507900  0.00586800  1
  O  O69  1  0.22927400  0.51658400  0.91378200  1
  O  O70  1  0.59464100  0.57573300  0.88195400  1
  O  O71  1  0.42000800  0.61649200  0.71125600  1
  O  O72  1  0.96053700  0.60665400  0.79168900  1
  O  O73  1  0.20335600  0.69132400  0.59911900  1
  O  O74  1  0.67236700  0.65772800  0.66958700  1
  O  O75  1  0.42641200  0.72542700  0.48626200  1
  O  O76  1  0.93732700  0.77811000  0.53740700  1
  O  O77  1  0.19090400  0.85153100  0.29770900  1
  O  O78  1  0.71722000  0.80835000  0.42311100  1
  O  O79  1  0.45250200  0.88326900  0.19782800  1
  O  O80  1  0.05677700  0.93879400  0.11026200  1
  O  O81  1  0.93211200  0.87255300  0.30876500  1
  O  O82  1  0.73352400  0.98367800  0.08586100  1
  O  O83  1  0.35131400  0.78546600  0.99508800  1
  O  O84  1  0.17409200  0.80606400  0.82561800  1
  O  O85  1  0.40687400  0.90579100  0.77786200  1
  O  O86  1  0.64611800  0.88836600  0.86522000  1
  O  O87  1  0.92201600  0.90764600  0.73055000  1
  O  O88  1  0.16241500  0.97873100  0.55393700  1
  O  O89  1  0.59844100  0.96976800  0.63640700  1
