# generated using pymatgen
data_Li4MnV3(P2O7)4
_symmetry_space_group_name_H-M   'P 1'
_cell_length_a   4.85989900
_cell_length_b   10.82047526
_cell_length_c   10.93805012
_cell_angle_alpha   99.30039445
_cell_angle_beta   102.37004343
_cell_angle_gamma   101.78386697
_symmetry_Int_Tables_number   1
_chemical_formula_structural   Li4MnV3(P2O7)4
_chemical_formula_sum   'Li4 Mn1 V3 P8 O28'
_cell_volume   537.16460739
_cell_formula_units_Z   1
loop_
 _symmetry_equiv_pos_site_id
 _symmetry_equiv_pos_as_xyz
  1  'x, y, z'
loop_
 _atom_site_type_symbol
 _atom_site_label
 _atom_site_symmetry_multiplicity
 _atom_site_fract_x
 _atom_site_fract_y
 _atom_site_fract_z
 _atom_site_occupancy
  Li  Li0  1  0.17638100  0.76948200  0.90627400  1
  Li  Li1  1  0.17433100  0.26845200  0.40643700  1
  Li  Li2  1  0.82326300  0.34207300  0.98034600  1
  Li  Li3  1  0.82333900  0.84340800  0.48146800  1
  Mn  Mn4  1  0.78427500  0.13404100  0.13459100  1
  V  V5  1  0.21484100  0.11348700  0.61424200  1
  V  V6  1  0.21586000  0.61394900  0.11476700  1
  V  V7  1  0.78388700  0.63568300  0.63615000  1
  P  P8  1  0.40045900  0.85142200  0.67135600  1
  P  P9  1  0.21261200  0.43480000  0.65090700  1
  P  P10  1  0.21301200  0.93669600  0.15155500  1
  P  P11  1  0.59996600  0.57939300  0.89862300  1
  P  P12  1  0.40102800  0.34912500  0.17169700  1
  P  P13  1  0.79019100  0.10013500  0.81430700  1
  P  P14  1  0.78859500  0.59908600  0.31530900  1
  P  P15  1  0.60132200  0.08114100  0.40022700  1
  O  O16  1  0.18800700  0.75994200  0.72226900  1
  O  O17  1  0.24571400  0.92377700  0.58089600  1
  O  O18  1  0.39638400  0.64168600  0.96380100  1
  O  O19  1  0.05099700  0.08635600  0.76238400  1
  O  O20  1  0.05110800  0.58747600  0.26346400  1
  O  O21  1  0.13161000  0.29063900  0.59426100  1
  O  O22  1  0.12854700  0.79160000  0.09517600  1
  O  O23  1  0.59594500  0.95363800  0.79981800  1
  O  O24  1  0.40580800  0.45002700  0.79649800  1
  O  O25  1  0.40438800  0.95164500  0.29615000  1
  O  O26  1  0.39692900  0.50896700  0.57534300  1
  O  O27  1  0.60320600  0.78616100  0.60858100  1
  O  O28  1  0.18897600  0.25890400  0.22318000  1
  O  O29  1  0.25022200  0.42354400  0.08147600  1
  O  O30  1  0.75314900  0.66919100  0.82602400  1
  O  O31  1  0.81354400  0.52754100  0.99001500  1
  O  O32  1  0.39342000  0.14092300  0.46421300  1
  O  O33  1  0.60175000  0.17577400  0.74020700  1
  O  O34  1  0.60170800  0.67551600  0.24107600  1
  O  O35  1  0.59638700  0.45256200  0.29970000  1
  O  O36  1  0.87324700  0.15821700  0.95703400  1
  O  O37  1  0.86823900  0.65563400  0.45854500  1
  O  O38  1  0.39604200  0.00888200  0.07470600  1
  O  O39  1  0.94913100  0.48640800  0.66279300  1
  O  O40  1  0.94246100  0.98640500  0.16012600  1
  O  O41  1  0.60376300  0.28306800  0.10833200  1
  O  O42  1  0.75490200  0.17237100  0.33012000  1
  O  O43  1  0.81105100  0.02635600  0.48997000  1
