# generated using pymatgen
data_Li4MnCo2O7
_symmetry_space_group_name_H-M   'P 1'
_cell_length_a   5.00021600
_cell_length_b   5.07417067
_cell_length_c   10.56846759
_cell_angle_alpha   102.17325146
_cell_angle_beta   94.19046798
_cell_angle_gamma   101.08394466
_symmetry_Int_Tables_number   1
_chemical_formula_structural   Li4MnCo2O7
_chemical_formula_sum   'Li8 Mn2 Co4 O14'
_cell_volume   255.41362680
_cell_formula_units_Z   2
loop_
 _symmetry_equiv_pos_site_id
 _symmetry_equiv_pos_as_xyz
  1  'x, y, z'
loop_
 _atom_site_type_symbol
 _atom_site_label
 _atom_site_symmetry_multiplicity
 _atom_site_fract_x
 _atom_site_fract_y
 _atom_site_fract_z
 _atom_site_occupancy
  Li  Li0  1  0.00000000  0.50000000  0.00000000  1
  Li  Li1  1  0.14521800  0.78191600  0.28824700  1
  Li  Li2  1  0.57350600  0.64041600  0.14405200  1
  Li  Li3  1  0.71785600  0.93195900  0.43006300  1
  Li  Li4  1  0.28214400  0.06804100  0.56993700  1
  Li  Li5  1  0.85478200  0.21808400  0.71175300  1
  Li  Li6  1  0.42649400  0.35958400  0.85594800  1
  Li  Li7  1  0.00000000  0.50000000  0.50000000  1
  Mn  Mn8  1  0.71353500  0.92614600  0.92505500  1
  Mn  Mn9  1  0.28646500  0.07385400  0.07494500  1
  Co  Co10  1  0.85967500  0.21603200  0.21839600  1
  Co  Co11  1  0.14032500  0.78396800  0.78160400  1
  Co  Co12  1  0.42944700  0.35700200  0.36634500  1
  Co  Co13  1  0.57055300  0.64299800  0.63365500  1
  O  O14  1  0.80122100  0.58965800  0.82165600  1
  O  O15  1  0.93728800  0.88386600  0.11399400  1
  O  O16  1  0.36662500  0.73497500  0.96867800  1
  O  O17  1  0.51866300  0.02985000  0.25597700  1
  O  O18  1  0.10333700  0.15788500  0.38909300  1
  O  O19  1  0.62754700  0.30962400  0.53674200  1
  O  O20  1  0.24442900  0.46420100  0.68389100  1
  O  O21  1  0.19877900  0.41034200  0.17834400  1
  O  O22  1  0.37245300  0.69037600  0.46325800  1
  O  O23  1  0.75557100  0.53579900  0.31610900  1
  O  O24  1  0.89666300  0.84211500  0.61090700  1
  O  O25  1  0.48133700  0.97015000  0.74402300  1
  O  O26  1  0.06271200  0.11613400  0.88600600  1
  O  O27  1  0.63337500  0.26502500  0.03132200  1
