# generated using pymatgen
data_Li3B8O15
_symmetry_space_group_name_H-M   'P 1'
_cell_length_a   9.02628825
_cell_length_b   9.02628825
_cell_length_c   15.99567700
_cell_angle_alpha   90.00000000
_cell_angle_beta   90.00000000
_cell_angle_gamma   120.00000184
_symmetry_Int_Tables_number   1
_chemical_formula_structural   Li3B8O15
_chemical_formula_sum   'Li12 B32 O60'
_cell_volume   1128.63014646
_cell_formula_units_Z   4
loop_
 _symmetry_equiv_pos_site_id
 _symmetry_equiv_pos_as_xyz
  1  'x, y, z'
loop_
 _atom_site_type_symbol
 _atom_site_label
 _atom_site_symmetry_multiplicity
 _atom_site_fract_x
 _atom_site_fract_y
 _atom_site_fract_z
 _atom_site_occupancy
  Li  Li0  1  0.69167700  0.66184600  0.75000000  1
  Li  Li1  1  0.33815400  0.02983000  0.75000000  1
  Li  Li2  1  0.97017000  0.30832300  0.75000000  1
  Li  Li3  1  0.66184600  0.69167700  0.25000000  1
  Li  Li4  1  0.02983000  0.33815400  0.25000000  1
  Li  Li5  1  0.30832300  0.97017000  0.25000000  1
  Li  Li6  1  0.43725700  0.00000000  0.50000000  1
  Li  Li7  1  0.00000000  0.43725700  0.50000000  1
  Li  Li8  1  0.56274300  0.56274300  0.50000000  1
  Li  Li9  1  0.43725700  0.00000000  0.00000000  1
  Li  Li10  1  0.00000000  0.43725700  0.00000000  1
  Li  Li11  1  0.56274300  0.56274300  0.00000000  1
  B  B12  1  0.84196600  0.47735900  0.66413300  1
  B  B13  1  0.52264100  0.36460800  0.66413300  1
  B  B14  1  0.63539200  0.15803400  0.66413300  1
  B  B15  1  0.84196600  0.47735900  0.83586700  1
  B  B16  1  0.52264100  0.36460800  0.83586700  1
  B  B17  1  0.63539200  0.15803400  0.83586700  1
  B  B18  1  0.47735900  0.84196600  0.16413300  1
  B  B19  1  0.36460800  0.52264100  0.16413300  1
  B  B20  1  0.15803400  0.63539200  0.16413300  1
  B  B21  1  0.47735900  0.84196600  0.33586700  1
  B  B22  1  0.36460800  0.52264100  0.33586700  1
  B  B23  1  0.15803400  0.63539200  0.33586700  1
  B  B24  1  0.00000000  0.00000000  0.75000000  1
  B  B25  1  0.00000000  0.00000000  0.25000000  1
  B  B26  1  0.05618400  0.75258100  0.75000000  1
  B  B27  1  0.24741900  0.30360200  0.75000000  1
  B  B28  1  0.69639800  0.94381600  0.75000000  1
  B  B29  1  0.75258100  0.05618400  0.25000000  1
  B  B30  1  0.30360200  0.24741900  0.25000000  1
  B  B31  1  0.94381600  0.69639800  0.25000000  1
  B  B32  1  0.11492800  0.72736900  0.60281300  1
  B  B33  1  0.27263100  0.38755900  0.60281300  1
  B  B34  1  0.61244100  0.88507200  0.60281300  1
  B  B35  1  0.11492800  0.72736900  0.89718700  1
  B  B36  1  0.27263100  0.38755900  0.89718700  1
  B  B37  1  0.61244100  0.88507200  0.89718700  1
  B  B38  1  0.72736900  0.11492800  0.10281300  1
  B  B39  1  0.38755900  0.27263100  0.10281300  1
  B  B40  1  0.88507200  0.61244100  0.10281300  1
  B  B41  1  0.72736900  0.11492800  0.39718700  1
  B  B42  1  0.38755900  0.27263100  0.39718700  1
  B  B43  1  0.88507200  0.61244100  0.39718700  1
  O  O44  1  0.94445900  0.56036800  0.75000000  1
  O  O45  1  0.43963200  0.38409100  0.75000000  1
  O  O46  1  0.61590900  0.05554100  0.75000000  1
  O  O47  1  0.56036800  0.94445900  0.25000000  1
  O  O48  1  0.38409100  0.43963200  0.25000000  1
  O  O49  1  0.05554100  0.61590900  0.25000000  1
  O  O50  1  0.96648400  0.57147500  0.59488000  1
  O  O51  1  0.42852500  0.39500900  0.59488000  1
  O  O52  1  0.60499100  0.03351600  0.59488000  1
  O  O53  1  0.96648400  0.57147500  0.90512000  1
  O  O54  1  0.42852500  0.39500900  0.90512000  1
  O  O55  1  0.60499100  0.03351600  0.90512000  1
  O  O56  1  0.57147500  0.96648400  0.09488000  1
  O  O57  1  0.39500900  0.42852500  0.09488000  1
  O  O58  1  0.03351600  0.60499100  0.09488000  1
  O  O59  1  0.57147500  0.96648400  0.40512000  1
  O  O60  1  0.39500900  0.42852500  0.40512000  1
  O  O61  1  0.03351600  0.60499100  0.40512000  1
  O  O62  1  0.17139600  0.81013700  0.82227100  1
  O  O63  1  0.18986300  0.36125900  0.82227100  1
  O  O64  1  0.63874100  0.82860400  0.82227100  1
  O  O65  1  0.17139600  0.81013700  0.67772900  1
  O  O66  1  0.18986300  0.36125900  0.67772900  1
  O  O67  1  0.63874100  0.82860400  0.67772900  1
  O  O68  1  0.81013700  0.17139600  0.32227100  1
  O  O69  1  0.36125900  0.18986300  0.32227100  1
  O  O70  1  0.82860400  0.63874100  0.32227100  1
  O  O71  1  0.81013700  0.17139600  0.17772900  1
  O  O72  1  0.36125900  0.18986300  0.17772900  1
  O  O73  1  0.82860400  0.63874100  0.17772900  1
  O  O74  1  0.94440500  0.82753400  0.75000000  1
  O  O75  1  0.17246600  0.11687100  0.75000000  1
  O  O76  1  0.88312900  0.05559500  0.75000000  1
  O  O77  1  0.82753400  0.94440500  0.25000000  1
  O  O78  1  0.11687100  0.17246600  0.25000000  1
  O  O79  1  0.05559500  0.88312900  0.25000000  1
  O  O80  1  0.80478700  0.30346100  0.66246800  1
  O  O81  1  0.69653900  0.50132600  0.66246800  1
  O  O82  1  0.49867400  0.19521300  0.66246800  1
  O  O83  1  0.80478700  0.30346100  0.83753200  1
  O  O84  1  0.69653900  0.50132600  0.83753200  1
  O  O85  1  0.49867400  0.19521300  0.83753200  1
  O  O86  1  0.30346100  0.80478700  0.16246800  1
  O  O87  1  0.50132600  0.69653900  0.16246800  1
  O  O88  1  0.19521300  0.49867400  0.16246800  1
  O  O89  1  0.30346100  0.80478700  0.33753200  1
  O  O90  1  0.50132600  0.69653900  0.33753200  1
  O  O91  1  0.19521300  0.49867400  0.33753200  1
  O  O92  1  0.21844000  0.80756300  0.53597600  1
  O  O93  1  0.19243700  0.41087700  0.53597600  1
  O  O94  1  0.58912300  0.78156000  0.53597600  1
  O  O95  1  0.21844000  0.80756300  0.96402400  1
  O  O96  1  0.19243700  0.41087700  0.96402400  1
  O  O97  1  0.58912300  0.78156000  0.96402400  1
  O  O98  1  0.80756300  0.21844000  0.03597600  1
  O  O99  1  0.41087700  0.19243700  0.03597600  1
  O  O100  1  0.78156000  0.58912300  0.03597600  1
  O  O101  1  0.80756300  0.21844000  0.46402400  1
  O  O102  1  0.41087700  0.19243700  0.46402400  1
  O  O103  1  0.78156000  0.58912300  0.46402400  1
