# generated using pymatgen
data_Li9Mn2Co5O16
_symmetry_space_group_name_H-M   'P 1'
_cell_length_a   5.14005668
_cell_length_b   10.33696005
_cell_length_c   5.83025378
_cell_angle_alpha   104.80574169
_cell_angle_beta   71.83835444
_cell_angle_gamma   84.82185651
_symmetry_Int_Tables_number   1
_chemical_formula_structural   Li9Mn2Co5O16
_chemical_formula_sum   'Li9 Mn2 Co5 O16'
_cell_volume   279.66102307
_cell_formula_units_Z   1
loop_
 _symmetry_equiv_pos_site_id
 _symmetry_equiv_pos_as_xyz
  1  'x, y, z'
loop_
 _atom_site_type_symbol
 _atom_site_label
 _atom_site_symmetry_multiplicity
 _atom_site_fract_x
 _atom_site_fract_y
 _atom_site_fract_z
 _atom_site_occupancy
  Li  Li0  1  0.49927275  0.12215674  0.92834948  1
  Li  Li1  1  0.50525077  0.37183758  0.31231739  1
  Li  Li2  1  0.49811452  0.62050855  0.69146885  1
  Li  Li3  1  0.49421952  0.88148854  0.08144336  1
  Li  Li4  1  0.49733361  0.12394842  0.44354977  1
  Li  Li5  1  0.50218108  0.37283664  0.80749641  1
  Li  Li6  1  0.49873953  0.62300042  0.18179596  1
  Li  Li7  1  0.50524196  0.88467319  0.55607232  1
  Li  Li8  1  0.99839126  0.00214065  0.49811782  1
  Mn  Mn9  1  0.99212465  0.00219590  0.00333129  1
  Mn  Mn10  1  0.00462629  0.75226125  0.62709146  1
  Co  Co11  1  0.99855728  0.24877678  0.37079697  1
  Co  Co12  1  0.00800328  0.49823295  0.75063604  1
  Co  Co13  1  0.00333878  0.75102199  0.13254813  1
  Co  Co14  1  0.99769005  0.25034384  0.86503775  1
  Co  Co15  1  0.99946417  0.50022464  0.25040277  1
  O  O16  1  0.22634049  0.06581798  0.73763921  1
  O  O17  1  0.20182888  0.31253011  0.09414401  1
  O  O18  1  0.23338336  0.56906167  0.49551108  1
  O  O19  1  0.21902821  0.81370545  0.85124532  1
  O  O20  1  0.21318914  0.06607832  0.20622621  1
  O  O21  1  0.24314384  0.32327947  0.59691076  1
  O  O22  1  0.22561377  0.56815339  -0.00000622  1
  O  O23  1  0.22534503  0.80347465  0.34754329  1
  O  O24  1  0.75037727  0.17345061  0.14122734  1
  O  O25  1  0.77758029  0.43562619  0.50670678  1
  O  O26  1  0.79123873  0.68370311  0.90563083  1
  O  O27  1  0.77063859  0.93005022  0.25989333  1
  O  O28  1  0.78562746  0.19789467  0.64895919  1
  O  O29  1  0.77051111  0.43425765  0.00959727  1
  O  O30  1  0.78778117  0.68959382  0.41260709  1
  O  O31  1  0.77582316  0.92767457  0.78570874  1
