# generated using pymatgen
data_Li4Ti3(CoO4)3
_symmetry_space_group_name_H-M   'P 1'
_cell_length_a   7.79200684
_cell_length_b   8.46679397
_cell_length_c   8.00575973
_cell_angle_alpha   104.60140974
_cell_angle_beta   65.36599446
_cell_angle_gamma   106.63410439
_symmetry_Int_Tables_number   1
_chemical_formula_structural   Li4Ti3(CoO4)3
_chemical_formula_sum   'Li8 Ti6 Co6 O24'
_cell_volume   454.62974435
_cell_formula_units_Z   2
loop_
 _symmetry_equiv_pos_site_id
 _symmetry_equiv_pos_as_xyz
  1  'x, y, z'
loop_
 _atom_site_type_symbol
 _atom_site_label
 _atom_site_symmetry_multiplicity
 _atom_site_fract_x
 _atom_site_fract_y
 _atom_site_fract_z
 _atom_site_occupancy
  Li  Li0  1  0.91674000  0.58340300  0.41668900  1
  Li  Li1  1  0.41671100  0.08340100  0.91666900  1
  Li  Li2  1  0.16181700  0.82502900  0.16356300  1
  Li  Li3  1  0.67159400  0.34168700  0.66970000  1
  Li  Li4  1  0.70773900  0.73002600  0.27024400  1
  Li  Li5  1  0.21923100  0.23404700  0.75768400  1
  Li  Li6  1  0.61400700  0.93255100  0.07568800  1
  Li  Li7  1  0.12556000  0.43665300  0.56310500  1
  Ti  Ti8  1  0.16491600  0.34528700  0.17559700  1
  Ti  Ti9  1  0.66840100  0.82140000  0.65776200  1
  Ti  Ti10  1  0.32761100  0.16261300  0.32719100  1
  Ti  Ti11  1  0.83353700  0.68676100  0.85249700  1
  Ti  Ti12  1  0.50571000  0.00404200  0.50614900  1
  Ti  Ti13  1  0.99978200  0.47993200  0.98085200  1
  Co  Co14  1  0.41666600  0.58331800  0.91663700  1
  Co  Co15  1  0.58139400  0.41571600  0.08325500  1
  Co  Co16  1  0.25192600  0.75094800  0.75007800  1
  Co  Co17  1  0.91667000  0.08332100  0.41665800  1
  Co  Co18  1  0.08947100  0.92036900  0.58388800  1
  Co  Co19  1  0.74386800  0.24625000  0.24941700  1
  O  O20  1  0.26570500  0.00055900  0.72168500  1
  O  O21  1  0.75263500  0.48204000  0.21423400  1
  O  O22  1  0.08068200  0.68459500  0.61908400  1
  O  O23  1  0.56761000  0.16607900  0.11165300  1
  O  O24  1  0.51693100  0.23314100  0.47895700  1
  O  O25  1  0.01806000  0.72842800  0.97495400  1
  O  O26  1  0.31643300  0.93349600  0.35435000  1
  O  O27  1  0.81526900  0.43826000  0.85837900  1
  O  O28  1  0.89846200  0.83210800  0.43559900  1
  O  O29  1  0.41410800  0.34572900  0.94497900  1
  O  O30  1  0.41921300  0.82095400  0.88835200  1
  O  O31  1  0.93487700  0.33457700  0.39776500  1
  O  O32  1  0.17717800  0.10230800  0.17829000  1
  O  O33  1  0.68305100  0.60364700  0.68148300  1
  O  O34  1  0.15028500  0.56302400  0.15185000  1
  O  O35  1  0.65615200  0.06433800  0.65504700  1
  O  O36  1  0.34035400  0.39855100  0.30654000  1
  O  O37  1  0.83707800  0.90123900  0.80764400  1
  O  O38  1  0.99625400  0.26544700  0.02569600  1
  O  O39  1  0.49297300  0.76810700  0.52680000  1
  O  O40  1  0.60932000  0.67715500  0.06256300  1
  O  O41  1  0.10743100  0.16120400  0.55775700  1
  O  O42  1  0.72591600  0.00542300  0.27557600  1
  O  O43  1  0.22400300  0.48950900  0.77076800  1
