# generated using pymatgen
data_LiAlSi2H2O7
_symmetry_space_group_name_H-M   'P 1'
_cell_length_a   6.91639668
_cell_length_b   6.95942676
_cell_length_c   7.65832159
_cell_angle_alpha   62.49676552
_cell_angle_beta   89.71421200
_cell_angle_gamma   68.81516039
_symmetry_Int_Tables_number   1
_chemical_formula_structural   LiAlSi2H2O7
_chemical_formula_sum   'Li2 Al2 Si4 H4 O14'
_cell_volume   298.97158583
_cell_formula_units_Z   2
loop_
 _symmetry_equiv_pos_site_id
 _symmetry_equiv_pos_as_xyz
  1  'x, y, z'
loop_
 _atom_site_type_symbol
 _atom_site_label
 _atom_site_symmetry_multiplicity
 _atom_site_fract_x
 _atom_site_fract_y
 _atom_site_fract_z
 _atom_site_occupancy
  Li  Li0  1  0.16335551  0.98831618  0.61584691  1
  Li  Li1  1  0.57239828  0.89867111  0.64005479  1
  Al  Al2  1  0.95813637  0.57595259  0.75310529  1
  Al  Al3  1  0.45205694  0.01586850  0.01806534  1
  Si  Si4  1  0.52449062  0.46977579  0.87709269  1
  Si  Si5  1  0.82294972  0.98945482  0.88286771  1
  Si  Si6  1  0.29094182  0.29769269  0.22660607  1
  Si  Si7  1  0.94842946  0.59840401  0.32453821  1
  H  H8  1  0.40698962  0.86529302  0.23085200  1
  H  H9  1  0.29333559  0.62326697  0.58591505  1
  H  H10  1  0.99891680  0.05219087  0.90270887  1
  H  H11  1  0.75298200  0.39964884  0.32449500  1
  O  O12  1  0.71726564  0.53298553  0.77752453  1
  O  O13  1  0.87855549  0.37081377  0.40646934  1
  O  O14  1  0.16686505  0.26466038  0.90401954  1
  O  O15  1  0.96742638  0.66257137  0.49640147  1
  O  O16  1  0.86233011  0.86379382  0.74453176  1
  O  O17  1  0.58470185  0.21092434  0.82155287  1
  O  O18  1  0.42261935  0.89307895  0.85571805  1
  O  O19  1  0.17136367  0.54007567  0.24172324  1
  O  O20  1  0.29095368  0.63536417  0.70831478  1
  O  O21  1  0.46495524  0.64052410  0.99758023  1
  O  O22  1  0.49031364  0.26294220  0.10361706  1
  O  O23  1  0.34254810  0.07675807  0.44040916  1
  O  O24  1  0.09023245  0.35987796  0.04644898  1
  O  O25  1  0.77818665  0.82059329  0.11174209  1
