# generated using pymatgen
data_Li7Mn4CoO12
_symmetry_space_group_name_H-M   'P 1'
_cell_length_a   5.21474647
_cell_length_b   12.95233656
_cell_length_c   6.49687319
_cell_angle_alpha   82.88093851
_cell_angle_beta   95.80426868
_cell_angle_gamma   95.71756033
_symmetry_Int_Tables_number   1
_chemical_formula_structural   Li7Mn4CoO12
_chemical_formula_sum   'Li14 Mn8 Co2 O24'
_cell_volume   431.51485245
_cell_formula_units_Z   2
loop_
 _symmetry_equiv_pos_site_id
 _symmetry_equiv_pos_as_xyz
  1  'x, y, z'
loop_
 _atom_site_type_symbol
 _atom_site_label
 _atom_site_symmetry_multiplicity
 _atom_site_fract_x
 _atom_site_fract_y
 _atom_site_fract_z
 _atom_site_occupancy
  Li  Li0  1  0.50001700  0.08341700  0.83314500  1
  Li  Li1  1  0.49998400  0.58325000  0.83352400  1
  Li  Li2  1  0.25486700  0.20401900  0.07272400  1
  Li  Li3  1  0.24484800  0.70299800  0.07095600  1
  Li  Li4  1  0.74513300  0.46265000  0.59394000  1
  Li  Li5  1  0.75515300  0.96367000  0.59570800  1
  Li  Li6  1  0.75589700  0.12828000  0.25086700  1
  Li  Li7  1  0.76075000  0.62870400  0.25227500  1
  Li  Li8  1  0.75508000  0.29118400  0.92637200  1
  Li  Li9  1  0.76148400  0.79216300  0.92426200  1
  Li  Li10  1  0.23925200  0.03796500  0.41438700  1
  Li  Li11  1  0.24410200  0.53838800  0.41579600  1
  Li  Li12  1  0.24491900  0.37548500  0.74029200  1
  Li  Li13  1  0.23851900  0.87450700  0.74240100  1
  Mn  Mn14  1  0.99996500  0.50020300  0.99940700  1
  Mn  Mn15  1  0.99990800  0.99919500  0.00162000  1
  Mn  Mn16  1  0.00003500  0.16646200  0.66726000  1
  Mn  Mn17  1  0.00009300  0.66746900  0.66504800  1
  Mn  Mn18  1  0.49946400  0.41809800  0.16401300  1
  Mn  Mn19  1  0.50008100  0.91852900  0.16233500  1
  Mn  Mn20  1  0.50054000  0.24856900  0.50265700  1
  Mn  Mn21  1  0.49991800  0.74813600  0.50433700  1
  Co  Co22  1  0.99999900  0.83333400  0.33333300  1
  Co  Co23  1  0.00000000  0.33333200  0.33333400  1
  O  O24  1  0.89548200  0.14062400  0.94775500  1
  O  O25  1  0.89457400  0.64105700  0.94694600  1
  O  O26  1  0.10542900  0.02560800  0.71971700  1
  O  O27  1  0.10451700  0.52604200  0.71891100  1
  O  O28  1  0.38729300  0.39183000  0.44956000  1
  O  O29  1  0.35320200  0.88594200  0.43807100  1
  O  O30  1  0.61270500  0.27483700  0.21710800  1
  O  O31  1  0.64679600  0.78072400  0.22860200  1
  O  O32  1  0.89453600  0.30760800  0.61418000  1
  O  O33  1  0.89183000  0.80827800  0.61509700  1
  O  O34  1  0.89569400  0.47346400  0.28166700  1
  O  O35  1  0.89184900  0.97492600  0.28207700  1
  O  O36  1  0.10430500  0.19320200  0.38500300  1
  O  O37  1  0.10815400  0.69174300  0.38458400  1
  O  O38  1  0.10546200  0.35905500  0.05248900  1
  O  O39  1  0.10817000  0.85839100  0.05156500  1
  O  O40  1  0.34560700  0.05074700  0.11640500  1
  O  O41  1  0.34665400  0.55172700  0.11610300  1
  O  O42  1  0.34614200  0.22485700  0.76782500  1
  O  O43  1  0.34603300  0.72519000  0.76897200  1
  O  O44  1  0.65334300  0.11493800  0.55056400  1
  O  O45  1  0.65439500  0.61591900  0.55026200  1
  O  O46  1  0.65385500  0.44180800  0.89884200  1
  O  O47  1  0.65396600  0.94147700  0.89770000  1
