# generated using pymatgen
data_Li8(CoO2)5
_symmetry_space_group_name_H-M   'P 1'
_cell_length_a   5.36726081
_cell_length_b   6.64417630
_cell_length_c   8.06410134
_cell_angle_alpha   90.13956681
_cell_angle_beta   102.72170611
_cell_angle_gamma   113.68624661
_symmetry_Int_Tables_number   1
_chemical_formula_structural   Li8(CoO2)5
_chemical_formula_sum   'Li8 Co5 O10'
_cell_volume   255.55015256
_cell_formula_units_Z   1
loop_
 _symmetry_equiv_pos_site_id
 _symmetry_equiv_pos_as_xyz
  1  'x, y, z'
loop_
 _atom_site_type_symbol
 _atom_site_label
 _atom_site_symmetry_multiplicity
 _atom_site_fract_x
 _atom_site_fract_y
 _atom_site_fract_z
 _atom_site_occupancy
  Li  Li0  1  0.90447600  0.34312000  0.06730400  1
  Li  Li1  1  0.71058800  0.16147300  0.44088900  1
  Li  Li2  1  0.50191800  0.05853900  0.13763300  1
  Li  Li3  1  0.68937600  0.23978100  0.75773600  1
  Li  Li4  1  0.26044800  0.70667300  0.26814100  1
  Li  Li5  1  0.31720300  0.87912400  0.54853800  1
  Li  Li6  1  0.08621400  0.52337600  0.64885300  1
  Li  Li7  1  0.12974500  0.68902800  0.93111900  1
  Co  Co8  1  0.89998500  0.89889700  0.19707300  1
  Co  Co9  1  0.49828300  0.50180900  0.00177900  1
  Co  Co10  1  0.70137900  0.70117600  0.60121600  1
  Co  Co11  1  0.28799600  0.29548400  0.40543100  1
  Co  Co12  1  0.11125500  0.10082100  0.79330300  1
  O  O13  1  0.90559100  0.18415000  0.26301600  1
  O  O14  1  0.88347000  0.62677500  0.08861600  1
  O  O15  1  0.67646400  0.41602800  0.56273400  1
  O  O16  1  0.30279000  0.01406400  0.32783800  1
  O  O17  1  0.48331100  0.74954700  0.09687300  1
  O  O18  1  0.49897900  0.23173000  0.93925400  1
  O  O19  1  0.72589200  0.98720600  0.64312200  1
  O  O20  1  0.32641200  0.59312400  0.48973600  1
  O  O21  1  0.11913200  0.38989500  0.87756300  1
  O  O22  1  0.07909100  0.80817800  0.71223500  1
