# generated using pymatgen
data_Li9Mn2Co5O16
_symmetry_space_group_name_H-M   'P 1'
_cell_length_a   5.15846600
_cell_length_b   7.69494503
_cell_length_c   7.75805582
_cell_angle_alpha   94.45234424
_cell_angle_beta   108.93729894
_cell_angle_gamma   96.47844371
_symmetry_Int_Tables_number   1
_chemical_formula_structural   Li9Mn2Co5O16
_chemical_formula_sum   'Li9 Mn2 Co5 O16'
_cell_volume   287.27481947
_cell_formula_units_Z   1
loop_
 _symmetry_equiv_pos_site_id
 _symmetry_equiv_pos_as_xyz
  1  'x, y, z'
loop_
 _atom_site_type_symbol
 _atom_site_label
 _atom_site_symmetry_multiplicity
 _atom_site_fract_x
 _atom_site_fract_y
 _atom_site_fract_z
 _atom_site_occupancy
  Li  Li0  1  0.56206600  0.18483200  0.06268900  1
  Li  Li1  1  0.94033200  0.31358200  0.43901600  1
  Li  Li2  1  0.31522000  0.43785600  0.80865700  1
  Li  Li3  1  0.68992900  0.55886000  0.19106800  1
  Li  Li4  1  0.05620900  0.69149000  0.55891300  1
  Li  Li5  1  0.43775900  0.81525800  0.92956900  1
  Li  Li6  1  0.80968800  0.93747000  0.32297200  1
  Li  Li7  1  0.18367700  0.05968500  0.68059200  1
  Li  Li8  1  0.62667600  0.87452100  0.62692600  1
  Mn  Mn9  1  0.99497300  0.99869700  0.99690100  1
  Mn  Mn10  1  0.87147700  0.62697700  0.87180000  1
  Co  Co11  1  0.37900800  0.12557500  0.37792500  1
  Co  Co12  1  0.74756900  0.23948500  0.74094500  1
  Co  Co13  1  0.12357000  0.37642300  0.12884300  1
  Co  Co14  1  0.50529800  0.50761200  0.50246600  1
  Co  Co15  1  0.25849800  0.75490500  0.26051800  1
  O  O16  1  0.14093000  0.20976900  0.91701300  1
  O  O17  1  0.51238600  0.33513300  0.28424500  1
  O  O18  1  0.90179200  0.48018000  0.66981100  1
  O  O19  1  0.24828800  0.59562800  0.03464300  1
  O  O20  1  0.63626300  0.70659500  0.40131100  1
  O  O21  1  0.02523500  0.84116000  0.79966600  1
  O  O22  1  0.37510600  0.96858100  0.15200900  1
  O  O23  1  0.77488700  0.10571300  0.53593200  1
  O  O24  1  0.97834100  0.14953000  0.20554100  1
  O  O25  1  0.36032900  0.28426400  0.59050000  1
  O  O26  1  0.73747200  0.41449600  0.95829100  1
  O  O27  1  0.10423400  0.52659200  0.33919300  1
  O  O28  1  0.50142500  0.65026100  0.72702300  1
  O  O29  1  0.85381000  0.78435800  0.07767200  1
  O  O30  1  0.21989800  0.90808800  0.45305800  1
  O  O31  1  0.62765200  0.03641800  0.85428700  1
