# generated using pymatgen
data_Li4MnCo2O7
_symmetry_space_group_name_H-M   'P 1'
_cell_length_a   5.13790847
_cell_length_b   5.13790847
_cell_length_c   17.38875871
_cell_angle_alpha   85.42770708
_cell_angle_beta   85.42770708
_cell_angle_gamma   33.40980207
_symmetry_Int_Tables_number   1
_chemical_formula_structural   Li4MnCo2O7
_chemical_formula_sum   'Li8 Mn2 Co4 O14'
_cell_volume   251.87592306
_cell_formula_units_Z   2
loop_
 _symmetry_equiv_pos_site_id
 _symmetry_equiv_pos_as_xyz
  1  'x, y, z'
loop_
 _atom_site_type_symbol
 _atom_site_label
 _atom_site_symmetry_multiplicity
 _atom_site_fract_x
 _atom_site_fract_y
 _atom_site_fract_z
 _atom_site_occupancy
  Li  Li0  1  0.28434200  0.28434200  0.43660400  1
  Li  Li1  1  0.71565800  0.71565800  0.56339600  1
  Li  Li2  1  0.13906300  0.13906300  0.71604300  1
  Li  Li3  1  0.57174100  0.57174100  0.85749700  1
  Li  Li4  1  0.00000000  0.00000000  0.00000000  1
  Li  Li5  1  0.42825900  0.42825900  0.14250300  1
  Li  Li6  1  0.86093700  0.86093700  0.28395700  1
  Li  Li7  1  0.00000000  0.00000000  0.50000000  1
  Mn  Mn8  1  0.57302800  0.57302800  0.36075900  1
  Mn  Mn9  1  0.42697200  0.42697200  0.63924100  1
  Co  Co10  1  0.86077300  0.86077300  0.78779100  1
  Co  Co11  1  0.28502800  0.28502800  0.92902400  1
  Co  Co12  1  0.71497200  0.71497200  0.07097600  1
  Co  Co13  1  0.13922700  0.13922700  0.21220900  1
  O  O14  1  0.19817400  0.19817400  0.31944600  1
  O  O15  1  0.64332400  0.64332400  0.45412400  1
  O  O16  1  0.05091500  0.05091500  0.61385400  1
  O  O17  1  0.48985400  0.48985400  0.74844700  1
  O  O18  1  0.92097000  0.92097000  0.89121100  1
  O  O19  1  0.34936700  0.34936700  0.03245100  1
  O  O20  1  0.77726400  0.77726400  0.17497600  1
  O  O21  1  0.35667600  0.35667600  0.54587600  1
  O  O22  1  0.80182600  0.80182600  0.68055400  1
  O  O23  1  0.22273600  0.22273600  0.82502400  1
  O  O24  1  0.65063300  0.65063300  0.96754900  1
  O  O25  1  0.07903000  0.07903000  0.10878900  1
  O  O26  1  0.51014600  0.51014600  0.25155300  1
  O  O27  1  0.94908500  0.94908500  0.38614600  1
