# generated using pymatgen
data_Li4Ti3Co2Sn3O16
_symmetry_space_group_name_H-M   'P 1'
_cell_length_a   6.17429669
_cell_length_b   9.86655191
_cell_length_c   6.11732300
_cell_angle_alpha   89.86639746
_cell_angle_beta   60.03382507
_cell_angle_gamma   89.98237536
_symmetry_Int_Tables_number   1
_chemical_formula_structural   Li4Ti3Co2Sn3O16
_chemical_formula_sum   'Li4 Ti3 Co2 Sn3 O16'
_cell_volume   322.84307591
_cell_formula_units_Z   1
loop_
 _symmetry_equiv_pos_site_id
 _symmetry_equiv_pos_as_xyz
  1  'x, y, z'
loop_
 _atom_site_type_symbol
 _atom_site_label
 _atom_site_symmetry_multiplicity
 _atom_site_fract_x
 _atom_site_fract_y
 _atom_site_fract_z
 _atom_site_occupancy
  Li  Li0  1  0.31835300  0.89166600  0.36045300  1
  Li  Li1  1  0.02441100  0.99324900  0.95751700  1
  Li  Li2  1  0.99976800  0.50043400  0.98405500  1
  Li  Li3  1  0.66480900  0.39465000  0.67364500  1
  Ti  Ti4  1  0.17374800  0.22600800  0.65799800  1
  Ti  Ti5  1  0.32257200  0.70425200  0.80538300  1
  Ti  Ti6  1  0.77572200  0.73171200  0.86911100  1
  Co  Co7  1  0.66563200  0.99952000  0.66842800  1
  Co  Co8  1  0.34236700  0.49789200  0.31970700  1
  Sn  Sn9  1  0.84267500  0.71429600  0.34310900  1
  Sn  Sn10  1  0.66385900  0.20856200  0.16464600  1
  Sn  Sn11  1  0.17006000  0.21059500  0.16779800  1
  O  O12  1  0.48260900  0.33609500  0.03546200  1
  O  O13  1  0.32574400  0.09827700  0.34922900  1
  O  O14  1  0.00410500  0.31755900  0.99063900  1
  O  O15  1  0.00529000  0.81024100  0.98520300  1
  O  O16  1  0.84807800  0.09274000  0.30618600  1
  O  O17  1  0.19277400  0.59725300  0.66412500  1
  O  O18  1  0.65589100  0.60727000  0.69508800  1
  O  O19  1  0.50734300  0.83568800  0.99196400  1
  O  O20  1  0.68933800  0.60436700  0.15255200  1
  O  O21  1  0.16754200  0.60141700  0.14411500  1
  O  O22  1  0.47746300  0.32962900  0.49220600  1
  O  O23  1  0.03318700  0.33201400  0.49353400  1
  O  O24  1  0.95944900  0.83228900  0.54263800  1
  O  O25  1  0.51179700  0.83161100  0.53446100  1
  O  O26  1  0.85430200  0.10380800  0.82448100  1
  O  O27  1  0.32141000  0.10474800  0.82627200  1
