# generated using pymatgen
data_LiMn(CO3)2
_symmetry_space_group_name_H-M   'P 1'
_cell_length_a   7.46670371
_cell_length_b   8.03277601
_cell_length_c   7.44616588
_cell_angle_alpha   110.54857959
_cell_angle_beta   100.66274033
_cell_angle_gamma   70.23914159
_symmetry_Int_Tables_number   1
_chemical_formula_structural   LiMn(CO3)2
_chemical_formula_sum   'Li4 Mn4 C8 O24'
_cell_volume   392.44937584
_cell_formula_units_Z   4
loop_
 _symmetry_equiv_pos_site_id
 _symmetry_equiv_pos_as_xyz
  1  'x, y, z'
loop_
 _atom_site_type_symbol
 _atom_site_label
 _atom_site_symmetry_multiplicity
 _atom_site_fract_x
 _atom_site_fract_y
 _atom_site_fract_z
 _atom_site_occupancy
  Li  Li0  1  0.50069200  0.99985300  0.49993100  1
  Li  Li1  1  0.75019100  0.49988300  0.74996200  1
  Li  Li2  1  0.00041000  0.99994900  0.99983600  1
  Li  Li3  1  0.25015400  0.49989800  0.24994400  1
  Mn  Mn4  1  0.25000800  0.49982200  0.74992600  1
  Mn  Mn5  1  0.50018800  0.99998600  0.00046600  1
  Mn  Mn6  1  0.74966100  0.50006700  0.25000100  1
  Mn  Mn7  1  0.00027500  0.99971500  0.50006700  1
  C  C8  1  0.39250600  0.74323100  0.12493000  1
  C  C9  1  0.63001600  0.24863700  0.36508300  1
  C  C10  1  0.89254800  0.74318900  0.62496600  1
  C  C11  1  0.12998800  0.24853100  0.86491500  1
  C  C12  1  0.10722300  0.25691300  0.37495600  1
  C  C13  1  0.36999000  0.75148400  0.63521300  1
  C  C14  1  0.60733300  0.25689100  0.87499600  1
  C  C15  1  0.86995200  0.75143400  0.13507000  1
  O  O16  1  0.46417900  0.26211500  0.74438600  1
  O  O17  1  0.74864700  0.75141000  0.99036200  1
  O  O18  1  0.96404600  0.26226100  0.24442600  1
  O  O19  1  0.24876300  0.75142900  0.49042100  1
  O  O20  1  0.07052100  0.38728900  0.79328100  1
  O  O21  1  0.32982700  0.88674000  0.06022400  1
  O  O22  1  0.57039500  0.38734400  0.29336800  1
  O  O23  1  0.82981500  0.88669900  0.56014300  1
  O  O24  1  0.30955100  0.61666500  0.06258300  1
  O  O25  1  0.55672000  0.11063600  0.28695000  1
  O  O26  1  0.80950500  0.61669400  0.56262800  1
  O  O27  1  0.05671600  0.11058200  0.78672800  1
  O  O28  1  0.19025800  0.38350400  0.43751300  1
  O  O29  1  0.44348100  0.88928200  0.71362300  1
  O  O30  1  0.69028800  0.38345700  0.93749300  1
  O  O31  1  0.94348200  0.88919400  0.21338200  1
  O  O32  1  0.42932200  0.61262100  0.70662300  1
  O  O33  1  0.66995300  0.11322100  0.93952500  1
  O  O34  1  0.92926000  0.61260800  0.20655300  1
  O  O35  1  0.16989900  0.11320700  0.43941200  1
  O  O36  1  0.03585100  0.73792700  0.75532700  1
  O  O37  1  0.25123400  0.24880300  0.00968100  1
  O  O38  1  0.53583200  0.73796600  0.25538300  1
  O  O39  1  0.75132200  0.24886500  0.50972400  1
