# generated using pymatgen
data_Li7Mn4CoO12
_symmetry_space_group_name_H-M   'P 1'
_cell_length_a   5.02766710
_cell_length_b   5.02762134
_cell_length_c   19.58052516
_cell_angle_alpha   93.85287683
_cell_angle_beta   93.81133909
_cell_angle_gamma   117.58963761
_symmetry_Int_Tables_number   1
_chemical_formula_structural   Li7Mn4CoO12
_chemical_formula_sum   'Li14 Mn8 Co2 O24'
_cell_volume   434.99497369
_cell_formula_units_Z   2
loop_
 _symmetry_equiv_pos_site_id
 _symmetry_equiv_pos_as_xyz
  1  'x, y, z'
loop_
 _atom_site_type_symbol
 _atom_site_label
 _atom_site_symmetry_multiplicity
 _atom_site_fract_x
 _atom_site_fract_y
 _atom_site_fract_z
 _atom_site_occupancy
  Li  Li0  1  0.66668300  0.33336500  0.99999100  1
  Li  Li1  1  0.66664200  0.33331500  0.50001100  1
  Li  Li2  1  0.41324100  0.08012400  0.12233400  1
  Li  Li3  1  0.41372900  0.08039200  0.62249700  1
  Li  Li4  1  0.92010300  0.58652600  0.37768400  1
  Li  Li5  1  0.91962900  0.58627200  0.87747900  1
  Li  Li6  1  0.07771000  0.42226100  0.12405700  1
  Li  Li7  1  0.07783900  0.42217500  0.62412700  1
  Li  Li8  1  0.57730800  0.92196100  0.37594000  1
  Li  Li9  1  0.57785300  0.92211900  0.87585100  1
  Li  Li10  1  0.75615300  0.74480000  0.12409000  1
  Li  Li11  1  0.75548300  0.74449500  0.62412300  1
  Li  Li12  1  0.25567800  0.24439400  0.37597000  1
  Li  Li13  1  0.25540700  0.24437400  0.87584400  1
  Mn  Mn14  1  0.99867400  0.00146100  0.50007000  1
  Mn  Mn15  1  0.33480500  0.66535000  0.50006900  1
  Mn  Mn16  1  0.33457600  0.66528300  0.99993800  1
  Mn  Mn17  1  0.99864300  0.00121600  0.99993800  1
  Mn  Mn18  1  0.49887600  0.50071800  0.25003200  1
  Mn  Mn19  1  0.49894600  0.50100300  0.74999900  1
  Mn  Mn20  1  0.83448600  0.16599200  0.24996000  1
  Mn  Mn21  1  0.83432900  0.16563700  0.74999900  1
  Co  Co22  1  0.16665200  0.83332300  0.24998200  1
  Co  Co23  1  0.16667900  0.83335900  0.75001200  1
  O  O24  1  0.05869300  0.72547200  0.05592900  1
  O  O25  1  0.05818300  0.72496100  0.55597900  1
  O  O26  1  0.27524900  0.94179800  0.44416500  1
  O  O27  1  0.27455000  0.94109400  0.94393700  1
  O  O28  1  0.56215600  0.22836600  0.30935800  1
  O  O29  1  0.56064400  0.22743900  0.80916000  1
  O  O30  1  0.77106900  0.43819800  0.19061400  1
  O  O31  1  0.77277200  0.43934200  0.69086800  1
  O  O32  1  0.68883300  0.99818200  0.05473200  1
  O  O33  1  0.68956300  0.99956100  0.55488000  1
  O  O34  1  0.33153500  0.35583300  0.05472600  1
  O  O35  1  0.33284200  0.35634400  0.55486000  1
  O  O36  1  0.00070800  0.31045600  0.44526500  1
  O  O37  1  0.00162400  0.31079500  0.94517000  1
  O  O38  1  0.64403200  0.66735900  0.44524000  1
  O  O39  1  0.64415900  0.66819600  0.94513400  1
  O  O40  1  0.23249300  0.56993500  0.30830200  1
  O  O41  1  0.23062700  0.56915200  0.80801200  1
  O  O42  1  0.90450100  0.89876100  0.30799800  1
  O  O43  1  0.90242700  0.89748500  0.80800500  1
  O  O44  1  0.42892200  0.76795800  0.19199600  1
  O  O45  1  0.43086300  0.76922100  0.69199600  1
  O  O46  1  0.10078900  0.09675800  0.19169200  1
  O  O47  1  0.10264100  0.09741900  0.69198700  1
