# generated using pymatgen
data_Li2Ti3CoO8
_symmetry_space_group_name_H-M   'P 1'
_cell_length_a   8.45315300
_cell_length_b   8.45315300
_cell_length_c   8.45315300
_cell_angle_alpha   90.00000000
_cell_angle_beta   90.00000000
_cell_angle_gamma   90.00000000
_symmetry_Int_Tables_number   1
_chemical_formula_structural   Li2Ti3CoO8
_chemical_formula_sum   'Li8 Ti12 Co4 O32'
_cell_volume   604.02677329
_cell_formula_units_Z   4
loop_
 _symmetry_equiv_pos_site_id
 _symmetry_equiv_pos_as_xyz
  1  'x, y, z'
loop_
 _atom_site_type_symbol
 _atom_site_label
 _atom_site_symmetry_multiplicity
 _atom_site_fract_x
 _atom_site_fract_y
 _atom_site_fract_z
 _atom_site_occupancy
  Li  Li0  1  0.49946200  0.49946200  0.49946200  1
  Li  Li1  1  0.75053800  0.75053800  0.75053800  1
  Li  Li2  1  0.74946200  0.24946200  0.25053800  1
  Li  Li3  1  0.00053800  0.50053800  0.99946200  1
  Li  Li4  1  0.99946200  0.00053800  0.50053800  1
  Li  Li5  1  0.25053800  0.74946200  0.24946200  1
  Li  Li6  1  0.24946200  0.25053800  0.74946200  1
  Li  Li7  1  0.50053800  0.99946200  0.00053800  1
  Ti  Ti8  1  0.62821400  0.62178600  0.12500000  1
  Ti  Ti9  1  0.62500000  0.87178600  0.37821400  1
  Ti  Ti10  1  0.62178600  0.12500000  0.62821400  1
  Ti  Ti11  1  0.87821400  0.87500000  0.12821400  1
  Ti  Ti12  1  0.87500000  0.12821400  0.87821400  1
  Ti  Ti13  1  0.87178600  0.37821400  0.62500000  1
  Ti  Ti14  1  0.12821400  0.87821400  0.87500000  1
  Ti  Ti15  1  0.12500000  0.62821400  0.62178600  1
  Ti  Ti16  1  0.12178600  0.37500000  0.37178600  1
  Ti  Ti17  1  0.37821400  0.62500000  0.87178600  1
  Ti  Ti18  1  0.37500000  0.37178600  0.12178600  1
  Ti  Ti19  1  0.37178600  0.12178600  0.37500000  1
  Co  Co20  1  0.62500000  0.37500000  0.87500000  1
  Co  Co21  1  0.87500000  0.62500000  0.37500000  1
  Co  Co22  1  0.12500000  0.12500000  0.12500000  1
  Co  Co23  1  0.37500000  0.87500000  0.62500000  1
  O  O24  1  0.60567600  0.62458000  0.89027500  1
  O  O25  1  0.60972500  0.39432400  0.12458000  1
  O  O26  1  0.61184500  0.11184500  0.38815500  1
  O  O27  1  0.62542000  0.64432400  0.35972500  1
  O  O28  1  0.62458000  0.89027500  0.60567600  1
  O  O29  1  0.63815500  0.86184500  0.13815500  1
  O  O30  1  0.64027500  0.12542000  0.85567600  1
  O  O31  1  0.64432400  0.35972500  0.62542000  1
  O  O32  1  0.85567600  0.64027500  0.12542000  1
  O  O33  1  0.85972500  0.87458000  0.35567600  1
  O  O34  1  0.86184500  0.13815500  0.63815500  1
  O  O35  1  0.87542000  0.10972500  0.10567600  1
  O  O36  1  0.87458000  0.35567600  0.85972500  1
  O  O37  1  0.88815500  0.88815500  0.88815500  1
  O  O38  1  0.89027500  0.60567600  0.62458000  1
  O  O39  1  0.89432400  0.37542000  0.39027500  1
  O  O40  1  0.10567600  0.87542000  0.10972500  1
  O  O41  1  0.10972500  0.10567600  0.87542000  1
  O  O42  1  0.11184500  0.38815500  0.61184500  1
  O  O43  1  0.12542000  0.85567600  0.64027500  1
  O  O44  1  0.12458000  0.60972500  0.39432400  1
  O  O45  1  0.13815500  0.63815500  0.86184500  1
  O  O46  1  0.14027500  0.37458000  0.14432400  1
  O  O47  1  0.14432400  0.14027500  0.37458000  1
  O  O48  1  0.35567600  0.85972500  0.87458000  1
  O  O49  1  0.35972500  0.62542000  0.64432400  1
  O  O50  1  0.36184500  0.36184500  0.36184500  1
  O  O51  1  0.37542000  0.39027500  0.89432400  1
  O  O52  1  0.37458000  0.14432400  0.14027500  1
  O  O53  1  0.38815500  0.61184500  0.11184500  1
  O  O54  1  0.39027500  0.89432400  0.37542000  1
  O  O55  1  0.39432400  0.12458000  0.60972500  1
