# generated using pymatgen
data_Li5Mn2CoO8
_symmetry_space_group_name_H-M   'P 1'
_cell_length_a   2.90092027
_cell_length_b   9.79695657
_cell_length_c   10.15193556
_cell_angle_alpha   101.24791010
_cell_angle_beta   89.06731876
_cell_angle_gamma   90.95197940
_symmetry_Int_Tables_number   1
_chemical_formula_structural   Li5Mn2CoO8
_chemical_formula_sum   'Li10 Mn4 Co2 O16'
_cell_volume   282.91409693
_cell_formula_units_Z   2
loop_
 _symmetry_equiv_pos_site_id
 _symmetry_equiv_pos_as_xyz
  1  'x, y, z'
loop_
 _atom_site_type_symbol
 _atom_site_label
 _atom_site_symmetry_multiplicity
 _atom_site_fract_x
 _atom_site_fract_y
 _atom_site_fract_z
 _atom_site_occupancy
  Li  Li0  1  0.99999900  0.49999900  0.24999800  1
  Li  Li1  1  0.49999300  0.99999400  0.75000000  1
  Li  Li2  1  0.00282000  0.24073700  0.86622000  1
  Li  Li3  1  0.50254600  0.74079100  0.36632400  1
  Li  Li4  1  0.49744400  0.25920900  0.13367300  1
  Li  Li5  1  0.99716800  0.75926200  0.63378100  1
  Li  Li6  1  0.48451800  0.76091800  0.87033900  1
  Li  Li7  1  0.98422600  0.26094000  0.37022100  1
  Li  Li8  1  0.01577300  0.73906200  0.12978000  1
  Li  Li9  1  0.51546800  0.23907800  0.62965700  1
  Mn  Mn10  1  0.99102400  0.99867400  0.99120900  1
  Mn  Mn11  1  0.00896600  0.00132700  0.50879800  1
  Mn  Mn12  1  0.49036300  0.49871700  0.49124600  1
  Mn  Mn13  1  0.50966300  0.50128500  0.00875200  1
  Co  Co14  1  0.99999700  0.49999500  0.74999800  1
  Co  Co15  1  0.49999100  0.99998800  0.25000000  1
  O  O16  1  0.49801600  0.11315300  0.94759100  1
  O  O17  1  0.99737100  0.61312200  0.44760200  1
  O  O18  1  0.00265000  0.38688000  0.05239400  1
  O  O19  1  0.50198200  0.88685500  0.55240700  1
  O  O20  1  0.02014300  0.60752600  0.94315300  1
  O  O21  1  0.51947000  0.10754500  0.44310400  1
  O  O22  1  0.48052600  0.89245800  0.05690200  1
  O  O23  1  0.97987200  0.39247300  0.55684300  1
  O  O24  1  0.50712200  0.61737200  0.17312700  1
  O  O25  1  0.00657500  0.11754800  0.67321400  1
  O  O26  1  0.49289400  0.38262800  0.32687300  1
  O  O27  1  0.99341300  0.88246800  0.82681100  1
  O  O28  1  0.47757800  0.61225900  0.68505300  1
  O  O29  1  0.97782600  0.11229200  0.18503700  1
  O  O30  1  0.52242600  0.38773500  0.81494000  1
  O  O31  1  0.02217700  0.88771100  0.31495500  1
