# generated using pymatgen
data_Li2V3TeO8
_symmetry_space_group_name_H-M   'P 1'
_cell_length_a   6.05453928
_cell_length_b   10.46236279
_cell_length_c   6.22766073
_cell_angle_alpha   106.00404867
_cell_angle_beta   60.87582664
_cell_angle_gamma   89.90388377
_symmetry_Int_Tables_number   1
_chemical_formula_structural   Li2V3TeO8
_chemical_formula_sum   'Li4 V6 Te2 O16'
_cell_volume   326.89209709
_cell_formula_units_Z   2
loop_
 _symmetry_equiv_pos_site_id
 _symmetry_equiv_pos_as_xyz
  1  'x, y, z'
loop_
 _atom_site_type_symbol
 _atom_site_label
 _atom_site_symmetry_multiplicity
 _atom_site_fract_x
 _atom_site_fract_y
 _atom_site_fract_z
 _atom_site_occupancy
  Li  Li0  1  0.30350800  0.56437700  0.38820800  1
  Li  Li1  1  0.80839800  0.06460800  0.38780600  1
  Li  Li2  1  0.19499100  0.93559500  0.61108200  1
  Li  Li3  1  0.69439800  0.43526100  0.61184300  1
  V  V4  1  0.24874100  0.74968500  0.99904700  1
  V  V5  1  0.25160300  0.24980500  0.99907600  1
  V  V6  1  0.00014300  0.50055300  0.00097600  1
  V  V7  1  0.75055600  0.25022700  0.00132100  1
  V  V8  1  0.74788400  0.75035200  0.00122300  1
  V  V9  1  0.50037000  0.00048900  0.00004200  1
  Te  Te10  1  0.74642600  0.75010700  0.50044500  1
  Te  Te11  1  0.25213900  0.25049800  0.50093400  1
  O  O12  1  0.09783800  0.63350900  0.79843500  1
  O  O13  1  0.60522700  0.13349800  0.79819200  1
  O  O14  1  0.39740500  0.86623900  0.20118500  1
  O  O15  1  0.90145800  0.36644600  0.20189300  1
  O  O16  1  0.88738000  0.85944800  0.23530200  1
  O  O17  1  0.38108400  0.36004000  0.23655200  1
  O  O18  1  0.10995200  0.62568900  0.23300300  1
  O  O19  1  0.61153600  0.13283300  0.24119200  1
  O  O20  1  0.64844800  0.63244300  0.23883900  1
  O  O21  1  0.15882800  0.12483200  0.22763400  1
  O  O22  1  0.84331500  0.87165900  0.77028500  1
  O  O23  1  0.35150800  0.36871000  0.75723800  1
  O  O24  1  0.39130700  0.86956700  0.75676600  1
  O  O25  1  0.88377100  0.37281100  0.77328100  1
  O  O26  1  0.61031400  0.64050400  0.76432900  1
  O  O27  1  0.12147200  0.14021600  0.76387200  1
