# generated using pymatgen
data_Li9Mn2Co5O16
_symmetry_space_group_name_H-M   'P 1'
_cell_length_a   10.83004586
_cell_length_b   10.83004586
_cell_length_c   10.08936778
_cell_angle_alpha   66.20838367
_cell_angle_beta   66.20838367
_cell_angle_gamma   15.68293336
_symmetry_Int_Tables_number   1
_chemical_formula_structural   Li9Mn2Co5O16
_chemical_formula_sum   'Li9 Mn2 Co5 O16'
_cell_volume   292.15983625
_cell_formula_units_Z   1
loop_
 _symmetry_equiv_pos_site_id
 _symmetry_equiv_pos_as_xyz
  1  'x, y, z'
loop_
 _atom_site_type_symbol
 _atom_site_label
 _atom_site_symmetry_multiplicity
 _atom_site_fract_x
 _atom_site_fract_y
 _atom_site_fract_z
 _atom_site_occupancy
  Li  Li0  1  0.13883200  0.13883200  0.05207100  1
  Li  Li1  1  0.86909200  0.86909200  0.93325000  1
  Li  Li2  1  0.63066000  0.63066000  0.81058500  1
  Li  Li3  1  0.62644600  0.62644600  0.30780600  1
  Li  Li4  1  0.37134300  0.37134300  0.18612100  1
  Li  Li5  1  0.12931800  0.12931800  0.56546900  1
  Li  Li6  1  0.87273400  0.87273400  0.44451600  1
  Li  Li7  1  0.36532200  0.36532200  0.69827300  1
  Li  Li8  1  0.75049600  0.75049600  0.87475200  1
  Mn  Mn9  1  0.00085300  0.00085300  0.99976600  1
  Mn  Mn10  1  0.75046800  0.75046800  0.37495100  1
  Co  Co11  1  0.50239100  0.50239100  0.73989900  1
  Co  Co12  1  0.24775100  0.24775100  0.64642600  1
  Co  Co13  1  0.99906900  0.99906900  0.50180700  1
  Co  Co14  1  0.49906800  0.49906800  0.25870100  1
  Co  Co15  1  0.25274000  0.25274000  0.10485600  1
  O  O16  1  0.55269200  0.55269200  0.03439000  1
  O  O17  1  0.31230400  0.31230400  0.91759200  1
  O  O18  1  0.05548400  0.05548400  0.79412300  1
  O  O19  1  0.05682700  0.05682700  0.29135700  1
  O  O20  1  0.80578700  0.80578700  0.16889400  1
  O  O21  1  0.55897600  0.55897600  0.53910500  1
  O  O22  1  0.30427000  0.30427000  0.40359400  1
  O  O23  1  0.80874600  0.80874600  0.65000400  1
  O  O24  1  0.69097400  0.69097400  0.10085700  1
  O  O25  1  0.44846100  0.44846100  0.96579200  1
  O  O26  1  0.18847400  0.18847400  0.83361000  1
  O  O27  1  0.19684100  0.19684100  0.34631400  1
  O  O28  1  0.94518100  0.94518100  0.20457900  1
  O  O29  1  0.69537700  0.69537700  0.58106500  1
  O  O30  1  0.44144900  0.44144900  0.45860000  1
  O  O31  1  0.94372000  0.94372000  0.71088000  1
