# generated using pymatgen
data_Li3MnV(PO4)3
_symmetry_space_group_name_H-M   'P 1'
_cell_length_a   8.92070912
_cell_length_b   8.42093368
_cell_length_c   14.77209012
_cell_angle_alpha   89.64367694
_cell_angle_beta   74.69287924
_cell_angle_gamma   62.91701252
_symmetry_Int_Tables_number   1
_chemical_formula_structural   Li3MnV(PO4)3
_chemical_formula_sum   'Li12 Mn4 V4 P12 O48'
_cell_volume   944.53020897
_cell_formula_units_Z   4
loop_
 _symmetry_equiv_pos_site_id
 _symmetry_equiv_pos_as_xyz
  1  'x, y, z'
loop_
 _atom_site_type_symbol
 _atom_site_label
 _atom_site_symmetry_multiplicity
 _atom_site_fract_x
 _atom_site_fract_y
 _atom_site_fract_z
 _atom_site_occupancy
  Li  Li0  1  0.14805501  0.25425882  0.33132306  1
  Li  Li1  1  0.14719488  0.79829575  0.13552596  1
  Li  Li2  1  0.15117995  0.29484459  0.63264951  1
  Li  Li3  1  0.14937084  0.72703343  0.46274514  1
  Li  Li4  1  0.14702187  0.22458181  0.96181241  1
  Li  Li5  1  0.15004600  0.75658762  0.83350946  1
  Li  Li6  1  0.84705979  0.24890281  0.16910891  1
  Li  Li7  1  0.85514906  0.77474684  0.03877594  1
  Li  Li8  1  0.85068975  0.27704590  0.53768218  1
  Li  Li9  1  0.85215133  0.69807011  0.36433999  1
  Li  Li10  1  0.85290855  0.20185302  0.86776634  1
  Li  Li11  1  0.85171317  0.74150188  0.66523554  1
  Mn  Mn12  1  0.56012843  0.21835799  0.07793211  1
  Mn  Mn13  1  0.43718723  0.28344455  0.42406223  1
  Mn  Mn14  1  0.56051603  0.71977804  0.57439855  1
  Mn  Mn15  1  0.95645515  0.52064713  0.17428102  1
  V  V16  1  0.04318149  0.97779690  0.32517150  1
  V  V17  1  0.05046182  0.47603328  0.82554287  1
  V  V18  1  0.44284155  0.77944419  0.92514872  1
  V  V19  1  0.95235534  0.02395532  0.67382314  1
  P  P20  1  0.25095133  0.08317720  0.12309776  1
  P  P21  1  0.24998300  0.02386581  0.47975111  1
  P  P22  1  0.24924265  0.52316028  0.27476342  1
  P  P23  1  0.25221831  0.02050858  0.77022509  1
  P  P24  1  0.24861206  0.58838618  0.62769644  1
  P  P25  1  0.25589763  0.51963724  0.98037776  1
  P  P26  1  0.74868697  0.47915076  0.01771990  1
  P  P27  1  0.74768422  0.41218364  0.37523045  1
  P  P28  1  0.74820409  0.97887973  0.22853439  1
  P  P29  1  0.75066443  0.47733940  0.73126924  1
  P  P30  1  0.74469335  0.98031561  0.51884851  1
  P  P31  1  0.75571054  0.91238585  0.87181161  1
  O  O32  1  0.09851914  0.25149861  0.10102280  1
  O  O33  1  0.19678321  0.06407307  0.22970296  1
  O  O34  1  0.10241491  0.62551943  0.07154181  1
  O  O35  1  0.09731957  0.11832862  0.57682796  1
  O  O36  1  0.09473769  0.48049344  0.27672278  1
  O  O37  1  0.42473182  0.09109871  0.09621831  1
  O  O38  1  0.26545033  0.18452478  0.43249327  1
  O  O39  1  0.18926694  0.72428586  0.25813586  1
  O  O40  1  0.19327965  0.22108846  0.75578111  1
  O  O41  1  0.26720399  0.50301265  0.37725259  1
  O  O42  1  0.41642570  0.40113930  0.19944635  1
  O  O43  1  0.09779354  0.76525366  0.60623380  1
  O  O44  1  0.27519007  0.92040320  0.05880339  1
  O  O45  1  0.25809557  0.43251651  0.56980135  1
  O  O46  1  0.58023377  0.10513586  0.30181133  1
  O  O47  1  0.19556338  0.57430567  0.73568144  1
  O  O48  1  0.18758148  0.93265243  0.41770796  1
  O  O49  1  0.19665779  0.42593311  0.91698614  1
  O  O50  1  0.73507084  0.00456650  0.12462999  1
  O  O51  1  0.57681935  0.61201959  0.99668789  1
  O  O52  1  0.57466409  0.11697578  0.50273939  1
  O  O53  1  0.09646588  0.97836727  0.76919259  1
  O  O54  1  0.72788926  0.32325695  0.06635231  1
  O  O55  1  0.57191711  0.40757516  0.40811989  1
  O  O56  1  0.42345686  0.59499948  0.59872779  1
  O  O57  1  0.28413084  0.67225789  0.92772477  1
  O  O58  1  0.90481250  0.02177345  0.22865150  1
  O  O59  1  0.41965905  0.88780767  0.49595192  1
  O  O60  1  0.42442871  0.38206790  0.99861731  1
  O  O61  1  0.26833975  0.99388496  0.87306674  1
  O  O62  1  0.79952556  0.58047667  0.07876337  1
  O  O63  1  0.80560046  0.07112926  0.58298860  1
  O  O64  1  0.79771358  0.42680901  0.26937066  1
  O  O65  1  0.42009474  0.89621408  0.69637089  1
  O  O66  1  0.73670947  0.56732225  0.43674287  1
  O  O67  1  0.74021281  0.06894105  0.93130689  1
  O  O68  1  0.90019136  0.23488163  0.39596537  1
  O  O69  1  0.58202452  0.60944026  0.80646787  1
  O  O70  1  0.73534034  0.49876556  0.62988622  1
  O  O71  1  0.80565717  0.78215118  0.24420796  1
  O  O72  1  0.80481297  0.27912730  0.74902565  1
  O  O73  1  0.72604117  0.82148433  0.56787724  1
  O  O74  1  0.58098091  0.89890944  0.90064787  1
  O  O75  1  0.90417507  0.52175520  0.73332426  1
  O  O76  1  0.89773768  0.88363023  0.42397471  1
  O  O77  1  0.90148918  0.38279350  0.92184862  1
  O  O78  1  0.80419200  0.92654312  0.76452912  1
  O  O79  1  0.90438338  0.73663572  0.89390626  1
