# generated using pymatgen
data_Li6MnV3(PO4)6
_symmetry_space_group_name_H-M   'P 1'
_cell_length_a   8.71703800
_cell_length_b   8.76980368
_cell_length_c   12.27101426
_cell_angle_alpha   89.58297445
_cell_angle_beta   89.18871864
_cell_angle_gamma   89.68482537
_symmetry_Int_Tables_number   1
_chemical_formula_structural   Li6MnV3(PO4)6
_chemical_formula_sum   'Li12 Mn2 V6 P12 O48'
_cell_volume   937.94614227
_cell_formula_units_Z   2
loop_
 _symmetry_equiv_pos_site_id
 _symmetry_equiv_pos_as_xyz
  1  'x, y, z'
loop_
 _atom_site_type_symbol
 _atom_site_label
 _atom_site_symmetry_multiplicity
 _atom_site_fract_x
 _atom_site_fract_y
 _atom_site_fract_z
 _atom_site_occupancy
  Li  Li0  1  0.92364100  0.90289600  0.69774400  1
  Li  Li1  1  0.92014900  0.29523200  0.75968100  1
  Li  Li2  1  0.78986700  0.22772100  0.17806500  1
  Li  Li3  1  0.71103500  0.72676000  0.32119900  1
  Li  Li4  1  0.58297400  0.79554800  0.74244200  1
  Li  Li5  1  0.57638100  0.40320500  0.80275000  1
  Li  Li6  1  0.42061100  0.59612000  0.19678400  1
  Li  Li7  1  0.41576500  0.20547000  0.25837900  1
  Li  Li8  1  0.28862000  0.27382600  0.67942300  1
  Li  Li9  1  0.21093300  0.77221900  0.82253700  1
  Li  Li10  1  0.08433400  0.70274800  0.24007700  1
  Li  Li11  1  0.07805400  0.09759000  0.30165200  1
  Mn  Mn12  1  0.24679200  0.45777900  0.89042900  1
  Mn  Mn13  1  0.24549000  0.53359600  0.39430400  1
  V  V14  1  0.75366900  0.46856100  0.61053500  1
  V  V15  1  0.75294300  0.54185400  0.11128000  1
  V  V16  1  0.74606300  0.96946500  0.89000600  1
  V  V17  1  0.74696300  0.04232900  0.38836400  1
  V  V18  1  0.25345100  0.95849200  0.61193700  1
  V  V19  1  0.25389100  0.03107300  0.10920000  1
  P  P20  1  0.96167500  0.75138000  0.49410700  1
  P  P21  1  0.89528800  0.61150400  0.85271800  1
  P  P22  1  0.89403900  0.90138500  0.14918500  1
  P  P23  1  0.60556600  0.11248700  0.64673500  1
  P  P24  1  0.60388600  0.40232800  0.35201900  1
  P  P25  1  0.53896600  0.25238900  0.00696400  1
  P  P26  1  0.46169400  0.75076500  0.99394200  1
  P  P27  1  0.39434100  0.59845700  0.65338100  1
  P  P28  1  0.39474600  0.88712500  0.35369800  1
  P  P29  1  0.10519500  0.09688700  0.84971800  1
  P  P30  1  0.10671800  0.38883600  0.14281700  1
  P  P31  1  0.03950300  0.24907700  0.50569200  1
  O  O32  1  0.94987400  0.13612600  0.43377800  1
  O  O33  1  0.93665000  0.32647800  0.59309100  1
  O  O34  1  0.93123200  0.40619700  0.16395700  1
  O  O35  1  0.92637800  0.10269500  0.84811400  1
  O  O36  1  0.88482900  0.64112300  0.57572400  1
  O  O37  1  0.85259400  0.58566700  0.97254200  1
  O  O38  1  0.85061100  0.77744200  0.81802900  1
  O  O39  1  0.84844600  0.02427300  0.23703500  1
  O  O40  1  0.84212700  0.73982800  0.18756200  1
  O  O41  1  0.83417100  0.83387700  0.42940800  1
  O  O42  1  0.82845600  0.94950100  0.04113800  1
  O  O43  1  0.80852600  0.49174900  0.78254100  1
  O  O44  1  0.69353200  0.99210900  0.71721400  1
  O  O45  1  0.66948700  0.44850600  0.46005300  1
  O  O46  1  0.66644600  0.33402400  0.07027300  1
  O  O47  1  0.65687300  0.24096000  0.31363800  1
  O  O48  1  0.64915200  0.27807300  0.68081400  1
  O  O49  1  0.65010000  0.52465700  0.26370300  1
  O  O50  1  0.64853400  0.08641300  0.52690200  1
  O  O51  1  0.61506200  0.14267300  0.92488200  1
  O  O52  1  0.57300400  0.60433200  0.65538300  1
  O  O53  1  0.56978200  0.90557100  0.33458800  1
  O  O54  1  0.56649900  0.82873300  0.90724300  1
  O  O55  1  0.55140100  0.63529800  0.06572400  1
  O  O56  1  0.44952800  0.36651800  0.93403400  1
  O  O57  1  0.43564800  0.17388800  0.09396300  1
  O  O58  1  0.43077200  0.09494500  0.66628300  1
  O  O59  1  0.42435000  0.39472000  0.34902000  1
  O  O60  1  0.38739700  0.86009400  0.07779700  1
  O  O61  1  0.35229400  0.91323200  0.47332600  1
  O  O62  1  0.34933700  0.47564000  0.74296600  1
  O  O63  1  0.35081700  0.72095800  0.31964300  1
  O  O64  1  0.34284100  0.76080300  0.68886100  1
  O  O65  1  0.33391500  0.67266800  0.93073700  1
  O  O66  1  0.32898400  0.54802600  0.54666900  1
  O  O67  1  0.30693500  0.00712900  0.28254100  1
  O  O68  1  0.19492300  0.51000700  0.20813300  1
  O  O69  1  0.17158100  0.05077700  0.95854100  1
  O  O70  1  0.16746600  0.16561000  0.56913500  1
  O  O71  1  0.15474400  0.25627800  0.80820200  1
  O  O72  1  0.14958400  0.97226100  0.76296900  1
  O  O73  1  0.15031400  0.22279400  0.17941300  1
  O  O74  1  0.14012900  0.40668700  0.01992000  1
  O  O75  1  0.11255100  0.35938400  0.42091200  1
  O  O76  1  0.07275000  0.89516000  0.15239900  1
  O  O77  1  0.07096700  0.59446600  0.83277600  1
  O  O78  1  0.06424800  0.67276500  0.40540200  1
  O  O79  1  0.05091600  0.86378200  0.56526300  1
