# generated using pymatgen
data_Li9Mn2Co5O16
_symmetry_space_group_name_H-M   'P 1'
_cell_length_a   5.07420800
_cell_length_b   5.73453155
_cell_length_c   10.29491528
_cell_angle_alpha   90.41144623
_cell_angle_beta   97.92985946
_cell_angle_gamma   106.22520856
_symmetry_Int_Tables_number   1
_chemical_formula_structural   Li9Mn2Co5O16
_chemical_formula_sum   'Li9 Mn2 Co5 O16'
_cell_volume   284.55222562
_cell_formula_units_Z   1
loop_
 _symmetry_equiv_pos_site_id
 _symmetry_equiv_pos_as_xyz
  1  'x, y, z'
loop_
 _atom_site_type_symbol
 _atom_site_label
 _atom_site_symmetry_multiplicity
 _atom_site_fract_x
 _atom_site_fract_y
 _atom_site_fract_z
 _atom_site_occupancy
  Li  Li0  1  0.49919200  0.12266600  0.86524300  1
  Li  Li1  1  0.49838900  0.87533100  0.62364000  1
  Li  Li2  1  0.50246100  0.37457100  0.62197900  1
  Li  Li3  1  0.51047400  0.12885000  0.38683200  1
  Li  Li4  1  0.50065300  0.62176700  0.38382000  1
  Li  Li5  1  0.49576100  0.37199900  0.12878900  1
  Li  Li6  1  0.49755300  0.87706000  0.12542500  1
  Li  Li7  1  0.50426600  0.62923500  0.86182900  1
  Li  Li8  1  0.00125200  0.75024000  0.74664800  1
  Mn  Mn9  1  0.99897500  0.99959900  0.99620000  1
  Mn  Mn10  1  0.99885000  0.50040100  0.99634800  1
  Co  Co11  1  0.00548900  0.50105700  0.50941200  1
  Co  Co12  1  0.99404400  0.25105400  0.25137300  1
  Co  Co13  1  0.00602600  0.00004700  0.50926600  1
  Co  Co14  1  0.99577800  0.75346500  0.25704800  1
  Co  Co15  1  0.00614800  0.25209700  0.75026600  1
  O  O16  1  0.77259700  0.19374500  0.05498400  1
  O  O17  1  0.78908100  0.95782000  0.82521200  1
  O  O18  1  0.79182500  0.43695100  0.82583900  1
  O  O19  1  0.75613300  0.18780500  0.56633500  1
  O  O20  1  0.76847900  0.69145100  0.55285100  1
  O  O21  1  0.76258200  0.43068600  0.30717500  1
  O  O22  1  0.76669100  0.94346000  0.30377000  1
  O  O23  1  0.77209100  0.69387200  0.05234400  1
  O  O24  1  0.22908300  0.07400700  0.68574500  1
  O  O25  1  0.23698100  0.80669400  0.43089800  1
  O  O26  1  0.22169900  0.30307400  0.43513700  1
  O  O27  1  0.21007700  0.06163200  0.17784100  1
  O  O28  1  0.20591100  0.55140100  0.18072500  1
  O  O29  1  0.23534400  0.30844800  0.95085100  1
  O  O30  1  0.23126500  0.80675800  0.95053600  1
  O  O31  1  0.23485200  0.54275800  0.68563900  1
