# generated using pymatgen
data_LiFePH2O5
_symmetry_space_group_name_H-M   'P 1'
_cell_length_a   4.70001414
_cell_length_b   5.72363737
_cell_length_c   8.07206519
_cell_angle_alpha   90.45919801
_cell_angle_beta   89.92519027
_cell_angle_gamma   90.06934889
_symmetry_Int_Tables_number   1
_chemical_formula_structural   LiFePH2O5
_chemical_formula_sum   'Li2 Fe2 P2 H4 O10'
_cell_volume   217.14073584
_cell_formula_units_Z   2
loop_
 _symmetry_equiv_pos_site_id
 _symmetry_equiv_pos_as_xyz
  1  'x, y, z'
loop_
 _atom_site_type_symbol
 _atom_site_label
 _atom_site_symmetry_multiplicity
 _atom_site_fract_x
 _atom_site_fract_y
 _atom_site_fract_z
 _atom_site_occupancy
  Li  Li0  1  0.08862326  0.00231707  0.43875609  1
  Li  Li1  1  0.58873665  0.49824110  0.56116683  1
  Fe  Fe2  1  0.51365981  0.49892692  0.02304671  1
  Fe  Fe3  1  0.01452332  0.00096808  0.97710893  1
  P  P4  1  0.59147822  -0.00246885  0.22686327  1
  P  P5  1  0.09107291  0.50247134  0.77314730  1
  H  H6  1  0.57969978  0.13790066  0.78548271  1
  H  H7  1  0.07733084  0.36207341  0.21378496  1
  H  H8  1  0.07016476  0.63341475  0.21164331  1
  H  H9  1  0.56984253  0.86670268  0.78875936  1
  O  O10  1  0.26276408  0.00070151  0.21382685  1
  O  O11  1  0.76234209  0.49873564  0.78628844  1
  O  O12  1  0.68447826  0.00439086  0.40865375  1
  O  O13  1  0.18486210  0.49561825  0.59136787  1
  O  O14  1  0.70209761  -0.00084661  0.77625234  1
  O  O15  1  0.20111389  0.50026807  0.22338844  1
  O  O16  1  0.72667482  0.20741862  0.12672681  1
  O  O17  1  0.22566107  0.29322581  0.87364431  1
  O  O18  1  0.21783264  0.72430738  0.86512366  1
  O  O19  1  0.71823736  0.77563332  0.13496609  1
