# generated using pymatgen
data_Li4MnCo2O7
_symmetry_space_group_name_H-M   'P 1'
_cell_length_a   2.94506100
_cell_length_b   7.76245420
_cell_length_c   11.25942960
_cell_angle_alpha   80.71547227
_cell_angle_beta   83.03385837
_cell_angle_gamma   81.99885826
_symmetry_Int_Tables_number   1
_chemical_formula_structural   Li4MnCo2O7
_chemical_formula_sum   'Li8 Mn2 Co4 O14'
_cell_volume   250.26622171
_cell_formula_units_Z   2
loop_
 _symmetry_equiv_pos_site_id
 _symmetry_equiv_pos_as_xyz
  1  'x, y, z'
loop_
 _atom_site_type_symbol
 _atom_site_label
 _atom_site_symmetry_multiplicity
 _atom_site_fract_x
 _atom_site_fract_y
 _atom_site_fract_z
 _atom_site_occupancy
  Li  Li0  1  0.76490000  0.35985400  0.07848700  1
  Li  Li1  1  0.93651200  0.78572900  0.34485400  1
  Li  Li2  1  0.06890300  0.21603000  0.64165000  1
  Li  Li3  1  0.22235700  0.64002100  0.93222500  1
  Li  Li4  1  0.37004600  0.06052600  0.21434600  1
  Li  Li5  1  0.49805300  0.50060600  0.49853900  1
  Li  Li6  1  0.64106300  0.93001700  0.78574400  1
  Li  Li7  1  0.55126200  0.72104200  0.14770500  1
  Mn  Mn8  1  0.00275900  0.99151800  0.00724300  1
  Mn  Mn9  1  0.28064000  0.85625300  0.57191100  1
  Co  Co10  1  0.14030200  0.44097500  0.27872700  1
  Co  Co11  1  0.44610400  0.28518900  0.85516700  1
  Co  Co12  1  0.70849600  0.14603900  0.42443000  1
  Co  Co13  1  0.86363700  0.56997300  0.71430600  1
  O  O14  1  0.43393800  0.15699900  0.02946100  1
  O  O15  1  0.51681400  0.59289900  0.31931800  1
  O  O16  1  0.64114800  0.03854200  0.59901800  1
  O  O17  1  0.82397200  0.45872900  0.88513000  1
  O  O18  1  0.96022800  0.90129800  0.16773100  1
  O  O19  1  0.11861500  0.32116200  0.44739300  1
  O  O20  1  0.21929600  0.74520000  0.74417300  1
  O  O21  1  0.18105100  0.51884000  0.12311200  1
  O  O22  1  0.30893100  0.96686600  0.40112800  1
  O  O23  1  0.49289600  0.40215100  0.68309700  1
  O  O24  1  0.57487000  0.84242700  0.96850000  1
  O  O25  1  0.77501300  0.25790000  0.25835200  1
  O  O26  1  0.91214900  0.67835500  0.54665000  1
  O  O27  1  0.04604600  0.11486100  0.83160400  1
