# generated using pymatgen
data_Li9Mn2Co5O16
_symmetry_space_group_name_H-M   'P 1'
_cell_length_a   5.90262700
_cell_length_b   5.91421603
_cell_length_c   8.12827634
_cell_angle_alpha   90.86845696
_cell_angle_beta   90.74259904
_cell_angle_gamma   92.98716405
_symmetry_Int_Tables_number   1
_chemical_formula_structural   Li9Mn2Co5O16
_chemical_formula_sum   'Li9 Mn2 Co5 O16'
_cell_volume   283.30837050
_cell_formula_units_Z   1
loop_
 _symmetry_equiv_pos_site_id
 _symmetry_equiv_pos_as_xyz
  1  'x, y, z'
loop_
 _atom_site_type_symbol
 _atom_site_label
 _atom_site_symmetry_multiplicity
 _atom_site_fract_x
 _atom_site_fract_y
 _atom_site_fract_z
 _atom_site_occupancy
  Li  Li0  1  0.00523600  0.49621400  0.00374600  1
  Li  Li1  1  0.25102200  0.74938600  0.25141600  1
  Li  Li2  1  0.25143900  0.25055900  0.75020400  1
  Li  Li3  1  0.49419000  0.49640000  0.00765800  1
  Li  Li4  1  0.49716100  0.00337200  0.49623700  1
  Li  Li5  1  0.74822100  0.24851700  0.74882700  1
  Li  Li6  1  0.74993000  0.74845600  0.24978300  1
  Li  Li7  1  0.00432300  0.00363800  0.49213900  1
  Li  Li8  1  0.24995900  0.25203200  0.24978400  1
  Mn  Mn9  1  0.00086100  0.00294300  0.00344400  1
  Mn  Mn10  1  0.00478400  0.49491200  0.49926400  1
  Co  Co11  1  0.50038200  0.49790900  0.49611600  1
  Co  Co12  1  0.74882900  0.74886900  0.74977800  1
  Co  Co13  1  0.49430800  0.00801400  0.00618000  1
  Co  Co14  1  0.75247400  0.25236100  0.25071800  1
  Co  Co15  1  0.24701300  0.75156300  0.74909700  1
  O  O16  1  0.74976100  0.76622300  0.98694400  1
  O  O17  1  0.00231000  0.99627600  0.23346800  1
  O  O18  1  0.01466300  0.51272400  0.73931400  1
  O  O19  1  0.23098200  0.76999500  0.98972900  1
  O  O20  1  0.24136300  0.28476000  0.50111400  1
  O  O21  1  0.51315000  0.51380200  0.73769400  1
  O  O22  1  0.52089800  0.01388500  0.24012500  1
  O  O23  1  0.76705200  0.25476100  0.49295200  1
  O  O24  1  0.24509600  0.23025400  0.99743900  1
  O  O25  1  0.50095500  0.49841000  0.26662100  1
  O  O26  1  0.48404900  0.98511500  0.75740400  1
  O  O27  1  0.77000700  0.23260700  0.00684400  1
  O  O28  1  0.76068700  0.71773500  0.51147400  1
  O  O29  1  0.98102300  0.98751600  0.76067100  1
  O  O30  1  0.98279000  0.48613900  0.26357400  1
  O  O31  1  0.23508200  0.74465100  0.51024200  1
