# generated using pymatgen
data_LiNiO2
_symmetry_space_group_name_H-M   'P 1'
_cell_length_a   5.74643925
_cell_length_b   5.80758967
_cell_length_c   9.98766780
_cell_angle_alpha   73.87822561
_cell_angle_beta   73.27657971
_cell_angle_gamma   60.29496705
_symmetry_Int_Tables_number   1
_chemical_formula_structural   LiNiO2
_chemical_formula_sum   'Li8 Ni8 O16'
_cell_volume   273.59041069
_cell_formula_units_Z   8
loop_
 _symmetry_equiv_pos_site_id
 _symmetry_equiv_pos_as_xyz
  1  'x, y, z'
loop_
 _atom_site_type_symbol
 _atom_site_label
 _atom_site_symmetry_multiplicity
 _atom_site_fract_x
 _atom_site_fract_y
 _atom_site_fract_z
 _atom_site_occupancy
  Li  Li0  1  0.00157300  0.49988500  0.50089400  1
  Li  Li1  1  0.49843900  0.00011000  0.99908100  1
  Li  Li2  1  0.24998500  0.74995300  0.74996800  1
  Li  Li3  1  0.75002600  0.25010300  0.24998200  1
  Li  Li4  1  0.01210600  0.98653100  0.50716700  1
  Li  Li5  1  0.48782500  0.51342900  0.99277300  1
  Li  Li6  1  0.50908700  0.00360000  0.49894400  1
  Li  Li7  1  0.99097300  0.49643400  0.00101800  1
  Ni  Ni8  1  0.99555500  0.00269700  0.99950900  1
  Ni  Ni9  1  0.50438600  0.49724600  0.50054600  1
  Ni  Ni10  1  0.75012100  0.75000300  0.25003900  1
  Ni  Ni11  1  0.24979200  0.25007400  0.75000800  1
  Ni  Ni12  1  0.25007400  0.75012500  0.25003300  1
  Ni  Ni13  1  0.75001800  0.24985700  0.74998400  1
  Ni  Ni14  1  0.74969000  0.74988000  0.75004400  1
  Ni  Ni15  1  0.25013800  0.24998300  0.24995700  1
  O  O16  1  0.61185500  0.64090600  0.13985100  1
  O  O17  1  0.10842400  0.13932800  0.63992700  1
  O  O18  1  0.88826800  0.85930400  0.36018400  1
  O  O19  1  0.39161000  0.36059300  0.86001500  1
  O  O20  1  0.64598200  0.12737300  0.62974300  1
  O  O21  1  0.09780400  0.62303100  0.13169200  1
  O  O22  1  0.85400100  0.37250400  0.87028100  1
  O  O23  1  0.40232300  0.87702000  0.36835400  1
  O  O24  1  0.86481000  0.90828300  0.86722200  1
  O  O25  1  0.36937900  0.40074900  0.36718200  1
  O  O26  1  0.35488300  0.90368400  0.87117400  1
  O  O27  1  0.86291800  0.40704900  0.36492900  1
  O  O28  1  0.63530600  0.59148800  0.63274600  1
  O  O29  1  0.13060200  0.09942300  0.13282700  1
  O  O30  1  0.14484400  0.59639100  0.62883800  1
  O  O31  1  0.63720500  0.09296500  0.13508900  1
