# generated using pymatgen
data_Li3Cr(PO4)2
_symmetry_space_group_name_H-M   'P 1'
_cell_length_a   8.21661558
_cell_length_b   5.40977802
_cell_length_c   6.25142771
_cell_angle_alpha   89.99013552
_cell_angle_beta   90.51692919
_cell_angle_gamma   89.99803056
_symmetry_Int_Tables_number   1
_chemical_formula_structural   Li3Cr(PO4)2
_chemical_formula_sum   'Li6 Cr2 P4 O16'
_cell_volume   277.86506325
_cell_formula_units_Z   2
loop_
 _symmetry_equiv_pos_site_id
 _symmetry_equiv_pos_as_xyz
  1  'x, y, z'
loop_
 _atom_site_type_symbol
 _atom_site_label
 _atom_site_symmetry_multiplicity
 _atom_site_fract_x
 _atom_site_fract_y
 _atom_site_fract_z
 _atom_site_occupancy
  Li  Li0  1  0.07754400  0.75003300  0.27151300  1
  Li  Li1  1  0.24823100  0.24999400  0.50320100  1
  Li  Li2  1  0.42414400  0.75002000  0.72387300  1
  Li  Li3  1  0.57583900  0.24998400  0.27612600  1
  Li  Li4  1  0.75176300  0.74996600  0.49678800  1
  Li  Li5  1  0.92246100  0.24999400  0.72848900  1
  Cr  Cr6  1  0.25036600  0.24995300  0.00060200  1
  Cr  Cr7  1  0.74959800  0.75004900  0.99951900  1
  P  P8  1  0.10047100  0.75001000  0.76501000  1
  P  P9  1  0.40007000  0.74999400  0.23212300  1
  P  P10  1  0.59994200  0.25001200  0.76786800  1
  P  P11  1  0.89956700  0.24999500  0.23495800  1
  O  O12  1  0.99195100  0.74999600  0.96689000  1
  O  O13  1  0.00123800  0.24974700  0.43782000  1
  O  O14  1  0.21821100  0.51853700  0.77145100  1
  O  O15  1  0.21821200  0.98147400  0.77146300  1
  O  O16  1  0.28196400  0.51876400  0.22834600  1
  O  O17  1  0.28198100  0.98124400  0.22830800  1
  O  O18  1  0.50397800  0.75001300  0.43304600  1
  O  O19  1  0.49302800  0.25000000  0.97133900  1
  O  O20  1  0.50697200  0.75000500  0.02868600  1
  O  O21  1  0.49601200  0.25000400  0.56695200  1
  O  O22  1  0.71803300  0.01875400  0.77166200  1
  O  O23  1  0.71803300  0.48125400  0.77166800  1
  O  O24  1  0.78179700  0.01853200  0.22848000  1
  O  O25  1  0.78177800  0.48147700  0.22856000  1
  O  O26  1  0.99872800  0.75018600  0.56217800  1
  O  O27  1  0.00808500  0.25001100  0.03308000  1
