# generated using pymatgen
data_Li4MnCo2O7
_symmetry_space_group_name_H-M   'P 1'
_cell_length_a   10.29114922
_cell_length_b   10.29114922
_cell_length_c   5.14695194
_cell_angle_alpha   84.90507740
_cell_angle_beta   84.90507740
_cell_angle_gamma   151.31193233
_symmetry_Int_Tables_number   1
_chemical_formula_structural   Li4MnCo2O7
_chemical_formula_sum   'Li8 Mn2 Co4 O14'
_cell_volume   244.28198639
_cell_formula_units_Z   2
loop_
 _symmetry_equiv_pos_site_id
 _symmetry_equiv_pos_as_xyz
  1  'x, y, z'
loop_
 _atom_site_type_symbol
 _atom_site_label
 _atom_site_symmetry_multiplicity
 _atom_site_fract_x
 _atom_site_fract_y
 _atom_site_fract_z
 _atom_site_occupancy
  Li  Li0  1  0.92996500  0.07003500  0.50000000  1
  Li  Li1  1  0.35800900  0.64199100  0.50000000  1
  Li  Li2  1  0.78751300  0.21248700  0.50000000  1
  Li  Li3  1  0.21315700  0.78684300  0.50000000  1
  Li  Li4  1  0.63790500  0.36209500  0.50000000  1
  Li  Li5  1  0.07224500  0.92775500  0.50000000  1
  Li  Li6  1  0.50244400  0.49755600  0.50000000  1
  Li  Li7  1  0.57096700  0.42903300  0.00000000  1
  Mn  Mn8  1  0.00085400  0.99914600  0.00000000  1
  Mn  Mn9  1  0.71272100  0.28727900  0.00000000  1
  Co  Co10  1  0.42865100  0.57134900  0.00000000  1
  Co  Co11  1  0.85751000  0.14249000  0.00000000  1
  Co  Co12  1  0.28641000  0.71359000  0.00000000  1
  Co  Co13  1  0.14228000  0.85772000  0.00000000  1
  O  O14  1  0.70182700  0.84552500  0.23131400  1
  O  O15  1  0.13073900  0.41853300  0.22429600  1
  O  O16  1  0.56128600  0.98892300  0.23017100  1
  O  O17  1  0.96793400  0.53895600  0.21376300  1
  O  O18  1  0.39491500  0.09891600  0.22173500  1
  O  O19  1  0.85079000  0.70887900  0.23158400  1
  O  O20  1  0.24375400  0.25214200  0.21541500  1
  O  O21  1  0.15447500  0.29817300  0.76868600  1
  O  O22  1  0.58146700  0.86926100  0.77570400  1
  O  O23  1  0.01107700  0.43871400  0.76982900  1
  O  O24  1  0.46104400  0.03206600  0.78623700  1
  O  O25  1  0.90108400  0.60508500  0.77826500  1
  O  O26  1  0.29112100  0.14921000  0.76841600  1
  O  O27  1  0.74785800  0.75624600  0.78458500  1
