# generated using pymatgen
data_Li9Mn2Co5O16
_symmetry_space_group_name_H-M   'P 1'
_cell_length_a   10.18255355
_cell_length_b   10.18255355
_cell_length_c   5.18460592
_cell_angle_alpha   81.58029252
_cell_angle_beta   81.58029252
_cell_angle_gamma   32.99775289
_symmetry_Int_Tables_number   1
_chemical_formula_structural   Li9Mn2Co5O16
_chemical_formula_sum   'Li9 Mn2 Co5 O16'
_cell_volume   289.32614854
_cell_formula_units_Z   1
loop_
 _symmetry_equiv_pos_site_id
 _symmetry_equiv_pos_as_xyz
  1  'x, y, z'
loop_
 _atom_site_type_symbol
 _atom_site_label
 _atom_site_symmetry_multiplicity
 _atom_site_fract_x
 _atom_site_fract_y
 _atom_site_fract_z
 _atom_site_occupancy
  Li  Li0  1  0.50000000  0.00000000  0.50000000  1
  Li  Li1  1  0.62289200  0.62289200  0.74985500  1
  Li  Li2  1  0.75360700  0.24639300  0.00000000  1
  Li  Li3  1  0.87927400  0.87927400  0.25095200  1
  Li  Li4  1  0.00000000  0.50000000  0.50000000  1
  Li  Li5  1  0.12072600  0.12072600  0.74904800  1
  Li  Li6  1  0.24639300  0.75360700  0.00000000  1
  Li  Li7  1  0.37710800  0.37710800  0.25014500  1
  Li  Li8  1  0.00000000  0.00000000  0.50000000  1
  Mn  Mn9  1  0.24924200  0.24924200  0.00401000  1
  Mn  Mn10  1  0.75075800  0.75075800  0.99599000  1
  Co  Co11  1  0.36674900  0.87389100  0.26521300  1
  Co  Co12  1  0.50000000  0.50000000  0.50000000  1
  Co  Co13  1  0.63325100  0.12610900  0.73478700  1
  Co  Co14  1  0.87389100  0.36674900  0.26521300  1
  Co  Co15  1  0.12610900  0.63325100  0.73478700  1
  O  O16  1  0.55496200  0.05810600  0.11459300  1
  O  O17  1  0.68328400  0.68328400  0.34912600  1
  O  O18  1  0.79067300  0.32878300  0.60479200  1
  O  O19  1  0.92977800  0.92977800  0.87756600  1
  O  O20  1  0.05810600  0.55496200  0.11459300  1
  O  O21  1  0.18670800  0.18670800  0.36434500  1
  O  O22  1  0.32878300  0.79067300  0.60479200  1
  O  O23  1  0.44245800  0.44245800  0.83785400  1
  O  O24  1  0.44503800  0.94189400  0.88540700  1
  O  O25  1  0.55754200  0.55754200  0.16214600  1
  O  O26  1  0.67121700  0.20932700  0.39520800  1
  O  O27  1  0.81329200  0.81329200  0.63565500  1
  O  O28  1  0.94189400  0.44503800  0.88540700  1
  O  O29  1  0.07022200  0.07022200  0.12243400  1
  O  O30  1  0.20932700  0.67121700  0.39520800  1
  O  O31  1  0.31671600  0.31671600  0.65087400  1
