# generated using pymatgen
data_Li4Co5SnO12
_symmetry_space_group_name_H-M   'P 1'
_cell_length_a   5.13084554
_cell_length_b   10.80413856
_cell_length_c   8.65907792
_cell_angle_alpha   66.55673476
_cell_angle_beta   90.16059214
_cell_angle_gamma   85.64137752
_symmetry_Int_Tables_number   1
_chemical_formula_structural   Li4Co5SnO12
_chemical_formula_sum   'Li8 Co10 Sn2 O24'
_cell_volume   438.82766265
_cell_formula_units_Z   2
loop_
 _symmetry_equiv_pos_site_id
 _symmetry_equiv_pos_as_xyz
  1  'x, y, z'
loop_
 _atom_site_type_symbol
 _atom_site_label
 _atom_site_symmetry_multiplicity
 _atom_site_fract_x
 _atom_site_fract_y
 _atom_site_fract_z
 _atom_site_occupancy
  Li  Li0  1  0.03764200  0.74563900  0.46370600  1
  Li  Li1  1  0.53426600  0.74037600  0.95013400  1
  Li  Li2  1  0.46413200  0.25607700  0.70321200  1
  Li  Li3  1  0.95328800  0.25632100  0.19876600  1
  Li  Li4  1  0.54365800  0.74405500  0.29557000  1
  Li  Li5  1  0.04899200  0.74132600  0.79649900  1
  Li  Li6  1  0.95805300  0.25765800  0.54334100  1
  Li  Li7  1  0.45361000  0.25525700  0.03888600  1
  Co  Co8  1  0.75031600  0.50129400  0.58374600  1
  Co  Co9  1  0.24778900  0.49652700  0.08128500  1
  Co  Co10  1  0.50117800  0.00013500  0.16833500  1
  Co  Co11  1  0.00023900  0.99957800  0.66474700  1
  Co  Co12  1  0.00074000  0.00060000  0.33236700  1
  Co  Co13  1  0.25105700  0.50122400  0.74857900  1
  Co  Co14  1  0.74929600  0.49896800  0.25325000  1
  Co  Co15  1  0.24802600  0.49979400  0.41615900  1
  Co  Co16  1  0.74212500  0.50305000  0.91318000  1
  Co  Co17  1  0.50042700  0.99888400  0.83693200  1
  Sn  Sn18  1  0.00083400  0.99955700  0.00003200  1
  Sn  Sn19  1  0.50061500  0.00062900  0.50122400  1
  O  O20  1  0.90822900  0.59970200  0.69668100  1
  O  O21  1  0.41354800  0.59521700  0.20444300  1
  O  O22  1  0.59375000  0.40267000  0.79538400  1
  O  O23  1  0.07740200  0.40024600  0.30707100  1
  O  O24  1  0.34022300  0.10810400  0.94916500  1
  O  O25  1  0.83992300  0.10831900  0.44387500  1
  O  O26  1  0.66199600  0.89241400  0.05671700  1
  O  O27  1  0.16172000  0.89292000  0.55132700  1
  O  O28  1  0.32542200  0.11329800  0.62449400  1
  O  O29  1  0.80277400  0.10728000  0.12394300  1
  O  O30  1  0.19844300  0.89255100  0.23157000  1
  O  O31  1  0.67863100  0.88717700  0.73648500  1
  O  O32  1  0.82501000  0.11230500  0.76492600  1
  O  O33  1  0.30296400  0.10739000  0.26979900  1
  O  O34  1  0.69854700  0.89343100  0.37668200  1
  O  O35  1  0.17885100  0.88679600  0.87693600  1
  O  O36  1  0.09716100  0.40388300  0.62694500  1
  O  O37  1  0.62611100  0.39505400  0.13417100  1
  O  O38  1  0.62931200  0.39540500  0.47570100  1
  O  O39  1  0.12702500  0.39320500  0.97151400  1
  O  O40  1  0.40191400  0.59762400  0.52959400  1
  O  O41  1  0.87196800  0.60190900  0.03426800  1
  O  O42  1  0.86922300  0.60634900  0.37031900  1
  O  O43  1  0.38357000  0.60980100  0.85803900  1
