# generated using pymatgen
data_Li3CrN2
_symmetry_space_group_name_H-M   'P 1'
_cell_length_a   8.25505135
_cell_length_b   9.53211163
_cell_length_c   9.53211137
_cell_angle_alpha   89.99999916
_cell_angle_beta   125.26438842
_cell_angle_gamma   54.73561265
_symmetry_Int_Tables_number   1
_chemical_formula_structural   Li3CrN2
_chemical_formula_sum   'Li24 Cr8 N16'
_cell_volume   433.04937015
_cell_formula_units_Z   8
loop_
 _symmetry_equiv_pos_site_id
 _symmetry_equiv_pos_as_xyz
  1  'x, y, z'
loop_
 _atom_site_type_symbol
 _atom_site_label
 _atom_site_symmetry_multiplicity
 _atom_site_fract_x
 _atom_site_fract_y
 _atom_site_fract_z
 _atom_site_occupancy
  Li  Li0  1  0.21936624  0.04192676  0.98288131  1
  Li  Li1  1  0.78063376  0.76129300  0.51711869  1
  Li  Li2  1  0.78063376  0.45807324  0.76351507  1
  Li  Li3  1  0.21936624  0.73870700  0.73648493  1
  Li  Li4  1  0.25360361  0.76351507  0.27841168  1
  Li  Li5  1  0.74639639  0.73648493  0.02480807  1
  Li  Li6  1  0.25360361  0.98288131  0.47519193  1
  Li  Li7  1  0.74639639  0.51711869  0.22158832  1
  Li  Li8  1  0.69678025  0.02480807  0.73870700  1
  Li  Li9  1  0.69678025  0.27841168  0.45807324  1
  Li  Li10  1  0.30321975  0.22158832  0.76129300  1
  Li  Li11  1  0.30321975  0.47519193  0.04192676  1
  Li  Li12  1  0.78063376  0.95807324  0.01711869  1
  Li  Li13  1  0.21936624  0.23870700  0.48288131  1
  Li  Li14  1  0.21936624  0.54192676  0.23648493  1
  Li  Li15  1  0.78063376  0.26129300  0.26351507  1
  Li  Li16  1  0.74639639  0.23648493  0.72158832  1
  Li  Li17  1  0.25360361  0.26351507  0.97519193  1
  Li  Li18  1  0.74639639  0.01711869  0.52480807  1
  Li  Li19  1  0.25360361  0.48288131  0.77841168  1
  Li  Li20  1  0.30321975  0.97519193  0.26129300  1
  Li  Li21  1  0.30321975  0.72158832  0.54192676  1
  Li  Li22  1  0.69678025  0.77841168  0.23870700  1
  Li  Li23  1  0.69678025  0.52480807  0.95807324  1
  Cr  Cr24  1  0.22746397  0.00000000  0.72746397  1
  Cr  Cr25  1  0.77253603  0.72746397  0.77253603  1
  Cr  Cr26  1  0.77253603  0.50000000  0.50000000  1
  Cr  Cr27  1  0.22746397  0.77253603  1.00000000  1
  Cr  Cr28  1  0.77253603  1.00000000  0.27253603  1
  Cr  Cr29  1  0.22746397  0.27253603  0.22746397  1
  Cr  Cr30  1  0.22746397  0.50000000  0.50000000  1
  Cr  Cr31  1  0.77253603  0.22746397  0.00000000  1
  N  N32  1  0.00000000  0.00000000  0.50000000  1
  N  N33  1  0.00000000  0.50000000  0.00000000  1
  N  N34  1  0.00000000  0.50000000  0.50000000  1
  N  N35  1  0.00000000  0.00000000  0.00000000  1
  N  N36  1  0.50000000  0.96586105  0.75000000  1
  N  N37  1  0.50000000  0.53413895  0.25000000  1
  N  N38  1  0.00000000  0.25000000  0.71586105  1
  N  N39  1  1.00000000  0.75000000  0.78413895  1
  N  N40  1  0.56827890  0.71586105  0.53413895  1
  N  N41  1  0.43172110  0.78413895  0.96586105  1
  N  N42  1  0.50000000  0.03413895  0.25000000  1
  N  N43  1  0.50000000  0.46586105  0.75000000  1
  N  N44  1  1.00000000  0.75000000  0.28413895  1
  N  N45  1  0.00000000  0.25000000  0.21586105  1
  N  N46  1  0.43172110  0.28413895  0.46586105  1
  N  N47  1  0.56827890  0.21586105  0.03413895  1
