# generated using pymatgen
data_LiVTeO5
_symmetry_space_group_name_H-M   'P 1'
_cell_length_a   5.22100100
_cell_length_b   8.48102200
_cell_length_c   9.65755200
_cell_angle_alpha   90.00000000
_cell_angle_beta   90.00000000
_cell_angle_gamma   90.00000000
_symmetry_Int_Tables_number   1
_chemical_formula_structural   LiVTeO5
_chemical_formula_sum   'Li4 V4 Te4 O20'
_cell_volume   427.63084312
_cell_formula_units_Z   4
loop_
 _symmetry_equiv_pos_site_id
 _symmetry_equiv_pos_as_xyz
  1  'x, y, z'
loop_
 _atom_site_type_symbol
 _atom_site_label
 _atom_site_symmetry_multiplicity
 _atom_site_fract_x
 _atom_site_fract_y
 _atom_site_fract_z
 _atom_site_occupancy
  Li  Li0  1  0.03711000  0.87861900  0.97593200  1
  Li  Li1  1  0.53711000  0.62138100  0.02406800  1
  Li  Li2  1  0.46289000  0.12138100  0.47593200  1
  Li  Li3  1  0.96289000  0.37861900  0.52406800  1
  V  V4  1  0.54273100  0.97768800  0.14771100  1
  V  V5  1  0.04273100  0.52231200  0.85228900  1
  V  V6  1  0.95726900  0.02231200  0.64771100  1
  V  V7  1  0.45726900  0.47768800  0.35228900  1
  Te  Te8  1  0.46213500  0.18267700  0.85254100  1
  Te  Te9  1  0.96213500  0.31732300  0.14745900  1
  Te  Te10  1  0.03786500  0.81732300  0.35254100  1
  Te  Te11  1  0.53786500  0.68267700  0.64745900  1
  O  O12  1  0.68799600  0.17558600  0.08124200  1
  O  O13  1  0.18799600  0.32441400  0.91875800  1
  O  O14  1  0.81200400  0.82441400  0.58124200  1
  O  O15  1  0.31200400  0.67558600  0.41875800  1
  O  O16  1  0.84481400  0.99464400  0.81201500  1
  O  O17  1  0.34481400  0.50535600  0.18798500  1
  O  O18  1  0.65518600  0.00535600  0.31201500  1
  O  O19  1  0.15518600  0.49464400  0.68798500  1
  O  O20  1  0.28550300  0.10008400  0.69067800  1
  O  O21  1  0.78550300  0.39991600  0.30932200  1
  O  O22  1  0.21449700  0.89991600  0.19067800  1
  O  O23  1  0.71449700  0.60008400  0.80932200  1
  O  O24  1  0.33659300  0.02351900  0.96963100  1
  O  O25  1  0.83659300  0.47648100  0.03036900  1
  O  O26  1  0.16340700  0.97648100  0.46963100  1
  O  O27  1  0.66340700  0.52351900  0.53036900  1
  O  O28  1  0.71499900  0.82410200  0.08931300  1
  O  O29  1  0.21499900  0.67589800  0.91068700  1
  O  O30  1  0.78500100  0.17589800  0.58931300  1
  O  O31  1  0.28500100  0.32410200  0.41068700  1
