# generated using pymatgen
data_Li9Co7O16
_symmetry_space_group_name_H-M   'P 1'
_cell_length_a   5.71913600
_cell_length_b   5.02808800
_cell_length_c   9.75781979
_cell_angle_alpha   80.57349194
_cell_angle_beta   90.00000000
_cell_angle_gamma   90.00000000
_symmetry_Int_Tables_number   1
_chemical_formula_structural   Li9Co7O16
_chemical_formula_sum   'Li9 Co7 O16'
_cell_volume   276.80990918
_cell_formula_units_Z   1
loop_
 _symmetry_equiv_pos_site_id
 _symmetry_equiv_pos_as_xyz
  1  'x, y, z'
loop_
 _atom_site_type_symbol
 _atom_site_label
 _atom_site_symmetry_multiplicity
 _atom_site_fract_x
 _atom_site_fract_y
 _atom_site_fract_z
 _atom_site_occupancy
  Li  Li0  1  0.25287200  0.24827300  0.75320700  1
  Li  Li1  1  0.25287200  0.75172700  0.24679300  1
  Li  Li2  1  0.50000000  0.75453200  0.75381900  1
  Li  Li3  1  0.50000000  0.24546800  0.24618100  1
  Li  Li4  1  0.74712800  0.24827300  0.75320700  1
  Li  Li5  1  0.74712800  0.75172700  0.24679300  1
  Li  Li6  1  0.00000000  0.75262300  0.75170400  1
  Li  Li7  1  0.00000000  0.24737700  0.24829600  1
  Li  Li8  1  0.50000000  0.00000000  0.00000000  1
  Co  Co9  1  0.00000000  0.00000000  0.00000000  1
  Co  Co10  1  0.74689600  0.50000000  0.00000000  1
  Co  Co11  1  0.00000000  0.50000000  0.50000000  1
  Co  Co12  1  0.25310400  0.50000000  0.00000000  1
  Co  Co13  1  0.24952300  0.00000000  0.50000000  1
  Co  Co14  1  0.50000000  0.50000000  0.50000000  1
  Co  Co15  1  0.75047700  0.00000000  0.50000000  1
  O  O16  1  0.22915700  0.85539700  0.89492400  1
  O  O17  1  0.25018500  0.37428800  0.38034300  1
  O  O18  1  0.50000000  0.40112900  0.89214500  1
  O  O19  1  0.50000000  0.87469500  0.37859200  1
  O  O20  1  0.77084300  0.85539700  0.89492400  1
  O  O21  1  0.74981500  0.37428800  0.38034300  1
  O  O22  1  0.00000000  0.36381500  0.89532500  1
  O  O23  1  0.00000000  0.87360700  0.38016900  1
  O  O24  1  0.25018500  0.62571200  0.61965700  1
  O  O25  1  0.22915700  0.14460300  0.10507600  1
  O  O26  1  0.50000000  0.12530500  0.62140800  1
  O  O27  1  0.50000000  0.59887100  0.10785500  1
  O  O28  1  0.74981500  0.62571200  0.61965700  1
  O  O29  1  0.77084300  0.14460300  0.10507600  1
  O  O30  1  0.00000000  0.12639300  0.61983100  1
  O  O31  1  0.00000000  0.63618500  0.10467500  1
