# generated using pymatgen
data_Li9Mn2Co5O16
_symmetry_space_group_name_H-M   'P 1'
_cell_length_a   5.89021000
_cell_length_b   6.65323408
_cell_length_c   7.69288492
_cell_angle_alpha   90.28473728
_cell_angle_beta   100.39122376
_cell_angle_gamma   103.44109743
_symmetry_Int_Tables_number   1
_chemical_formula_structural   Li9Mn2Co5O16
_chemical_formula_sum   'Li9 Mn2 Co5 O16'
_cell_volume   288.06266949
_cell_formula_units_Z   1
loop_
 _symmetry_equiv_pos_site_id
 _symmetry_equiv_pos_as_xyz
  1  'x, y, z'
loop_
 _atom_site_type_symbol
 _atom_site_label
 _atom_site_symmetry_multiplicity
 _atom_site_fract_x
 _atom_site_fract_y
 _atom_site_fract_z
 _atom_site_occupancy
  Li  Li0  1  0.74976900  0.24125500  0.75912900  1
  Li  Li1  1  0.37873800  0.87624400  0.62741700  1
  Li  Li2  1  0.12974600  0.63250700  0.87854200  1
  Li  Li3  1  0.50000000  0.00000000  0.00000000  1
  Li  Li4  1  0.87025400  0.36749300  0.12145800  1
  Li  Li5  1  0.25023100  0.75874500  0.24087100  1
  Li  Li6  1  0.62126200  0.12375600  0.37258300  1
  Li  Li7  1  0.00000000  0.50000000  0.50000000  1
  Li  Li8  1  0.00000000  0.00000000  0.00000000  1
  Mn  Mn9  1  0.87838500  0.87660700  0.62830900  1
  Mn  Mn10  1  0.12161500  0.12339300  0.37169100  1
  Co  Co11  1  0.50000000  0.50000000  0.50000000  1
  Co  Co12  1  0.74851000  0.75514000  0.24109200  1
  Co  Co13  1  0.36734200  0.36922100  0.12229400  1
  Co  Co14  1  0.63265800  0.63077900  0.87770600  1
  Co  Co15  1  0.25149000  0.24486000  0.75890800  1
  O  O16  1  0.69805100  0.92656400  0.79915600  1
  O  O17  1  0.33719200  0.55690900  0.68609900  1
  O  O18  1  0.08988900  0.31961800  0.93406300  1
  O  O19  1  0.44304400  0.68189400  0.06465800  1
  O  O20  1  0.83087800  0.05978100  0.20229200  1
  O  O21  1  0.18336100  0.41354900  0.31899900  1
  O  O22  1  0.58790300  0.80739900  0.44129800  1
  O  O23  1  0.94442900  0.16714400  0.56159500  1
  O  O24  1  0.81663900  0.58645100  0.68100100  1
  O  O25  1  0.41209700  0.19260100  0.55870200  1
  O  O26  1  0.16912200  0.94021900  0.79770800  1
  O  O27  1  0.55695600  0.31810600  0.93534200  1
  O  O28  1  0.91011100  0.68038200  0.06593700  1
  O  O29  1  0.30194900  0.07343600  0.20084400  1
  O  O30  1  0.66280800  0.44309100  0.31390100  1
  O  O31  1  0.05557100  0.83285600  0.43840500  1
