# generated using pymatgen
data_Li9Mn2Co5O16
_symmetry_space_group_name_H-M   'P 1'
_cell_length_a   4.98115100
_cell_length_b   5.91785422
_cell_length_c   9.81859075
_cell_angle_alpha   88.20180242
_cell_angle_beta   79.03141250
_cell_angle_gamma   88.65222022
_symmetry_Int_Tables_number   1
_chemical_formula_structural   Li9Mn2Co5O16
_chemical_formula_sum   'Li9 Mn2 Co5 O16'
_cell_volume   283.95696140
_cell_formula_units_Z   1
loop_
 _symmetry_equiv_pos_site_id
 _symmetry_equiv_pos_as_xyz
  1  'x, y, z'
loop_
 _atom_site_type_symbol
 _atom_site_label
 _atom_site_symmetry_multiplicity
 _atom_site_fract_x
 _atom_site_fract_y
 _atom_site_fract_z
 _atom_site_occupancy
  Li  Li0  1  0.25161300  0.00720000  0.25454400  1
  Li  Li1  1  0.24322400  0.25313400  0.74905600  1
  Li  Li2  1  0.24576800  0.49204900  0.25799900  1
  Li  Li3  1  0.75011000  0.24789200  0.24967100  1
  Li  Li4  1  0.75429800  0.50140300  0.74581100  1
  Li  Li5  1  0.75865500  0.75165000  0.25237100  1
  Li  Li6  1  0.24761800  0.74422100  0.74794400  1
  Li  Li7  1  0.74885000  0.00456500  0.74372000  1
  Li  Li8  1  0.00046900  0.25169200  0.49809400  1
  Mn  Mn9  1  0.00178000  0.99960100  0.99849200  1
  Mn  Mn10  1  0.49900500  0.00324600  0.49944200  1
  Co  Co11  1  0.00013400  0.49960400  0.00096200  1
  Co  Co12  1  0.99878600  0.75242600  0.50172800  1
  Co  Co13  1  0.49378000  0.49390800  0.49860700  1
  Co  Co14  1  0.49990600  0.74665200  0.00052800  1
  Co  Co15  1  0.50054700  0.25196300  0.99963900  1
  O  O16  1  0.14116700  0.76524500  0.11737200  1
  O  O17  1  0.13346500  0.97543900  0.60700300  1
  O  O18  1  0.13684000  0.27337200  0.11776800  1
  O  O19  1  0.63967600  0.99629800  0.11347000  1
  O  O20  1  0.59432000  0.24165900  0.60831500  1
  O  O21  1  0.64397300  0.49428700  0.11429500  1
  O  O22  1  0.13800400  0.52003600  0.60894200  1
  O  O23  1  0.64144000  0.76676700  0.61497300  1
  O  O24  1  0.39275000  0.23386000  0.38003600  1
  O  O25  1  0.35720100  0.50244700  0.88654100  1
  O  O26  1  0.37023300  0.75206300  0.39398600  1
  O  O27  1  0.86583500  0.53085500  0.39855200  1
  O  O28  1  0.86164400  0.72470100  0.88487700  1
  O  O29  1  0.86401700  0.98338200  0.39113400  1
  O  O30  1  0.36279300  0.00386100  0.88439000  1
  O  O31  1  0.86210100  0.23452200  0.87974000  1
