# generated using pymatgen
data_Li4Co3O7
_symmetry_space_group_name_H-M   'P 1'
_cell_length_a   3.00973300
_cell_length_b   9.75839354
_cell_length_c   9.78340852
_cell_angle_alpha   117.08088107
_cell_angle_beta   91.27949467
_cell_angle_gamma   97.66900271
_symmetry_Int_Tables_number   1
_chemical_formula_structural   Li4Co3O7
_chemical_formula_sum   'Li8 Co6 O14'
_cell_volume   252.42293998
_cell_formula_units_Z   2
loop_
 _symmetry_equiv_pos_site_id
 _symmetry_equiv_pos_as_xyz
  1  'x, y, z'
loop_
 _atom_site_type_symbol
 _atom_site_label
 _atom_site_symmetry_multiplicity
 _atom_site_fract_x
 _atom_site_fract_y
 _atom_site_fract_z
 _atom_site_occupancy
  Li  Li0  1  0.85989300  0.71981800  0.92905300  1
  Li  Li1  1  0.14010700  0.28018200  0.07094700  1
  Li  Li2  1  0.43005700  0.86026600  0.21768700  1
  Li  Li3  1  0.71747000  0.42584800  0.35622500  1
  Li  Li4  1  0.00000000  0.00000000  0.50000000  1
  Li  Li5  1  0.28253000  0.57415200  0.64377500  1
  Li  Li6  1  0.56994300  0.13973400  0.78231300  1
  Li  Li7  1  0.50000000  0.00000000  0.00000000  1
  Co  Co8  1  0.93193000  0.86108300  0.72546900  1
  Co  Co9  1  0.06807000  0.13891700  0.27453100  1
  Co  Co10  1  0.21214100  0.42755300  0.85641600  1
  Co  Co11  1  0.78785900  0.57244700  0.14358400  1
  Co  Co12  1  0.36305300  0.71727100  0.43300300  1
  Co  Co13  1  0.63694700  0.28272900  0.56699700  1
  O  O14  1  0.36367100  0.79232300  0.81335400  1
  O  O15  1  0.68838800  0.36666400  0.96742700  1
  O  O16  1  0.97347000  0.94912900  0.12763400  1
  O  O17  1  0.26136900  0.51373500  0.25602600  1
  O  O18  1  0.50182500  0.08495800  0.39435600  1
  O  O19  1  0.84088000  0.66179800  0.54585600  1
  O  O20  1  0.11065700  0.22461300  0.68009200  1
  O  O21  1  0.31161200  0.63333600  0.03257300  1
  O  O22  1  0.63632900  0.20767700  0.18664600  1
  O  O23  1  0.88934300  0.77538700  0.31990800  1
  O  O24  1  0.15912000  0.33820200  0.45414400  1
  O  O25  1  0.49817500  0.91504200  0.60564400  1
  O  O26  1  0.73863100  0.48626500  0.74397400  1
  O  O27  1  0.02653000  0.05087100  0.87236600  1
