# generated using pymatgen
data_Li9Mn2Co5O16
_symmetry_space_group_name_H-M   'P 1'
_cell_length_a   5.02265500
_cell_length_b   5.86882420
_cell_length_c   9.77003829
_cell_angle_alpha   87.13364327
_cell_angle_beta   79.18668391
_cell_angle_gamma   86.96731327
_symmetry_Int_Tables_number   1
_chemical_formula_structural   Li9Mn2Co5O16
_chemical_formula_sum   'Li9 Mn2 Co5 O16'
_cell_volume   282.24640533
_cell_formula_units_Z   1
loop_
 _symmetry_equiv_pos_site_id
 _symmetry_equiv_pos_as_xyz
  1  'x, y, z'
loop_
 _atom_site_type_symbol
 _atom_site_label
 _atom_site_symmetry_multiplicity
 _atom_site_fract_x
 _atom_site_fract_y
 _atom_site_fract_z
 _atom_site_occupancy
  Li  Li0  1  0.24757800  0.75239100  0.25185400  1
  Li  Li1  1  0.24278300  0.99957900  0.74081800  1
  Li  Li2  1  0.24452200  0.24605400  0.25350500  1
  Li  Li3  1  0.75721700  0.00042100  0.25918200  1
  Li  Li4  1  0.75242200  0.24760900  0.74814600  1
  Li  Li5  1  0.74611300  0.50297200  0.25665500  1
  Li  Li6  1  0.25388700  0.49702800  0.74334500  1
  Li  Li7  1  0.75547800  0.75394600  0.74649500  1
  Li  Li8  1  0.00000000  0.00000000  0.50000000  1
  Mn  Mn9  1  0.00037300  0.75005500  0.99967900  1
  Mn  Mn10  1  0.99962700  0.24994500  0.00032100  1
  Co  Co11  1  0.00000000  0.50000000  0.50000000  1
  Co  Co12  1  0.50647000  0.24553500  0.49844500  1
  Co  Co13  1  0.50000000  0.50000000  0.00000000  1
  Co  Co14  1  0.49353000  0.75446500  0.50155500  1
  Co  Co15  1  0.50000000  0.00000000  0.00000000  1
  O  O16  1  0.14233600  0.51682400  0.11878700  1
  O  O17  1  0.15405300  0.74583800  0.61220600  1
  O  O18  1  0.14223400  0.01670800  0.11959700  1
  O  O19  1  0.63455000  0.76720600  0.11475100  1
  O  O20  1  0.59996500  0.99612500  0.60724200  1
  O  O21  1  0.63277200  0.26631900  0.11430900  1
  O  O22  1  0.14339000  0.26219000  0.60985900  1
  O  O23  1  0.61191100  0.49022900  0.60738500  1
  O  O24  1  0.40003500  0.00387500  0.39275800  1
  O  O25  1  0.36545000  0.23279400  0.88524900  1
  O  O26  1  0.38808900  0.50977100  0.39261500  1
  O  O27  1  0.84594700  0.25416200  0.38779400  1
  O  O28  1  0.85766400  0.48317600  0.88121300  1
  O  O29  1  0.85661000  0.73781000  0.39014100  1
  O  O30  1  0.36722800  0.73368100  0.88569100  1
  O  O31  1  0.85776600  0.98329200  0.88040300  1
