# generated using pymatgen
data_Li5Mn3O8
_symmetry_space_group_name_H-M   'P 1'
_cell_length_a   2.94413164
_cell_length_b   15.59708025
_cell_length_c   6.45400646
_cell_angle_alpha   92.22622162
_cell_angle_beta   77.41397521
_cell_angle_gamma   93.17591084
_symmetry_Int_Tables_number   1
_chemical_formula_structural   Li5Mn3O8
_chemical_formula_sum   'Li10 Mn6 O16'
_cell_volume   288.69208180
_cell_formula_units_Z   2
loop_
 _symmetry_equiv_pos_site_id
 _symmetry_equiv_pos_as_xyz
  1  'x, y, z'
loop_
 _atom_site_type_symbol
 _atom_site_label
 _atom_site_symmetry_multiplicity
 _atom_site_fract_x
 _atom_site_fract_y
 _atom_site_fract_z
 _atom_site_occupancy
  Li  Li0  1  0.62498200  0.12501200  0.75010300  1
  Li  Li1  1  0.12498500  0.62501500  0.74995900  1
  Li  Li2  1  0.94830600  0.18886200  0.10776800  1
  Li  Li3  1  0.44834900  0.68881200  0.10762600  1
  Li  Li4  1  0.30166100  0.06116800  0.39234900  1
  Li  Li5  1  0.80165200  0.56117100  0.39217500  1
  Li  Li6  1  0.13534500  0.44910000  0.63419800  1
  Li  Li7  1  0.63542800  0.94911500  0.63432600  1
  Li  Li8  1  0.61462600  0.30092600  0.86573800  1
  Li  Li9  1  0.11460600  0.80089300  0.86565500  1
  Mn  Mn10  1  0.87490100  0.37507000  0.25021200  1
  Mn  Mn11  1  0.48022400  0.50538000  0.99438300  1
  Mn  Mn12  1  0.26984600  0.24460400  0.50555100  1
  Mn  Mn13  1  0.37508600  0.87501000  0.24991300  1
  Mn  Mn14  1  0.98016700  0.00534900  0.99467900  1
  Mn  Mn15  1  0.77002100  0.74456900  0.50533300  1
  O  O16  1  0.46784400  0.08283600  0.06064700  1
  O  O17  1  0.96776500  0.58285700  0.06039300  1
  O  O18  1  0.78209800  0.16713300  0.43955100  1
  O  O19  1  0.28222700  0.66709700  0.43942900  1
  O  O20  1  0.77334400  0.33053100  0.54442400  1
  O  O21  1  0.27343200  0.83049200  0.54429000  1
  O  O22  1  0.97653700  0.41948800  0.95558000  1
  O  O23  1  0.47663500  0.91947500  0.95567400  1
  O  O24  1  0.12673000  0.22202000  0.78912700  1
  O  O25  1  0.62679600  0.72200100  0.78899800  1
  O  O26  1  0.12325200  0.02799300  0.71106100  1
  O  O27  1  0.62324600  0.52799600  0.71076900  1
  O  O28  1  0.30778000  0.46635400  0.30156300  1
  O  O29  1  0.80767200  0.96631200  0.30169900  1
  O  O30  1  0.44219000  0.28370500  0.19848100  1
  O  O31  1  0.94226900  0.78365100  0.19834300  1
