# generated using pymatgen
data_Li6V3P8O29
_symmetry_space_group_name_H-M   'P 1'
_cell_length_a   9.78685100
_cell_length_b   9.79500006
_cell_length_c   13.98549881
_cell_angle_alpha   90.26959188
_cell_angle_beta   90.18673653
_cell_angle_gamma   119.72634955
_symmetry_Int_Tables_number   1
_chemical_formula_structural   Li6V3P8O29
_chemical_formula_sum   'Li12 V6 P16 O58'
_cell_volume   1164.21493481
_cell_formula_units_Z   2
loop_
 _symmetry_equiv_pos_site_id
 _symmetry_equiv_pos_as_xyz
  1  'x, y, z'
loop_
 _atom_site_type_symbol
 _atom_site_label
 _atom_site_symmetry_multiplicity
 _atom_site_fract_x
 _atom_site_fract_y
 _atom_site_fract_z
 _atom_site_occupancy
  Li  Li0  1  0.66314700  0.89809600  0.94466100  1
  Li  Li1  1  0.66336400  0.76341600  0.43478600  1
  Li  Li2  1  0.23999100  0.90274700  0.43668700  1
  Li  Li3  1  0.09617600  0.76498900  0.94419800  1
  Li  Li4  1  0.23073200  0.33251700  0.94434200  1
  Li  Li5  1  0.90332700  0.66695000  0.55640400  1
  Li  Li6  1  0.10322200  0.33972800  0.43504600  1
  Li  Li7  1  0.67012700  0.34098500  0.89113600  1
  Li  Li8  1  0.76544500  0.09915700  0.55660500  1
  Li  Li9  1  0.32659900  0.09527400  0.06551400  1
  Li  Li10  1  0.96106400  0.98530100  0.01398400  1
  Li  Li11  1  0.04201600  0.03041500  0.49506800  1
  V  V12  1  0.00247200  0.56375800  0.75176400  1
  V  V13  1  0.99696700  0.43394400  0.24500300  1
  V  V14  1  0.56290500  0.56104800  0.24915300  1
  V  V15  1  0.43589700  0.43572900  0.74732200  1
  V  V16  1  0.56645900  0.99957700  0.74766400  1
  V  V17  1  0.43612800  0.00005700  0.25159300  1
  P  P18  1  0.68507300  0.90776300  0.15905100  1
  P  P19  1  0.68600700  0.76981400  0.65501300  1
  P  P20  1  0.22495400  0.91252600  0.65692200  1
  P  P21  1  0.33735800  0.66776600  0.87088300  1
  P  P22  1  0.33094700  0.66593700  0.37033400  1
  P  P23  1  0.08826800  0.77574800  0.15770200  1
  P  P24  1  0.91462200  0.68870400  0.34104500  1
  P  P25  1  0.22460500  0.31218100  0.15642700  1
  P  P26  1  0.77956800  0.69261500  0.84171600  1
  P  P27  1  0.08417500  0.31038000  0.65587400  1
  P  P28  1  0.91067700  0.22065400  0.84069800  1
  P  P29  1  0.67010400  0.33608300  0.63011300  1
  P  P30  1  0.66394100  0.33131400  0.13041800  1
  P  P31  1  0.77673900  0.08840500  0.34161700  1
  P  P32  1  0.30720200  0.22334500  0.34086400  1
  P  P33  1  0.31519100  0.09053100  0.84224600  1
  O  O34  1  0.77592200  0.99954600  0.43067700  1
  O  O35  1  0.66875000  0.91926600  0.65902600  1
  O  O36  1  0.78883800  0.79834800  0.92211400  1
  O  O37  1  0.65333100  0.73846500  0.16705400  1
  O  O38  1  0.53234500  0.91412200  0.17106200  1
  O  O39  1  0.48729400  0.81399300  0.83080700  1
  O  O40  1  0.38374700  0.91477000  0.67358900  1
  O  O41  1  0.23182200  0.99747300  0.92991600  1
  O  O42  1  0.25764700  0.92070200  0.16357400  1
  O  O43  1  0.48551400  0.67396000  0.33231500  1
  O  O44  1  0.52688700  0.62093000  0.66950500  1
  O  O45  1  0.32256800  0.81211600  0.32953600  1
  O  O46  1  0.33515900  0.66320300  0.97723100  1
  O  O47  1  0.32790500  0.66868000  0.47725200  1
  O  O48  1  0.18768800  0.67103800  0.83024100  1
  O  O49  1  0.37682200  0.46880800  0.17094500  1
  O  O50  1  0.33353200  0.51676000  0.82734800  1
  O  O51  1  0.08415400  0.74434600  0.66233300  1
  O  O52  1  0.99926000  0.79683700  0.24894700  1
  O  O53  1  0.00371200  0.78093400  0.42994500  1
  O  O54  1  0.01225300  0.78735500  0.06699000  1
  O  O55  1  0.09402500  0.62317900  0.16998500  1
  O  O56  1  0.18542800  0.51278500  0.32853000  1
  O  O57  1  0.92202100  0.66372200  0.84340100  1
  O  O58  1  0.08048100  0.46500500  0.67102600  1
  O  O59  1  0.25099500  0.33918900  0.66223200  1
  O  O60  1  0.79925200  0.78644100  0.74301400  1
  O  O61  1  0.76893200  0.76830200  0.56439800  1
  O  O62  1  0.19968400  0.20770100  0.42179800  1
  O  O63  1  0.74658700  0.66381900  0.34181300  1
  O  O64  1  0.91637800  0.53419400  0.32987000  1
  O  O65  1  0.08216900  0.33555400  0.16105400  1
  O  O66  1  0.81676300  0.48934400  0.67209900  1
  O  O67  1  0.89620100  0.37137500  0.83140100  1
  O  O68  1  0.00499400  0.21481600  0.92292700  1
  O  O69  1  0.00053300  0.22621700  0.56441100  1
  O  O70  1  0.98433200  0.19779900  0.74300500  1
  O  O71  1  0.91919600  0.25469900  0.34183400  1
  O  O72  1  0.66903100  0.47943400  0.17522300  1
  O  O73  1  0.62774200  0.53026000  0.83440200  1
  O  O74  1  0.81083600  0.32761400  0.17333500  1
  O  O75  1  0.66157100  0.32903400  0.02324100  1
  O  O76  1  0.67113300  0.33951000  0.52410100  1
  O  O77  1  0.67697000  0.18805300  0.66827500  1
  O  O78  1  0.45869500  0.38293200  0.33399600  1
  O  O79  1  0.52435000  0.33531800  0.67933500  1
  O  O80  1  0.73921500  0.07866500  0.84092300  1
  O  O81  1  0.79710100  0.00134400  0.24948400  1
  O  O82  1  0.77178000  0.98282900  0.06855100  1
  O  O83  1  0.62106000  0.09051700  0.32937400  1
  O  O84  1  0.51091900  0.18504600  0.16797200  1
  O  O85  1  0.48018200  0.10805400  0.82751400  1
  O  O86  1  0.33293500  0.25553700  0.84361700  1
  O  O87  1  0.22400400  0.22520500  0.06576700  1
  O  O88  1  0.20926600  0.19708100  0.24302900  1
  O  O89  1  0.34278000  0.08560900  0.34263400  1
  O  O90  1  0.21947700  0.98859200  0.56562500  1
  O  O91  1  0.20876100  0.00367200  0.74870100  1
