# generated using pymatgen
data_Li7V4(CO3)10
_symmetry_space_group_name_H-M   'P 1'
_cell_length_a   6.36293700
_cell_length_b   10.87516100
_cell_length_c   17.54134396
_cell_angle_alpha   84.33824346
_cell_angle_beta   90.00000000
_cell_angle_gamma   90.00000000
_symmetry_Int_Tables_number   1
_chemical_formula_structural   Li7V4(CO3)10
_chemical_formula_sum   'Li14 V8 C20 O60'
_cell_volume   1207.90381862
_cell_formula_units_Z   2
loop_
 _symmetry_equiv_pos_site_id
 _symmetry_equiv_pos_as_xyz
  1  'x, y, z'
loop_
 _atom_site_type_symbol
 _atom_site_label
 _atom_site_symmetry_multiplicity
 _atom_site_fract_x
 _atom_site_fract_y
 _atom_site_fract_z
 _atom_site_occupancy
  Li  Li0  1  0.21930700  0.32627700  0.50112600  1
  Li  Li1  1  0.80916900  0.96196100  0.49523200  1
  Li  Li2  1  0.84671900  0.70381100  0.70763500  1
  Li  Li3  1  0.33264900  0.64205500  0.77631600  1
  Li  Li4  1  0.71592400  0.16403600  0.72684000  1
  Li  Li5  1  0.29071700  0.30336300  0.77727600  1
  Li  Li6  1  0.27369500  0.46963200  0.94208300  1
  Li  Li7  1  0.77369500  0.53036800  0.05791700  1
  Li  Li8  1  0.79071700  0.69663700  0.22272400  1
  Li  Li9  1  0.21592400  0.83596400  0.27316000  1
  Li  Li10  1  0.83264900  0.35794500  0.22368400  1
  Li  Li11  1  0.34671900  0.29618900  0.29236500  1
  Li  Li12  1  0.30916900  0.03803900  0.50476800  1
  Li  Li13  1  0.71930700  0.67372300  0.49887400  1
  V  V14  1  0.40977200  0.81093700  0.58430200  1
  V  V15  1  0.93195800  0.42561100  0.63077500  1
  V  V16  1  0.54529300  0.99571500  0.85561900  1
  V  V17  1  0.00736400  0.26234700  0.92151600  1
  V  V18  1  0.50736400  0.73765300  0.07848400  1
  V  V19  1  0.04529300  0.00428500  0.14438100  1
  V  V20  1  0.43195800  0.57438900  0.36922500  1
  V  V21  1  0.90977200  0.18906300  0.41569800  1
  C  C22  1  0.32106000  0.55139600  0.54081100  1
  C  C23  1  0.01588100  0.80320000  0.58384700  1
  C  C24  1  0.97818800  0.16342300  0.58937400  1
  C  C25  1  0.48032900  0.94745400  0.68398400  1
  C  C26  1  0.60093100  0.45908500  0.69896400  1
  C  C27  1  0.02221100  0.48479000  0.79683000  1
  C  C28  1  0.04842000  0.04927600  0.82354200  1
  C  C29  1  0.54144200  0.27037100  0.88381400  1
  C  C30  1  0.50320500  0.69901900  0.91133500  1
  C  C31  1  0.86321000  0.00214000  0.98788900  1
  C  C32  1  0.36321000  0.99786000  0.01211100  1
  C  C33  1  0.00320500  0.30098100  0.08866500  1
  C  C34  1  0.04144200  0.72962900  0.11618600  1
  C  C35  1  0.54842000  0.95072400  0.17645800  1
  C  C36  1  0.52221100  0.51521000  0.20317000  1
  C  C37  1  0.10093100  0.54091500  0.30103600  1
  C  C38  1  0.98032900  0.05254600  0.31601600  1
  C  C39  1  0.47818800  0.83657700  0.41062600  1
  C  C40  1  0.51588100  0.19680000  0.41615300  1
  C  C41  1  0.82106000  0.44860400  0.45918900  1
  O  O42  1  0.02118000  0.11490100  0.52387000  1
  O  O43  1  0.13134000  0.85609800  0.52810600  1
  O  O44  1  0.82242200  0.50240900  0.52270900  1
  O  O45  1  0.44100300  0.64684900  0.54472000  1
  O  O46  1  0.81665800  0.79253500  0.57576500  1
  O  O47  1  0.20888600  0.51167800  0.59807600  1
  O  O48  1  0.07464100  0.26906800  0.59936500  1
  O  O49  1  0.41590600  0.98854000  0.61567600  1
  O  O50  1  0.11753400  0.76174800  0.64491600  1
  O  O51  1  0.85696900  0.11019700  0.63754700  1
  O  O52  1  0.65534300  0.35224300  0.67337200  1
  O  O53  1  0.72287000  0.55108900  0.67210900  1
  O  O54  1  0.51457800  0.82674700  0.69306100  1
  O  O55  1  0.50591200  0.01878700  0.73617300  1
  O  O56  1  0.45282200  0.46969600  0.74540800  1
  O  O57  1  0.03033300  0.40815800  0.74362400  1
  O  O58  1  0.87073000  0.02046500  0.79697200  1
  O  O59  1  0.02110400  0.60105100  0.78311100  1
  O  O60  1  0.20362400  0.97727300  0.83399800  1
  O  O61  1  0.55009600  0.19718200  0.82934500  1
  O  O62  1  0.07213800  0.17144600  0.83711100  1
  O  O63  1  0.52741800  0.80006200  0.86993800  1
  O  O64  1  0.02736400  0.43568000  0.86878100  1
  O  O65  1  0.40676700  0.60786300  0.88703600  1
  O  O66  1  0.36628700  0.31671300  0.90343100  1
  O  O67  1  0.71152000  0.30678900  0.91622600  1
  O  O68  1  0.41011400  0.06046800  0.94865900  1
  O  O69  1  0.77063900  0.95011200  0.93604800  1
  O  O70  1  0.58500700  0.67613100  0.98352300  1
  O  O71  1  0.91173300  0.11969300  0.98073500  1
  O  O72  1  0.41173300  0.88030700  0.01926500  1
  O  O73  1  0.08500700  0.32386900  0.01647700  1
  O  O74  1  0.27063900  0.04988800  0.06395200  1
  O  O75  1  0.91011400  0.93953200  0.05134100  1
  O  O76  1  0.21152000  0.69321100  0.08377400  1
  O  O77  1  0.86628700  0.68328700  0.09656900  1
  O  O78  1  0.90676700  0.39213700  0.11296400  1
  O  O79  1  0.52736400  0.56432000  0.13121900  1
  O  O80  1  0.02741800  0.19993800  0.13006200  1
  O  O81  1  0.57213800  0.82855400  0.16288900  1
  O  O82  1  0.05009600  0.80281800  0.17065500  1
  O  O83  1  0.70362400  0.02272700  0.16600200  1
  O  O84  1  0.52110400  0.39894900  0.21688900  1
  O  O85  1  0.37073000  0.97953500  0.20302800  1
  O  O86  1  0.53033300  0.59184200  0.25637600  1
  O  O87  1  0.95282200  0.53030400  0.25459200  1
  O  O88  1  0.00591200  0.98121300  0.26382700  1
  O  O89  1  0.01457800  0.17325300  0.30693900  1
  O  O90  1  0.22287000  0.44891100  0.32789100  1
  O  O91  1  0.15534300  0.64775700  0.32662800  1
  O  O92  1  0.35696900  0.88980300  0.36245300  1
  O  O93  1  0.61753400  0.23825200  0.35508400  1
  O  O94  1  0.91590600  0.01146000  0.38432400  1
  O  O95  1  0.57464100  0.73093200  0.40063500  1
  O  O96  1  0.70888600  0.48832200  0.40192400  1
  O  O97  1  0.31665800  0.20746500  0.42423500  1
  O  O98  1  0.94100300  0.35315100  0.45528000  1
  O  O99  1  0.32242200  0.49759100  0.47729100  1
  O  O100  1  0.63134000  0.14390200  0.47189400  1
  O  O101  1  0.52118000  0.88509900  0.47613000  1
