# generated using pymatgen
data_Li7V3P8O29
_symmetry_space_group_name_H-M   'P 1'
_cell_length_a   9.79789900
_cell_length_b   9.82106296
_cell_length_c   13.88398257
_cell_angle_alpha   89.46428112
_cell_angle_beta   89.54339873
_cell_angle_gamma   60.48708782
_symmetry_Int_Tables_number   1
_chemical_formula_structural   Li7V3P8O29
_chemical_formula_sum   'Li14 V6 P16 O58'
_cell_volume   1162.58488802
_cell_formula_units_Z   2
loop_
 _symmetry_equiv_pos_site_id
 _symmetry_equiv_pos_as_xyz
  1  'x, y, z'
loop_
 _atom_site_type_symbol
 _atom_site_label
 _atom_site_symmetry_multiplicity
 _atom_site_fract_x
 _atom_site_fract_y
 _atom_site_fract_z
 _atom_site_occupancy
  Li  Li0  1  0.89986200  0.76273500  0.44140900  1
  Li  Li1  1  0.33200500  0.90523300  0.43484000  1
  Li  Li2  1  0.66248900  0.68553600  0.11203400  1
  Li  Li3  1  0.32689700  0.76627800  0.93901900  1
  Li  Li4  1  0.90297700  0.32892900  0.93859500  1
  Li  Li5  1  0.23880700  0.66512600  0.56169900  1
  Li  Li6  1  0.76283600  0.33106600  0.43835700  1
  Li  Li7  1  0.09849500  0.66960200  0.06110400  1
  Li  Li8  1  0.67656200  0.23313100  0.06130200  1
  Li  Li9  1  0.33542300  0.31500200  0.88817700  1
  Li  Li10  1  0.66567900  0.09588100  0.56484000  1
  Li  Li11  1  0.09690500  0.23517300  0.55905800  1
  Li  Li12  1  0.00187100  0.99619500  0.99958500  1
  Li  Li13  1  0.00207500  0.99296800  0.50017500  1
  V  V14  1  0.43788700  0.56408000  0.74809800  1
  V  V15  1  0.56192600  0.43667700  0.25210900  1
  V  V16  1  0.00040200  0.56252000  0.24881000  1
  V  V17  1  0.99936300  0.43759500  0.75060500  1
  V  V18  1  0.56376800  0.99774100  0.75307900  1
  V  V19  1  0.43637800  0.00281800  0.24730900  1
  P  P20  1  0.78567800  0.91304500  0.15741400  1
  P  P21  1  0.91565900  0.77618800  0.65926700  1
  P  P22  1  0.31164900  0.91634900  0.65302100  1
  P  P23  1  0.66843600  0.66201900  0.87121500  1
  P  P24  1  0.66775100  0.66436900  0.37148200  1
  P  P25  1  0.31780300  0.77454200  0.15753800  1
  P  P26  1  0.22463300  0.68639600  0.34316900  1
  P  P27  1  0.90886300  0.31476600  0.15486000  1
  P  P28  1  0.09190100  0.68498900  0.84512400  1
  P  P29  1  0.77400400  0.31348400  0.65683700  1
  P  P30  1  0.68109000  0.22672100  0.84302500  1
  P  P31  1  0.33274100  0.33601400  0.62881100  1
  P  P32  1  0.33140500  0.33934600  0.12860500  1
  P  P33  1  0.68951800  0.08290000  0.34653700  1
  P  P34  1  0.08437100  0.22467000  0.34100700  1
  P  P35  1  0.21454000  0.08622200  0.84209500  1
  O  O36  1  0.78126300  0.99916300  0.43727500  1
  O  O37  1  0.75235300  0.91860600  0.65825300  1
  O  O38  1  0.01183800  0.76648800  0.93613400  1
  O  O39  1  0.92777700  0.74416000  0.15720700  1
  O  O40  1  0.63559400  0.90002200  0.16035000  1
  O  O41  1  0.67229800  0.80379400  0.82967000  1
  O  O42  1  0.46681200  0.91400700  0.66312500  1
  O  O43  1  0.19817000  0.98971900  0.92142700  1
  O  O44  1  0.33887600  0.91670000  0.15664700  1
  O  O45  1  0.81273200  0.67172400  0.32425700  1
  O  O46  1  0.91410300  0.62025200  0.67084400  1
  O  O47  1  0.51500500  0.80697100  0.33413800  1
  O  O48  1  0.66339300  0.64975800  0.97910000  1
  O  O49  1  0.68585100  0.65357500  0.47848600  1
  O  O50  1  0.51720800  0.66239100  0.82962900  1
  O  O51  1  0.89539700  0.47893800  0.16834700  1
  O  O52  1  0.81662800  0.50904400  0.83192300  1
  O  O53  1  0.33237900  0.74974800  0.65749100  1
  O  O54  1  0.20729100  0.78989800  0.24889900  1
  O  O55  1  0.22136300  0.77846400  0.43151600  1
  O  O56  1  0.23627800  0.76131000  0.06865200  1
  O  O57  1  0.48194800  0.62614700  0.17314400  1
  O  O58  1  0.67347800  0.51021000  0.33089900  1
  O  O59  1  0.25959000  0.66192300  0.84089200  1
  O  O60  1  0.61972700  0.46945600  0.66567200  1
  O  O61  1  0.91814100  0.33708600  0.65680200  1
  O  O62  1  0.00348000  0.79202400  0.75295200  1
  O  O63  1  0.00747700  0.77523300  0.56976200  1
  O  O64  1  0.99239500  0.22558700  0.43029000  1
  O  O65  1  0.08031300  0.66335000  0.34351800  1
  O  O66  1  0.37891500  0.53037300  0.33385800  1
  O  O67  1  0.74093600  0.33844700  0.15959500  1
  O  O68  1  0.32490200  0.49034800  0.67049500  1
  O  O69  1  0.51748600  0.37562200  0.82746900  1
  O  O70  1  0.76341900  0.23995100  0.93143300  1
  O  O71  1  0.77756000  0.22120400  0.56857600  1
  O  O72  1  0.79120500  0.21018200  0.75117100  1
  O  O73  1  0.66908000  0.24936400  0.34181800  1
  O  O74  1  0.18364600  0.49161100  0.16903900  1
  O  O75  1  0.10531400  0.52087000  0.83111700  1
  O  O76  1  0.48263200  0.33992600  0.16942200  1
  O  O77  1  0.33310800  0.35416600  0.02073800  1
  O  O78  1  0.32066500  0.34638500  0.52151900  1
  O  O79  1  0.48399900  0.19348300  0.66783100  1
  O  O80  1  0.08551400  0.38076900  0.32941400  1
  O  O81  1  0.18572100  0.32910500  0.67322000  1
  O  O82  1  0.65855500  0.08528800  0.84476100  1
  O  O83  1  0.80167500  0.98712000  0.25788300  1
  O  O84  1  0.80166100  0.01013200  0.07826600  1
  O  O85  1  0.53360000  0.08661900  0.33645800  1
  O  O86  1  0.32914600  0.19682300  0.16976100  1
  O  O87  1  0.36463900  0.09931500  0.83961300  1
  O  O88  1  0.07256300  0.25544800  0.84165900  1
  O  O89  1  0.98857600  0.23334600  0.06375000  1
  O  O90  1  0.99756800  0.20800300  0.24699600  1
  O  O91  1  0.24781200  0.08243400  0.34227300  1
  O  O92  1  0.21906100  0.99986800  0.56247500  1
  O  O93  1  0.19923300  0.01145900  0.74187500  1
