# generated using pymatgen
data_Li2LaNb6O18
_symmetry_space_group_name_H-M   'P 1'
_cell_length_a   3.96899900
_cell_length_b   8.01240500
_cell_length_c   11.95689400
_cell_angle_alpha   90.00000000
_cell_angle_beta   90.00000000
_cell_angle_gamma   90.00000000
_symmetry_Int_Tables_number   1
_chemical_formula_structural   Li2LaNb6O18
_chemical_formula_sum   'Li2 La1 Nb6 O18'
_cell_volume   380.24390548
_cell_formula_units_Z   1
loop_
 _symmetry_equiv_pos_site_id
 _symmetry_equiv_pos_as_xyz
  1  'x, y, z'
loop_
 _atom_site_type_symbol
 _atom_site_label
 _atom_site_symmetry_multiplicity
 _atom_site_fract_x
 _atom_site_fract_y
 _atom_site_fract_z
 _atom_site_occupancy
  Li  Li0  1  0.50000000  0.00000000  0.16347700  1
  Li  Li1  1  0.50000000  0.00000000  0.83652300  1
  La  La2  1  0.50000000  0.00000000  0.50000000  1
  Nb  Nb3  1  0.00000000  0.25808300  0.32870100  1
  Nb  Nb4  1  0.00000000  0.74191700  0.67129900  1
  Nb  Nb5  1  0.00000000  0.74191700  0.32870100  1
  Nb  Nb6  1  0.00000000  0.25808300  0.67129900  1
  Nb  Nb7  1  0.00000000  0.25507000  0.00000000  1
  Nb  Nb8  1  0.00000000  0.74493000  0.00000000  1
  O  O9  1  0.00000000  0.50000000  0.33604400  1
  O  O10  1  0.00000000  0.50000000  0.66395600  1
  O  O11  1  0.00000000  0.00000000  0.34135800  1
  O  O12  1  0.00000000  0.00000000  0.65864200  1
  O  O13  1  0.50000000  0.22732800  0.34043300  1
  O  O14  1  0.50000000  0.77267200  0.65956700  1
  O  O15  1  0.50000000  0.77267200  0.34043300  1
  O  O16  1  0.50000000  0.22732800  0.65956700  1
  O  O17  1  0.00000000  0.23118900  0.16782000  1
  O  O18  1  0.00000000  0.76881100  0.83218000  1
  O  O19  1  0.00000000  0.76881100  0.16782000  1
  O  O20  1  0.00000000  0.23118900  0.83218000  1
  O  O21  1  0.50000000  0.23142900  0.00000000  1
  O  O22  1  0.50000000  0.76857100  0.00000000  1
  O  O23  1  0.00000000  0.00000000  0.00000000  1
  O  O24  1  0.00000000  0.22220100  0.50000000  1
  O  O25  1  0.00000000  0.77779900  0.50000000  1
  O  O26  1  0.00000000  0.50000000  0.00000000  1
