# generated using pymatgen
data_Li3MnFeCo(PO4)3
_symmetry_space_group_name_H-M   'P 1'
_cell_length_a   6.09064200
_cell_length_b   10.45662900
_cell_length_c   14.29854864
_cell_angle_alpha   89.93345801
_cell_angle_beta   90.00000000
_cell_angle_gamma   90.00000000
_symmetry_Int_Tables_number   1
_chemical_formula_structural   Li3MnFeCo(PO4)3
_chemical_formula_sum   'Li12 Mn4 Fe4 Co4 P12 O48'
_cell_volume   910.63940029
_cell_formula_units_Z   4
loop_
 _symmetry_equiv_pos_site_id
 _symmetry_equiv_pos_as_xyz
  1  'x, y, z'
loop_
 _atom_site_type_symbol
 _atom_site_label
 _atom_site_symmetry_multiplicity
 _atom_site_fract_x
 _atom_site_fract_y
 _atom_site_fract_z
 _atom_site_occupancy
  Li  Li0  1  0.74989000  0.99812900  0.66726700  1
  Li  Li1  1  0.24979100  0.00052300  0.99965900  1
  Li  Li2  1  0.75020900  0.00052300  0.99965900  1
  Li  Li3  1  0.25035800  0.99872400  0.33320600  1
  Li  Li4  1  0.74964200  0.99872400  0.33320600  1
  Li  Li5  1  0.25011000  0.99812900  0.66726700  1
  Li  Li6  1  0.24989400  0.50206300  0.50068700  1
  Li  Li7  1  0.75010600  0.50206300  0.50068700  1
  Li  Li8  1  0.25067300  0.50100800  0.16684500  1
  Li  Li9  1  0.74932700  0.50100800  0.16684500  1
  Li  Li10  1  0.24916400  0.50041700  0.83295700  1
  Li  Li11  1  0.75083600  0.50041700  0.83295700  1
  Mn  Mn12  1  0.00000000  0.21897900  0.49358000  1
  Mn  Mn13  1  0.50000000  0.28120900  0.66041900  1
  Mn  Mn14  1  0.50000000  0.28065600  0.32611200  1
  Mn  Mn15  1  0.00000000  0.71966900  0.00685500  1
  Fe  Fe16  1  0.00000000  0.21836100  0.15943600  1
  Fe  Fe17  1  0.00000000  0.21827900  0.82523200  1
  Fe  Fe18  1  0.50000000  0.28041300  0.99183800  1
  Fe  Fe19  1  0.00000000  0.71991900  0.34154500  1
  Co  Co20  1  0.00000000  0.72364100  0.67440700  1
  Co  Co21  1  0.50000000  0.77763900  0.83984600  1
  Co  Co22  1  0.50000000  0.78080300  0.50647600  1
  Co  Co23  1  0.50000000  0.78165100  0.17267500  1
  P  P24  1  0.50000000  0.09155500  0.80735000  1
  P  P25  1  0.50000000  0.09218400  0.13827300  1
  P  P26  1  0.50000000  0.09013000  0.47240400  1
  P  P27  1  0.00000000  0.40801400  0.30431400  1
  P  P28  1  0.00000000  0.40941000  0.63964100  1
  P  P29  1  0.00000000  0.40373500  0.97242000  1
  P  P30  1  0.50000000  0.59670900  0.36094700  1
  P  P31  1  0.50000000  0.59484000  0.02851700  1
  P  P32  1  0.50000000  0.59701900  0.69419300  1
  P  P33  1  0.00000000  0.90604200  0.85933500  1
  P  P34  1  0.00000000  0.90572400  0.19457500  1
  P  P35  1  0.00000000  0.90283600  0.52803600  1
  O  O36  1  0.00000000  0.04325900  0.23623800  1
  O  O37  1  0.00000000  0.03986000  0.57063700  1
  O  O38  1  0.00000000  0.04333400  0.90116700  1
  O  O39  1  0.50000000  0.09385700  0.57988400  1
  O  O40  1  0.50000000  0.09530700  0.91476900  1
  O  O41  1  0.50000000  0.09505800  0.24562500  1
  O  O42  1  0.29688700  0.16301000  0.09403900  1
  O  O43  1  0.70311300  0.16301000  0.09403900  1
  O  O44  1  0.29814200  0.16062800  0.42761900  1
  O  O45  1  0.70185800  0.16062800  0.42761900  1
  O  O46  1  0.29729000  0.16278000  0.76284900  1
  O  O47  1  0.70271000  0.16278000  0.76284900  1
  O  O48  1  0.79816500  0.33912400  0.59431900  1
  O  O49  1  0.20183500  0.33912400  0.59431900  1
  O  O50  1  0.79822600  0.33752500  0.25955700  1
  O  O51  1  0.20177400  0.33752500  0.25955700  1
  O  O52  1  0.79668900  0.33368000  0.92789500  1
  O  O53  1  0.20331100  0.33368000  0.92789500  1
  O  O54  1  0.00000000  0.40501200  0.41194200  1
  O  O55  1  0.00000000  0.40163400  0.07979200  1
  O  O56  1  0.00000000  0.40355400  0.74716300  1
  O  O57  1  0.50000000  0.45939200  0.40299900  1
  O  O58  1  0.50000000  0.45615900  0.06803600  1
  O  O59  1  0.50000000  0.45972600  0.73659100  1
  O  O60  1  0.00000000  0.54603400  0.26344400  1
  O  O61  1  0.00000000  0.54130900  0.93075800  1
  O  O62  1  0.00000000  0.54775300  0.59968200  1
  O  O63  1  0.50000000  0.59901200  0.25341700  1
  O  O64  1  0.50000000  0.59999200  0.92074600  1
  O  O65  1  0.50000000  0.59886400  0.58656400  1
  O  O66  1  0.29915300  0.66491300  0.07445400  1
  O  O67  1  0.29782600  0.66762500  0.40565400  1
  O  O68  1  0.29649300  0.66761000  0.73849500  1
  O  O69  1  0.70350700  0.66761000  0.73849500  1
  O  O70  1  0.70084700  0.66491300  0.07445400  1
  O  O71  1  0.70217400  0.66762500  0.40565400  1
  O  O72  1  0.79556700  0.83605400  0.90307300  1
  O  O73  1  0.20443300  0.83605400  0.90307300  1
  O  O74  1  0.79587300  0.83508900  0.23857900  1
  O  O75  1  0.79653100  0.83130300  0.57199400  1
  O  O76  1  0.20412700  0.83508900  0.23857900  1
  O  O77  1  0.20346900  0.83130300  0.57199400  1
  O  O78  1  0.00000000  0.90270600  0.75158400  1
  O  O79  1  0.00000000  0.90321300  0.42048400  1
  O  O80  1  0.00000000  0.90470900  0.08689300  1
  O  O81  1  0.50000000  0.95420100  0.76581000  1
  O  O82  1  0.50000000  0.95407100  0.09748600  1
  O  O83  1  0.50000000  0.95215900  0.43156900  1
