# generated using pymatgen
data_Li4Mn3O7
_symmetry_space_group_name_H-M   'P 1'
_cell_length_a   10.40068240
_cell_length_b   10.40068240
_cell_length_c   5.27936363
_cell_angle_alpha   84.18929623
_cell_angle_beta   84.18929623
_cell_angle_gamma   150.29098800
_symmetry_Int_Tables_number   1
_chemical_formula_structural   Li4Mn3O7
_chemical_formula_sum   'Li8 Mn6 O14'
_cell_volume   260.02480743
_cell_formula_units_Z   2
loop_
 _symmetry_equiv_pos_site_id
 _symmetry_equiv_pos_as_xyz
  1  'x, y, z'
loop_
 _atom_site_type_symbol
 _atom_site_label
 _atom_site_symmetry_multiplicity
 _atom_site_fract_x
 _atom_site_fract_y
 _atom_site_fract_z
 _atom_site_occupancy
  Li  Li0  1  0.85851900  0.14148100  0.50000000  1
  Li  Li1  1  0.28442600  0.71557400  0.50000000  1
  Li  Li2  1  0.71557400  0.28442600  0.50000000  1
  Li  Li3  1  0.14148100  0.85851900  0.50000000  1
  Li  Li4  1  0.56941500  0.43058500  0.50000000  1
  Li  Li5  1  0.00000000  0.00000000  0.50000000  1
  Li  Li6  1  0.43058500  0.56941500  0.50000000  1
  Li  Li7  1  0.50000000  0.50000000  0.00000000  1
  Mn  Mn8  1  0.92933300  0.07066700  0.00000000  1
  Mn  Mn9  1  0.07066700  0.92933300  0.00000000  1
  Mn  Mn10  1  0.35900100  0.64099900  0.00000000  1
  Mn  Mn11  1  0.78603900  0.21396100  0.00000000  1
  Mn  Mn12  1  0.21396100  0.78603900  0.00000000  1
  Mn  Mn13  1  0.64099900  0.35900100  0.00000000  1
  O  O14  1  0.63369900  0.91576500  0.23531600  1
  O  O15  1  0.06321000  0.49302800  0.23278000  1
  O  O16  1  0.49302800  0.06321000  0.23278000  1
  O  O17  1  0.91576500  0.63369900  0.23531600  1
  O  O18  1  0.31100200  0.16230300  0.20899500  1
  O  O19  1  0.78003300  0.78003300  0.23583500  1
  O  O20  1  0.16230300  0.31100200  0.20899500  1
  O  O21  1  0.08423500  0.36630100  0.76468400  1
  O  O22  1  0.50697200  0.93679000  0.76722000  1
  O  O23  1  0.93679000  0.50697200  0.76722000  1
  O  O24  1  0.36630100  0.08423500  0.76468400  1
  O  O25  1  0.83769700  0.68899800  0.79100500  1
  O  O26  1  0.21996700  0.21996700  0.76416500  1
  O  O27  1  0.68899800  0.83769700  0.79100500  1
