# generated using pymatgen
data_LiMnPO4
_symmetry_space_group_name_H-M   'P 1'
_cell_length_a   4.99582701
_cell_length_b   8.50466111
_cell_length_c   7.95004642
_cell_angle_alpha   101.52091287
_cell_angle_beta   90.00670835
_cell_angle_gamma   89.99721154
_symmetry_Int_Tables_number   1
_chemical_formula_structural   LiMnPO4
_chemical_formula_sum   'Li4 Mn4 P4 O16'
_cell_volume   330.97446733
_cell_formula_units_Z   4
loop_
 _symmetry_equiv_pos_site_id
 _symmetry_equiv_pos_as_xyz
  1  'x, y, z'
loop_
 _atom_site_type_symbol
 _atom_site_label
 _atom_site_symmetry_multiplicity
 _atom_site_fract_x
 _atom_site_fract_y
 _atom_site_fract_z
 _atom_site_occupancy
  Li  Li0  1  0.03093000  0.54341600  0.13705300  1
  Li  Li1  1  0.53085700  0.45658100  0.86291300  1
  Li  Li2  1  0.96317000  0.95725900  0.65719200  1
  Li  Li3  1  0.46345700  0.04268700  0.34271500  1
  Mn  Mn4  1  0.98135500  0.17772000  0.03065700  1
  Mn  Mn5  1  0.48119200  0.82235500  0.96943500  1
  Mn  Mn6  1  0.39848700  0.72463200  0.48774700  1
  Mn  Mn7  1  0.89879900  0.27530900  0.51240600  1
  P  P8  1  0.54219800  0.37953600  0.22948000  1
  P  P9  1  0.04200800  0.62050200  0.77050900  1
  P  P10  1  0.99290600  0.90224400  0.25995200  1
  P  P11  1  0.49280100  0.09771300  0.74005000  1
  O  O12  1  0.15044600  0.96408300  0.11460400  1
  O  O13  1  0.65030600  0.03599400  0.88551100  1
  O  O14  1  0.09562600  0.47453600  0.62578400  1
  O  O15  1  0.59564400  0.52554700  0.37416200  1
  O  O16  1  0.20967300  0.60392700  0.93222400  1
  O  O17  1  0.70987300  0.39609100  0.06778100  1
  O  O18  1  0.69569300  0.87279000  0.20993600  1
  O  O19  1  0.19554500  0.12715200  0.78997100  1
  O  O20  1  0.53518200  0.96572500  0.57436200  1
  O  O21  1  0.03513800  0.03417800  0.42569400  1
  O  O22  1  0.74100200  0.64463400  0.81483800  1
  O  O23  1  0.24123500  0.35536800  0.18502400  1
  O  O24  1  0.15557400  0.77284300  0.71055300  1
  O  O25  1  0.65580700  0.22722300  0.28951300  1
  O  O26  1  0.61984400  0.25405500  0.70515600  1
  O  O27  1  0.12002200  0.74589900  0.29477700  1
