# generated using pymatgen
data_Li6MnV3(PO4)6
_symmetry_space_group_name_H-M   'P 1'
_cell_length_a   8.57249700
_cell_length_b   8.76967324
_cell_length_c   12.06310878
_cell_angle_alpha   90.27907777
_cell_angle_beta   91.09426213
_cell_angle_gamma   90.13747593
_symmetry_Int_Tables_number   1
_chemical_formula_structural   Li6MnV3(PO4)6
_chemical_formula_sum   'Li12 Mn2 V6 P12 O48'
_cell_volume   906.70140157
_cell_formula_units_Z   2
loop_
 _symmetry_equiv_pos_site_id
 _symmetry_equiv_pos_as_xyz
  1  'x, y, z'
loop_
 _atom_site_type_symbol
 _atom_site_label
 _atom_site_symmetry_multiplicity
 _atom_site_fract_x
 _atom_site_fract_y
 _atom_site_fract_z
 _atom_site_occupancy
  Li  Li0  1  0.06511300  0.48655500  0.34679000  1
  Li  Li1  1  0.07993500  0.91351400  0.69046700  1
  Li  Li2  1  0.17998500  0.21935400  0.17757400  1
  Li  Li3  1  0.31963900  0.72110800  0.32171900  1
  Li  Li4  1  0.41999900  0.41283500  0.80998700  1
  Li  Li5  1  0.43411000  0.98840100  0.15373700  1
  Li  Li6  1  0.56539200  0.01406000  0.84675100  1
  Li  Li7  1  0.58003500  0.58612200  0.19091200  1
  Li  Li8  1  0.68040600  0.27876700  0.67851600  1
  Li  Li9  1  0.82068500  0.77994400  0.82272300  1
  Li  Li10  1  0.92048300  0.08553700  0.30935500  1
  Li  Li11  1  0.93515500  0.51336000  0.65288200  1
  Mn  Mn12  1  0.75398400  0.46348500  0.89098200  1
  Mn  Mn13  1  0.75222100  0.02850100  0.10634700  1
  V  V14  1  0.24349700  0.97295700  0.89579300  1
  V  V15  1  0.24438600  0.53511000  0.10800700  1
  V  V16  1  0.25472100  0.47128100  0.60554000  1
  V  V17  1  0.25505100  0.03412100  0.39116600  1
  V  V18  1  0.74514600  0.96583900  0.60923100  1
  V  V19  1  0.74479200  0.52779900  0.39511900  1
  P  P20  1  0.03986300  0.75100900  0.49067000  1
  P  P21  1  0.11440300  0.61815500  0.84634800  1
  P  P22  1  0.11435300  0.88866500  0.14670700  1
  P  P23  1  0.38669200  0.11720500  0.65249500  1
  P  P24  1  0.38558700  0.38963600  0.35304900  1
  P  P25  1  0.45705300  0.25149100  0.00981900  1
  P  P26  1  0.54271400  0.75031600  0.98979400  1
  P  P27  1  0.61605600  0.61035300  0.64866000  1
  P  P28  1  0.61330400  0.88239500  0.34896900  1
  P  P29  1  0.88491100  0.11086100  0.85282900  1
  P  P30  1  0.88373700  0.38124300  0.14954100  1
  P  P31  1  0.95988800  0.24897500  0.50936200  1
  O  O32  1  0.05223400  0.10988100  0.89787300  1
  O  O33  1  0.05085700  0.12794300  0.44500900  1
  O  O34  1  0.05542300  0.33452600  0.60016400  1
  O  O35  1  0.05599300  0.42000100  0.18738300  1
  O  O36  1  0.09827000  0.63976200  0.58191800  1
  O  O37  1  0.12688500  0.79485000  0.83038500  1
  O  O38  1  0.13949400  0.57901200  0.96890200  1
  O  O39  1  0.12738900  0.00608400  0.24629500  1
  O  O40  1  0.17354400  0.73037400  0.18740400  1
  O  O41  1  0.18470700  0.82243400  0.43385000  1
  O  O42  1  0.23134500  0.52879200  0.77465300  1
  O  O43  1  0.23664700  0.95034800  0.06294700  1
  O  O44  1  0.26542600  0.44982100  0.43913300  1
  O  O45  1  0.27024800  0.02848500  0.72378400  1
  O  O46  1  0.31134000  0.32313300  0.06617300  1
  O  O47  1  0.32725700  0.23097000  0.31274400  1
  O  O48  1  0.36195700  0.07913800  0.52967100  1
  O  O49  1  0.37144100  0.50657100  0.25453600  1
  O  O50  1  0.37831700  0.29407700  0.66977800  1
  O  O51  1  0.39980600  0.13876600  0.91780800  1
  O  O52  1  0.44599600  0.83507700  0.90061300  1
  O  O53  1  0.44136300  0.92071900  0.31086400  1
  O  O54  1  0.44852200  0.60801600  0.60503700  1
  O  O55  1  0.45109400  0.63187500  0.05624700  1
  O  O56  1  0.54602200  0.37278800  0.94592400  1
  O  O57  1  0.55310300  0.39012600  0.39728600  1
  O  O58  1  0.55892700  0.07824900  0.68945600  1
  O  O59  1  0.55130500  0.16888200  0.10183200  1
  O  O60  1  0.60187500  0.86351600  0.08361000  1
  O  O61  1  0.62329200  0.70542000  0.33057400  1
  O  O62  1  0.63011900  0.49250500  0.74815400  1
  O  O63  1  0.63644800  0.91980800  0.47167200  1
  O  O64  1  0.67271600  0.76932600  0.68853000  1
  O  O65  1  0.68746100  0.67856700  0.93471400  1
  O  O66  1  0.73016600  0.97199900  0.27910600  1
  O  O67  1  0.73557800  0.54939500  0.56271300  1
  O  O68  1  0.76250100  0.04980700  0.93515200  1
  O  O69  1  0.76893200  0.46933100  0.22324100  1
  O  O70  1  0.81498600  0.17775700  0.56570300  1
  O  O71  1  0.82952200  0.27032200  0.81157200  1
  O  O72  1  0.87405000  0.99456200  0.75245600  1
  O  O73  1  0.86167600  0.41944500  0.02689300  1
  O  O74  1  0.87576000  0.20289000  0.16618100  1
  O  O75  1  0.90155400  0.36044100  0.41745000  1
  O  O76  1  0.94360000  0.58183200  0.80782200  1
  O  O77  1  0.94438100  0.66498900  0.39946700  1
  O  O78  1  0.94881900  0.87221400  0.55439200  1
  O  O79  1  0.94835500  0.88622000  0.10109200  1
