# generated using pymatgen
data_Li2V3CoO8
_symmetry_space_group_name_H-M   'P 1'
_cell_length_a   5.81665726
_cell_length_b   10.25411822
_cell_length_c   5.97903851
_cell_angle_alpha   89.44193116
_cell_angle_beta   120.09318434
_cell_angle_gamma   107.03650307
_symmetry_Int_Tables_number   1
_chemical_formula_structural   Li2V3CoO8
_chemical_formula_sum   'Li4 V6 Co2 O16'
_cell_volume   290.92660238
_cell_formula_units_Z   2
loop_
 _symmetry_equiv_pos_site_id
 _symmetry_equiv_pos_as_xyz
  1  'x, y, z'
loop_
 _atom_site_type_symbol
 _atom_site_label
 _atom_site_symmetry_multiplicity
 _atom_site_fract_x
 _atom_site_fract_y
 _atom_site_fract_z
 _atom_site_occupancy
  Li  Li0  1  0.62903100  0.43798300  0.31730600  1
  Li  Li1  1  0.62778100  0.94006100  0.81157600  1
  Li  Li2  1  0.37075200  0.06197200  0.18271500  1
  Li  Li3  1  0.37194200  0.56013600  0.68810300  1
  V  V4  1  0.99880800  0.49992100  0.00056800  1
  V  V5  1  0.00063600  0.25038900  0.25014500  1
  V  V6  1  0.99991300  0.24977500  0.75002700  1
  V  V7  1  0.00002300  0.99997300  0.49906400  1
  V  V8  1  0.00030000  0.75007300  0.75028900  1
  V  V9  1  0.99965500  0.75002400  0.25006500  1
  Co  Co10  1  0.50029700  0.75006900  0.25006300  1
  Co  Co11  1  0.49995100  0.24998600  0.75011500  1
  O  O12  1  0.78480300  0.12650400  0.37671300  1
  O  O13  1  0.78538300  0.62434400  0.90261900  1
  O  O14  1  0.21510600  0.37299000  0.12200000  1
  O  O15  1  0.21419100  0.87545700  0.59807200  1
  O  O16  1  0.75923400  0.86910600  0.15552500  1
  O  O17  1  0.76352100  0.37432200  0.66449100  1
  O  O18  1  0.76586200  0.64606900  0.37265000  1
  O  O19  1  0.76157900  0.14474200  0.88845700  1
  O  O20  1  0.75222200  0.86997200  0.59276900  1
  O  O21  1  0.74968400  0.36357000  0.09787200  1
  O  O22  1  0.24849600  0.63038700  0.90856200  1
  O  O23  1  0.24929500  0.13608700  0.40157500  1
  O  O24  1  0.23444800  0.85373300  0.12791600  1
  O  O25  1  0.23846800  0.35524700  0.61122500  1
  O  O26  1  0.24097700  0.63104300  0.34382300  1
  O  O27  1  0.23764000  0.12606200  0.83569600  1
