# generated using pymatgen
data_Li9Mn2Co5O16
_symmetry_space_group_name_H-M   'P 1'
_cell_length_a   5.93785377
_cell_length_b   5.93785377
_cell_length_c   9.70814901
_cell_angle_alpha   81.74965266
_cell_angle_beta   81.74965266
_cell_angle_gamma   58.46597358
_symmetry_Int_Tables_number   1
_chemical_formula_structural   Li9Mn2Co5O16
_chemical_formula_sum   'Li9 Mn2 Co5 O16'
_cell_volume   287.77317670
_cell_formula_units_Z   1
loop_
 _symmetry_equiv_pos_site_id
 _symmetry_equiv_pos_as_xyz
  1  'x, y, z'
loop_
 _atom_site_type_symbol
 _atom_site_label
 _atom_site_symmetry_multiplicity
 _atom_site_fract_x
 _atom_site_fract_y
 _atom_site_fract_z
 _atom_site_occupancy
  Li  Li0  1  0.50327800  0.50327800  0.00634000  1
  Li  Li1  1  0.00225400  0.00225400  0.00292000  1
  Li  Li2  1  0.12096000  0.61820900  0.26393300  1
  Li  Li3  1  0.61820900  0.12096000  0.26393300  1
  Li  Li4  1  0.74949600  0.74949600  0.49438200  1
  Li  Li5  1  0.25106300  0.25106300  0.49821200  1
  Li  Li6  1  0.37500400  0.87673100  0.73793600  1
  Li  Li7  1  0.87673100  0.37500400  0.73793600  1
  Li  Li8  1  0.62117400  0.62117400  0.25282900  1
  Mn  Mn9  1  0.00063100  0.50122300  0.00398000  1
  Mn  Mn10  1  0.50122300  0.00063100  0.00398000  1
  Co  Co11  1  0.12294400  0.12294400  0.25235200  1
  Co  Co12  1  0.25550300  0.75168000  0.48945600  1
  Co  Co13  1  0.75168000  0.25550300  0.48945600  1
  Co  Co14  1  0.88002400  0.88002400  0.74351700  1
  Co  Co15  1  0.37809500  0.37809500  0.74441200  1
  O  O16  1  0.69357900  0.69357900  0.89251900  1
  O  O17  1  0.19938400  0.19938400  0.88607900  1
  O  O18  1  0.32073400  0.85003900  0.12214700  1
  O  O19  1  0.85003900  0.32073400  0.12214700  1
  O  O20  1  0.93361500  0.93361500  0.37663100  1
  O  O21  1  0.43532800  0.43532800  0.38356100  1
  O  O22  1  0.57155400  0.06774500  0.63050800  1
  O  O23  1  0.06774500  0.57155400  0.63050800  1
  O  O24  1  0.31430400  0.31430400  0.10999700  1
  O  O25  1  0.80936500  0.80936500  0.11041400  1
  O  O26  1  0.93946800  0.40496700  0.37507000  1
  O  O27  1  0.40496700  0.93946800  0.37507000  1
  O  O28  1  0.55440200  0.55440200  0.62278200  1
  O  O29  1  0.05374600  0.05374600  0.62514300  1
  O  O30  1  0.17003500  0.67346900  0.87592700  1
  O  O31  1  0.67346900  0.17003500  0.87592700  1
