# generated using pymatgen
data_Li2O
_symmetry_space_group_name_H-M   'P 1'
_cell_length_a   9.59822988
_cell_length_b   10.08017178
_cell_length_c   10.38069526
_cell_angle_alpha   88.35489512
_cell_angle_beta   91.68454938
_cell_angle_gamma   86.99374316
_symmetry_Int_Tables_number   1
_chemical_formula_structural   Li2O
_chemical_formula_sum   'Li68 O34'
_cell_volume   1002.07491274
_cell_formula_units_Z   34
loop_
 _symmetry_equiv_pos_site_id
 _symmetry_equiv_pos_as_xyz
  1  'x, y, z'
loop_
 _atom_site_type_symbol
 _atom_site_label
 _atom_site_symmetry_multiplicity
 _atom_site_fract_x
 _atom_site_fract_y
 _atom_site_fract_z
 _atom_site_occupancy
  Li  Li0  1  0.59273065  0.72558503  0.32874974  1
  Li  Li1  1  0.27368216  0.25075492  0.33860849  1
  Li  Li2  1  0.89773436  0.17038547  0.04598792  1
  Li  Li3  1  0.02541703  0.37496482  0.59328392  1
  Li  Li4  1  0.64646232  0.30562926  0.99417031  1
  Li  Li5  1  0.81239840  0.64752155  0.58199152  1
  Li  Li6  1  0.65617545  0.98677178  0.88274822  1
  Li  Li7  1  0.16768943  0.54382663  0.08124952  1
  Li  Li8  1  0.97677221  0.45461113  0.05329571  1
  Li  Li9  1  0.93447096  0.62469254  0.80107878  1
  Li  Li10  1  0.08746209  0.07863952  0.35463205  1
  Li  Li11  1  0.55797196  0.92557541  0.42161511  1
  Li  Li12  1  0.80879775  0.66050386  0.36532018  1
  Li  Li13  1  0.48078990  0.33576740  0.81304588  1
  Li  Li14  1  0.42740870  0.33602644  0.19980801  1
  Li  Li15  1  0.81312575  0.43584443  0.23024778  1
  Li  Li16  1  0.39262155  0.56615828  0.95126965  1
  Li  Li17  1  0.30770090  0.85035434  0.98277413  1
  Li  Li18  1  0.56636875  0.18133916  0.33067021  1
  Li  Li19  1  0.06633425  0.13201432  0.57907702  1
  Li  Li20  1  0.21081514  0.42510347  0.79865352  1
  Li  Li21  1  0.62514325  0.52108218  0.74289098  1
  Li  Li22  1  0.26979410  0.49722636  0.29409040  1
  Li  Li23  1  0.60227492  0.76754353  0.61894697  1
  Li  Li24  1  0.55975672  0.51698082  0.10443969  1
  Li  Li25  1  0.71491349  0.29014753  0.74164058  1
  Li  Li26  1  0.16385099  0.64075954  0.75868261  1
  Li  Li27  1  0.59907531  0.09303788  0.67165692  1
  Li  Li28  1  0.02945692  0.39913290  0.38037936  1
  Li  Li29  1  0.91343043  0.85910242  0.07669575  1
  Li  Li30  1  0.06364722  0.93690146  0.88785695  1
  Li  Li31  1  0.02386671  0.61145150  0.29973184  1
  Li  Li32  1  0.32060309  0.64565804  0.50823744  1
  Li  Li33  1  0.76585766  0.71394029  0.14595789  1
  Li  Li34  1  0.82506588  0.82722144  0.79728469  1
  Li  Li35  1  0.05372878  0.92176518  0.64444130  1
  Li  Li36  1  0.10844431  0.59152736  0.52069342  1
  Li  Li37  1  0.08790119  0.03957188  0.10763523  1
  Li  Li38  1  0.76161198  0.49493402  0.93439317  1
  Li  Li39  1  0.59321267  0.44400171  0.34622666  1
  Li  Li40  1  0.63113595  0.70226454  0.89584180  1
  Li  Li41  1  0.06764701  0.26318554  0.19832827  1
  Li  Li42  1  0.51104569  0.14420669  0.00200861  1
  Li  Li43  1  0.75293470  0.22106997  0.20304044  1
  Li  Li44  1  0.89790956  0.18360484  0.38455343  1
  Li  Li45  1  0.37182018  0.69376896  0.19839105  1
  Li  Li46  1  0.86587120  0.95438586  0.30200207  1
  Li  Li47  1  0.39921831  0.42521014  0.56057867  1
  Li  Li48  1  0.01611392  0.81399290  0.41665270  1
  Li  Li49  1  0.28129802  0.85272761  0.73680078  1
  Li  Li50  1  0.14688149  0.16465243  0.79331119  1
  Li  Li51  1  0.80448103  0.90295256  0.55578732  1
  Li  Li52  1  0.55691935  0.88766777  0.08679138  1
  Li  Li53  1  0.33393096  0.82494949  0.39360753  1
  Li  Li54  1  0.97044896  0.31431468  0.87542933  1
  Li  Li55  1  0.86839084  0.10865788  0.80897932  1
  Li  Li56  1  0.77715974  0.39501300  0.52981695  1
  Li  Li57  1  0.24977696  0.12109227  0.99216555  1
  Li  Li58  1  0.83507934  0.11574764  0.59213609  1
  Li  Li59  1  0.38203010  0.96966195  0.58363943  1
  Li  Li60  1  0.38919194  0.03423567  0.17355988  1
  Li  Li61  1  0.38837229  0.64555603  0.71486931  1
  Li  Li62  1  0.29908472  0.17741816  0.55225842  1
  Li  Li63  1  0.11150007  0.79058194  0.21270546  1
  Li  Li64  1  0.39224545  0.10178455  0.82155861  1
  Li  Li65  1  0.55942595  0.27719032  0.49915044  1
  Li  Li66  1  0.12095525  0.71987515  0.92990785  1
  Li  Li67  1  0.27111242  0.33363812  0.03560604  1
  O  O68  1  0.24288184  0.17788198  0.16944198  1
  O  O69  1  0.19558015  0.69385864  0.36698401  1
  O  O70  1  0.06097007  0.45589962  0.21425085  1
  O  O71  1  0.56728950  0.21510216  0.15007083  1
  O  O72  1  0.49127163  0.09503574  0.50340494  1
  O  O73  1  0.11704199  0.24172713  0.44699127  1
  O  O74  1  0.57182358  0.49464001  0.91728793  1
  O  O75  1  0.73489003  0.29122097  0.38113279  1
  O  O76  1  0.35598374  0.51598330  0.12438152  1
  O  O77  1  0.06811314  0.51741308  0.90813510  1
  O  O78  1  0.67533887  0.57941928  0.23999397  1
  O  O79  1  0.83251305  0.34813512  0.03583918  1
  O  O80  1  0.12000355  0.85542559  0.05102307  1
  O  O81  1  0.96094998  0.99328652  0.48271710  1
  O  O82  1  0.02864663  0.78807957  0.76520763  1
  O  O83  1  0.93737287  0.10967487  0.21876155  1
  O  O84  1  0.58808492  0.39203082  0.63175880  1
  O  O85  1  0.41613137  0.99363643  0.98276757  1
  O  O86  1  0.74314245  0.65737573  0.75052426  1
  O  O87  1  0.60586740  0.17797381  0.84636321  1
  O  O88  1  0.02770501  0.11613262  0.92816542  1
  O  O89  1  0.29545951  0.26759180  0.86686965  1
  O  O90  1  0.41136757  0.37446444  0.38260659  1
  O  O91  1  0.91492418  0.25723461  0.68848012  1
  O  O92  1  0.45888143  0.85468888  0.25813699  1
  O  O93  1  0.76243618  0.98814754  0.70908683  1
  O  O94  1  0.22564172  0.03891467  0.67658217  1
  O  O95  1  0.92019375  0.77624113  0.25366083  1
  O  O96  1  0.93405692  0.53036194  0.48297015  1
  O  O97  1  0.72797108  0.83014550  0.99639506  1
  O  O98  1  0.31383465  0.71278790  0.86276574  1
  O  O99  1  0.70586754  0.78214074  0.46864549  1
  O  O100  1  0.24989683  0.52570006  0.63811816  1
  O  O101  1  0.40397513  0.78733835  0.58172287  1
