# generated using pymatgen
data_Li9Mn2Co5O16
_symmetry_space_group_name_H-M   'P 1'
_cell_length_a   2.97465700
_cell_length_b   8.08020735
_cell_length_c   11.93095500
_cell_angle_alpha   90.65619024
_cell_angle_beta   94.18312944
_cell_angle_gamma   91.02038900
_symmetry_Int_Tables_number   1
_chemical_formula_structural   Li9Mn2Co5O16
_chemical_formula_sum   'Li9 Mn2 Co5 O16'
_cell_volume   285.93789624
_cell_formula_units_Z   1
loop_
 _symmetry_equiv_pos_site_id
 _symmetry_equiv_pos_as_xyz
  1  'x, y, z'
loop_
 _atom_site_type_symbol
 _atom_site_label
 _atom_site_symmetry_multiplicity
 _atom_site_fract_x
 _atom_site_fract_y
 _atom_site_fract_z
 _atom_site_occupancy
  Li  Li0  1  0.99261900  0.00915000  0.24991100  1
  Li  Li1  1  0.49926400  0.74921700  0.62562600  1
  Li  Li2  1  0.99939800  0.49023300  0.00277900  1
  Li  Li3  1  0.50411400  0.25272100  0.37502000  1
  Li  Li4  1  0.00423600  0.00130400  0.74652300  1
  Li  Li5  1  0.50434200  0.74585600  0.12408200  1
  Li  Li6  1  0.00198100  0.49673500  0.50088100  1
  Li  Li7  1  0.49358300  0.25424200  0.88061300  1
  Li  Li8  1  0.50730800  0.25460800  0.11896100  1
  Mn  Mn9  1  0.99772900  0.00722800  0.00269800  1
  Mn  Mn10  1  0.50314200  0.74927900  0.37469100  1
  Co  Co11  1  0.99817400  0.49972100  0.75016400  1
  Co  Co12  1  0.99784800  0.00152100  0.50113200  1
  Co  Co13  1  0.48894600  0.74747400  0.87627700  1
  Co  Co14  1  0.00754600  0.48811900  0.24435800  1
  Co  Co15  1  0.49947900  0.25063400  0.62565900  1
  O  O16  1  0.52256900  0.99923200  0.10967700  1
  O  O17  1  0.97413200  0.76315600  0.49812400  1
  O  O18  1  0.47571300  0.51105900  0.86719300  1
  O  O19  1  0.99476700  0.27386300  0.25292300  1
  O  O20  1  0.47527700  0.01181500  0.62012500  1
  O  O21  1  0.96900400  0.75938600  0.99135400  1
  O  O22  1  0.47701700  0.50887200  0.37015500  1
  O  O23  1  0.97339900  0.26132600  0.74267600  1
  O  O24  1  0.52687200  0.99270600  0.37891200  1
  O  O25  1  0.02535100  0.73979000  0.75676800  1
  O  O26  1  0.52657900  0.50028000  0.13505400  1
  O  O27  1  0.02642400  0.23759200  0.50737800  1
  O  O28  1  0.47328400  0.98918100  0.88899700  1
  O  O29  1  0.02657100  0.73223500  0.25332500  1
  O  O30  1  0.52688800  0.48900800  0.63086800  1
  O  O31  1  0.00644700  0.23245500  0.99709200  1
