# generated using pymatgen
data_Li13Zn11Ge12
_symmetry_space_group_name_H-M   'P 1'
_cell_length_a   4.47128217
_cell_length_b   4.47128217
_cell_length_c   37.73431000
_cell_angle_alpha   90.00000000
_cell_angle_beta   90.00000000
_cell_angle_gamma   120.00000257
_symmetry_Int_Tables_number   1
_chemical_formula_structural   Li13Zn11Ge12
_chemical_formula_sum   'Li13 Zn11 Ge12'
_cell_volume   653.32787734
_cell_formula_units_Z   1
loop_
 _symmetry_equiv_pos_site_id
 _symmetry_equiv_pos_as_xyz
  1  'x, y, z'
loop_
 _atom_site_type_symbol
 _atom_site_label
 _atom_site_symmetry_multiplicity
 _atom_site_fract_x
 _atom_site_fract_y
 _atom_site_fract_z
 _atom_site_occupancy
  Li  Li0  1  0.00000000  0.00000000  0.74985700  1
  Li  Li1  1  0.00000000  0.00000000  0.50000000  1
  Li  Li2  1  0.00000000  0.00000000  0.25014300  1
  Li  Li3  1  0.00000000  0.00000000  0.00000000  1
  Li  Li4  1  0.66666700  0.33333300  0.00000000  1
  Li  Li5  1  0.00000000  0.00000000  0.66636100  1
  Li  Li6  1  0.00000000  0.00000000  0.41645900  1
  Li  Li7  1  0.00000000  0.00000000  0.16609400  1
  Li  Li8  1  0.00000000  0.00000000  0.91905700  1
  Li  Li9  1  0.00000000  0.00000000  0.83390600  1
  Li  Li10  1  0.00000000  0.00000000  0.58354100  1
  Li  Li11  1  0.00000000  0.00000000  0.33363900  1
  Li  Li12  1  0.00000000  0.00000000  0.08094300  1
  Zn  Zn13  1  0.33333300  0.66666700  0.82116600  1
  Zn  Zn14  1  0.33333300  0.66666700  0.57119700  1
  Zn  Zn15  1  0.33333300  0.66666700  0.32133600  1
  Zn  Zn16  1  0.33333300  0.66666700  0.06685000  1
  Zn  Zn17  1  0.33333300  0.66666700  0.67866400  1
  Zn  Zn18  1  0.33333300  0.66666700  0.42880300  1
  Zn  Zn19  1  0.33333300  0.66666700  0.17883400  1
  Zn  Zn20  1  0.33333300  0.66666700  0.93315000  1
  Zn  Zn21  1  0.66666700  0.33333300  0.74941200  1
  Zn  Zn22  1  0.66666700  0.33333300  0.50000000  1
  Zn  Zn23  1  0.66666700  0.33333300  0.25058800  1
  Ge  Ge24  1  0.66666700  0.33333300  0.84195400  1
  Ge  Ge25  1  0.66666700  0.33333300  0.59159000  1
  Ge  Ge26  1  0.66666700  0.33333300  0.34117000  1
  Ge  Ge27  1  0.66666700  0.33333300  0.09126600  1
  Ge  Ge28  1  0.66666700  0.33333300  0.65883000  1
  Ge  Ge29  1  0.66666700  0.33333300  0.40841000  1
  Ge  Ge30  1  0.66666700  0.33333300  0.15804600  1
  Ge  Ge31  1  0.66666700  0.33333300  0.90873400  1
  Ge  Ge32  1  0.33333300  0.66666700  0.75045500  1
  Ge  Ge33  1  0.33333300  0.66666700  0.50000000  1
  Ge  Ge34  1  0.33333300  0.66666700  0.24954500  1
  Ge  Ge35  1  0.33333300  0.66666700  0.00000000  1
