# generated using pymatgen
data_Sr2LiHg
_symmetry_space_group_name_H-M   'P 1'
_cell_length_a   13.50628345
_cell_length_b   13.50628345
_cell_length_c   13.50628345
_cell_angle_alpha   121.49752018
_cell_angle_beta   115.60717907
_cell_angle_gamma   92.59865831
_symmetry_Int_Tables_number   1
_chemical_formula_structural   Sr2LiHg
_chemical_formula_sum   'Sr2 Li1 Hg1'
_cell_volume   1772.75748974
_cell_formula_units_Z   1
loop_
 _symmetry_equiv_pos_site_id
 _symmetry_equiv_pos_as_xyz
  1  'x, y, z'
loop_
 _atom_site_type_symbol
 _atom_site_label
 _atom_site_symmetry_multiplicity
 _atom_site_fract_x
 _atom_site_fract_y
 _atom_site_fract_z
 _atom_site_occupancy
  Sr  Sr0  1  0.25140700  0.00000000  0.25140700  1
  Sr  Sr1  1  0.74859300  0.00000000  0.74859300  1
  Li  Li2  1  0.00000000  0.00000000  0.00000000  1
  Hg  Hg3  1  0.50000000  0.00000000  0.50000000  1
