# generated using pymatgen
data_Li7Mn5O12
_symmetry_space_group_name_H-M   'P 1'
_cell_length_a   6.93562748
_cell_length_b   7.63827334
_cell_length_c   9.79952559
_cell_angle_alpha   107.11835119
_cell_angle_beta   104.17318803
_cell_angle_gamma   64.60350179
_symmetry_Int_Tables_number   1
_chemical_formula_structural   Li7Mn5O12
_chemical_formula_sum   'Li14 Mn10 O24'
_cell_volume   443.94643560
_cell_formula_units_Z   2
loop_
 _symmetry_equiv_pos_site_id
 _symmetry_equiv_pos_as_xyz
  1  'x, y, z'
loop_
 _atom_site_type_symbol
 _atom_site_label
 _atom_site_symmetry_multiplicity
 _atom_site_fract_x
 _atom_site_fract_y
 _atom_site_fract_z
 _atom_site_occupancy
  Li  Li0  1  0.08376800  0.58338900  0.91669100  1
  Li  Li1  1  0.58333100  0.08327800  0.41648000  1
  Li  Li2  1  0.97612300  0.20588600  0.53920200  1
  Li  Li3  1  0.47226400  0.70898300  0.03627600  1
  Li  Li4  1  0.19081000  0.96018200  0.29402500  1
  Li  Li5  1  0.69347400  0.45805200  0.79692400  1
  Li  Li6  1  0.28952900  0.53695900  0.19371500  1
  Li  Li7  1  0.77500000  0.04765600  0.70948700  1
  Li  Li8  1  0.87791600  0.63021400  0.63964200  1
  Li  Li9  1  0.39121500  0.11839600  0.12378900  1
  Li  Li10  1  0.12020800  0.37113500  0.37769100  1
  Li  Li11  1  0.64373600  0.85977700  0.86980200  1
  Li  Li12  1  0.52230400  0.30679500  0.96327800  1
  Li  Li13  1  0.04687000  0.79598300  0.45613900  1
  Mn  Mn14  1  0.83335500  0.83236600  0.16689500  1
  Mn  Mn15  1  0.33321500  0.33388800  0.66611200  1
  Mn  Mn16  1  0.50072300  0.49741100  0.50074000  1
  Mn  Mn17  1  0.98997700  0.99832900  0.99832600  1
  Mn  Mn18  1  0.17523200  0.16858100  0.83534900  1
  Mn  Mn19  1  0.66703000  0.66911700  0.33234000  1
  Mn  Mn20  1  0.24159700  0.75031100  0.75309000  1
  Mn  Mn21  1  0.74065700  0.25169000  0.25321300  1
  Mn  Mn22  1  0.42643700  0.91449400  0.58002300  1
  Mn  Mn23  1  0.92493100  0.41718200  0.08059700  1
  O  O24  1  0.10221900  0.79026800  0.10832400  1
  O  O25  1  0.60607000  0.29098600  0.60724700  1
  O  O26  1  0.06509600  0.37536900  0.72550200  1
  O  O27  1  0.56020400  0.87593700  0.22558800  1
  O  O28  1  0.48079200  0.10357100  0.75200700  1
  O  O29  1  0.97877800  0.60696500  0.25789900  1
  O  O30  1  0.18763800  0.56026700  0.57549000  1
  O  O31  1  0.68608700  0.06268600  0.08125800  1
  O  O32  1  0.30615200  0.93325500  0.92515800  1
  O  O33  1  0.80901500  0.43209700  0.42128500  1
  O  O34  1  0.35778700  0.73480100  0.41188400  1
  O  O35  1  0.86056800  0.23343400  0.90842200  1
  O  O36  1  0.38851400  0.51893000  0.83988500  1
  O  O37  1  0.88487200  0.02338800  0.34148600  1
  O  O38  1  0.28174400  0.14310200  0.49194400  1
  O  O39  1  0.77792100  0.64828300  0.99344100  1
  O  O40  1  0.22989000  0.33751300  0.01254200  1
  O  O41  1  0.69679400  0.84939300  0.51685300  1
  O  O42  1  0.46986400  0.31768100  0.31651400  1
  O  O43  1  0.93613300  0.82925800  0.82095400  1
  O  O44  1  0.55932900  0.69015600  0.67313400  1
  O  O45  1  0.02077900  0.19675100  0.18421300  1
  O  O46  1  0.14585000  0.97011500  0.64941000  1
  O  O47  1  0.60820700  0.47573700  0.15974000  1
