# generated using pymatgen
data_Li4MnCo2O7
_symmetry_space_group_name_H-M   'P 1'
_cell_length_a   2.98593800
_cell_length_b   6.45147923
_cell_length_c   13.63284906
_cell_angle_alpha   83.33860970
_cell_angle_beta   86.16225969
_cell_angle_gamma   76.76705713
_symmetry_Int_Tables_number   1
_chemical_formula_structural   Li4MnCo2O7
_chemical_formula_sum   'Li8 Mn2 Co4 O14'
_cell_volume   253.69877000
_cell_formula_units_Z   2
loop_
 _symmetry_equiv_pos_site_id
 _symmetry_equiv_pos_as_xyz
  1  'x, y, z'
loop_
 _atom_site_type_symbol
 _atom_site_label
 _atom_site_symmetry_multiplicity
 _atom_site_fract_x
 _atom_site_fract_y
 _atom_site_fract_z
 _atom_site_occupancy
  Li  Li0  1  0.14694900  0.92406000  0.78563400  1
  Li  Li1  1  0.98473700  0.50102200  0.50839500  1
  Li  Li2  1  0.84855400  0.06843300  0.21401200  1
  Li  Li3  1  0.56232000  0.22954900  0.64334300  1
  Li  Li4  1  0.43090400  0.78578900  0.35640100  1
  Li  Li5  1  0.28433200  0.36151800  0.07012700  1
  Li  Li6  1  0.73129700  0.62863200  0.92780500  1
  Li  Li7  1  0.88648600  0.56257800  0.70824600  1
  Mn  Mn8  1  0.00315000  0.99987200  0.99929200  1
  Mn  Mn9  1  0.29530400  0.84940700  0.57525100  1
  Co  Co10  1  0.70279700  0.15720300  0.43026600  1
  Co  Co11  1  0.55304600  0.71287500  0.14362700  1
  Co  Co12  1  0.45006600  0.29516000  0.85012500  1
  Co  Co13  1  0.12666900  0.42813900  0.28334700  1
  O  O14  1  0.59920900  0.98497100  0.89265000  1
  O  O15  1  0.42788700  0.55777300  0.60323700  1
  O  O16  1  0.26124200  0.12209300  0.32568100  1
  O  O17  1  0.04651700  0.24850700  0.75955400  1
  O  O18  1  0.83327400  0.83978800  0.47582200  1
  O  O19  1  0.67785700  0.40912900  0.18077300  1
  O  O20  1  0.15706600  0.69148300  0.04057100  1
  O  O21  1  0.74905600  0.88898300  0.66451100  1
  O  O22  1  0.57157500  0.45570200  0.38742100  1
  O  O23  1  0.40196300  0.01801900  0.10682100  1
  O  O24  1  0.15783900  0.16511400  0.53152300  1
  O  O25  1  0.95596300  0.73605500  0.24673100  1
  O  O26  1  0.84770100  0.30492400  0.96061300  1
  O  O27  1  0.30624000  0.57322000  0.82822100  1
