# generated using pymatgen
data_Li6V3P8O29
_symmetry_space_group_name_H-M   'P 1'
_cell_length_a   9.82954800
_cell_length_b   9.84160627
_cell_length_c   13.92284695
_cell_angle_alpha   89.99928748
_cell_angle_beta   90.15200048
_cell_angle_gamma   119.94856570
_symmetry_Int_Tables_number   1
_chemical_formula_structural   Li6V3P8O29
_chemical_formula_sum   'Li12 V6 P16 O58'
_cell_volume   1167.02737739
_cell_formula_units_Z   2
loop_
 _symmetry_equiv_pos_site_id
 _symmetry_equiv_pos_as_xyz
  1  'x, y, z'
loop_
 _atom_site_type_symbol
 _atom_site_label
 _atom_site_symmetry_multiplicity
 _atom_site_fract_x
 _atom_site_fract_y
 _atom_site_fract_z
 _atom_site_occupancy
  Li  Li0  1  0.09439500  0.77568700  0.93741500  1
  Li  Li1  1  0.09416200  0.32141000  0.44015800  1
  Li  Li2  1  0.33371500  0.66722300  0.11772100  1
  Li  Li3  1  0.22579000  0.31891300  0.93700900  1
  Li  Li4  1  0.68059900  0.90720300  0.93712400  1
  Li  Li5  1  0.32225700  0.22452500  0.55848700  1
  Li  Li6  1  0.68029600  0.77190700  0.43978200  1
  Li  Li7  1  0.32469400  0.09626700  0.06121500  1
  Li  Li8  1  0.77351100  0.67806100  0.06009400  1
  Li  Li9  1  0.91034600  0.68169600  0.55949200  1
  Li  Li10  1  0.77138700  0.09508800  0.56044000  1
  Li  Li11  1  0.90459400  0.22626400  0.05943200  1
  V  V12  1  0.43241400  0.43127400  0.74921200  1
  V  V13  1  0.56604400  0.56548000  0.25029900  1
  V  V14  1  0.42974700  0.00032300  0.25526600  1
  V  V15  1  0.56601400  0.00024000  0.74789500  1
  V  V16  1  0.00058500  0.56876100  0.74912300  1
  V  V17  1  0.99779600  0.43452300  0.25110100  1
  P  P18  1  0.08947600  0.77037200  0.15958000  1
  P  P19  1  0.23052700  0.91449800  0.65800800  1
  P  P20  1  0.08782300  0.32020800  0.65841500  1
  P  P21  1  0.33389200  0.66651600  0.87464700  1
  P  P22  1  0.33232800  0.66551600  0.37241900  1
  P  P23  1  0.22825800  0.31830300  0.15723300  1
  P  P24  1  0.31976000  0.23201800  0.34146500  1
  P  P25  1  0.67899900  0.91081300  0.15756400  1
  P  P26  1  0.32070600  0.08774300  0.84294300  1
  P  P27  1  0.67940200  0.76716600  0.65862200  1
  P  P28  1  0.76763500  0.67894200  0.84214300  1
  P  P29  1  0.66718300  0.33399400  0.62723700  1
  P  P30  1  0.66559500  0.33321400  0.12733200  1
  P  P31  1  0.91262900  0.68218200  0.34444200  1
  P  P32  1  0.76871000  0.08752700  0.34248000  1
  P  P33  1  0.91105400  0.23254900  0.84133900  1
  O  O34  1  0.99605000  0.75765900  0.43501300  1
  O  O35  1  0.08516800  0.74723500  0.65947200  1
  O  O36  1  0.24160800  0.00306700  0.93425700  1
  O  O37  1  0.25460800  0.91905000  0.15885900  1
  O  O38  1  0.11141000  0.62557100  0.17358700  1
  O  O39  1  0.18775700  0.67534300  0.83612600  1
  O  O40  1  0.09857400  0.47972600  0.67648200  1
  O  O41  1  0.99838800  0.23856200  0.93181200  1
  O  O42  1  0.07901200  0.33186300  0.15612800  1
  O  O43  1  0.32797200  0.80780000  0.32707100  1
  O  O44  1  0.38188900  0.90427600  0.67664000  1
  O  O45  1  0.18240100  0.51208200  0.33075700  1
  O  O46  1  0.33302200  0.66568000  0.98345400  1
  O  O47  1  0.33610000  0.66083400  0.47916200  1
  O  O48  1  0.32469500  0.51189700  0.83611400  1
  O  O49  1  0.51464300  0.89199800  0.17310900  1
  O  O50  1  0.48744500  0.81228200  0.83639700  1
  O  O51  1  0.25239500  0.33627700  0.65867800  1
  O  O52  1  0.20990300  0.21117600  0.24904300  1
  O  O53  1  0.24031900  0.24248200  0.43083000  1
  O  O54  1  0.24458200  0.24206400  0.06758600  1
  O  O55  1  0.37208800  0.48469100  0.17357500  1
  O  O56  1  0.48386600  0.66597300  0.32995300  1
  O  O57  1  0.33579700  0.25293500  0.83938600  1
  O  O58  1  0.51973600  0.61813100  0.67730900  1
  O  O59  1  0.66387000  0.91573400  0.65853200  1
  O  O60  1  0.20714100  0.99420800  0.75428800  1
  O  O61  1  0.23929700  0.00757100  0.57245400  1
  O  O62  1  0.75575800  0.99666500  0.43221300  1
  O  O63  1  0.34004400  0.08678500  0.33833700  1
  O  O64  1  0.47882900  0.38176800  0.32574200  1
  O  O65  1  0.66416400  0.74706900  0.15629000  1
  O  O66  1  0.51248500  0.32580100  0.66747000  1
  O  O67  1  0.62020800  0.52065000  0.82556100  1
  O  O68  1  0.76145600  0.76050900  0.93226700  1
  O  O69  1  0.75678200  0.75535200  0.56859200  1
  O  O70  1  0.78940500  0.78948400  0.75053300  1
  O  O71  1  0.74851700  0.66737600  0.33846800  1
  O  O72  1  0.51558500  0.18671100  0.16714500  1
  O  O73  1  0.47949400  0.10001000  0.82557700  1
  O  O74  1  0.66900800  0.48649000  0.16757300  1
  O  O75  1  0.67149300  0.33663600  0.02014600  1
  O  O76  1  0.66691100  0.33379000  0.51987300  1
  O  O77  1  0.81347900  0.48841100  0.66775900  1
  O  O78  1  0.62135800  0.09993100  0.32273400  1
  O  O79  1  0.67481100  0.18658900  0.66677200  1
  O  O80  1  0.91748800  0.66395300  0.84031700  1
  O  O81  1  0.00177800  0.78963300  0.25036300  1
  O  O82  1  0.99971400  0.75727200  0.06882900  1
  O  O83  1  0.90113600  0.52179200  0.32556000  1
  O  O84  1  0.81796600  0.33408200  0.16895200  1
  O  O85  1  0.90121900  0.38066100  0.82461600  1
  O  O86  1  0.74618600  0.08323500  0.83872600  1
  O  O87  1  0.75826000  0.00210500  0.06811300  1
  O  O88  1  0.78713800  0.99820000  0.24980000  1
  O  O89  1  0.91734200  0.25009100  0.34227100  1
  O  O90  1  0.99856800  0.24165800  0.56818800  1
  O  O91  1  0.00030100  0.21055800  0.75006500  1
