# generated using pymatgen
data_Li3V(PO4)2
_symmetry_space_group_name_H-M   'P 1'
_cell_length_a   9.95426700
_cell_length_b   8.63753100
_cell_length_c   16.33244541
_cell_angle_alpha   64.72983172
_cell_angle_beta   90.00000000
_cell_angle_gamma   90.00000000
_symmetry_Int_Tables_number   1
_chemical_formula_structural   Li3V(PO4)2
_chemical_formula_sum   'Li24 V8 P16 O64'
_cell_volume   1269.88683591
_cell_formula_units_Z   8
loop_
 _symmetry_equiv_pos_site_id
 _symmetry_equiv_pos_as_xyz
  1  'x, y, z'
loop_
 _atom_site_type_symbol
 _atom_site_label
 _atom_site_symmetry_multiplicity
 _atom_site_fract_x
 _atom_site_fract_y
 _atom_site_fract_z
 _atom_site_occupancy
  Li  Li0  1  0.40171900  0.98087700  0.44432600  1
  Li  Li1  1  0.87806600  0.61999600  0.79129600  1
  Li  Li2  1  0.61713900  0.59810200  0.71859700  1
  Li  Li3  1  0.08633200  0.26462800  0.02106500  1
  Li  Li4  1  0.10212900  0.01263600  0.25544800  1
  Li  Li5  1  0.58435000  0.24987400  0.00429500  1
  Li  Li6  1  0.08435000  0.75012600  0.49570500  1
  Li  Li7  1  0.60212900  0.98736400  0.24455200  1
  Li  Li8  1  0.58633200  0.73537200  0.47893500  1
  Li  Li9  1  0.11713900  0.40189800  0.78140300  1
  Li  Li10  1  0.37806600  0.38000400  0.70870400  1
  Li  Li11  1  0.90171900  0.01912300  0.05567400  1
  Li  Li12  1  0.09828100  0.98087700  0.94432600  1
  Li  Li13  1  0.62193400  0.61999600  0.29129600  1
  Li  Li14  1  0.88286100  0.59810200  0.21859700  1
  Li  Li15  1  0.41366800  0.26462800  0.52106500  1
  Li  Li16  1  0.39787100  0.01263600  0.75544800  1
  Li  Li17  1  0.91565000  0.24987400  0.50429500  1
  Li  Li18  1  0.41565000  0.75012600  0.99570500  1
  Li  Li19  1  0.89787100  0.98736400  0.74455200  1
  Li  Li20  1  0.91366800  0.73537200  0.97893500  1
  Li  Li21  1  0.38286100  0.40189800  0.28140300  1
  Li  Li22  1  0.12193400  0.38000400  0.20870400  1
  Li  Li23  1  0.59828100  0.01912300  0.55567400  1
  V  V24  1  0.85168700  0.02629800  0.38572800  1
  V  V25  1  0.37918800  0.55972100  0.85915700  1
  V  V26  1  0.87918800  0.44027900  0.64084300  1
  V  V27  1  0.35168700  0.97370200  0.11427200  1
  V  V28  1  0.64831300  0.02629800  0.88572800  1
  V  V29  1  0.12081200  0.55972100  0.35915700  1
  V  V30  1  0.62081200  0.44027900  0.14084300  1
  V  V31  1  0.14831300  0.97370200  0.61427200  1
  P  P32  1  0.84791800  0.25135000  0.16307900  1
  P  P33  1  0.36649500  0.77902500  0.63554500  1
  P  P34  1  0.84555500  0.83436800  0.59703200  1
  P  P35  1  0.33633100  0.36948300  0.08709000  1
  P  P36  1  0.83633100  0.63051700  0.41291000  1
  P  P37  1  0.34555500  0.16563200  0.90296800  1
  P  P38  1  0.86649500  0.22097500  0.86445500  1
  P  P39  1  0.34791800  0.74865000  0.33692100  1
  P  P40  1  0.65208200  0.25135000  0.66307900  1
  P  P41  1  0.13350500  0.77902500  0.13554500  1
  P  P42  1  0.65444500  0.83436800  0.09703200  1
  P  P43  1  0.16366900  0.36948300  0.58709000  1
  P  P44  1  0.66366900  0.63051700  0.91291000  1
  P  P45  1  0.15444500  0.16563200  0.40296800  1
  P  P46  1  0.63350500  0.22097500  0.36445500  1
  P  P47  1  0.15208200  0.74865000  0.83692100  1
  O  O48  1  0.05771900  0.01714800  0.41625800  1
  O  O49  1  0.58456800  0.59153500  0.84154000  1
  O  O50  1  0.76485700  0.77531000  0.68577800  1
  O  O51  1  0.18696100  0.33652600  0.11001900  1
  O  O52  1  0.35813300  0.52087200  0.99234800  1
  O  O53  1  0.92220600  0.14610600  0.25616900  1
  O  O54  1  0.74911100  0.89843200  0.51376600  1
  O  O55  1  0.64761700  0.06290800  0.34202300  1
  O  O56  1  0.16028200  0.55631900  0.85088500  1
  O  O57  1  0.39915200  0.60689100  0.72081400  1
  O  O58  1  0.91911400  0.21585200  0.09082800  1
  O  O59  1  0.69490800  0.20414900  0.16607800  1
  O  O60  1  0.48027700  0.81278800  0.56697000  1
  O  O61  1  0.22201400  0.76593800  0.60036000  1
  O  O62  1  0.93089000  0.68221000  0.59872000  1
  O  O63  1  0.40671100  0.20604400  0.09000000  1
  O  O64  1  0.90671100  0.79395600  0.41000000  1
  O  O65  1  0.43089000  0.31779000  0.90128000  1
  O  O66  1  0.72201400  0.23406200  0.89964000  1
  O  O67  1  0.19490800  0.79585100  0.33392200  1
  O  O68  1  0.98027700  0.18721200  0.93303000  1
  O  O69  1  0.41911400  0.78414800  0.40917200  1
  O  O70  1  0.89915200  0.39310900  0.77918600  1
  O  O71  1  0.66028200  0.44368100  0.64911500  1
  O  O72  1  0.14761700  0.93709200  0.15797700  1
  O  O73  1  0.24911100  0.10156800  0.98623400  1
  O  O74  1  0.42220600  0.85389400  0.24383100  1
  O  O75  1  0.68696100  0.66347400  0.38998100  1
  O  O76  1  0.85813300  0.47912800  0.50765200  1
  O  O77  1  0.26485700  0.22469000  0.81422200  1
  O  O78  1  0.55771900  0.98285200  0.08374200  1
  O  O79  1  0.08456800  0.40846500  0.65846000  1
  O  O80  1  0.91543200  0.59153500  0.34154000  1
  O  O81  1  0.44228100  0.01714800  0.91625800  1
  O  O82  1  0.73514300  0.77531000  0.18577800  1
  O  O83  1  0.14186700  0.52087200  0.49234800  1
  O  O84  1  0.31303900  0.33652600  0.61001900  1
  O  O85  1  0.57779400  0.14610600  0.75616900  1
  O  O86  1  0.75088900  0.89843200  0.01376600  1
  O  O87  1  0.85238300  0.06290800  0.84202300  1
  O  O88  1  0.33971800  0.55631900  0.35088500  1
  O  O89  1  0.10084800  0.60689100  0.22081400  1
  O  O90  1  0.58088600  0.21585200  0.59082800  1
  O  O91  1  0.01972300  0.81278800  0.06697000  1
  O  O92  1  0.80509200  0.20414900  0.66607800  1
  O  O93  1  0.27798600  0.76593800  0.10036000  1
  O  O94  1  0.56911000  0.68221000  0.09872000  1
  O  O95  1  0.09328900  0.20604400  0.59000000  1
  O  O96  1  0.59328900  0.79395600  0.91000000  1
  O  O97  1  0.06911000  0.31779000  0.40128000  1
  O  O98  1  0.77798600  0.23406200  0.39964000  1
  O  O99  1  0.51972300  0.18721200  0.43303000  1
  O  O100  1  0.30509200  0.79585100  0.83392200  1
  O  O101  1  0.08088600  0.78414800  0.90917200  1
  O  O102  1  0.60084800  0.39310900  0.27918600  1
  O  O103  1  0.83971800  0.44368100  0.14911500  1
  O  O104  1  0.35238300  0.93709200  0.65797700  1
  O  O105  1  0.25088900  0.10156800  0.48623400  1
  O  O106  1  0.07779400  0.85389400  0.74383100  1
  O  O107  1  0.64186700  0.47912800  0.00765200  1
  O  O108  1  0.81303900  0.66347400  0.88998100  1
  O  O109  1  0.23514300  0.22469000  0.31422200  1
  O  O110  1  0.41543200  0.40846500  0.15846000  1
  O  O111  1  0.94228100  0.98285200  0.58374200  1
