# generated using pymatgen
data_Li3V2P4(HO8)2
_symmetry_space_group_name_H-M   'P 1'
_cell_length_a   7.88652600
_cell_length_b   8.07557415
_cell_length_c   13.76384873
_cell_angle_alpha   89.66755920
_cell_angle_beta   79.84058306
_cell_angle_gamma   89.91857835
_symmetry_Int_Tables_number   1
_chemical_formula_structural   Li3V2P4(HO8)2
_chemical_formula_sum   'Li9 V6 P12 H6 O48'
_cell_volume   862.83619021
_cell_formula_units_Z   3
loop_
 _symmetry_equiv_pos_site_id
 _symmetry_equiv_pos_as_xyz
  1  'x, y, z'
loop_
 _atom_site_type_symbol
 _atom_site_label
 _atom_site_symmetry_multiplicity
 _atom_site_fract_x
 _atom_site_fract_y
 _atom_site_fract_z
 _atom_site_occupancy
  Li  Li0  1  0.97583700  0.86738200  0.17930100  1
  Li  Li1  1  0.69680300  0.12881400  0.14741700  1
  Li  Li2  1  0.20222600  0.36586000  0.15177300  1
  Li  Li3  1  0.64010600  0.86935200  0.51489800  1
  Li  Li4  1  0.36327600  0.13654800  0.48361900  1
  Li  Li5  1  0.12984400  0.63784300  0.51702100  1
  Li  Li6  1  0.80244000  0.62915500  0.85026000  1
  Li  Li7  1  0.52898200  0.37239400  0.81807000  1
  Li  Li8  1  0.29853700  0.86728700  0.84787300  1
  V  V9  1  0.82265500  0.50154800  0.16542200  1
  V  V10  1  0.33580400  0.99275900  0.16953900  1
  V  V11  1  0.50401700  0.50302000  0.50022400  1
  V  V12  1  0.99837600  0.00874300  0.49920000  1
  V  V13  1  0.67748900  0.00242600  0.83405300  1
  V  V14  1  0.16417100  0.49567900  0.83228300  1
  P  P15  1  0.72608300  0.84699300  0.04445900  1
  P  P16  1  0.21421300  0.64977200  0.04538000  1
  P  P17  1  0.94680600  0.15710000  0.28889900  1
  P  P18  1  0.88244600  0.65519700  0.37678400  1
  P  P19  1  0.44610800  0.35098300  0.28799800  1
  P  P20  1  0.38856300  0.85117200  0.38011600  1
  P  P21  1  0.61076900  0.15848900  0.62432600  1
  P  P22  1  0.55632400  0.65500300  0.71245100  1
  P  P23  1  0.11592800  0.35097300  0.62173300  1
  P  P24  1  0.05329900  0.85012100  0.71207200  1
  P  P25  1  0.77377700  0.34636500  0.95576300  1
  P  P26  1  0.28722300  0.14981400  0.95446300  1
  H  H27  1  0.47372500  0.50680500  0.00867000  1
  H  H28  1  0.68174700  0.01268800  0.32823100  1
  H  H29  1  0.14968000  0.51014300  0.33855800  1
  H  H30  1  0.85530200  0.49475400  0.65958200  1
  H  H31  1  0.34281100  0.00828800  0.66318900  1
  H  H32  1  0.02787000  0.00824200  0.99072800  1
  O  O33  1  0.88360300  0.94562300  0.06366500  1
  O  O34  1  0.78249500  0.32757700  0.06843300  1
  O  O35  1  0.73065400  0.67089700  0.08877100  1
  O  O36  1  0.56716900  0.94640500  0.09361300  1
  O  O37  1  0.37070200  0.54306100  0.06410300  1
  O  O38  1  0.94823800  0.32489400  0.23424600  1
  O  O39  1  0.28966900  0.16945900  0.06549900  1
  O  O40  1  0.87669500  0.67401200  0.26532700  1
  O  O41  1  0.20999600  0.81512200  0.09862000  1
  O  O42  1  0.78039600  0.06144800  0.27053900  1
  O  O43  1  0.05548400  0.54324500  0.09570500  1
  O  O44  1  0.61187400  0.45416800  0.24075400  1
  O  O45  1  0.46102100  0.18393400  0.23419500  1
  O  O46  1  0.95249600  0.17551900  0.39844400  1
  O  O47  1  0.37650200  0.82936900  0.27097900  1
  O  O48  1  0.28100400  0.43894800  0.27381000  1
  O  O49  1  0.87617100  0.82076300  0.43079500  1
  O  O50  1  0.09663100  0.04838000  0.23657200  1
  O  O51  1  0.72013700  0.55319700  0.42543100  1
  O  O52  1  0.55111700  0.94509800  0.39768600  1
  O  O53  1  0.46013400  0.33152800  0.39955500  1
  O  O54  1  0.38143300  0.68020600  0.43442000  1
  O  O55  1  0.95731000  0.45523100  0.60347200  1
  O  O56  1  0.23382800  0.95762100  0.43081800  1
  O  O57  1  0.76201000  0.05238500  0.57330600  1
  O  O58  1  0.04978000  0.56537100  0.39377600  1
  O  O59  1  0.60011000  0.32915100  0.57559100  1
  O  O60  1  0.54900300  0.67627300  0.59968000  1
  O  O61  1  0.44730300  0.05915200  0.60639300  1
  O  O62  1  0.27426100  0.45843000  0.56801100  1
  O  O63  1  0.88715300  0.95402800  0.75922000  1
  O  O64  1  0.12253300  0.18585000  0.56809200  1
  O  O65  1  0.71630900  0.55866800  0.73012200  1
  O  O66  1  0.61912100  0.17715400  0.73539300  1
  O  O67  1  0.04125000  0.83082500  0.60160100  1
  O  O68  1  0.55055200  0.82657900  0.76355100  1
  O  O69  1  0.39829800  0.55147400  0.75999800  1
  O  O70  1  0.93236900  0.44643900  0.90665000  1
  O  O71  1  0.21677400  0.93992000  0.72753500  1
  O  O72  1  0.76937600  0.17078600  0.91191800  1
  O  O73  1  0.12691500  0.33235100  0.73044300  1
  O  O74  1  0.71852500  0.82810900  0.93200700  1
  O  O75  1  0.03871200  0.68377300  0.76748600  1
  O  O76  1  0.61546100  0.44494900  0.93728300  1
  O  O77  1  0.44519400  0.04243800  0.90474300  1
  O  O78  1  0.29209900  0.31567200  0.90067800  1
  O  O79  1  0.21075500  0.67092600  0.93445800  1
  O  O80  1  0.13019700  0.04421700  0.93550200  1
