# generated using pymatgen
data_Li3MnV4O12
_symmetry_space_group_name_H-M   'P 1'
_cell_length_a   7.78366268
_cell_length_b   10.33603169
_cell_length_c   7.78366835
_cell_angle_alpha   101.79221916
_cell_angle_beta   75.03609589
_cell_angle_gamma   69.25500517
_symmetry_Int_Tables_number   1
_chemical_formula_structural   Li3MnV4O12
_chemical_formula_sum   'Li6 Mn2 V8 O24'
_cell_volume   534.56615301
_cell_formula_units_Z   2
loop_
 _symmetry_equiv_pos_site_id
 _symmetry_equiv_pos_as_xyz
  1  'x, y, z'
loop_
 _atom_site_type_symbol
 _atom_site_label
 _atom_site_symmetry_multiplicity
 _atom_site_fract_x
 _atom_site_fract_y
 _atom_site_fract_z
 _atom_site_occupancy
  Li  Li0  1  0.12463173  0.38022162  0.26663286  1
  Li  Li1  1  0.11360676  0.86974907  0.74510176  1
  Li  Li2  1  0.24295054  0.12502177  0.88207989  1
  Li  Li3  1  0.22100817  0.62500103  0.40394268  1
  Li  Li4  1  0.77418995  0.37094220  0.58569809  1
  Li  Li5  1  0.78517829  0.87904639  0.10488101  1
  Mn  Mn6  1  0.90974124  0.62495502  0.71529246  1
  Mn  Mn7  1  0.90727528  0.12498967  0.21771629  1
  V  V8  1  0.20441090  0.58852918  0.98342477  1
  V  V9  1  0.20432618  0.08991883  0.48569149  1
  V  V10  1  0.60422795  0.16007617  0.95573153  1
  V  V11  1  0.60512630  0.66152427  0.45701892  1
  V  V12  1  0.39047449  0.34536486  0.53741566  1
  V  V13  1  0.39032415  0.84418784  0.04520769  1
  V  V14  1  0.80804450  0.90462568  0.51414943  1
  V  V15  1  0.79896092  0.40584372  0.01551693  1
  O  O16  1  0.01455651  0.69895953  0.92995983  1
  O  O17  1  0.02334860  0.20029250  0.42206728  1
  O  O18  1  0.77818903  0.04968747  0.02636045  1
  O  O19  1  0.76907068  0.55104407  0.53637061  1
  O  O20  1  0.12025094  0.55653225  0.18622140  1
  O  O21  1  0.10955089  0.04726070  0.67528554  1
  O  O22  1  0.37203497  0.20267837  0.09306188  1
  O  O23  1  0.37036650  0.69344942  0.57314370  1
  O  O24  1  0.19528713  0.46549084  0.49194970  1
  O  O25  1  0.21571870  0.96636418  0.98902254  1
  O  O26  1  0.97355229  0.78448852  0.58924811  1
  O  O27  1  0.97728020  0.28366844  0.06798149  1
  O  O28  1  0.34240494  0.42365961  0.79670219  1
  O  O29  1  0.35586040  0.92227161  0.28508043  1
  O  O30  1  0.63715448  0.32776383  0.97198351  1
  O  O31  1  0.62691904  0.82642631  0.48399942  1
  O  O32  1  0.34667809  0.17686370  0.54489158  1
  O  O33  1  0.36216457  0.67793734  0.01805817  1
  O  O34  1  0.63203798  0.07317248  0.72639380  1
  O  O35  1  0.65990832  0.57212701  0.20983285  1
  O  O36  1  0.63704574  0.30047040  0.41852595  1
  O  O37  1  0.62496019  0.80501926  0.91593634  1
  O  O38  1  0.88205922  0.94945658  0.31244050  1
  O  O39  1  0.88912322  0.44491825  0.81998526  1
