# generated using pymatgen
data_Li3Mn2CoO6
_symmetry_space_group_name_H-M   'P 1'
_cell_length_a   2.99336823
_cell_length_b   2.99336823
_cell_length_c   14.69366500
_cell_angle_alpha   90.00000000
_cell_angle_beta   90.00000000
_cell_angle_gamma   120.00000515
_symmetry_Int_Tables_number   1
_chemical_formula_structural   Li3Mn2CoO6
_chemical_formula_sum   'Li3 Mn2 Co1 O6'
_cell_volume   114.01999934
_cell_formula_units_Z   1
loop_
 _symmetry_equiv_pos_site_id
 _symmetry_equiv_pos_as_xyz
  1  'x, y, z'
loop_
 _atom_site_type_symbol
 _atom_site_label
 _atom_site_symmetry_multiplicity
 _atom_site_fract_x
 _atom_site_fract_y
 _atom_site_fract_z
 _atom_site_occupancy
  Li  Li0  1  0.00000000  0.00000000  0.50000000  1
  Li  Li1  1  0.33333300  0.66666700  0.84521100  1
  Li  Li2  1  0.66666700  0.33333300  0.15478900  1
  Mn  Mn3  1  0.33333300  0.66666700  0.33241700  1
  Mn  Mn4  1  0.66666700  0.33333300  0.66758300  1
  Co  Co5  1  0.00000000  0.00000000  0.00000000  1
  O  O6  1  0.00000000  0.00000000  0.73910600  1
  O  O7  1  0.33333300  0.66666700  0.07814100  1
  O  O8  1  0.66666700  0.33333300  0.40914900  1
  O  O9  1  0.00000000  0.00000000  0.26089400  1
  O  O10  1  0.33333300  0.66666700  0.59085100  1
  O  O11  1  0.66666700  0.33333300  0.92185900  1
