# generated using pymatgen
data_Li7Mn5O12
_symmetry_space_group_name_H-M   'P 1'
_cell_length_a   6.02359590
_cell_length_b   10.09205250
_cell_length_c   8.20870062
_cell_angle_alpha   66.79377922
_cell_angle_beta   89.37225155
_cell_angle_gamma   103.69877328
_symmetry_Int_Tables_number   1
_chemical_formula_structural   Li7Mn5O12
_chemical_formula_sum   'Li14 Mn10 O24'
_cell_volume   442.54217384
_cell_formula_units_Z   2
loop_
 _symmetry_equiv_pos_site_id
 _symmetry_equiv_pos_as_xyz
  1  'x, y, z'
loop_
 _atom_site_type_symbol
 _atom_site_label
 _atom_site_symmetry_multiplicity
 _atom_site_fract_x
 _atom_site_fract_y
 _atom_site_fract_z
 _atom_site_occupancy
  Li  Li0  1  0.16672400  0.33329100  0.83333100  1
  Li  Li1  1  0.16665800  0.83327000  0.33332500  1
  Li  Li2  1  0.66674400  0.33326900  0.83335000  1
  Li  Li3  1  0.66676200  0.83328600  0.33335700  1
  Li  Li4  1  0.16659900  0.33335300  0.33333300  1
  Li  Li5  1  0.16657200  0.83334100  0.83334700  1
  Li  Li6  1  0.51420200  0.51173900  0.00038900  1
  Li  Li7  1  0.49640400  0.99979700  0.50403000  1
  Li  Li8  1  0.83700400  0.66689800  0.16250300  1
  Li  Li9  1  0.81925500  0.15493400  0.66618700  1
  Li  Li10  1  0.00283100  0.49822600  0.00791400  1
  Li  Li11  1  0.00709200  0.99258300  0.51152800  1
  Li  Li12  1  0.32632300  0.67401300  0.15518200  1
  Li  Li13  1  0.33057600  0.16841200  0.65871300  1
  Mn  Mn14  1  0.66684700  0.83325200  0.83338600  1
  Mn  Mn15  1  0.66674000  0.33340200  0.33314600  1
  Mn  Mn16  1  0.99751900  0.99479300  0.00158400  1
  Mn  Mn17  1  0.99537600  0.49596100  0.50062800  1
  Mn  Mn18  1  0.33799800  0.17075000  0.16611700  1
  Mn  Mn19  1  0.33575500  0.67187300  0.66504300  1
  Mn  Mn20  1  0.49183100  0.99651300  0.99714000  1
  Mn  Mn21  1  0.48845900  0.49642600  0.50022500  1
  Mn  Mn22  1  0.84489900  0.17036500  0.16637600  1
  Mn  Mn23  1  0.84148400  0.67012600  0.66959400  1
  O  O24  1  0.84797600  0.16252000  0.93353800  1
  O  O25  1  0.80314200  0.64284100  0.43938700  1
  O  O26  1  0.48536900  0.50414700  0.73312000  1
  O  O27  1  0.53026400  0.02386900  0.22733800  1
  O  O28  1  0.34795400  0.16139000  0.92960800  1
  O  O29  1  0.34756000  0.65971000  0.42590900  1
  O  O30  1  0.98538600  0.50530300  0.73713100  1
  O  O31  1  0.98580800  0.00694400  0.24074400  1
  O  O32  1  0.14501800  0.31019700  0.09520900  1
  O  O33  1  0.18120900  0.82650300  0.57785000  1
  O  O34  1  0.15209000  0.84016200  0.08877500  1
  O  O35  1  0.18827500  0.35647300  0.57146500  1
  O  O36  1  0.68919000  0.33272200  0.09740500  1
  O  O37  1  0.68803800  0.83203400  0.59839600  1
  O  O38  1  0.64513300  0.83463700  0.06829200  1
  O  O39  1  0.64414100  0.33394100  0.56933700  1
  O  O40  1  0.50863700  0.49075800  0.26739300  1
  O  O41  1  0.50994700  0.99199600  0.76231200  1
  O  O42  1  0.82314100  0.67474100  0.90435600  1
  O  O43  1  0.82472200  0.17592000  0.39930300  1
  O  O44  1  0.96572700  0.48380500  0.27192500  1
  O  O45  1  0.96698600  0.98567500  0.76800300  1
  O  O46  1  0.36607900  0.68095800  0.89866800  1
  O  O47  1  0.36755400  0.18288200  0.39480500  1
