# generated using pymatgen
data_Li7V3P8O29
_symmetry_space_group_name_H-M   'P 1'
_cell_length_a   9.81809000
_cell_length_b   9.84262967
_cell_length_c   13.87419370
_cell_angle_alpha   89.80588568
_cell_angle_beta   89.89805915
_cell_angle_gamma   60.15534431
_symmetry_Int_Tables_number   1
_chemical_formula_structural   Li7V3P8O29
_chemical_formula_sum   'Li14 V6 P16 O58'
_cell_volume   1162.92509406
_cell_formula_units_Z   2
loop_
 _symmetry_equiv_pos_site_id
 _symmetry_equiv_pos_as_xyz
  1  'x, y, z'
loop_
 _atom_site_type_symbol
 _atom_site_label
 _atom_site_symmetry_multiplicity
 _atom_site_fract_x
 _atom_site_fract_y
 _atom_site_fract_z
 _atom_site_occupancy
  Li  Li0  1  0.31785000  0.91066000  0.06272400  1
  Li  Li1  1  0.33472400  0.76546800  0.55962400  1
  Li  Li2  1  0.76288900  0.90328000  0.56133600  1
  Li  Li3  1  0.66117100  0.67170900  0.88363500  1
  Li  Li4  1  0.90887700  0.77341400  0.06448500  1
  Li  Li5  1  0.77721700  0.31403500  0.06326200  1
  Li  Li6  1  0.09902000  0.66568300  0.43558800  1
  Li  Li7  1  0.90106800  0.33677400  0.55896300  1
  Li  Li8  1  0.22928000  0.67679700  0.94302600  1
  Li  Li9  1  0.09455000  0.22556100  0.94190200  1
  Li  Li10  1  0.23433200  0.10125900  0.43695200  1
  Li  Li11  1  0.66197200  0.23734900  0.43869900  1
  Li  Li12  1  0.67790100  0.09473200  0.93901900  1
  Li  Li13  1  0.99991900  0.00826000  0.49637500  1
  V  V14  1  0.00009700  0.56617900  0.25061700  1
  V  V15  1  0.00256500  0.43420500  0.74929600  1
  V  V16  1  0.43506800  0.56388000  0.74904500  1
  V  V17  1  0.56302800  0.43562000  0.25066200  1
  V  V18  1  0.43316600  0.00178200  0.24969100  1
  V  V19  1  0.56735400  0.99867700  0.74901700  1
  P  P20  1  0.31928500  0.90814100  0.84292200  1
  P  P21  1  0.31544400  0.77300100  0.34149800  1
  P  P22  1  0.77178900  0.91409300  0.34365400  1
  P  P23  1  0.66356300  0.66823800  0.12664600  1
  P  P24  1  0.66819800  0.66347400  0.62613400  1
  P  P25  1  0.91178100  0.76860100  0.84371600  1
  P  P26  1  0.08630900  0.68677800  0.65644000  1
  P  P27  1  0.77124700  0.31986900  0.84249400  1
  P  P28  1  0.23089300  0.68252700  0.15681500  1
  P  P29  1  0.91184900  0.31218700  0.34308300  1
  P  P30  1  0.08962300  0.23121100  0.15876300  1
  P  P31  1  0.33517100  0.33319600  0.37388800  1
  P  P32  1  0.33418900  0.33467900  0.87287800  1
  P  P33  1  0.22730600  0.08748400  0.65679300  1
  P  P34  1  0.68696200  0.22792400  0.65637900  1
  P  P35  1  0.68110000  0.08926300  0.15737400  1
  O  O36  1  0.21990000  0.99973900  0.56812800  1
  O  O37  1  0.33665400  0.91902000  0.34173200  1
  O  O38  1  0.24795000  0.75982200  0.06701100  1
  O  O39  1  0.32825000  0.74682400  0.84308500  1
  O  O40  1  0.48648800  0.88113800  0.82802400  1
  O  O41  1  0.51004100  0.81435900  0.16583000  1
  O  O42  1  0.61792300  0.91024900  0.33031600  1
  O  O43  1  0.75882200  0.99869600  0.06718200  1
  O  O44  1  0.75103400  0.91726000  0.84642700  1
  O  O45  1  0.51379500  0.67133100  0.67084300  1
  O  O46  1  0.47318500  0.62142900  0.33107800  1
  O  O47  1  0.67914200  0.80665600  0.66278700  1
  O  O48  1  0.65786700  0.66300600  0.01800800  1
  O  O49  1  0.66247500  0.65433000  0.51908300  1
  O  O50  1  0.80955200  0.67465700  0.16177700  1
  O  O51  1  0.62684600  0.48615700  0.82660100  1
  O  O52  1  0.66734200  0.51583000  0.16935600  1
  O  O53  1  0.91688800  0.75131000  0.34499900  1
  O  O54  1  0.00087800  0.78872900  0.75132600  1
  O  O55  1  0.99754400  0.77803400  0.56761400  1
  O  O56  1  0.00768400  0.74592100  0.93289000  1
  O  O57  1  0.88724100  0.62568900  0.82507000  1
  O  O58  1  0.81466200  0.50981900  0.66910700  1
  O  O59  1  0.08112900  0.67221300  0.15661400  1
  O  O60  1  0.90534500  0.46835600  0.33433600  1
  O  O61  1  0.74742400  0.32815500  0.34197800  1
  O  O62  1  0.20948400  0.79450900  0.24865100  1
  O  O63  1  0.22427300  0.77713400  0.43144600  1
  O  O64  1  0.77636900  0.22989200  0.56723200  1
  O  O65  1  0.25231600  0.66580200  0.65633200  1
  O  O66  1  0.08902100  0.52957400  0.66682500  1
  O  O67  1  0.92029300  0.33495800  0.84440800  1
  O  O68  1  0.19214100  0.48819400  0.33818600  1
  O  O69  1  0.10587300  0.37441000  0.17322500  1
  O  O70  1  0.00184400  0.23521500  0.06832000  1
  O  O71  1  0.00062100  0.21584900  0.43214200  1
  O  O72  1  0.00055300  0.20599200  0.24956900  1
  O  O73  1  0.07883700  0.25200300  0.65874200  1
  O  O74  1  0.33270000  0.48469500  0.82663300  1
  O  O75  1  0.37799000  0.52215000  0.17441200  1
  O  O76  1  0.18356200  0.33399600  0.82851000  1
  O  O77  1  0.32015100  0.35078400  0.97942900  1
  O  O78  1  0.35042900  0.32283100  0.48126000  1
  O  O79  1  0.32446400  0.18915400  0.33244900  1
  O  O80  1  0.52909300  0.37992900  0.66881600  1
  O  O81  1  0.49000400  0.32577600  0.32952700  1
  O  O82  1  0.25467700  0.07958400  0.16002100  1
  O  O83  1  0.21053900  0.99904700  0.75114700  1
  O  O84  1  0.24068200  0.00223300  0.93207800  1
  O  O85  1  0.37692600  0.09471600  0.66664500  1
  O  O86  1  0.48422500  0.18795300  0.83674100  1
  O  O87  1  0.52039600  0.10114100  0.17572700  1
  O  O88  1  0.66609100  0.25207200  0.15671200  1
  O  O89  1  0.75548900  0.24292400  0.93221300  1
  O  O90  1  0.79158600  0.21260400  0.75063600  1
  O  O91  1  0.67239200  0.08066000  0.65706100  1
  O  O92  1  0.77037400  0.00524600  0.43268100  1
  O  O93  1  0.79069800  0.00064900  0.24946800  1
