# generated using pymatgen
data_Li5V3P8O29
_symmetry_space_group_name_H-M   'P 1'
_cell_length_a   9.81043100
_cell_length_b   9.82236653
_cell_length_c   14.14924794
_cell_angle_alpha   89.55796356
_cell_angle_beta   89.25304513
_cell_angle_gamma   60.24782563
_symmetry_Int_Tables_number   1
_chemical_formula_structural   Li5V3P8O29
_chemical_formula_sum   'Li10 V6 P16 O58'
_cell_volume   1183.61373046
_cell_formula_units_Z   2
loop_
 _symmetry_equiv_pos_site_id
 _symmetry_equiv_pos_as_xyz
  1  'x, y, z'
loop_
 _atom_site_type_symbol
 _atom_site_label
 _atom_site_symmetry_multiplicity
 _atom_site_fract_x
 _atom_site_fract_y
 _atom_site_fract_z
 _atom_site_occupancy
  Li  Li0  1  0.90992200  0.77041900  0.44258100  1
  Li  Li1  1  0.31023300  0.91683200  0.43878900  1
  Li  Li2  1  0.67740500  0.66869600  0.10773300  1
  Li  Li3  1  0.32371600  0.76865600  0.93843800  1
  Li  Li4  1  0.91095400  0.32218700  0.93534700  1
  Li  Li5  1  0.22653900  0.68519400  0.55878300  1
  Li  Li6  1  0.77816400  0.31252300  0.44554800  1
  Li  Li7  1  0.66717100  0.23221900  0.05598900  1
  Li  Li8  1  0.67730400  0.09379900  0.56643300  1
  Li  Li9  1  0.01497400  0.95450700  0.00017800  1
  V  V10  1  0.43435200  0.56686700  0.75144100  1
  V  V11  1  0.56742700  0.43227400  0.25306500  1
  V  V12  1  0.00145100  0.56350500  0.24497100  1
  V  V13  1  0.00363800  0.43316000  0.75089800  1
  V  V14  1  0.56795500  0.99478400  0.75490600  1
  V  V15  1  0.42898400  0.00787500  0.24733000  1
  P  P16  1  0.77764400  0.91496200  0.16079400  1
  P  P17  1  0.91412400  0.76722000  0.66011900  1
  P  P18  1  0.32051300  0.91300600  0.65626000  1
  P  P19  1  0.66597100  0.66234800  0.87235800  1
  P  P20  1  0.66506700  0.66992400  0.36866200  1
  P  P21  1  0.31974300  0.77427400  0.15866500  1
  P  P22  1  0.22872500  0.68200200  0.34010000  1
  P  P23  1  0.90980900  0.31529800  0.15395800  1
  P  P24  1  0.08420200  0.69265500  0.84239100  1
  P  P25  1  0.77225600  0.32132000  0.66014000  1
  P  P26  1  0.68231000  0.22764300  0.83956300  1
  P  P27  1  0.33864400  0.33321500  0.63333000  1
  P  P28  1  0.33657000  0.33393900  0.12873400  1
  P  P29  1  0.68158400  0.08505000  0.34503800  1
  P  P30  1  0.08328300  0.23017400  0.33667500  1
  P  P31  1  0.22200200  0.08287100  0.83906700  1
  O  O32  1  0.75092000  0.99947000  0.43575200  1
  O  O33  1  0.75010300  0.91519800  0.66188500  1
  O  O34  1  0.00916800  0.79759700  0.92432100  1
  O  O35  1  0.91039400  0.74511900  0.15923200  1
  O  O36  1  0.62005200  0.90999900  0.17078300  1
  O  O37  1  0.67285800  0.80377400  0.82967400  1
  O  O38  1  0.47861600  0.90542400  0.67798700  1
  O  O39  1  0.20366800  0.99165300  0.91862500  1
  O  O40  1  0.34453000  0.91875000  0.16859700  1
  O  O41  1  0.81598500  0.66680400  0.32548300  1
  O  O42  1  0.90055800  0.61955600  0.68069600  1
  O  O43  1  0.51774800  0.81955000  0.32551700  1
  O  O44  1  0.64931100  0.66362300  0.97853200  1
  O  O45  1  0.66134100  0.67459000  0.47366500  1
  O  O46  1  0.51047100  0.66938800  0.83172600  1
  O  O47  1  0.88980400  0.48162800  0.16818400  1
  O  O48  1  0.81083500  0.50707500  0.83769900  1
  O  O49  1  0.34186400  0.74356300  0.66485700  1
  O  O50  1  0.21143400  0.78967100  0.24909900  1
  O  O51  1  0.24440500  0.75703500  0.42817100  1
  O  O52  1  0.23591200  0.78470000  0.06951300  1
  O  O53  1  0.48212700  0.62621600  0.17156900  1
  O  O54  1  0.66700600  0.51798500  0.33083300  1
  O  O55  1  0.25987700  0.65744100  0.83578300  1
  O  O56  1  0.61935500  0.48005400  0.68101300  1
  O  O57  1  0.91424400  0.34438500  0.66180200  1
  O  O58  1  0.00954300  0.78804400  0.74463400  1
  O  O59  1  0.00155500  0.75267900  0.56888500  1
  O  O60  1  0.99249500  0.22547800  0.41965900  1
  O  O61  1  0.08131300  0.66576600  0.33983500  1
  O  O62  1  0.37935800  0.52214500  0.32042900  1
  O  O63  1  0.74122300  0.33509700  0.16489800  1
  O  O64  1  0.33798500  0.48495100  0.67834900  1
  O  O65  1  0.52582900  0.38320500  0.82630700  1
  O  O66  1  0.76486800  0.22929200  0.92814900  1
  O  O67  1  0.75284100  0.24812700  0.57218500  1
  O  O68  1  0.79058600  0.20854000  0.74894500  1
  O  O69  1  0.66449900  0.25046300  0.34305900  1
  O  O70  1  0.18515400  0.47824300  0.17209100  1
  O  O71  1  0.07767700  0.54060000  0.83599500  1
  O  O72  1  0.48538100  0.33090600  0.16825100  1
  O  O73  1  0.34111900  0.32216500  0.02463600  1
  O  O74  1  0.33541000  0.35567800  0.52895700  1
  O  O75  1  0.49001000  0.18408100  0.66793400  1
  O  O76  1  0.09327900  0.38010600  0.32436800  1
  O  O77  1  0.19283300  0.33346900  0.67862700  1
  O  O78  1  0.65316800  0.08804300  0.83500300  1
  O  O79  1  0.79631200  0.98947800  0.25884500  1
  O  O80  1  0.78259900  0.01187100  0.08052600  1
  O  O81  1  0.52298100  0.09518100  0.32214400  1
  O  O82  1  0.33602000  0.18564000  0.17739800  1
  O  O83  1  0.37791100  0.08250700  0.83175700  1
  O  O84  1  0.08206100  0.25392100  0.83772700  1
  O  O85  1  0.98101600  0.23891600  0.06214200  1
  O  O86  1  0.00876500  0.20587300  0.23993200  1
  O  O87  1  0.25378500  0.08358400  0.33542800  1
  O  O88  1  0.25312400  0.98237200  0.56348200  1
  O  O89  1  0.20249500  0.00946800  0.74051600  1
