# generated using pymatgen
data_Li4MnFe3(BO3)4
_symmetry_space_group_name_H-M   'P 1'
_cell_length_a   5.22056500
_cell_length_b   5.99851977
_cell_length_c   16.12151712
_cell_angle_alpha   81.77511009
_cell_angle_beta   88.91827758
_cell_angle_gamma   89.23707738
_symmetry_Int_Tables_number   1
_chemical_formula_structural   Li4MnFe3(BO3)4
_chemical_formula_sum   'Li8 Mn2 Fe6 B8 O24'
_cell_volume   499.54533949
_cell_formula_units_Z   2
loop_
 _symmetry_equiv_pos_site_id
 _symmetry_equiv_pos_as_xyz
  1  'x, y, z'
loop_
 _atom_site_type_symbol
 _atom_site_label
 _atom_site_symmetry_multiplicity
 _atom_site_fract_x
 _atom_site_fract_y
 _atom_site_fract_z
 _atom_site_occupancy
  Li  Li0  1  0.85034700  0.06396800  0.38963100  1
  Li  Li1  1  0.15218800  0.43700700  0.10977400  1
  Li  Li2  1  0.65221800  0.18672100  0.86033600  1
  Li  Li3  1  0.34964400  0.31274100  0.64003300  1
  Li  Li4  1  0.65090300  0.68747400  0.35821000  1
  Li  Li5  1  0.34952300  0.81238200  0.14124600  1
  Li  Li6  1  0.84721800  0.56117400  0.89257900  1
  Li  Li7  1  0.15103200  0.93533500  0.60867400  1
  Mn  Mn8  1  0.16609500  0.02552500  0.79002400  1
  Mn  Mn9  1  0.66742600  0.77599500  0.54042700  1
  Fe  Fe10  1  0.66075000  0.27683300  0.04145800  1
  Fe  Fe11  1  0.32689100  0.22380000  0.46107300  1
  Fe  Fe12  1  0.16082500  0.52494000  0.29111200  1
  Fe  Fe13  1  0.83871400  0.47280500  0.71043800  1
  Fe  Fe14  1  0.84041200  0.97517600  0.20879500  1
  Fe  Fe15  1  0.32669900  0.72407800  0.95998500  1
  B  B16  1  0.33069100  0.03895500  0.29713900  1
  B  B17  1  0.82747400  0.28653800  0.54715700  1
  B  B18  1  0.67080600  0.46122400  0.20234600  1
  B  B19  1  0.17037400  0.21205100  0.95301100  1
  B  B20  1  0.82900200  0.78676700  0.04805100  1
  B  B21  1  0.33184000  0.53708000  0.79763300  1
  B  B22  1  0.16963200  0.71450800  0.45079600  1
  B  B23  1  0.67020400  0.96400000  0.70234800  1
  O  O24  1  0.59069600  0.01408300  0.30886800  1
  O  O25  1  0.18397000  0.17242400  0.34506300  1
  O  O26  1  0.70834700  0.16934700  0.49042000  1
  O  O27  1  0.29231900  0.32926500  0.00974800  1
  O  O28  1  0.78358400  0.08544200  0.75902600  1
  O  O29  1  0.81954600  0.32904900  0.15399700  1
  O  O30  1  0.32116500  0.07907300  0.90576600  1
  O  O31  1  0.09018100  0.26680900  0.55884400  1
  O  O32  1  0.41068500  0.48524300  0.19078600  1
  O  O33  1  0.91076300  0.23499700  0.94054500  1
  O  O34  1  0.68121000  0.41781600  0.59607100  1
  O  O35  1  0.20962200  0.42288100  0.74000200  1
  O  O36  1  0.79302500  0.57646500  0.25950700  1
  O  O37  1  0.32055900  0.57950100  0.40432100  1
  O  O38  1  0.09192600  0.76574600  0.05971600  1
  O  O39  1  0.59134100  0.51507800  0.80935500  1
  O  O40  1  0.90935300  0.73455500  0.43755900  1
  O  O41  1  0.68272800  0.92106100  0.09616500  1
  O  O42  1  0.18373700  0.66835100  0.84641200  1
  O  O43  1  0.20789900  0.92265100  0.24020600  1
  O  O44  1  0.70717000  0.66755800  0.99261300  1
  O  O45  1  0.28564000  0.83320300  0.50795200  1
  O  O46  1  0.82345300  0.82804300  0.65719300  1
  O  O47  1  0.41017000  0.98428400  0.68759100  1
