# generated using pymatgen
data_Li3V2P4(HO8)2
_symmetry_space_group_name_H-M   'P 1'
_cell_length_a   7.88667300
_cell_length_b   8.09605768
_cell_length_c   13.78249309
_cell_angle_alpha   89.71317339
_cell_angle_beta   79.78636585
_cell_angle_gamma   89.90268416
_symmetry_Int_Tables_number   1
_chemical_formula_structural   Li3V2P4(HO8)2
_chemical_formula_sum   'Li9 V6 P12 H6 O48'
_cell_volume   866.06888734
_cell_formula_units_Z   3
loop_
 _symmetry_equiv_pos_site_id
 _symmetry_equiv_pos_as_xyz
  1  'x, y, z'
loop_
 _atom_site_type_symbol
 _atom_site_label
 _atom_site_symmetry_multiplicity
 _atom_site_fract_x
 _atom_site_fract_y
 _atom_site_fract_z
 _atom_site_occupancy
  Li  Li0  1  0.97729700  0.86760000  0.17925600  1
  Li  Li1  1  0.69487200  0.13421400  0.14790900  1
  Li  Li2  1  0.19872900  0.37005700  0.15224600  1
  Li  Li3  1  0.85665600  0.36716200  0.48712500  1
  Li  Li4  1  0.63352400  0.86974600  0.51455200  1
  Li  Li5  1  0.14000700  0.63423500  0.51799300  1
  Li  Li6  1  0.79641800  0.63279000  0.85242400  1
  Li  Li7  1  0.30735100  0.86795900  0.84809700  1
  Li  Li8  1  0.02587200  0.13294300  0.81577200  1
  V  V9  1  0.82239000  0.50407500  0.16652700  1
  V  V10  1  0.33614200  0.99701100  0.16719700  1
  V  V11  1  0.49731300  0.49529500  0.49849800  1
  V  V12  1  0.01102000  0.00322800  0.50119300  1
  V  V13  1  0.66675100  0.00447400  0.83412700  1
  V  V14  1  0.16972100  0.49712500  0.83176300  1
  P  P15  1  0.72665400  0.84765900  0.04429400  1
  P  P16  1  0.21573300  0.65025300  0.04421000  1
  P  P17  1  0.94547000  0.15661800  0.28980900  1
  P  P18  1  0.88865400  0.65692700  0.37662500  1
  P  P19  1  0.44466900  0.34988200  0.28736400  1
  P  P20  1  0.38751200  0.85022500  0.37910800  1
  P  P21  1  0.62094400  0.15114000  0.62122500  1
  P  P22  1  0.54871300  0.65249400  0.71187300  1
  P  P23  1  0.10613300  0.34705000  0.62293100  1
  P  P24  1  0.05819300  0.84756600  0.71259300  1
  P  P25  1  0.77988900  0.35299900  0.95440200  1
  P  P26  1  0.27759200  0.15792800  0.95605700  1
  H  H27  1  0.48128300  0.51029800  0.00667000  1
  H  H28  1  0.67563400  0.01052000  0.32910300  1
  H  H29  1  0.15750200  0.51045700  0.33746700  1
  H  H30  1  0.80856900  0.50600600  0.67470200  1
  H  H31  1  0.36226200  0.01073800  0.65620200  1
  H  H32  1  0.01475400  0.00911800  0.99427100  1
  O  O33  1  0.88733500  0.94394400  0.06279600  1
  O  O34  1  0.79319500  0.33049600  0.06610900  1
  O  O35  1  0.72987600  0.67460900  0.09187400  1
  O  O36  1  0.57068100  0.95253000  0.09332500  1
  O  O37  1  0.37417100  0.54714300  0.06138100  1
  O  O38  1  0.94870900  0.32444600  0.23605900  1
  O  O39  1  0.27900700  0.17556700  0.06722100  1
  O  O40  1  0.88396100  0.67810400  0.26520600  1
  O  O41  1  0.21015300  0.81798200  0.09546600  1
  O  O42  1  0.77854200  0.06296600  0.27246600  1
  O  O43  1  0.05741200  0.54518000  0.09486300  1
  O  O44  1  0.61354200  0.45197800  0.23800000  1
  O  O45  1  0.46084200  0.18509300  0.23088200  1
  O  O46  1  0.95145300  0.17777300  0.40098100  1
  O  O47  1  0.37261100  0.83418600  0.27034700  1
  O  O48  1  0.28106900  0.43897800  0.27102100  1
  O  O49  1  0.88505100  0.82436200  0.43036000  1
  O  O50  1  0.09581100  0.04683100  0.24043800  1
  O  O51  1  0.73766400  0.54732400  0.42550500  1
  O  O52  1  0.55150200  0.93903300  0.39519600  1
  O  O53  1  0.45872200  0.33315400  0.39639900  1
  O  O54  1  0.37232900  0.68504000  0.43590100  1
  O  O55  1  0.94522200  0.44295200  0.60550300  1
  O  O56  1  0.21945400  0.95231000  0.42864100  1
  O  O57  1  0.77859000  0.04377600  0.56909300  1
  O  O58  1  0.05538200  0.56302500  0.39442400  1
  O  O59  1  0.62632700  0.31716300  0.56760200  1
  O  O60  1  0.54990300  0.67161900  0.60056700  1
  O  O61  1  0.46266000  0.04808400  0.60120600  1
  O  O62  1  0.26250000  0.45065000  0.57366300  1
  O  O63  1  0.90196700  0.95310500  0.76031800  1
  O  O64  1  0.10285700  0.17276500  0.57766500  1
  O  O65  1  0.71442200  0.56155300  0.73064200  1
  O  O66  1  0.62678600  0.16733700  0.73075400  1
  O  O67  1  0.04998100  0.82666500  0.60048700  1
  O  O68  1  0.54072400  0.81544200  0.76867100  1
  O  O69  1  0.38422700  0.55025100  0.75738600  1
  O  O70  1  0.94541500  0.45607600  0.90492000  1
  O  O71  1  0.22048200  0.93933000  0.72990900  1
  O  O72  1  0.79237700  0.18367900  0.90394200  1
  O  O73  1  0.11698400  0.32665700  0.73481100  1
  O  O74  1  0.71940000  0.82855400  0.93326700  1
  O  O75  1  0.04816100  0.67497100  0.76342400  1
  O  O76  1  0.62605100  0.45643400  0.93905700  1
  O  O77  1  0.42922200  0.04986100  0.90673900  1
  O  O78  1  0.27070800  0.32722100  0.90618900  1
  O  O79  1  0.21014400  0.67121100  0.93242300  1
  O  O80  1  0.11424800  0.05913100  0.93656200  1
