# generated using pymatgen
data_Li4Mn3V3(TeO8)2
_symmetry_space_group_name_H-M   'P 1'
_cell_length_a   5.98940500
_cell_length_b   6.05247663
_cell_length_c   10.19973424
_cell_angle_alpha   90.74691976
_cell_angle_beta   90.92490241
_cell_angle_gamma   118.48922606
_symmetry_Int_Tables_number   1
_chemical_formula_structural   Li4Mn3V3(TeO8)2
_chemical_formula_sum   'Li4 Mn3 V3 Te2 O16'
_cell_volume   324.84110400
_cell_formula_units_Z   1
loop_
 _symmetry_equiv_pos_site_id
 _symmetry_equiv_pos_as_xyz
  1  'x, y, z'
loop_
 _atom_site_type_symbol
 _atom_site_label
 _atom_site_symmetry_multiplicity
 _atom_site_fract_x
 _atom_site_fract_y
 _atom_site_fract_z
 _atom_site_occupancy
  Li  Li0  1  0.67872500  0.33187500  0.09025300  1
  Li  Li1  1  0.98943200  0.99709300  0.01286400  1
  Li  Li2  1  0.99868600  0.99499200  0.50803900  1
  Li  Li3  1  0.32360000  0.67232800  0.60361100  1
  Mn  Mn4  1  0.33203000  0.16726900  0.79146100  1
  Mn  Mn5  1  0.17414500  0.83564700  0.28504000  1
  Mn  Mn6  1  0.16097100  0.33771500  0.28375500  1
  V  V7  1  0.81034200  0.65786100  0.77868000  1
  V  V8  1  0.82522600  0.16691300  0.78457300  1
  V  V9  1  0.65135000  0.80105400  0.27416800  1
  Te  Te10  1  0.66622500  0.32699800  0.49584500  1
  Te  Te11  1  0.31892300  0.67507600  0.00957500  1
  O  O12  1  0.82767600  0.66375100  0.40118900  1
  O  O13  1  0.97250000  0.48483700  0.68083400  1
  O  O14  1  0.66294300  0.33912400  0.88727000  1
  O  O15  1  0.00883600  0.99913500  0.69339100  1
  O  O16  1  0.98771600  0.97764200  0.19756400  1
  O  O17  1  0.82135800  0.15133900  0.40012500  1
  O  O18  1  0.53295500  0.52211500  0.67615000  1
  O  O19  1  0.52361300  0.02915900  0.68165600  1
  O  O20  1  0.70643600  0.86097500  0.89026400  1
  O  O21  1  0.32506400  0.15463400  0.40543500  1
  O  O22  1  0.49916200  0.96361500  0.15237700  1
  O  O23  1  0.52280900  0.52821100  0.17169600  1
  O  O24  1  0.35363500  0.69888300  0.38458300  1
  O  O25  1  0.14437100  0.82689700  0.91065500  1
  O  O26  1  0.04578700  0.53600600  0.14410700  1
  O  O27  1  0.13548700  0.29916400  0.89699800  1
