# generated using pymatgen
data_Li3MnV(PO4)3
_symmetry_space_group_name_H-M   'P 1'
_cell_length_a   10.23395362
_cell_length_b   10.23395362
_cell_length_c   10.20655810
_cell_angle_alpha   71.19905604
_cell_angle_beta   71.19905604
_cell_angle_gamma   109.94483048
_symmetry_Int_Tables_number   1
_chemical_formula_structural   Li3MnV(PO4)3
_chemical_formula_sum   'Li12 Mn4 V4 P12 O48'
_cell_volume   831.49917729
_cell_formula_units_Z   4
loop_
 _symmetry_equiv_pos_site_id
 _symmetry_equiv_pos_as_xyz
  1  'x, y, z'
loop_
 _atom_site_type_symbol
 _atom_site_label
 _atom_site_symmetry_multiplicity
 _atom_site_fract_x
 _atom_site_fract_y
 _atom_site_fract_z
 _atom_site_occupancy
  Li  Li0  1  0.62110400  0.37889600  0.75000000  1
  Li  Li1  1  0.24692900  0.87769400  0.37791400  1
  Li  Li2  1  0.12230600  0.75307100  0.12208600  1
  Li  Li3  1  0.25320200  0.37493600  0.87088100  1
  Li  Li4  1  0.37493600  0.25320200  0.37088100  1
  Li  Li5  1  0.12398800  0.87601200  0.75000000  1
  Li  Li6  1  0.87601200  0.12398800  0.25000000  1
  Li  Li7  1  0.62506400  0.74679800  0.62911900  1
  Li  Li8  1  0.74679800  0.62506400  0.12911900  1
  Li  Li9  1  0.87769400  0.24692900  0.87791400  1
  Li  Li10  1  0.75307100  0.12230600  0.62208600  1
  Li  Li11  1  0.37889600  0.62110400  0.25000000  1
  Mn  Mn12  1  0.00000000  0.00000000  0.00000000  1
  Mn  Mn13  1  0.50000000  0.50000000  0.50000000  1
  Mn  Mn14  1  0.00000000  0.00000000  0.50000000  1
  Mn  Mn15  1  0.50000000  0.50000000  0.00000000  1
  V  V16  1  0.50000000  0.00000000  0.00000000  1
  V  V17  1  0.00000000  0.50000000  0.50000000  1
  V  V18  1  0.50000000  0.00000000  0.50000000  1
  V  V19  1  0.00000000  0.50000000  0.00000000  1
  P  P20  1  0.62558000  0.24805500  0.12856300  1
  P  P21  1  0.75194500  0.37442000  0.37143700  1
  P  P22  1  0.25524300  0.12772200  0.12221000  1
  P  P23  1  0.37390900  0.12175400  0.75292400  1
  P  P24  1  0.87824600  0.62609100  0.74707600  1
  P  P25  1  0.87227800  0.74475700  0.37779000  1
  P  P26  1  0.12772200  0.25524300  0.62221000  1
  P  P27  1  0.62609100  0.87824600  0.24707600  1
  P  P28  1  0.12175400  0.37390900  0.25292400  1
  P  P29  1  0.74475700  0.87227800  0.87779000  1
  P  P30  1  0.24805500  0.62558000  0.62856300  1
  P  P31  1  0.37442000  0.75194500  0.87143700  1
  O  O32  1  0.88769200  0.49329400  0.70074000  1
  O  O33  1  0.49697700  0.10866900  0.29698900  1
  O  O34  1  0.28994800  0.79949500  0.58985700  1
  O  O35  1  0.61333700  0.20059500  0.99732900  1
  O  O36  1  0.79940500  0.38666300  0.50267100  1
  O  O37  1  0.50670600  0.11230800  0.79926000  1
  O  O38  1  0.29958600  0.99554500  0.10915400  1
  O  O39  1  0.39248600  0.29838300  0.98993200  1
  O  O40  1  0.21980600  0.09331600  0.29172400  1
  O  O41  1  0.01016000  0.79573000  0.61300200  1
  O  O42  1  0.61310100  0.40545400  0.38104900  1
  O  O43  1  0.20050500  0.71005200  0.91014300  1
  O  O44  1  0.00445500  0.70041400  0.39084600  1
  O  O45  1  0.38665100  0.09044700  0.61049700  1
  O  O46  1  0.41019800  0.29269800  0.71410500  1
  O  O47  1  0.20427000  0.98984000  0.88699800  1
  O  O48  1  0.59454600  0.38689900  0.11895100  1
  O  O49  1  0.89133100  0.50302300  0.20301100  1
  O  O50  1  0.11341300  0.11556800  0.09192900  1
  O  O51  1  0.70730200  0.58980200  0.78589500  1
  O  O52  1  0.88443200  0.88658700  0.40807100  1
  O  O53  1  0.90668400  0.78019300  0.20827600  1
  O  O54  1  0.29838300  0.39248600  0.48993200  1
  O  O55  1  0.90955300  0.61334900  0.88950300  1
  O  O56  1  0.09044700  0.38665100  0.11049700  1
  O  O57  1  0.70161700  0.60751400  0.51006800  1
  O  O58  1  0.09331600  0.21980700  0.79172400  1
  O  O59  1  0.11556800  0.11341300  0.59192900  1
  O  O60  1  0.29269800  0.41019800  0.21410500  1
  O  O61  1  0.88658700  0.88443200  0.90807100  1
  O  O62  1  0.10866900  0.49697700  0.79698900  1
  O  O63  1  0.40545400  0.61310100  0.88104900  1
  O  O64  1  0.79573000  0.01016000  0.11300200  1
  O  O65  1  0.58980200  0.70730200  0.28589500  1
  O  O66  1  0.61334900  0.90955300  0.38950300  1
  O  O67  1  0.99554500  0.29958600  0.60915400  1
  O  O68  1  0.79949500  0.28994800  0.08985700  1
  O  O69  1  0.38689900  0.59454600  0.61895100  1
  O  O70  1  0.98984000  0.20427000  0.38699800  1
  O  O71  1  0.78019300  0.90668400  0.70827600  1
  O  O72  1  0.60751400  0.70161700  0.01006800  1
  O  O73  1  0.70041400  0.00445500  0.89084600  1
  O  O74  1  0.49329400  0.88769200  0.20074000  1
  O  O75  1  0.20059500  0.61333700  0.49732900  1
  O  O76  1  0.38666300  0.79940500  0.00267100  1
  O  O77  1  0.71005200  0.20050500  0.41014300  1
  O  O78  1  0.50302300  0.89133100  0.70301100  1
  O  O79  1  0.11230800  0.50670600  0.29926000  1
