# generated using pymatgen
data_LiFe3O4
_symmetry_space_group_name_H-M   'P 1'
_cell_length_a   3.06192914
_cell_length_b   5.17628626
_cell_length_c   5.21061206
_cell_angle_alpha   72.84819110
_cell_angle_beta   90.61705314
_cell_angle_gamma   90.02440614
_symmetry_Int_Tables_number   1
_chemical_formula_structural   LiFe3O4
_chemical_formula_sum   'Li1 Fe3 O4'
_cell_volume   78.90745272
_cell_formula_units_Z   1
loop_
 _symmetry_equiv_pos_site_id
 _symmetry_equiv_pos_as_xyz
  1  'x, y, z'
loop_
 _atom_site_type_symbol
 _atom_site_label
 _atom_site_symmetry_multiplicity
 _atom_site_fract_x
 _atom_site_fract_y
 _atom_site_fract_z
 _atom_site_occupancy
  Li  Li0  1  0.50947563  0.49951470  0.00002702  1
  Fe  Fe1  1  0.01076516  0.99942879  0.00011377  1
  Fe  Fe2  1  0.51074406  0.99941487  0.50013488  1
  Fe  Fe3  1  0.01065340  0.49941642  0.50013685  1
  O  O4  1  -0.00598499  0.75789285  0.74650365  1
  O  O5  1  0.51068697  0.76365945  0.22386951  1
  O  O6  1  0.51078800  0.23516527  0.77639363  1
  O  O7  1  0.02737177  0.24091065  0.25380068  1
