# generated using pymatgen
data_Li4MnCo2O7
_symmetry_space_group_name_H-M   'P 1'
_cell_length_a   2.97371100
_cell_length_b   5.96170890
_cell_length_c   14.29842567
_cell_angle_alpha   82.91795220
_cell_angle_beta   84.53165048
_cell_angle_gamma   85.83523810
_symmetry_Int_Tables_number   1
_chemical_formula_structural   Li4MnCo2O7
_chemical_formula_sum   'Li8 Mn2 Co4 O14'
_cell_volume   249.93349353
_cell_formula_units_Z   2
loop_
 _symmetry_equiv_pos_site_id
 _symmetry_equiv_pos_as_xyz
  1  'x, y, z'
loop_
 _atom_site_type_symbol
 _atom_site_label
 _atom_site_symmetry_multiplicity
 _atom_site_fract_x
 _atom_site_fract_y
 _atom_site_fract_z
 _atom_site_occupancy
  Li  Li0  1  0.00568800  0.49694900  0.99548800  1
  Li  Li1  1  0.57594800  0.79552800  0.85305900  1
  Li  Li2  1  0.13940900  0.07585000  0.71907700  1
  Li  Li3  1  0.42615100  0.21278500  0.14480800  1
  Li  Li4  1  0.85849400  0.92749500  0.28451600  1
  Li  Li5  1  0.28500200  0.64296300  0.42922200  1
  Li  Li6  1  0.71156000  0.35800500  0.57431000  1
  Li  Li7  1  0.56762300  0.27830200  0.85359400  1
  Mn  Mn8  1  0.00510100  0.00718600  0.99542400  1
  Mn  Mn9  1  0.28585700  0.14150000  0.42936100  1
  Co  Co10  1  0.13706200  0.56076700  0.72067800  1
  Co  Co11  1  0.71243500  0.85424700  0.57350800  1
  Co  Co12  1  0.85918200  0.43100500  0.28500900  1
  Co  Co13  1  0.43588200  0.71665100  0.14324100  1
  O  O14  1  0.52033400  0.77534700  0.00564000  1
  O  O15  1  0.06113200  0.02940300  0.86707200  1
  O  O16  1  0.61746600  0.34217600  0.71348300  1
  O  O17  1  0.89963100  0.47742400  0.14767600  1
  O  O18  1  0.32872900  0.19003100  0.28968100  1
  O  O19  1  0.75593400  0.89369200  0.43563200  1
  O  O20  1  0.18326800  0.61748400  0.58253000  1
  O  O21  1  0.47677800  0.22005200  0.00047600  1
  O  O22  1  0.07992600  0.54386100  0.84399600  1
  O  O23  1  0.67084200  0.80846000  0.70730900  1
  O  O24  1  0.96046900  0.95028400  0.13713100  1
  O  O25  1  0.38470000  0.66747100  0.27866900  1
  O  O26  1  0.81440400  0.39012700  0.42189500  1
  O  O27  1  0.24099500  0.09495800  0.56751300  1
