# generated using pymatgen
data_LiFePCO7
_symmetry_space_group_name_H-M   'P 1'
_cell_length_a   8.40320675
_cell_length_b   5.17599801
_cell_length_c   19.25164547
_cell_angle_alpha   89.89607346
_cell_angle_beta   90.34292320
_cell_angle_gamma   84.83332721
_symmetry_Int_Tables_number   1
_chemical_formula_structural   LiFePCO7
_chemical_formula_sum   'Li6 Fe6 P6 C6 O42'
_cell_volume   833.93050289
_cell_formula_units_Z   6
loop_
 _symmetry_equiv_pos_site_id
 _symmetry_equiv_pos_as_xyz
  1  'x, y, z'
loop_
 _atom_site_type_symbol
 _atom_site_label
 _atom_site_symmetry_multiplicity
 _atom_site_fract_x
 _atom_site_fract_y
 _atom_site_fract_z
 _atom_site_occupancy
  Li  Li0  1  0.11086000  0.77058600  0.41576500  1
  Li  Li1  1  0.11201900  0.76990600  0.75091200  1
  Li  Li2  1  0.73383500  0.74231400  0.99568900  1
  Li  Li3  1  0.89700300  0.23844200  0.91472700  1
  Li  Li4  1  0.89015700  0.22951700  0.24734200  1
  Li  Li5  1  0.88893200  0.22974400  0.58342100  1
  Fe  Fe6  1  0.33358300  0.80174500  0.91709500  1
  Fe  Fe7  1  0.33342100  0.80671900  0.24910500  1
  Fe  Fe8  1  0.33376400  0.80210400  0.58331000  1
  Fe  Fe9  1  0.66102600  0.20266700  0.08573600  1
  Fe  Fe10  1  0.66709100  0.19764900  0.75013000  1
  Fe  Fe11  1  0.66607700  0.19862800  0.41717700  1
  P  P12  1  0.42482000  0.72739000  0.75028000  1
  P  P13  1  0.41998900  0.72819600  0.08156800  1
  P  P14  1  0.42260200  0.72947600  0.41654800  1
  P  P15  1  0.57562300  0.27637200  0.25163200  1
  P  P16  1  0.57670100  0.27116600  0.58363300  1
  P  P17  1  0.57906600  0.26868900  0.91673500  1
  C  C18  1  0.04292100  0.70706400  0.24793600  1
  C  C19  1  0.04145700  0.70672300  0.58329900  1
  C  C20  1  0.03957000  0.71202200  0.92023200  1
  C  C21  1  0.95434000  0.29106300  0.08001600  1
  C  C22  1  0.95890200  0.29335200  0.41706100  1
  C  C23  1  0.95959000  0.29316700  0.74994600  1
  O  O24  1  0.07040300  0.94856100  0.25018300  1
  O  O25  1  0.06926800  0.94850500  0.58306200  1
  O  O26  1  0.06782500  0.95245800  0.91562900  1
  O  O27  1  0.09810200  0.33993600  0.08336400  1
  O  O28  1  0.09380300  0.38147500  0.41629900  1
  O  O29  1  0.09464900  0.38121900  0.74985400  1
  O  O30  1  0.16858100  0.54139600  0.58320300  1
  O  O31  1  0.17011700  0.54280900  0.24670300  1
  O  O32  1  0.16524700  0.54460200  0.91728700  1
  O  O33  1  0.31041400  0.80504400  0.01892800  1
  O  O34  1  0.32405300  0.81291300  0.14623900  1
  O  O35  1  0.30908100  0.79613500  0.35387100  1
  O  O36  1  0.30998000  0.79666700  0.47894000  1
  O  O37  1  0.31368000  0.78983500  0.81360400  1
  O  O38  1  0.31026000  0.79865900  0.68824400  1
  O  O39  1  0.42621900  0.12788600  0.91319000  1
  O  O40  1  0.42548800  0.12888300  0.25295700  1
  O  O41  1  0.42620900  0.12322600  0.58322900  1
  O  O42  1  0.46968900  0.43171400  0.08131800  1
  O  O43  1  0.47820600  0.43645400  0.41680400  1
  O  O44  1  0.47899500  0.43430500  0.74962900  1
  O  O45  1  0.52204700  0.56970700  0.25262400  1
  O  O46  1  0.52159200  0.56433700  0.58391400  1
  O  O47  1  0.53433900  0.56565500  0.92447300  1
  O  O48  1  0.57923000  0.86221600  0.07603100  1
  O  O49  1  0.57524000  0.87543000  0.75088700  1
  O  O50  1  0.57320500  0.87763000  0.41683500  1
  O  O51  1  0.68414000  0.21217400  0.18764100  1
  O  O52  1  0.69250100  0.20615600  0.31285700  1
  O  O53  1  0.68958400  0.20467400  0.52132400  1
  O  O54  1  0.69020700  0.20254900  0.64621800  1
  O  O55  1  0.69247100  0.21110900  0.85421800  1
  O  O56  1  0.69078600  0.17394200  0.97879400  1
  O  O57  1  0.83820300  0.47475500  0.07376000  1
  O  O58  1  0.83277300  0.45905900  0.75012300  1
  O  O59  1  0.83203800  0.45902900  0.41744900  1
  O  O60  1  0.90220100  0.62905800  0.92649300  1
  O  O61  1  0.90810700  0.61871100  0.24831700  1
  O  O62  1  0.90650200  0.61881800  0.58369100  1
  O  O63  1  0.91015800  0.05848500  0.08421900  1
  O  O64  1  0.93187100  0.05141700  0.75007500  1
  O  O65  1  0.93114900  0.05173200  0.41756100  1
