# generated using pymatgen
data_CsLiSO4
_symmetry_space_group_name_H-M   'P 1'
_cell_length_a   5.61079500
_cell_length_b   10.20613300
_cell_length_c   10.99012000
_cell_angle_alpha   90.00000000
_cell_angle_beta   90.00000000
_cell_angle_gamma   90.00000000
_symmetry_Int_Tables_number   1
_chemical_formula_structural   CsLiSO4
_chemical_formula_sum   'Cs4 Li4 S4 O16'
_cell_volume   629.34394661
_cell_formula_units_Z   4
loop_
 _symmetry_equiv_pos_site_id
 _symmetry_equiv_pos_as_xyz
  1  'x, y, z'
loop_
 _atom_site_type_symbol
 _atom_site_label
 _atom_site_symmetry_multiplicity
 _atom_site_fract_x
 _atom_site_fract_y
 _atom_site_fract_z
 _atom_site_occupancy
  Cs  Cs0  1  0.75000000  0.96147000  0.36285300  1
  Cs  Cs1  1  0.25000000  0.53853000  0.86285300  1
  Cs  Cs2  1  0.75000000  0.46147000  0.13714700  1
  Cs  Cs3  1  0.25000000  0.03853000  0.63714700  1
  Li  Li4  1  0.75000000  0.13187700  0.03888800  1
  Li  Li5  1  0.25000000  0.36812300  0.53888800  1
  Li  Li6  1  0.75000000  0.63187700  0.46111200  1
  Li  Li7  1  0.25000000  0.86812300  0.96111200  1
  S  S8  1  0.25000000  0.18998600  0.93568300  1
  S  S9  1  0.75000000  0.31001400  0.43568300  1
  S  S10  1  0.25000000  0.68998600  0.56431700  1
  S  S11  1  0.75000000  0.81001400  0.06431700  1
  O  O12  1  0.25000000  0.04502500  0.91989100  1
  O  O13  1  0.53342600  0.26774900  0.50542100  1
  O  O14  1  0.96657400  0.26774900  0.50542100  1
  O  O15  1  0.75000000  0.24751700  0.31367800  1
  O  O16  1  0.25000000  0.25248300  0.81367800  1
  O  O17  1  0.03342600  0.23225100  0.00542100  1
  O  O18  1  0.46657400  0.23225100  0.00542100  1
  O  O19  1  0.75000000  0.45497500  0.41989100  1
  O  O20  1  0.25000000  0.54502500  0.58010900  1
  O  O21  1  0.53342600  0.76774900  0.99457900  1
  O  O22  1  0.96657400  0.76774900  0.99457900  1
  O  O23  1  0.75000000  0.74751700  0.18632200  1
  O  O24  1  0.25000000  0.75248300  0.68632200  1
  O  O25  1  0.03342600  0.73225100  0.49457900  1
  O  O26  1  0.46657400  0.73225100  0.49457900  1
  O  O27  1  0.75000000  0.95497500  0.08010900  1
