# generated using pymatgen
data_Li4MnCo2O7
_symmetry_space_group_name_H-M   'P 1'
_cell_length_a   6.60368986
_cell_length_b   6.60368986
_cell_length_c   14.42571138
_cell_angle_alpha   68.69695492
_cell_angle_beta   68.69695492
_cell_angle_gamma   25.54345879
_symmetry_Int_Tables_number   1
_chemical_formula_structural   Li4MnCo2O7
_chemical_formula_sum   'Li8 Mn2 Co4 O14'
_cell_volume   251.73561233
_cell_formula_units_Z   2
loop_
 _symmetry_equiv_pos_site_id
 _symmetry_equiv_pos_as_xyz
  1  'x, y, z'
loop_
 _atom_site_type_symbol
 _atom_site_label
 _atom_site_symmetry_multiplicity
 _atom_site_fract_x
 _atom_site_fract_y
 _atom_site_fract_z
 _atom_site_occupancy
  Li  Li0  1  0.70869500  0.70869500  0.92808800  1
  Li  Li1  1  0.29130500  0.29130500  0.07191200  1
  Li  Li2  1  0.86091700  0.86091700  0.20889800  1
  Li  Li3  1  0.13908300  0.13908300  0.79110200  1
  Li  Li4  1  0.57348300  0.57348300  0.64150200  1
  Li  Li5  1  0.42651700  0.42651700  0.35849800  1
  Li  Li6  1  0.00000000  0.00000000  0.50000000  1
  Li  Li7  1  0.00000000  0.00000000  0.00000000  1
  Mn  Mn8  1  0.43344700  0.43344700  0.86110800  1
  Mn  Mn9  1  0.56655300  0.56655300  0.13889200  1
  Co  Co10  1  0.14363100  0.14363100  0.28487600  1
  Co  Co11  1  0.71371500  0.71371500  0.42855300  1
  Co  Co12  1  0.28628500  0.28628500  0.57144700  1
  Co  Co13  1  0.85636900  0.85636900  0.71512400  1
  O  O14  1  0.86373900  0.86373900  0.95193300  1
  O  O15  1  0.43861300  0.43861300  0.11209400  1
  O  O16  1  0.00947900  0.00947900  0.23929500  1
  O  O17  1  0.29767700  0.29767700  0.81624200  1
  O  O18  1  0.72287500  0.72287500  0.67097200  1
  O  O19  1  0.57755100  0.57755100  0.38532300  1
  O  O20  1  0.14916200  0.14916200  0.53001600  1
  O  O21  1  0.56138700  0.56138700  0.88790600  1
  O  O22  1  0.13626100  0.13626100  0.04806700  1
  O  O23  1  0.70232300  0.70232300  0.18375800  1
  O  O24  1  0.99052100  0.99052100  0.76070500  1
  O  O25  1  0.42244900  0.42244900  0.61467700  1
  O  O26  1  0.27712500  0.27712500  0.32902800  1
  O  O27  1  0.85083800  0.85083800  0.46998400  1
