# generated using pymatgen
data_Li4Mn3O7
_symmetry_space_group_name_H-M   'P 1'
_cell_length_a   5.07523700
_cell_length_b   5.08995678
_cell_length_c   10.67475166
_cell_angle_alpha   84.05468377
_cell_angle_beta   79.58359589
_cell_angle_gamma   72.71301871
_symmetry_Int_Tables_number   1
_chemical_formula_structural   Li4Mn3O7
_chemical_formula_sum   'Li8 Mn6 O14'
_cell_volume   258.59717263
_cell_formula_units_Z   2
loop_
 _symmetry_equiv_pos_site_id
 _symmetry_equiv_pos_as_xyz
  1  'x, y, z'
loop_
 _atom_site_type_symbol
 _atom_site_label
 _atom_site_symmetry_multiplicity
 _atom_site_fract_x
 _atom_site_fract_y
 _atom_site_fract_z
 _atom_site_occupancy
  Li  Li0  1  0.00000000  0.50000000  0.50000000  1
  Li  Li1  1  0.56449000  0.49734900  0.36311400  1
  Li  Li2  1  0.12733100  0.50677400  0.22420200  1
  Li  Li3  1  0.72384300  0.49432300  0.06634300  1
  Li  Li4  1  0.27615700  0.50567700  0.93365700  1
  Li  Li5  1  0.87266900  0.49322600  0.77579800  1
  Li  Li6  1  0.43551000  0.50265100  0.63688600  1
  Li  Li7  1  0.50000000  0.00000000  0.50000000  1
  Mn  Mn8  1  0.94107500  0.98541400  0.63565800  1
  Mn  Mn9  1  0.05892500  0.01458600  0.36434200  1
  Mn  Mn10  1  0.62436600  0.01547900  0.22413400  1
  Mn  Mn11  1  0.20779500  0.00407800  0.07398100  1
  Mn  Mn12  1  0.79220500  0.99592200  0.92601900  1
  Mn  Mn13  1  0.37563400  0.98452100  0.77586600  1
  O  O14  1  0.70608400  0.75630700  0.63873000  1
  O  O15  1  0.21366500  0.78103500  0.50301000  1
  O  O16  1  0.82084700  0.78023400  0.34953200  1
  O  O17  1  0.35380800  0.79661700  0.22808400  1
  O  O18  1  0.96999900  0.76828300  0.06316700  1
  O  O19  1  0.54446200  0.76786300  0.92169400  1
  O  O20  1  0.12612800  0.75683100  0.77259400  1
  O  O21  1  0.29391600  0.24369300  0.36127000  1
  O  O22  1  0.87387200  0.24316900  0.22740600  1
  O  O23  1  0.45553800  0.23213700  0.07830600  1
  O  O24  1  0.03000100  0.23171700  0.93683300  1
  O  O25  1  0.64619200  0.20338300  0.77191600  1
  O  O26  1  0.17915300  0.21976600  0.65046800  1
  O  O27  1  0.78633500  0.21896500  0.49699000  1
