# generated using pymatgen
data_Li4Co3O7
_symmetry_space_group_name_H-M   'P 1'
_cell_length_a   2.96304300
_cell_length_b   7.77479995
_cell_length_c   11.28123318
_cell_angle_alpha   80.21396177
_cell_angle_beta   82.98823321
_cell_angle_gamma   81.04239008
_symmetry_Int_Tables_number   1
_chemical_formula_structural   Li4Co3O7
_chemical_formula_sum   'Li8 Co6 O14'
_cell_volume   251.75831245
_cell_formula_units_Z   2
loop_
 _symmetry_equiv_pos_site_id
 _symmetry_equiv_pos_as_xyz
  1  'x, y, z'
loop_
 _atom_site_type_symbol
 _atom_site_label
 _atom_site_symmetry_multiplicity
 _atom_site_fract_x
 _atom_site_fract_y
 _atom_site_fract_z
 _atom_site_occupancy
  Li  Li0  1  0.71426100  0.14255100  0.93337500  1
  Li  Li1  1  0.86049500  0.57070100  0.20830700  1
  Li  Li2  1  0.00000000  0.00000000  0.50000000  1
  Li  Li3  1  0.13950500  0.42929900  0.79169300  1
  Li  Li4  1  0.28573900  0.85744900  0.06662500  1
  Li  Li5  1  0.42955800  0.28483700  0.35385000  1
  Li  Li6  1  0.57044200  0.71516300  0.64615000  1
  Li  Li7  1  0.50000000  0.50000000  0.00000000  1
  Co  Co8  1  0.92917200  0.77235700  0.86187100  1
  Co  Co9  1  0.07082800  0.22764300  0.13812900  1
  Co  Co10  1  0.21096900  0.64349500  0.42421500  1
  Co  Co11  1  0.35278100  0.07024300  0.72147300  1
  Co  Co12  1  0.64721900  0.92975700  0.27852700  1
  Co  Co13  1  0.78903100  0.35650500  0.57578500  1
  O  O14  1  0.28963300  0.95595100  0.88475600  1
  O  O15  1  0.44095800  0.38176000  0.17594700  1
  O  O16  1  0.59080600  0.81895100  0.45387300  1
  O  O17  1  0.76117300  0.24203000  0.75003300  1
  O  O18  1  0.89108200  0.69332600  0.01625800  1
  O  O19  1  0.04825200  0.10871000  0.30601000  1
  O  O20  1  0.17967300  0.52399000  0.60147300  1
  O  O21  1  0.10891800  0.30667400  0.98374200  1
  O  O22  1  0.23882700  0.75797000  0.24996700  1
  O  O23  1  0.40919400  0.18104900  0.54612700  1
  O  O24  1  0.55904200  0.61824000  0.82405300  1
  O  O25  1  0.71036700  0.04404900  0.11524400  1
  O  O26  1  0.82032700  0.47601000  0.39852700  1
  O  O27  1  0.95174800  0.89129000  0.69399000  1
