# generated using pymatgen
data_Li2Mn3SbO8
_symmetry_space_group_name_H-M   'P 1'
_cell_length_a   5.89345674
_cell_length_b   6.10329479
_cell_length_c   8.93659291
_cell_angle_alpha   88.52110590
_cell_angle_beta   89.99929038
_cell_angle_gamma   90.00537054
_symmetry_Int_Tables_number   1
_chemical_formula_structural   Li2Mn3SbO8
_chemical_formula_sum   'Li4 Mn6 Sb2 O16'
_cell_volume   321.33773815
_cell_formula_units_Z   2
loop_
 _symmetry_equiv_pos_site_id
 _symmetry_equiv_pos_as_xyz
  1  'x, y, z'
loop_
 _atom_site_type_symbol
 _atom_site_label
 _atom_site_symmetry_multiplicity
 _atom_site_fract_x
 _atom_site_fract_y
 _atom_site_fract_z
 _atom_site_occupancy
  Li  Li0  1  0.99638000  0.26307500  0.13483500  1
  Li  Li1  1  0.50357400  0.76297200  0.63483200  1
  Li  Li2  1  0.00365800  0.73690600  0.86517700  1
  Li  Li3  1  0.49638200  0.23700400  0.36519600  1
  Mn  Mn4  1  0.50003800  0.99998800  0.00002400  1
  Mn  Mn5  1  0.75410400  0.74848900  0.24750900  1
  Mn  Mn6  1  0.24604800  0.25153900  0.75234400  1
  Mn  Mn7  1  0.99968700  0.49990000  0.49992100  1
  Mn  Mn8  1  0.25403100  0.75177400  0.25238200  1
  Mn  Mn9  1  0.74599000  0.24826000  0.74759000  1
  Sb  Sb10  1  0.00004700  0.99994200  0.50005300  1
  Sb  Sb11  1  0.50003500  0.50003800  0.00003100  1
  O  O12  1  0.00492500  0.54072100  0.27288600  1
  O  O13  1  0.49512700  0.04042100  0.77289100  1
  O  O14  1  0.99507400  0.45926500  0.72705900  1
  O  O15  1  0.50493800  0.95955600  0.22711500  1
  O  O16  1  0.24245000  0.77630900  0.49773700  1
  O  O17  1  0.71778900  0.24290400  0.00243600  1
  O  O18  1  0.78212700  0.74293100  0.50248300  1
  O  O19  1  0.25760000  0.27628800  0.99782400  1
  O  O20  1  0.99980400  0.97616300  0.26911500  1
  O  O21  1  0.50011000  0.47610900  0.76907000  1
  O  O22  1  0.00023400  0.02388400  0.73092500  1
  O  O23  1  0.49996200  0.52395900  0.23096500  1
  O  O24  1  0.21771700  0.25714500  0.49749700  1
  O  O25  1  0.74243600  0.72376700  0.00221900  1
  O  O26  1  0.75747500  0.22362700  0.50228300  1
  O  O27  1  0.28225500  0.75706500  0.99760200  1
