# generated using pymatgen
data_Li3Ga14
_symmetry_space_group_name_H-M   'P 1'
_cell_length_a   7.42484959
_cell_length_b   7.42484959
_cell_length_c   7.42484968
_cell_angle_alpha   69.37635847
_cell_angle_beta   69.37635847
_cell_angle_gamma   69.37635174
_symmetry_Int_Tables_number   1
_chemical_formula_structural   Li3Ga14
_chemical_formula_sum   'Li3 Ga14'
_cell_volume   346.16096964
_cell_formula_units_Z   1
loop_
 _symmetry_equiv_pos_site_id
 _symmetry_equiv_pos_as_xyz
  1  'x, y, z'
loop_
 _atom_site_type_symbol
 _atom_site_label
 _atom_site_symmetry_multiplicity
 _atom_site_fract_x
 _atom_site_fract_y
 _atom_site_fract_z
 _atom_site_occupancy
  Li  Li0  1  0.11961400  0.57998100  0.11961400  1
  Li  Li1  1  0.11961400  0.11961400  0.57998100  1
  Li  Li2  1  0.57998100  0.11961400  0.11961400  1
  Ga  Ga3  1  0.49312700  0.17547600  0.49312700  1
  Ga  Ga4  1  0.49312700  0.49312700  0.17547600  1
  Ga  Ga5  1  0.17547600  0.49312700  0.49312700  1
  Ga  Ga6  1  0.51265100  0.82523100  0.51265100  1
  Ga  Ga7  1  0.51265100  0.51265100  0.82523100  1
  Ga  Ga8  1  0.82523100  0.51265100  0.51265100  1
  Ga  Ga9  1  0.07537400  0.07537400  0.07537400  1
  Ga  Ga10  1  0.92071600  0.92071600  0.92071600  1
  Ga  Ga11  1  0.70245800  0.18251900  0.70245800  1
  Ga  Ga12  1  0.70245800  0.70245800  0.18251900  1
  Ga  Ga13  1  0.18251900  0.70245800  0.70245800  1
  Ga  Ga14  1  0.29387700  0.82324900  0.29387700  1
  Ga  Ga15  1  0.29387700  0.29387700  0.82324900  1
  Ga  Ga16  1  0.82324900  0.29387700  0.29387700  1
