# generated using pymatgen
data_NaLi2FePCO7
_symmetry_space_group_name_H-M   'P 1'
_cell_length_a   6.66972800
_cell_length_b   8.62705956
_cell_length_c   10.09074970
_cell_angle_alpha   92.00156846
_cell_angle_beta   90.09032078
_cell_angle_gamma   90.14999626
_symmetry_Int_Tables_number   1
_chemical_formula_structural   NaLi2FePCO7
_chemical_formula_sum   'Na4 Li8 Fe4 P4 C4 O28'
_cell_volume   580.26610636
_cell_formula_units_Z   4
loop_
 _symmetry_equiv_pos_site_id
 _symmetry_equiv_pos_as_xyz
  1  'x, y, z'
loop_
 _atom_site_type_symbol
 _atom_site_label
 _atom_site_symmetry_multiplicity
 _atom_site_fract_x
 _atom_site_fract_y
 _atom_site_fract_z
 _atom_site_occupancy
  Na  Na0  1  0.24194500  0.91601500  0.37758500  1
  Na  Na1  1  0.99705600  0.74720400  0.62689400  1
  Na  Na2  1  0.50204200  0.74354100  0.12472400  1
  Na  Na3  1  0.50191200  0.25491400  0.37564900  1
  Li  Li4  1  0.25531700  0.91315500  0.87478800  1
  Li  Li5  1  0.47533300  0.72478000  0.61654600  1
  Li  Li6  1  0.02307400  0.72389200  0.10895400  1
  Li  Li7  1  0.51729800  0.26728200  0.88423700  1
  Li  Li8  1  0.98437800  0.26770500  0.88370300  1
  Li  Li9  1  0.97416600  0.27613500  0.39006000  1
  Li  Li10  1  0.74348000  0.09408700  0.63019400  1
  Li  Li11  1  0.77113800  0.09577000  0.12319400  1
  Fe  Fe12  1  0.75257900  0.65109300  0.88651200  1
  Fe  Fe13  1  0.74629100  0.64398300  0.38985900  1
  Fe  Fe14  1  0.24343400  0.34981200  0.61509100  1
  Fe  Fe15  1  0.25027500  0.34540600  0.10742200  1
  P  P16  1  0.25644600  0.59118500  0.85160600  1
  P  P17  1  0.23758400  0.58185000  0.35302100  1
  P  P18  1  0.74237800  0.40684200  0.64977300  1
  P  P19  1  0.76158300  0.40787000  0.14059500  1
  C  C20  1  0.74912600  0.96045900  0.86694700  1
  C  C21  1  0.76080100  0.95455800  0.36443600  1
  C  C22  1  0.25707000  0.05343300  0.64591400  1
  C  C23  1  0.23996500  0.04307600  0.12752700  1
  O  O24  1  0.28095600  0.90639500  0.66345200  1
  O  O25  1  0.21671900  0.89710200  0.14646700  1
  O  O26  1  0.75013100  0.91935100  0.98934300  1
  O  O27  1  0.75277100  0.92041700  0.48873600  1
  O  O28  1  0.75091300  0.85372200  0.77209500  1
  O  O29  1  0.74571200  0.84387600  0.27354700  1
  O  O30  1  0.07145000  0.69069900  0.89504300  1
  O  O31  1  0.44019000  0.68899800  0.89817800  1
  O  O32  1  0.05759200  0.68265000  0.40053000  1
  O  O33  1  0.42877300  0.67265500  0.40081600  1
  O  O34  1  0.26208000  0.57274400  0.69639700  1
  O  O35  1  0.72436600  0.57103900  0.59198700  1
  O  O36  1  0.23487000  0.56733400  0.19775000  1
  O  O37  1  0.77418000  0.57262600  0.08434200  1
  O  O38  1  0.25371600  0.42622500  0.90844400  1
  O  O39  1  0.75709800  0.42527800  0.80459600  1
  O  O40  1  0.22843900  0.41717400  0.40923400  1
  O  O41  1  0.77153900  0.42417000  0.29545500  1
  O  O42  1  0.56011100  0.30221000  0.61248800  1
  O  O43  1  0.92598200  0.31473700  0.59429800  1
  O  O44  1  0.56886200  0.31703100  0.09694000  1
  O  O45  1  0.93594000  0.30214400  0.08876000  1
  O  O46  1  0.23779400  0.14899700  0.74751800  1
  O  O47  1  0.25134700  0.14161200  0.22880500  1
  O  O48  1  0.25048300  0.10966200  0.52792400  1
  O  O49  1  0.25367300  0.09533400  0.00860000  1
  O  O50  1  0.74718300  0.10539300  0.83553500  1
  O  O51  1  0.78245900  0.09637900  0.32749100  1
