# generated using pymatgen
data_LiCr2(MoO4)3
_symmetry_space_group_name_H-M   'P 1'
_cell_length_a   6.83678200
_cell_length_b   7.03286297
_cell_length_c   11.80183359
_cell_angle_alpha   77.55772579
_cell_angle_beta   85.65707523
_cell_angle_gamma   77.87780794
_symmetry_Int_Tables_number   1
_chemical_formula_structural   LiCr2(MoO4)3
_chemical_formula_sum   'Li2 Cr4 Mo6 O24'
_cell_volume   541.49781930
_cell_formula_units_Z   2
loop_
 _symmetry_equiv_pos_site_id
 _symmetry_equiv_pos_as_xyz
  1  'x, y, z'
loop_
 _atom_site_type_symbol
 _atom_site_label
 _atom_site_symmetry_multiplicity
 _atom_site_fract_x
 _atom_site_fract_y
 _atom_site_fract_z
 _atom_site_occupancy
  Li  Li0  1  0.32158900  0.56286700  0.41303700  1
  Li  Li1  1  0.67841100  0.43713300  0.58696300  1
  Cr  Cr2  1  0.30244500  0.16495200  0.02248400  1
  Cr  Cr3  1  0.69755500  0.83504800  0.97751600  1
  Cr  Cr4  1  0.69516600  0.23010800  0.37231400  1
  Cr  Cr5  1  0.30483400  0.76989200  0.62768600  1
  Mo  Mo6  1  0.74609900  0.30093200  0.05293200  1
  Mo  Mo7  1  0.25390100  0.69906800  0.94706800  1
  Mo  Mo8  1  0.25449500  0.09238500  0.35249700  1
  Mo  Mo9  1  0.74550500  0.90761500  0.64750300  1
  Mo  Mo10  1  0.20322100  0.28711600  0.68671600  1
  Mo  Mo11  1  0.79677900  0.71288400  0.31328400  1
  O  O12  1  0.99310500  0.20034500  0.35929300  1
  O  O13  1  0.00689500  0.79965500  0.64070700  1
  O  O14  1  0.05644600  0.63946900  0.33176700  1
  O  O15  1  0.94355400  0.36053100  0.66823300  1
  O  O16  1  0.39388400  0.26925500  0.38570200  1
  O  O17  1  0.60611600  0.73074500  0.61429800  1
  O  O18  1  0.67493800  0.31930100  0.20060800  1
  O  O19  1  0.32506200  0.68069900  0.79939200  1
  O  O20  1  0.29192600  0.45863400  0.03953600  1
  O  O21  1  0.70807400  0.54136600  0.96046400  1
  O  O22  1  0.32011800  0.05155800  0.21157300  1
  O  O23  1  0.67988200  0.94844200  0.78842700  1
  O  O24  1  0.00298300  0.18928700  0.04558000  1
  O  O25  1  0.99701700  0.81071300  0.95442000  1
  O  O26  1  0.24741600  0.24723300  0.83582200  1
  O  O27  1  0.75258400  0.75276700  0.16417800  1
  O  O28  1  0.33682900  0.48523100  0.60450100  1
  O  O29  1  0.66317100  0.51476900  0.39549900  1
  O  O30  1  0.70202600  0.15007000  0.54856400  1
  O  O31  1  0.29797400  0.84993000  0.45143600  1
  O  O32  1  0.60766400  0.14159000  0.99938900  1
  O  O33  1  0.39233600  0.85841000  0.00061100  1
  O  O34  1  0.29046700  0.05371000  0.63856900  1
  O  O35  1  0.70953300  0.94629000  0.36143100  1
