# generated using pymatgen
data_Li4MnCo2O7
_symmetry_space_group_name_H-M   'P 1'
_cell_length_a   2.93648700
_cell_length_b   6.51601776
_cell_length_c   13.61131404
_cell_angle_alpha   83.81612598
_cell_angle_beta   84.76673621
_cell_angle_gamma   77.09857220
_symmetry_Int_Tables_number   1
_chemical_formula_structural   Li4MnCo2O7
_chemical_formula_sum   'Li8 Mn2 Co4 O14'
_cell_volume   251.78295086
_cell_formula_units_Z   2
loop_
 _symmetry_equiv_pos_site_id
 _symmetry_equiv_pos_as_xyz
  1  'x, y, z'
loop_
 _atom_site_type_symbol
 _atom_site_label
 _atom_site_symmetry_multiplicity
 _atom_site_fract_x
 _atom_site_fract_y
 _atom_site_fract_z
 _atom_site_occupancy
  Li  Li0  1  0.71112400  0.66016400  0.42738900  1
  Li  Li1  1  0.58018000  0.21214900  0.14177200  1
  Li  Li2  1  0.41982000  0.78785100  0.85822800  1
  Li  Li3  1  0.13387200  0.92976200  0.29179800  1
  Li  Li4  1  0.00000000  0.50000000  0.00000000  1
  Li  Li5  1  0.86612800  0.07023800  0.70820200  1
  Li  Li6  1  0.28887600  0.33983600  0.57261100  1
  Li  Li7  1  0.00000000  0.00000000  0.50000000  1
  Mn  Mn8  1  0.57130700  0.72557400  0.63899300  1
  Mn  Mn9  1  0.42869300  0.27442600  0.36100700  1
  Co  Co10  1  0.28577400  0.86205400  0.07194200  1
  Co  Co11  1  0.14400500  0.42113000  0.78454400  1
  Co  Co12  1  0.85599500  0.57887000  0.21545600  1
  Co  Co13  1  0.71422600  0.13794600  0.92805800  1
  O  O14  1  0.13485900  0.67957200  0.54901100  1
  O  O15  1  0.97924200  0.26224300  0.26142600  1
  O  O16  1  0.84730800  0.83424100  0.96568300  1
  O  O17  1  0.56179700  0.98664300  0.38864400  1
  O  O18  1  0.43585700  0.55092500  0.11152000  1
  O  O19  1  0.26936200  0.11429700  0.82699900  1
  O  O20  1  0.71787900  0.40877600  0.68367800  1
  O  O21  1  0.28212100  0.59122400  0.31632200  1
  O  O22  1  0.15269200  0.16575900  0.03431700  1
  O  O23  1  0.02075800  0.73775700  0.73857400  1
  O  O24  1  0.73063800  0.88570300  0.17300100  1
  O  O25  1  0.56414300  0.44907500  0.88848000  1
  O  O26  1  0.43820300  0.01335700  0.61135600  1
  O  O27  1  0.86514100  0.32042800  0.45098900  1
