# generated using pymatgen
data_Li9Mn2Co5O16
_symmetry_space_group_name_H-M   'P 1'
_cell_length_a   2.99744400
_cell_length_b   6.43217118
_cell_length_c   15.48318027
_cell_angle_alpha   88.90985158
_cell_angle_beta   86.65989756
_cell_angle_gamma   76.85413011
_symmetry_Int_Tables_number   1
_chemical_formula_structural   Li9Mn2Co5O16
_chemical_formula_sum   'Li9 Mn2 Co5 O16'
_cell_volume   290.19504508
_cell_formula_units_Z   1
loop_
 _symmetry_equiv_pos_site_id
 _symmetry_equiv_pos_as_xyz
  1  'x, y, z'
loop_
 _atom_site_type_symbol
 _atom_site_label
 _atom_site_symmetry_multiplicity
 _atom_site_fract_x
 _atom_site_fract_y
 _atom_site_fract_z
 _atom_site_occupancy
  Li  Li0  1  0.92786800  0.13288300  0.81225100  1
  Li  Li1  1  0.19244400  0.60797200  0.56299700  1
  Li  Li2  1  0.42929900  0.12602900  0.30986400  1
  Li  Li3  1  0.57081800  0.87804900  0.68876300  1
  Li  Li4  1  0.82576800  0.37762200  0.44337100  1
  Li  Li5  1  0.06406100  0.87809600  0.18815300  1
  Li  Li6  1  0.69286700  0.61796700  0.06286300  1
  Li  Li7  1  0.30854700  0.37818500  0.93709500  1
  Li  Li8  1  0.85752400  0.25903000  0.61990000  1
  Mn  Mn9  1  0.99378400  0.99944300  0.00079400  1
  Mn  Mn10  1  0.50243200  0.00573700  0.50307800  1
  Co  Co11  1  0.25096500  0.49208200  0.74384600  1
  Co  Co12  1  0.74803500  0.50027700  0.25048300  1
  Co  Co13  1  0.13664600  0.74481600  0.37632200  1
  Co  Co14  1  0.38015300  0.25291800  0.12643300  1
  Co  Co15  1  0.62031000  0.74651400  0.87298600  1
  O  O16  1  0.43607900  0.04650100  0.90660700  1
  O  O17  1  0.69219200  0.56100300  0.66420800  1
  O  O18  1  0.00539900  0.03824200  0.41584500  1
  O  O19  1  0.10992400  0.78902600  0.78162600  1
  O  O20  1  0.35147600  0.29157900  0.52699900  1
  O  O21  1  0.56439400  0.80018800  0.28528800  1
  O  O22  1  0.24055500  0.54555100  0.15889500  1
  O  O23  1  0.81177300  0.29909200  0.03495500  1
  O  O24  1  0.39362300  0.21858500  0.72402200  1
  O  O25  1  0.69041000  0.70090300  0.46396600  1
  O  O26  1  0.94453300  0.20215400  0.21743400  1
  O  O27  1  0.01047000  0.94408000  0.58081300  1
  O  O28  1  0.26002200  0.45308000  0.33959900  1
  O  O29  1  0.54907800  0.95650200  0.09444100  1
  O  O30  1  0.13421300  0.70086300  0.96575900  1
  O  O31  1  0.80434000  0.45503100  0.84034100  1
