# generated using pymatgen
data_LiMn(PO3)4
_symmetry_space_group_name_H-M   'P 1'
_cell_length_a   9.37755400
_cell_length_b   9.30934200
_cell_length_c   12.90633629
_cell_angle_alpha   46.46679943
_cell_angle_beta   90.00000000
_cell_angle_gamma   90.00000000
_symmetry_Int_Tables_number   1
_chemical_formula_structural   LiMn(PO3)4
_chemical_formula_sum   'Li4 Mn4 P16 O48'
_cell_volume   816.83585290
_cell_formula_units_Z   4
loop_
 _symmetry_equiv_pos_site_id
 _symmetry_equiv_pos_as_xyz
  1  'x, y, z'
loop_
 _atom_site_type_symbol
 _atom_site_label
 _atom_site_symmetry_multiplicity
 _atom_site_fract_x
 _atom_site_fract_y
 _atom_site_fract_z
 _atom_site_occupancy
  Li  Li0  1  0.00949100  0.74165400  0.75167000  1
  Li  Li1  1  0.51351900  0.24353900  0.75365400  1
  Li  Li2  1  0.48648100  0.24353900  0.25365400  1
  Li  Li3  1  0.99050900  0.74165400  0.25167000  1
  Mn  Mn4  1  0.26941600  0.49670800  0.74895200  1
  Mn  Mn5  1  0.23170600  0.98385800  0.24982200  1
  Mn  Mn6  1  0.76829400  0.98385800  0.74982200  1
  Mn  Mn7  1  0.73058400  0.49670800  0.24895200  1
  P  P8  1  0.02054800  0.74806500  0.00061600  1
  P  P9  1  0.02780800  0.25282100  0.50097700  1
  P  P10  1  0.24914200  0.98081100  0.99906900  1
  P  P11  1  0.24756300  0.51961200  0.99767300  1
  P  P12  1  0.24850300  0.02917900  0.50160700  1
  P  P13  1  0.24536700  0.47204100  0.50189200  1
  P  P14  1  0.46814600  0.25027400  0.50231100  1
  P  P15  1  0.48140900  0.75282300  0.99707600  1
  P  P16  1  0.51859100  0.75282300  0.49707600  1
  P  P17  1  0.53185400  0.25027400  0.00231100  1
  P  P18  1  0.75149700  0.02917900  0.00160700  1
  P  P19  1  0.75085800  0.98081100  0.49906900  1
  P  P20  1  0.75463300  0.47204100  0.00189200  1
  P  P21  1  0.75243700  0.51961200  0.49767300  1
  P  P22  1  0.97219200  0.25282100  0.00097700  1
  P  P23  1  0.97945200  0.74806500  0.50061600  1
  O  O24  1  0.05259300  0.44028400  0.88203600  1
  O  O25  1  0.05091800  0.05929700  0.12067400  1
  O  O26  1  0.05674400  0.56691100  0.62403700  1
  O  O27  1  0.06034000  0.93388900  0.37499000  1
  O  O28  1  0.13269500  0.69576400  0.93221400  1
  O  O29  1  0.13110500  0.80819400  0.06416700  1
  O  O30  1  0.13587100  0.29044300  0.57819600  1
  O  O31  1  0.13463500  0.20694400  0.42972900  1
  O  O32  1  0.17349300  0.66398900  0.38092500  1
  O  O33  1  0.17711700  0.83562700  0.62083500  1
  O  O34  1  0.18938000  0.32150600  0.12348600  1
  O  O35  1  0.19229800  0.18108900  0.87593100  1
  O  O36  1  0.31086100  0.56274100  0.86920500  1
  O  O37  1  0.31126300  0.93668500  0.12724300  1
  O  O38  1  0.31900500  0.43802500  0.62269500  1
  O  O39  1  0.32162900  0.07063400  0.37953700  1
  O  O40  1  0.36226300  0.43635300  0.43067800  1
  O  O41  1  0.36035600  0.06811000  0.57530800  1
  O  O42  1  0.37277600  0.93148900  0.93827200  1
  O  O43  1  0.37354800  0.57378100  0.05358500  1
  O  O44  1  0.44549600  0.68694800  0.62735400  1
  O  O45  1  0.43705500  0.81532700  0.37220200  1
  O  O46  1  0.45986700  0.29652700  0.87847200  1
  O  O47  1  0.45284300  0.20709500  0.12080400  1
  O  O48  1  0.54715700  0.20709500  0.62080400  1
  O  O49  1  0.54013300  0.29652700  0.37847200  1
  O  O50  1  0.56294500  0.81532700  0.87220200  1
  O  O51  1  0.55450400  0.68694800  0.12735400  1
  O  O52  1  0.62722400  0.93148900  0.43827200  1
  O  O53  1  0.62645200  0.57378100  0.55358500  1
  O  O54  1  0.63773700  0.43635300  0.93067800  1
  O  O55  1  0.63964400  0.06811000  0.07530800  1
  O  O56  1  0.67837100  0.07063400  0.87953700  1
  O  O57  1  0.68099500  0.43802500  0.12269500  1
  O  O58  1  0.68913900  0.56274100  0.36920500  1
  O  O59  1  0.68873700  0.93668500  0.62724300  1
  O  O60  1  0.81062000  0.32150600  0.62348600  1
  O  O61  1  0.80770200  0.18108900  0.37593100  1
  O  O62  1  0.82650700  0.66398900  0.88092500  1
  O  O63  1  0.82288300  0.83562700  0.12083500  1
  O  O64  1  0.86536500  0.20694400  0.92972900  1
  O  O65  1  0.86412900  0.29044300  0.07819600  1
  O  O66  1  0.86889500  0.80819400  0.56416700  1
  O  O67  1  0.86730500  0.69576400  0.43221400  1
  O  O68  1  0.94325600  0.56691100  0.12403700  1
  O  O69  1  0.93966000  0.93388900  0.87499000  1
  O  O70  1  0.94908200  0.05929700  0.62067400  1
  O  O71  1  0.94740700  0.44028400  0.38203600  1
