# generated using pymatgen
data_Li5Fe2(PO4)3
_symmetry_space_group_name_H-M   'P 1'
_cell_length_a   8.82014700
_cell_length_b   8.71788400
_cell_length_c   12.57496355
_cell_angle_alpha   88.93004595
_cell_angle_beta   90.00000000
_cell_angle_gamma   90.00000000
_symmetry_Int_Tables_number   1
_chemical_formula_structural   Li5Fe2(PO4)3
_chemical_formula_sum   'Li20 Fe8 P12 O48'
_cell_volume   966.75831195
_cell_formula_units_Z   4
loop_
 _symmetry_equiv_pos_site_id
 _symmetry_equiv_pos_as_xyz
  1  'x, y, z'
loop_
 _atom_site_type_symbol
 _atom_site_label
 _atom_site_symmetry_multiplicity
 _atom_site_fract_x
 _atom_site_fract_y
 _atom_site_fract_z
 _atom_site_occupancy
  Li  Li0  1  0.52308200  0.17280900  0.10618800  1
  Li  Li1  1  0.09668200  0.17507300  0.43971900  1
  Li  Li2  1  0.73361100  0.11002500  0.49645000  1
  Li  Li3  1  0.66010100  0.15644500  0.71816500  1
  Li  Li4  1  0.76806700  0.05104100  0.93188400  1
  Li  Li5  1  0.26806700  0.94895900  0.06811600  1
  Li  Li6  1  0.16010100  0.84355500  0.28183500  1
  Li  Li7  1  0.23361100  0.88997500  0.50355000  1
  Li  Li8  1  0.59668200  0.82492700  0.56028100  1
  Li  Li9  1  0.02308200  0.82719100  0.89381200  1
  Li  Li10  1  0.98032900  0.68948800  0.59839400  1
  Li  Li11  1  0.40328900  0.67042500  0.93998200  1
  Li  Li12  1  0.77236200  0.62864900  0.00540000  1
  Li  Li13  1  0.69061000  0.61621800  0.24723600  1
  Li  Li14  1  0.73419100  0.55331400  0.44572400  1
  Li  Li15  1  0.23419100  0.44668600  0.55427600  1
  Li  Li16  1  0.19061000  0.38378200  0.75276400  1
  Li  Li17  1  0.27236200  0.37135100  0.99460000  1
  Li  Li18  1  0.90328900  0.32957500  0.06001800  1
  Li  Li19  1  0.48032900  0.31051200  0.40160600  1
  Fe  Fe20  1  0.53650700  0.99298100  0.34941500  1
  Fe  Fe21  1  0.03650700  0.00701900  0.65058500  1
  Fe  Fe22  1  0.44429700  0.00083300  0.85961900  1
  Fe  Fe23  1  0.94429700  0.99916700  0.14038100  1
  Fe  Fe24  1  0.04464600  0.50146300  0.35069200  1
  Fe  Fe25  1  0.54464600  0.49853700  0.64930800  1
  Fe  Fe26  1  0.94438300  0.50252800  0.85498600  1
  Fe  Fe27  1  0.44438300  0.49747200  0.14501400  1
  P  P28  1  0.24603700  0.19403600  0.24158500  1
  P  P29  1  0.39415200  0.14343200  0.59742900  1
  P  P30  1  0.09907000  0.14254400  0.90914600  1
  P  P31  1  0.89415200  0.85656800  0.40257100  1
  P  P32  1  0.59907000  0.85745600  0.09085400  1
  P  P33  1  0.74603700  0.80596400  0.75841500  1
  P  P34  1  0.24612500  0.69818900  0.74014700  1
  P  P35  1  0.40197800  0.64652500  0.40225800  1
  P  P36  1  0.10776800  0.64375500  0.09658300  1
  P  P37  1  0.90197800  0.35347500  0.59774200  1
  P  P38  1  0.60776800  0.35624500  0.90341700  1
  P  P39  1  0.74612500  0.30181100  0.25985300  1
  O  O40  1  0.86148600  0.21180700  0.19446800  1
  O  O41  1  0.85985600  0.17970000  0.62042400  1
  O  O42  1  0.68027100  0.20932100  0.35688500  1
  O  O43  1  0.58609900  0.18742000  0.94408400  1
  O  O44  1  0.37126500  0.15416500  0.32531700  1
  O  O45  1  0.22810100  0.09654000  0.56692500  1
  O  O46  1  0.41628300  0.13404200  0.71797900  1
  O  O47  1  0.97274500  0.13022800  0.99531700  1
  O  O48  1  0.25728200  0.09002400  0.94958400  1
  O  O49  1  0.17726000  0.03994800  0.20106200  1
  O  O50  1  0.04962700  0.04001500  0.81646200  1
  O  O51  1  0.51228100  0.03951400  0.54026500  1
  O  O52  1  0.01228100  0.96048600  0.45973500  1
  O  O53  1  0.54962700  0.95998500  0.18353800  1
  O  O54  1  0.67726000  0.96005200  0.79893800  1
  O  O55  1  0.75728200  0.90997600  0.05041600  1
  O  O56  1  0.91628300  0.86595800  0.28202100  1
  O  O57  1  0.47274500  0.86977200  0.00468300  1
  O  O58  1  0.72810100  0.90346000  0.43307500  1
  O  O59  1  0.87126500  0.84583500  0.67468300  1
  O  O60  1  0.18027100  0.79067900  0.64311500  1
  O  O61  1  0.35985600  0.82030000  0.37957600  1
  O  O62  1  0.08609900  0.81258000  0.05591600  1
  O  O63  1  0.36148600  0.78819300  0.80553200  1
  O  O64  1  0.62720700  0.71442700  0.69778000  1
  O  O65  1  0.91997500  0.68558600  0.44312700  1
  O  O66  1  0.61481700  0.68236700  0.11744600  1
  O  O67  1  0.81576800  0.71878400  0.85565400  1
  O  O68  1  0.11754300  0.65199400  0.81958800  1
  O  O69  1  0.26581000  0.58595900  0.05554700  1
  O  O70  1  0.51887500  0.63493200  0.49585000  1
  O  O71  1  0.11475700  0.63741600  0.21946500  1
  O  O72  1  0.25361100  0.56273800  0.43084800  1
  O  O73  1  0.31306500  0.54478600  0.69514400  1
  O  O74  1  0.48233200  0.57130500  0.30660600  1
  O  O75  1  0.97967800  0.54425800  0.04973100  1
  O  O76  1  0.47967800  0.45574200  0.95026900  1
  O  O77  1  0.98233200  0.42869500  0.69339400  1
  O  O78  1  0.81306500  0.45521400  0.30485600  1
  O  O79  1  0.75361100  0.43726200  0.56915200  1
  O  O80  1  0.01887500  0.36506800  0.50415000  1
  O  O81  1  0.61475700  0.36258400  0.78053500  1
  O  O82  1  0.76581000  0.41404100  0.94445300  1
  O  O83  1  0.61754300  0.34800600  0.18041200  1
  O  O84  1  0.41997500  0.31441400  0.55687300  1
  O  O85  1  0.31576800  0.28121600  0.14434600  1
  O  O86  1  0.11481700  0.31763300  0.88255400  1
  O  O87  1  0.12720700  0.28557300  0.30222000  1
