# generated using pymatgen
data_Li7Mn4CoO12
_symmetry_space_group_name_H-M   'P 1'
_cell_length_a   2.86907700
_cell_length_b   11.07090024
_cell_length_c   14.70985753
_cell_angle_alpha   72.69774359
_cell_angle_beta   95.59650479
_cell_angle_gamma   82.55458946
_symmetry_Int_Tables_number   1
_chemical_formula_structural   Li7Mn4CoO12
_chemical_formula_sum   'Li14 Mn8 Co2 O24'
_cell_volume   437.73708699
_cell_formula_units_Z   2
loop_
 _symmetry_equiv_pos_site_id
 _symmetry_equiv_pos_as_xyz
  1  'x, y, z'
loop_
 _atom_site_type_symbol
 _atom_site_label
 _atom_site_symmetry_multiplicity
 _atom_site_fract_x
 _atom_site_fract_y
 _atom_site_fract_z
 _atom_site_occupancy
  Li  Li0  1  0.66650700  0.75024500  0.08326200  1
  Li  Li1  1  0.66678200  0.24978200  0.58336700  1
  Li  Li2  1  0.50781700  0.61022400  0.62571100  1
  Li  Li3  1  0.50835900  0.10976700  0.12621700  1
  Li  Li4  1  0.82563100  0.38975700  0.04096500  1
  Li  Li5  1  0.82505300  0.89023900  0.54048100  1
  Li  Li6  1  0.50305200  0.87551100  0.88172700  1
  Li  Li7  1  0.50328200  0.37531900  0.38202500  1
  Li  Li8  1  0.82996800  0.62465400  0.28462400  1
  Li  Li9  1  0.83018500  0.12450200  0.78493500  1
  Li  Li10  1  0.17472800  0.35749100  0.70698400  1
  Li  Li11  1  0.17409600  0.85860300  0.20682600  1
  Li  Li12  1  0.15844800  0.64251200  0.95968700  1
  Li  Li13  1  0.15908000  0.14138300  0.45985900  1
  Mn  Mn14  1  0.00920100  0.98317600  0.00154800  1
  Mn  Mn15  1  0.00939400  0.48283000  0.50160700  1
  Mn  Mn16  1  0.32396800  0.51714500  0.16504700  1
  Mn  Mn17  1  0.32413200  0.01684800  0.66514700  1
  Mn  Mn18  1  0.99684300  0.25575600  0.24938100  1
  Mn  Mn19  1  0.99694400  0.75530800  0.74906800  1
  Mn  Mn20  1  0.33643300  0.24471700  0.91759200  1
  Mn  Mn21  1  0.33648600  0.74428300  0.41725900  1
  Co  Co22  1  0.66666400  0.99998900  0.33333900  1
  Co  Co23  1  0.66667800  0.50000200  0.83333100  1
  O  O24  1  0.57787100  0.43999100  0.59574900  1
  O  O25  1  0.57779500  0.94003500  0.09566400  1
  O  O26  1  0.75547800  0.55997600  0.07092400  1
  O  O27  1  0.75553200  0.05996700  0.57103400  1
  O  O28  1  0.57318100  0.69784500  0.84419500  1
  O  O29  1  0.57315500  0.19772600  0.34407400  1
  O  O30  1  0.76016900  0.30219100  0.82246600  1
  O  O31  1  0.76019700  0.80228100  0.32258300  1
  O  O32  1  0.91821400  0.17667600  0.01311000  1
  O  O33  1  0.91807900  0.67666500  0.51287100  1
  O  O34  1  0.41530900  0.32332300  0.15377600  1
  O  O35  1  0.41517900  0.82334100  0.65354800  1
  O  O36  1  0.90231900  0.45270700  0.25732500  1
  O  O37  1  0.90261000  0.95222000  0.75739800  1
  O  O38  1  0.43107100  0.54726400  0.40933200  1
  O  O39  1  0.43078100  0.04779000  0.90929300  1
  O  O40  1  0.25697700  0.67216600  0.18610000  1
  O  O41  1  0.25716500  0.17196100  0.68627000  1
  O  O42  1  0.07613900  0.82805700  0.98039500  1
  O  O43  1  0.07634900  0.32779600  0.48054000  1
  O  O44  1  0.24089000  0.44463600  0.92635800  1
  O  O45  1  0.24024300  0.94593900  0.42634100  1
  O  O46  1  0.09247200  0.55537400  0.74031600  1
  O  O47  1  0.09309400  0.05403300  0.24034700  1
