# generated using pymatgen
data_Li4Co5NiO12
_symmetry_space_group_name_H-M   'P 1'
_cell_length_a   4.93947951
_cell_length_b   20.12708310
_cell_length_c   4.92946925
_cell_angle_alpha   94.52270185
_cell_angle_beta   118.83513261
_cell_angle_gamma   94.46362075
_symmetry_Int_Tables_number   1
_chemical_formula_structural   Li4Co5NiO12
_chemical_formula_sum   'Li8 Co10 Ni2 O24'
_cell_volume   424.19093179
_cell_formula_units_Z   2
loop_
 _symmetry_equiv_pos_site_id
 _symmetry_equiv_pos_as_xyz
  1  'x, y, z'
loop_
 _atom_site_type_symbol
 _atom_site_label
 _atom_site_symmetry_multiplicity
 _atom_site_fract_x
 _atom_site_fract_y
 _atom_site_fract_z
 _atom_site_occupancy
  Li  Li0  1  0.56637900  0.37541300  0.24423500  1
  Li  Li1  1  0.58882300  0.87247200  0.25081600  1
  Li  Li2  1  0.74232300  0.12721900  0.41373600  1
  Li  Li3  1  0.76287900  0.62499300  0.43278100  1
  Li  Li4  1  0.23923400  0.37380400  0.56439200  1
  Li  Li5  1  0.25731100  0.87198900  0.58695400  1
  Li  Li6  1  0.41268800  0.12724900  0.74263700  1
  Li  Li7  1  0.43599100  0.62690600  0.76211700  1
  Co  Co8  1  0.49248100  0.25141000  0.49355300  1
  Co  Co9  1  0.50105000  0.74841600  0.50895300  1
  Co  Co10  1  0.83253800  0.25061100  0.16527800  1
  Co  Co11  1  0.83001800  0.74994400  0.16563700  1
  Co  Co12  1  0.16383400  0.25059100  0.83380500  1
  Co  Co13  1  0.17437100  0.74875400  0.83693100  1
  Co  Co14  1  0.33304800  0.50029700  0.66223700  1
  Co  Co15  1  0.33329900  0.99978900  0.67012500  1
  Co  Co16  1  0.67350400  0.99985400  0.33008500  1
  Co  Co17  1  0.66309700  0.50021100  0.33190700  1
  Ni  Ni18  1  0.99774800  0.50018500  0.99765200  1
  Ni  Ni19  1  0.00322400  0.99988800  0.00025700  1
  O  O20  1  0.21967300  0.30482300  0.22074900  1
  O  O21  1  0.20464600  0.79886100  0.21705000  1
  O  O22  1  0.77901300  0.19908900  0.77979500  1
  O  O23  1  0.78626200  0.69852600  0.80343400  1
  O  O24  1  0.39659300  0.05167800  0.39342400  1
  O  O25  1  0.38638000  0.55342900  0.39182800  1
  O  O26  1  0.60350500  0.44728000  0.60989600  1
  O  O27  1  0.61000500  0.94786900  0.60636600  1
  O  O28  1  0.67305500  0.05306200  0.03514700  1
  O  O29  1  0.68470800  0.55038800  0.02260200  1
  O  O30  1  0.97282200  0.45000100  0.31049100  1
  O  O31  1  0.96808600  0.94669300  0.33000700  1
  O  O32  1  0.03858600  0.05301500  0.67026300  1
  O  O33  1  0.02805400  0.54978600  0.68739100  1
  O  O34  1  0.30825700  0.45062900  0.96689700  1
  O  O35  1  0.33260600  0.94671100  0.96488100  1
  O  O36  1  0.46438800  0.19675200  0.14846500  1
  O  O37  1  0.50635800  0.69507300  0.16309700  1
  O  O38  1  0.14768100  0.19681400  0.46497000  1
  O  O39  1  0.15789400  0.69346700  0.49990900  1
  O  O40  1  0.83662500  0.30491200  0.50659900  1
  O  O41  1  0.85244600  0.80103000  0.51459900  1
  O  O42  1  0.50504200  0.30475000  0.83831000  1
  O  O43  1  0.53347500  0.80537000  0.85974300  1
