# generated using pymatgen
data_Li7Mn4CoO12
_symmetry_space_group_name_H-M   'P 1'
_cell_length_a   2.87973355
_cell_length_b   23.05722558
_cell_length_c   6.73652297
_cell_angle_alpha   94.37236009
_cell_angle_beta   102.34561565
_cell_angle_gamma   86.79977092
_symmetry_Int_Tables_number   1
_chemical_formula_structural   Li7Mn4CoO12
_chemical_formula_sum   'Li14 Mn8 Co2 O24'
_cell_volume   435.32217119
_cell_formula_units_Z   2
loop_
 _symmetry_equiv_pos_site_id
 _symmetry_equiv_pos_as_xyz
  1  'x, y, z'
loop_
 _atom_site_type_symbol
 _atom_site_label
 _atom_site_symmetry_multiplicity
 _atom_site_fract_x
 _atom_site_fract_y
 _atom_site_fract_z
 _atom_site_occupancy
  Li  Li0  1  0.66649900  0.41688500  0.74916800  1
  Li  Li1  1  0.66682000  0.91643500  0.25082700  1
  Li  Li2  1  0.66606700  0.03798300  0.36653000  1
  Li  Li3  1  0.66651100  0.53919200  0.86644700  1
  Li  Li4  1  0.66725500  0.29532700  0.63346300  1
  Li  Li5  1  0.66682200  0.79413400  0.13357600  1
  Li  Li6  1  0.00314700  0.12580600  0.13301500  1
  Li  Li7  1  0.00555500  0.62513500  0.63312700  1
  Li  Li8  1  0.33016200  0.20750900  0.86694000  1
  Li  Li9  1  0.32779100  0.70818100  0.36690200  1
  Li  Li10  1  0.32757800  0.45732400  0.11220300  1
  Li  Li11  1  0.32783800  0.95760600  0.61409900  1
  Li  Li12  1  0.00548900  0.37572600  0.38592300  1
  Li  Li13  1  0.00574700  0.87600700  0.88781100  1
  Mn  Mn14  1  0.01136900  0.99733500  0.02099800  1
  Mn  Mn15  1  0.32198000  0.33600300  0.97908800  1
  Mn  Mn16  1  0.33612200  0.58228700  0.25011400  1
  Mn  Mn17  1  0.99721400  0.75103800  0.74987700  1
  Mn  Mn18  1  0.01330900  0.49728600  0.51872400  1
  Mn  Mn19  1  0.32015600  0.83604100  0.48142300  1
  Mn  Mn20  1  0.33544900  0.08233200  0.75347100  1
  Mn  Mn21  1  0.99780800  0.25109000  0.24627200  1
  Co  Co22  1  0.66663100  0.16667100  0.49995800  1
  Co  Co23  1  0.66666100  0.66665600  0.00000400  1
  O  O24  1  0.50769400  0.05452400  0.06612700  1
  O  O25  1  0.50883800  0.55505200  0.56129400  1
  O  O26  1  0.82560800  0.27881700  0.93384400  1
  O  O27  1  0.82452400  0.77827200  0.43875300  1
  O  O28  1  0.83821000  0.13879700  0.81325400  1
  O  O29  1  0.83755200  0.63896300  0.31322400  1
  O  O30  1  0.49513100  0.19456400  0.18671400  1
  O  O31  1  0.49579700  0.69435900  0.68678400  1
  O  O32  1  0.17323200  0.22122000  0.56086500  1
  O  O33  1  0.13189100  0.72529200  0.05243800  1
  O  O34  1  0.16003800  0.11211400  0.43904900  1
  O  O35  1  0.20144700  0.60803400  0.94755900  1
  O  O36  1  0.15284000  0.48111600  0.78570500  1
  O  O37  1  0.15296800  0.98121000  0.28871000  1
  O  O38  1  0.18036600  0.35211700  0.71131900  1
  O  O39  1  0.18050200  0.85220200  0.21433200  1
  O  O40  1  0.83658300  0.38919200  0.05651400  1
  O  O41  1  0.83480900  0.88915500  0.55848200  1
  O  O42  1  0.49855800  0.44417600  0.44156600  1
  O  O43  1  0.49673800  0.94414600  0.94350700  1
  O  O44  1  0.49183700  0.30948400  0.29070800  1
  O  O45  1  0.48339700  0.80959600  0.79021000  1
  O  O46  1  0.84149900  0.02388900  0.70926000  1
  O  O47  1  0.84996100  0.52372500  0.20981900  1
