# generated using pymatgen
data_Li7Mn4CoO12
_symmetry_space_group_name_H-M   'P 1'
_cell_length_a   2.87141742
_cell_length_b   9.84468184
_cell_length_c   15.69306769
_cell_angle_alpha   82.87615753
_cell_angle_beta   90.05091718
_cell_angle_gamma   98.29216721
_symmetry_Int_Tables_number   1
_chemical_formula_structural   Li7Mn4CoO12
_chemical_formula_sum   'Li14 Mn8 Co2 O24'
_cell_volume   435.52288935
_cell_formula_units_Z   2
loop_
 _symmetry_equiv_pos_site_id
 _symmetry_equiv_pos_as_xyz
  1  'x, y, z'
loop_
 _atom_site_type_symbol
 _atom_site_label
 _atom_site_symmetry_multiplicity
 _atom_site_fract_x
 _atom_site_fract_y
 _atom_site_fract_z
 _atom_site_occupancy
  Li  Li0  1  0.50009300  0.00014200  0.16656800  1
  Li  Li1  1  0.99991200  0.99985400  0.66676600  1
  Li  Li2  1  0.62139900  0.24241200  0.04244900  1
  Li  Li3  1  0.12024600  0.24198300  0.54343300  1
  Li  Li4  1  0.37976300  0.75801600  0.28990400  1
  Li  Li5  1  0.87860600  0.75758700  0.79088800  1
  Li  Li6  1  0.87798000  0.75619000  0.12973400  1
  Li  Li7  1  0.37791300  0.75609100  0.63000500  1
  Li  Li8  1  0.12209400  0.24390800  0.20333200  1
  Li  Li9  1  0.62203000  0.24381700  0.70360300  1
  Li  Li10  1  0.62729800  0.25426200  0.37255500  1
  Li  Li11  1  0.12652800  0.25409500  0.87311200  1
  Li  Li12  1  0.87270800  0.74573600  0.46078100  1
  Li  Li13  1  0.37347700  0.74590400  0.96022200  1
  Mn  Mn14  1  0.00151500  0.00231900  0.00364100  1
  Mn  Mn15  1  0.50147900  0.00233100  0.50362000  1
  Mn  Mn16  1  0.99852800  0.99766700  0.32971900  1
  Mn  Mn17  1  0.49848500  0.99767600  0.82968700  1
  Mn  Mn18  1  0.24885300  0.49739700  0.08127400  1
  Mn  Mn19  1  0.74880000  0.49708100  0.58172000  1
  Mn  Mn20  1  0.75119900  0.50289500  0.25159800  1
  Mn  Mn21  1  0.25107500  0.50262600  0.75205400  1
  Co  Co22  1  0.74999800  0.49999600  0.91666700  1
  Co  Co23  1  0.25000300  0.49999800  0.41666500  1
  O  O24  1  0.05286300  0.10644100  0.43706600  1
  O  O25  1  0.55246800  0.10633600  0.93712600  1
  O  O26  1  0.44714500  0.89355900  0.39627400  1
  O  O27  1  0.94753200  0.89365500  0.89620200  1
  O  O28  1  0.80837100  0.61599500  0.02854000  1
  O  O29  1  0.30758800  0.61603000  0.52913800  1
  O  O30  1  0.19241500  0.38396900  0.30419600  1
  O  O31  1  0.69161900  0.38402800  0.80479000  1
  O  O32  1  0.05653100  0.11246100  0.08927100  1
  O  O33  1  0.55629000  0.11248800  0.58922400  1
  O  O34  1  0.94372000  0.88751600  0.24411700  1
  O  O35  1  0.44347000  0.88752600  0.74405600  1
  O  O36  1  0.30906200  0.62052100  0.19647500  1
  O  O37  1  0.81232700  0.62028700  0.69714000  1
  O  O38  1  0.68765600  0.37973200  0.13618900  1
  O  O39  1  0.19094400  0.37948500  0.63685800  1
  O  O40  1  0.55598300  0.11365500  0.27950400  1
  O  O41  1  0.05599600  0.11367400  0.77948600  1
  O  O42  1  0.44400300  0.88631600  0.05384200  1
  O  O43  1  0.94402600  0.88634500  0.55383500  1
  O  O44  1  0.80618300  0.61445900  0.36542400  1
  O  O45  1  0.32202200  0.61418300  0.86639300  1
  O  O46  1  0.69382200  0.38553400  0.46791100  1
  O  O47  1  0.17798000  0.38582100  0.96694600  1
