# generated using pymatgen
data_Li4MnCo2O7
_symmetry_space_group_name_H-M   'P 1'
_cell_length_a   2.99013623
_cell_length_b   2.99013623
_cell_length_c   34.50281743
_cell_angle_alpha   87.14437003
_cell_angle_beta   87.14437003
_cell_angle_gamma   57.20157723
_symmetry_Int_Tables_number   1
_chemical_formula_structural   Li4MnCo2O7
_chemical_formula_sum   'Li8 Mn2 Co4 O14'
_cell_volume   258.89045522
_cell_formula_units_Z   2
loop_
 _symmetry_equiv_pos_site_id
 _symmetry_equiv_pos_as_xyz
  1  'x, y, z'
loop_
 _atom_site_type_symbol
 _atom_site_label
 _atom_site_symmetry_multiplicity
 _atom_site_fract_x
 _atom_site_fract_y
 _atom_site_fract_z
 _atom_site_occupancy
  Li  Li0  1  0.71773700  0.71773700  0.92717400  1
  Li  Li1  1  0.13981000  0.13981000  0.78723200  1
  Li  Li2  1  0.57454400  0.57454400  0.64109400  1
  Li  Li3  1  0.00700300  0.00700300  0.49830600  1
  Li  Li4  1  0.42065400  0.42065400  0.35868800  1
  Li  Li5  1  0.85486700  0.85486700  0.21519700  1
  Li  Li6  1  0.28382200  0.28382200  0.07238700  1
  Li  Li7  1  0.71487500  0.71487500  0.42846600  1
  Mn  Mn8  1  0.00065600  0.00065600  0.00006700  1
  Mn  Mn9  1  0.85649300  0.85649300  0.71415500  1
  Co  Co10  1  0.42859100  0.42859100  0.85721900  1
  Co  Co11  1  0.28862300  0.28862300  0.57183800  1
  Co  Co12  1  0.14051900  0.14051900  0.28492500  1
  Co  Co13  1  0.57131600  0.57131600  0.14332000  1
  O  O14  1  0.37919100  0.37919100  0.96707100  1
  O  O15  1  0.77899400  0.77899400  0.82422300  1
  O  O16  1  0.23517600  0.23517600  0.68090500  1
  O  O17  1  0.65280600  0.65280600  0.54245500  1
  O  O18  1  0.07338500  0.07338500  0.39107100  1
  O  O19  1  0.51377300  0.51377300  0.25322600  1
  O  O20  1  0.92581500  0.92581500  0.11084900  1
  O  O21  1  0.07791700  0.07791700  0.89021200  1
  O  O22  1  0.47846600  0.47846600  0.74712900  1
  O  O23  1  0.91521800  0.91521800  0.60360100  1
  O  O24  1  0.35508000  0.35508000  0.46589900  1
  O  O25  1  0.77586700  0.77586700  0.31434600  1
  O  O26  1  0.21812800  0.21812800  0.17547000  1
  O  O27  1  0.62067700  0.62067700  0.03347400  1
