# generated using pymatgen
data_Li2S
_symmetry_space_group_name_H-M   'P 1'
_cell_length_a   3.80822900
_cell_length_b   6.31091000
_cell_length_c   7.26217700
_cell_angle_alpha   90.00000000
_cell_angle_beta   90.00000000
_cell_angle_gamma   90.00000000
_symmetry_Int_Tables_number   1
_chemical_formula_structural   Li2S
_chemical_formula_sum   'Li8 S4'
_cell_volume   174.53473556
_cell_formula_units_Z   4
loop_
 _symmetry_equiv_pos_site_id
 _symmetry_equiv_pos_as_xyz
  1  'x, y, z'
loop_
 _atom_site_type_symbol
 _atom_site_label
 _atom_site_symmetry_multiplicity
 _atom_site_fract_x
 _atom_site_fract_y
 _atom_site_fract_z
 _atom_site_occupancy
  Li  Li0  1  0.25000000  0.85881100  0.07131800  1
  Li  Li1  1  0.75000000  0.14118900  0.92868200  1
  Li  Li2  1  0.25000000  0.35881100  0.42868200  1
  Li  Li3  1  0.75000000  0.64118900  0.57131800  1
  Li  Li4  1  0.75000000  0.02241400  0.33440500  1
  Li  Li5  1  0.25000000  0.97758600  0.66559500  1
  Li  Li6  1  0.75000000  0.52241400  0.16559500  1
  Li  Li7  1  0.25000000  0.47758600  0.83440500  1
  S  S8  1  0.25000000  0.24502500  0.11117200  1
  S  S9  1  0.75000000  0.75497500  0.88882800  1
  S  S10  1  0.25000000  0.74502500  0.38882800  1
  S  S11  1  0.75000000  0.25497500  0.61117200  1
