# generated using pymatgen
data_Li9Mn2Co5O16
_symmetry_space_group_name_H-M   'P 1'
_cell_length_a   5.86416900
_cell_length_b   5.91899648
_cell_length_c   9.73943522
_cell_angle_alpha   79.42615003
_cell_angle_beta   80.24452346
_cell_angle_gamma   60.44829589
_symmetry_Int_Tables_number   1
_chemical_formula_structural   Li9Mn2Co5O16
_chemical_formula_sum   'Li9 Mn2 Co5 O16'
_cell_volume   287.85040439
_cell_formula_units_Z   1
loop_
 _symmetry_equiv_pos_site_id
 _symmetry_equiv_pos_as_xyz
  1  'x, y, z'
loop_
 _atom_site_type_symbol
 _atom_site_label
 _atom_site_symmetry_multiplicity
 _atom_site_fract_x
 _atom_site_fract_y
 _atom_site_fract_z
 _atom_site_occupancy
  Li  Li0  1  0.87404300  0.88006800  0.75286300  1
  Li  Li1  1  0.25292900  0.74609600  0.50041600  1
  Li  Li2  1  0.62632000  0.62164600  0.24412600  1
  Li  Li3  1  0.99789600  0.49980800  0.00240200  1
  Li  Li4  1  0.37145600  0.38440600  0.75925000  1
  Li  Li5  1  0.74999100  0.25071800  0.49983100  1
  Li  Li6  1  0.12589500  0.11823300  0.24530100  1
  Li  Li7  1  0.49770000  0.99959400  0.99853100  1
  Li  Li8  1  0.49776500  0.50274900  0.99931800  1
  Mn  Mn9  1  0.99930100  0.00508000  0.99866900  1
  Mn  Mn10  1  0.74828700  0.74564400  0.50020000  1
  Co  Co11  1  0.86181700  0.38639900  0.75792300  1
  Co  Co12  1  0.61993300  0.12887000  0.24249500  1
  Co  Co13  1  0.37690600  0.87568600  0.75225300  1
  Co  Co14  1  0.25368300  0.24659700  0.50048800  1
  Co  Co15  1  0.13575700  0.62050400  0.24430700  1
  O  O16  1  0.71469900  0.18694400  0.87446800  1
  O  O17  1  0.09126000  0.06796500  0.62911900  1
  O  O18  1  0.46076900  0.92700500  0.38413000  1
  O  O19  1  0.82367000  0.82337800  0.11857100  1
  O  O20  1  0.18087400  0.72802300  0.87657600  1
  O  O21  1  0.57963900  0.56052900  0.61947100  1
  O  O22  1  0.93597600  0.46289100  0.37997200  1
  O  O23  1  0.31953200  0.30853200  0.13981400  1
  O  O24  1  0.04521200  0.55873300  0.61957200  1
  O  O25  1  0.43142200  0.42031500  0.37572700  1
  O  O26  1  0.82085900  0.28319700  0.11932300  1
  O  O27  1  0.16938000  0.19352900  0.88307000  1
  O  O28  1  0.57034800  0.02836000  0.61867200  1
  O  O29  1  0.91974700  0.92421900  0.37831500  1
  O  O30  1  0.28176000  0.81581700  0.12500000  1
  O  O31  1  0.66518100  0.69846100  0.85982700  1
