# generated using pymatgen
data_Li5V3P8O29
_symmetry_space_group_name_H-M   'P 1'
_cell_length_a   9.73866000
_cell_length_b   9.79924000
_cell_length_c   14.11498121
_cell_angle_alpha   88.96818033
_cell_angle_beta   89.18110210
_cell_angle_gamma   60.24028565
_symmetry_Int_Tables_number   1
_chemical_formula_structural   Li5V3P8O29
_chemical_formula_sum   'Li10 V6 P16 O58'
_cell_volume   1169.15020383
_cell_formula_units_Z   2
loop_
 _symmetry_equiv_pos_site_id
 _symmetry_equiv_pos_as_xyz
  1  'x, y, z'
loop_
 _atom_site_type_symbol
 _atom_site_label
 _atom_site_symmetry_multiplicity
 _atom_site_fract_x
 _atom_site_fract_y
 _atom_site_fract_z
 _atom_site_occupancy
  Li  Li0  1  0.23754000  0.09833000  0.55726400  1
  Li  Li1  1  0.09707800  0.66520300  0.56576500  1
  Li  Li2  1  0.23680400  0.65796700  0.06089000  1
  Li  Li3  1  0.67017800  0.09946900  0.06287500  1
  Li  Li4  1  0.66686300  0.23471300  0.55775000  1
  Li  Li5  1  0.76938800  0.31529500  0.93759800  1
  Li  Li6  1  0.66467300  0.67978000  0.10538800  1
  Li  Li7  1  0.90311700  0.33302700  0.43563400  1
  Li  Li8  1  0.06441500  0.98482400  0.99046600  1
  Li  Li9  1  0.02507600  0.95351400  0.49862700  1
  V  V10  1  0.43011600  0.57156000  0.25492900  1
  V  V11  1  0.56265100  0.43638800  0.74866500  1
  V  V12  1  0.43491100  0.99996400  0.75305000  1
  V  V13  1  0.56315900  0.00108900  0.25396300  1
  V  V14  1  0.00398200  0.43479200  0.24372300  1
  V  V15  1  0.99951800  0.56544700  0.75184000  1
  P  P16  1  0.08329900  0.21734400  0.83747200  1
  P  P17  1  0.22102300  0.08354100  0.34394600  1
  P  P18  1  0.08172100  0.68585600  0.34692100  1
  P  P19  1  0.33878700  0.33871600  0.12966400  1
  P  P20  1  0.33568300  0.32904200  0.62987500  1
  P  P21  1  0.22759100  0.68391000  0.84496600  1
  P  P22  1  0.30586600  0.78239100  0.66249400  1
  P  P23  1  0.68566300  0.08614900  0.84616700  1
  P  P24  1  0.30774500  0.91297000  0.15989800  1
  P  P25  1  0.68588700  0.22620800  0.33886600  1
  P  P26  1  0.77241600  0.32166400  0.15616200  1
  P  P27  1  0.67160900  0.66021100  0.36686400  1
  P  P28  1  0.66631300  0.66550200  0.86729600  1
  P  P29  1  0.91242700  0.31917000  0.65461000  1
  P  P30  1  0.78091200  0.91783600  0.66308400  1
  P  P31  1  0.91151100  0.78366600  0.16375900  1
  O  O32  1  0.99508900  0.24074100  0.56362200  1
  O  O33  1  0.07923900  0.25090700  0.33456100  1
  O  O34  1  0.20667200  0.00052100  0.07848900  1
  O  O35  1  0.25702800  0.07866100  0.83287900  1
  O  O36  1  0.07763600  0.37548300  0.83259400  1
  O  O37  1  0.18850300  0.34015700  0.17492300  1
  O  O38  1  0.08324300  0.53090600  0.33376700  1
  O  O39  1  0.01217300  0.79011700  0.08546200  1
  O  O40  1  0.09007600  0.65110100  0.82986400  1
  O  O41  1  0.32487600  0.18637700  0.67791200  1
  O  O42  1  0.37869300  0.08573900  0.32609400  1
  O  O43  1  0.18853800  0.48386000  0.66464400  1
  O  O44  1  0.33352500  0.35888400  0.02479300  1
  O  O45  1  0.34158400  0.31029800  0.52459400  1
  O  O46  1  0.33520900  0.48697700  0.17536200  1
  O  O47  1  0.52628500  0.08970600  0.82666600  1
  O  O48  1  0.48675300  0.18846300  0.16701300  1
  O  O49  1  0.25265600  0.66053800  0.33040000  1
  O  O50  1  0.21345900  0.80448000  0.76265800  1
  O  O51  1  0.19436700  0.79950400  0.58504100  1
  O  O52  1  0.21831800  0.75897700  0.93774400  1
  O  O53  1  0.38401600  0.52758100  0.82770700  1
  O  O54  1  0.48914100  0.32222200  0.66846900  1
  O  O55  1  0.34100800  0.73843300  0.16136100  1
  O  O56  1  0.52794700  0.38294400  0.32436000  1
  O  O57  1  0.66005100  0.08470200  0.33695700  1
  O  O58  1  0.21219500  0.98266400  0.25844100  1
  O  O59  1  0.21487000  0.00999600  0.43683500  1
  O  O60  1  0.79542300  0.01178800  0.58250400  1
  O  O61  1  0.33945100  0.92254900  0.66005100  1
  O  O62  1  0.45984700  0.62515600  0.66871200  1
  O  O63  1  0.66283500  0.25407900  0.83594500  1
  O  O64  1  0.51843500  0.66514700  0.32210200  1
  O  O65  1  0.62021000  0.48315800  0.17174200  1
  O  O66  1  0.76233600  0.23966500  0.06929700  1
  O  O67  1  0.76919600  0.22968300  0.42750500  1
  O  O68  1  0.79317800  0.21097400  0.24770300  1
  O  O69  1  0.74175000  0.34461500  0.65861300  1
  O  O70  1  0.51742000  0.81295300  0.82038300  1
  O  O71  1  0.47159100  0.90202300  0.16877700  1
  O  O72  1  0.67148600  0.51263400  0.83083000  1
  O  O73  1  0.65503600  0.67076400  0.97324100  1
  O  O74  1  0.67215100  0.64388400  0.47164000  1
  O  O75  1  0.81518100  0.50989400  0.32197700  1
  O  O76  1  0.61811100  0.92524200  0.67278400  1
  O  O77  1  0.67298100  0.80724700  0.32546100  1
  O  O78  1  0.91455900  0.34712000  0.15487000  1
  O  O79  1  0.00574300  0.20015000  0.73997100  1
  O  O80  1  0.99627000  0.19056000  0.91757100  1
  O  O81  1  0.90916200  0.47482300  0.67275900  1
  O  O82  1  0.80860400  0.67379700  0.82533700  1
  O  O83  1  0.89632800  0.63284600  0.16894400  1
  O  O84  1  0.73912000  0.92497900  0.16093000  1
  O  O85  1  0.75545600  0.01540100  0.93991700  1
  O  O86  1  0.80308800  0.98662800  0.76203100  1
  O  O87  1  0.91737300  0.74596000  0.66070200  1
  O  O88  1  0.02193500  0.76489700  0.44028500  1
  O  O89  1  0.97862700  0.80454500  0.26357600  1
