# generated using pymatgen
data_Li3MnP2
_symmetry_space_group_name_H-M   'P 1'
_cell_length_a   3.95802200
_cell_length_b   3.95802200
_cell_length_c   5.62621800
_cell_angle_alpha   90.00000000
_cell_angle_beta   90.00000000
_cell_angle_gamma   90.00000000
_symmetry_Int_Tables_number   1
_chemical_formula_structural   Li3MnP2
_chemical_formula_sum   'Li3 Mn1 P2'
_cell_volume   88.13998322
_cell_formula_units_Z   1
loop_
 _symmetry_equiv_pos_site_id
 _symmetry_equiv_pos_as_xyz
  1  'x, y, z'
loop_
 _atom_site_type_symbol
 _atom_site_label
 _atom_site_symmetry_multiplicity
 _atom_site_fract_x
 _atom_site_fract_y
 _atom_site_fract_z
 _atom_site_occupancy
  Li  Li0  1  0.00000000  0.00000000  0.00000000  1
  Li  Li1  1  0.50000000  0.50000000  0.00000000  1
  Li  Li2  1  0.50000000  0.50000000  0.50000000  1
  Mn  Mn3  1  0.00000000  0.00000000  0.50000000  1
  P  P4  1  0.00000000  0.50000000  0.28911200  1
  P  P5  1  0.50000000  0.00000000  0.71088800  1
