# generated using pymatgen
data_Li6MnV3(PO4)6
_symmetry_space_group_name_H-M   'P 1'
_cell_length_a   9.80101100
_cell_length_b   9.82606867
_cell_length_c   9.83955068
_cell_angle_alpha   84.83970886
_cell_angle_beta   86.70767088
_cell_angle_gamma   87.17307027
_symmetry_Int_Tables_number   1
_chemical_formula_structural   Li6MnV3(PO4)6
_chemical_formula_sum   'Li12 Mn2 V6 P12 O48'
_cell_volume   941.27415945
_cell_formula_units_Z   2
loop_
 _symmetry_equiv_pos_site_id
 _symmetry_equiv_pos_as_xyz
  1  'x, y, z'
loop_
 _atom_site_type_symbol
 _atom_site_label
 _atom_site_symmetry_multiplicity
 _atom_site_fract_x
 _atom_site_fract_y
 _atom_site_fract_z
 _atom_site_occupancy
  Li  Li0  1  0.23885000  0.51131600  0.98412300  1
  Li  Li1  1  0.38687600  0.26042200  0.00547900  1
  Li  Li2  1  0.46264600  0.56803300  0.78528400  1
  Li  Li3  1  0.17444900  0.73347600  0.77087100  1
  Li  Li4  1  0.61150100  0.98677400  0.74647900  1
  Li  Li5  1  0.81647600  0.74593500  0.62727300  1
  Li  Li6  1  0.75635900  0.01336400  0.49389800  1
  Li  Li7  1  0.53671900  0.21799400  0.43735200  1
  Li  Li8  1  0.97531300  0.91973000  0.30258700  1
  Li  Li9  1  0.82399600  0.23083500  0.26661200  1
  Li  Li10  1  0.18347400  0.37786200  0.24753900  1
  Li  Li11  1  0.02168900  0.69174000  0.08134600  1
  Mn  Mn12  1  0.99978000  0.24435900  0.75367800  1
  Mn  Mn13  1  0.72206800  0.74205300  0.02860300  1
  V  V14  1  0.78236100  0.25458000  0.97055600  1
  V  V15  1  0.21726300  0.02824500  0.74682100  1
  V  V16  1  0.00205100  0.46180200  0.53451900  1
  V  V17  1  0.50137000  0.53235500  0.46842000  1
  V  V18  1  0.28119900  0.96723800  0.24995300  1
  V  V19  1  0.50343200  0.75064000  0.25145200  1
  P  P20  1  0.40220500  0.82238100  0.95061400  1
  P  P21  1  0.90139300  0.94677000  0.82660100  1
  P  P22  1  0.92779300  0.55288500  0.84058800  1
  P  P23  1  0.30211900  0.34017800  0.68294200  1
  P  P24  1  0.69890200  0.31624100  0.65938000  1
  P  P25  1  0.42720800  0.83704800  0.55604800  1
  P  P26  1  0.07259600  0.15229000  0.44564500  1
  P  P27  1  0.80491600  0.67890400  0.35185400  1
  P  P28  1  0.19887100  0.65007000  0.31852900  1
  P  P29  1  0.57431500  0.44630600  0.16116100  1
  P  P30  1  0.59406400  0.05446500  0.18307500  1
  P  P31  1  0.09599400  0.17445200  0.05174900  1
  O  O32  1  0.86348800  0.87533000  0.96908300  1
  O  O33  1  0.55768200  0.82694700  0.91535000  1
  O  O34  1  0.78983100  0.62069900  0.88316900  1
  O  O35  1  0.33444200  0.95821600  0.89079700  1
  O  O36  1  0.33887000  0.69578700  0.90212800  1
  O  O37  1  0.92013500  0.39522900  0.87865400  1
  O  O38  1  0.05316500  0.60508400  0.90535600  1
  O  O39  1  0.12163000  0.16371000  0.89039700  1
  O  O40  1  0.87609900  0.10753700  0.83825200  1
  O  O41  1  0.66719500  0.31033800  0.81586000  1
  O  O42  1  0.05525200  0.90907200  0.79442000  1
  O  O43  1  0.34729600  0.40453600  0.80847900  1
  O  O44  1  0.81032200  0.91340800  0.71403400  1
  O  O45  1  0.94442000  0.58666800  0.68083500  1
  O  O46  1  0.33280400  0.18356700  0.68901000  1
  O  O47  1  0.14043400  0.37150400  0.67389000  1
  O  O48  1  0.28883000  0.87709900  0.62804600  1
  O  O49  1  0.55011600  0.91085000  0.59327900  1
  O  O50  1  0.86169100  0.32309500  0.62687600  1
  O  O51  1  0.63580200  0.45380000  0.60005200  1
  O  O52  1  0.44620700  0.67712800  0.59279800  1
  O  O53  1  0.65280100  0.19041900  0.59611000  1
  O  O54  1  0.08073500  0.11709200  0.60282500  1
  O  O55  1  0.36773100  0.39862800  0.54545600  1
  O  O56  1  0.84552100  0.80140900  0.42544200  1
  O  O57  1  0.13867100  0.59167600  0.45631500  1
  O  O58  1  0.86285200  0.54004000  0.41110900  1
  O  O59  1  0.41456600  0.86815200  0.39465200  1
  O  O60  1  0.64254100  0.67040300  0.37887900  1
  O  O61  1  0.94327700  0.09424600  0.39459800  1
  O  O62  1  0.06896100  0.31187100  0.40997000  1
  O  O63  1  0.20721000  0.09366900  0.37948400  1
  O  O64  1  0.36056900  0.62281400  0.32741900  1
  O  O65  1  0.15838600  0.80630200  0.29694100  1
  O  O66  1  0.55577400  0.41125700  0.32051600  1
  O  O67  1  0.65404600  0.11049900  0.30709300  1
  O  O68  1  0.84553900  0.69846500  0.19690800  1
  O  O69  1  0.62743800  0.89596700  0.18750600  1
  O  O70  1  0.15752800  0.57777200  0.19558000  1
  O  O71  1  0.43605000  0.08611200  0.17727000  1
  O  O72  1  0.58562700  0.61035000  0.12933300  1
  O  O73  1  0.37244700  0.82523000  0.11192300  1
  O  O74  1  0.71350500  0.37879300  0.11858800  1
  O  O75  1  0.94231600  0.20812300  0.09055300  1
  O  O76  1  0.45171400  0.40874300  0.08861000  1
  O  O77  1  0.13208100  0.03262000  0.12229000  1
  O  O78  1  0.18858400  0.28734400  0.08420600  1
  O  O79  1  0.65956600  0.11445900  0.04583400  1
