# generated using pymatgen
data_Li4MnCo2O7
_symmetry_space_group_name_H-M   'P 1'
_cell_length_a   16.90528810
_cell_length_b   16.90528810
_cell_length_c   5.13530966
_cell_angle_alpha   86.85642352
_cell_angle_beta   86.85642352
_cell_angle_gamma   9.92539977
_symmetry_Int_Tables_number   1
_chemical_formula_structural   Li4MnCo2O7
_chemical_formula_sum   'Li8 Mn2 Co4 O14'
_cell_volume   252.58289312
_cell_formula_units_Z   2
loop_
 _symmetry_equiv_pos_site_id
 _symmetry_equiv_pos_as_xyz
  1  'x, y, z'
loop_
 _atom_site_type_symbol
 _atom_site_label
 _atom_site_symmetry_multiplicity
 _atom_site_fract_x
 _atom_site_fract_y
 _atom_site_fract_z
 _atom_site_occupancy
  Li  Li0  1  0.56929300  0.56929300  0.14827200  1
  Li  Li1  1  0.14296700  0.14296700  0.28165300  1
  Li  Li2  1  0.71422100  0.71422100  0.42880000  1
  Li  Li3  1  0.28577900  0.28577900  0.57120000  1
  Li  Li4  1  0.85703300  0.85703300  0.71834700  1
  Li  Li5  1  0.00000000  0.00000000  0.00000000  1
  Li  Li6  1  0.43070700  0.43070700  0.85172800  1
  Li  Li7  1  0.50000000  0.50000000  0.50000000  1
  Mn  Mn8  1  0.06919000  0.06919000  0.63193900  1
  Mn  Mn9  1  0.93081000  0.93081000  0.36806100  1
  Co  Co10  1  0.64255100  0.64255100  0.78363900  1
  Co  Co11  1  0.21410800  0.21410800  0.92770600  1
  Co  Co12  1  0.78589200  0.78589200  0.07229400  1
  Co  Co13  1  0.35744900  0.35744900  0.21636100  1
  O  O14  1  0.54009500  0.54009500  0.80503500  1
  O  O15  1  0.10817700  0.10817700  0.92997000  1
  O  O16  1  0.67970800  0.67970800  0.08979100  1
  O  O17  1  0.25184000  0.25184000  0.23262300  1
  O  O18  1  0.82297300  0.82297300  0.37940700  1
  O  O19  1  0.96060100  0.96060100  0.65200800  1
  O  O20  1  0.39596700  0.39596700  0.51497600  1
  O  O21  1  0.60403300  0.60403300  0.48502400  1
  O  O22  1  0.17702700  0.17702700  0.62059300  1
  O  O23  1  0.74816000  0.74816000  0.76737700  1
  O  O24  1  0.32029200  0.32029200  0.91020900  1
  O  O25  1  0.89182300  0.89182300  0.07003000  1
  O  O26  1  0.03939900  0.03939900  0.34799200  1
  O  O27  1  0.45990500  0.45990500  0.19496500  1
