# generated using pymatgen
data_Li9Mn2Co5O16
_symmetry_space_group_name_H-M   'P 1'
_cell_length_a   7.76999812
_cell_length_b   7.76999812
_cell_length_c   13.15127959
_cell_angle_alpha   86.82258818
_cell_angle_beta   86.82258818
_cell_angle_gamma   21.48147008
_symmetry_Int_Tables_number   1
_chemical_formula_structural   Li9Mn2Co5O16
_chemical_formula_sum   'Li9 Mn2 Co5 O16'
_cell_volume   290.29282398
_cell_formula_units_Z   1
loop_
 _symmetry_equiv_pos_site_id
 _symmetry_equiv_pos_as_xyz
  1  'x, y, z'
loop_
 _atom_site_type_symbol
 _atom_site_label
 _atom_site_symmetry_multiplicity
 _atom_site_fract_x
 _atom_site_fract_y
 _atom_site_fract_z
 _atom_site_occupancy
  Li  Li0  1  0.44171900  0.44171900  0.20194600  1
  Li  Li1  1  0.30960600  0.30960600  0.55372300  1
  Li  Li2  1  0.19231600  0.19231600  0.93713500  1
  Li  Li3  1  0.05811500  0.05811500  0.31722000  1
  Li  Li4  1  0.94153000  0.94153000  0.68216200  1
  Li  Li5  1  0.81077100  0.81077100  0.06443600  1
  Li  Li6  1  0.69211800  0.69211800  0.43623300  1
  Li  Li7  1  0.55868300  0.55868300  0.80503300  1
  Li  Li8  1  0.87207100  0.87207100  0.37699300  1
  Mn  Mn9  1  0.00077000  0.00077000  0.00219400  1
  Mn  Mn10  1  0.25495800  0.25495800  0.25538100  1
  Co  Co11  1  0.74865200  0.74865200  0.74759700  1
  Co  Co12  1  0.62594900  0.62594900  0.13088100  1
  Co  Co13  1  0.49294400  0.49294400  0.48708300  1
  Co  Co14  1  0.37411900  0.37411900  0.87229700  1
  Co  Co15  1  0.12313700  0.12313700  0.62053600  1
  O  O16  1  0.41505500  0.41505500  0.02541100  1
  O  O17  1  0.27610800  0.27610800  0.39086700  1
  O  O18  1  0.16496800  0.16496800  0.77346100  1
  O  O19  1  0.03772500  0.03772500  0.15879500  1
  O  O20  1  0.91422700  0.91422700  0.53046800  1
  O  O21  1  0.78781600  0.78781600  0.90536000  1
  O  O22  1  0.66701700  0.66701700  0.27385700  1
  O  O23  1  0.53823600  0.53823600  0.65196200  1
  O  O24  1  0.47147400  0.47147400  0.35367900  1
  O  O25  1  0.33242900  0.33242900  0.72581100  1
  O  O26  1  0.21662800  0.21662800  0.10639300  1
  O  O27  1  0.08231800  0.08231800  0.47537300  1
  O  O28  1  0.96224900  0.96224900  0.84350400  1
  O  O29  1  0.83521800  0.83521800  0.22146200  1
  O  O30  1  0.71217100  0.71217100  0.59309100  1
  O  O31  1  0.58890500  0.58890500  0.97965200  1
