# generated using pymatgen
data_Li9Mn2Co5O16
_symmetry_space_group_name_H-M   'P 1'
_cell_length_a   5.12354600
_cell_length_b   5.89621492
_cell_length_c   10.07338461
_cell_angle_alpha   104.80241263
_cell_angle_beta   100.69553002
_cell_angle_gamma   90.68706461
_symmetry_Int_Tables_number   1
_chemical_formula_structural   Li9Mn2Co5O16
_chemical_formula_sum   'Li9 Mn2 Co5 O16'
_cell_volume   288.53580490
_cell_formula_units_Z   1
loop_
 _symmetry_equiv_pos_site_id
 _symmetry_equiv_pos_as_xyz
  1  'x, y, z'
loop_
 _atom_site_type_symbol
 _atom_site_label
 _atom_site_symmetry_multiplicity
 _atom_site_fract_x
 _atom_site_fract_y
 _atom_site_fract_z
 _atom_site_occupancy
  Li  Li0  1  0.50163400  0.74789100  0.00531700  1
  Li  Li1  1  0.25560900  0.36591000  0.74137000  1
  Li  Li2  1  0.49597500  0.25116400  0.00138300  1
  Li  Li3  1  0.25273500  0.87503100  0.74596500  1
  Li  Li4  1  0.74352000  0.13174500  0.26021200  1
  Li  Li5  1  0.74706500  0.63584200  0.25715500  1
  Li  Li6  1  0.99429900  0.49011100  0.49556800  1
  Li  Li7  1  0.01097800  0.00763400  0.49669400  1
  Li  Li8  1  0.49783600  0.25471600  0.49740200  1
  Mn  Mn9  1  0.00158200  0.99632100  0.00011900  1
  Mn  Mn10  1  0.75368800  0.62362400  0.74828300  1
  Co  Co11  1  0.24592800  0.88029600  0.25351400  1
  Co  Co12  1  0.00101800  0.49310200  0.99885300  1
  Co  Co13  1  0.73711100  0.12320900  0.73909900  1
  Co  Co14  1  0.50382700  0.74566200  0.49375100  1
  Co  Co15  1  0.25090000  0.37224600  0.25924500  1
  O  O16  1  0.34914700  0.04905400  0.12546600  1
  O  O17  1  0.10112300  0.69774600  0.88622800  1
  O  O18  1  0.33854400  0.54280800  0.11938200  1
  O  O19  1  0.10605900  0.16626400  0.87737300  1
  O  O20  1  0.60764900  0.45297900  0.37174200  1
  O  O21  1  0.59233200  0.92757800  0.37154500  1
  O  O22  1  0.86462500  0.80795900  0.63263900  1
  O  O23  1  0.87469600  0.34228900  0.64225600  1
  O  O24  1  0.65672800  0.44384500  0.87344200  1
  O  O25  1  0.39953000  0.06478300  0.63305500  1
  O  O26  1  0.65876500  0.91851500  0.87409200  1
  O  O27  1  0.41106200  0.58182800  0.63254500  1
  O  O28  1  0.90020800  0.82290600  0.12540900  1
  O  O29  1  0.88909200  0.28831900  0.10475400  1
  O  O30  1  0.12183500  0.20158100  0.36743900  1
  O  O31  1  0.13490000  0.69704100  0.36870400  1
