# generated using pymatgen
data_Li4Mn7(PO4)6
_symmetry_space_group_name_H-M   'P 1'
_cell_length_a   9.07241362
_cell_length_b   9.07241362
_cell_length_c   6.70955236
_cell_angle_alpha   80.90333330
_cell_angle_beta   80.90333330
_cell_angle_gamma   103.54865105
_symmetry_Int_Tables_number   1
_chemical_formula_structural   Li4Mn7(PO4)6
_chemical_formula_sum   'Li4 Mn7 P6 O24'
_cell_volume   519.06452953
_cell_formula_units_Z   1
loop_
 _symmetry_equiv_pos_site_id
 _symmetry_equiv_pos_as_xyz
  1  'x, y, z'
loop_
 _atom_site_type_symbol
 _atom_site_label
 _atom_site_symmetry_multiplicity
 _atom_site_fract_x
 _atom_site_fract_y
 _atom_site_fract_z
 _atom_site_occupancy
  Li  Li0  1  0.78786000  0.78786000  0.43941600  1
  Li  Li1  1  0.58624600  0.35597800  0.52069900  1
  Li  Li2  1  0.35597800  0.58624600  0.52069900  1
  Li  Li3  1  0.11568700  0.11568700  0.61426700  1
  Mn  Mn4  1  0.99529700  0.35743100  0.18646300  1
  Mn  Mn5  1  0.35743100  0.99529700  0.18646300  1
  Mn  Mn6  1  0.64291200  0.34248100  0.01739900  1
  Mn  Mn7  1  0.34248100  0.64291200  0.01739900  1
  Mn  Mn8  1  0.98911800  0.98911800  0.01467000  1
  Mn  Mn9  1  0.63564200  0.99687600  0.80526900  1
  Mn  Mn10  1  0.99687600  0.63564200  0.80526900  1
  P  P11  1  0.89229800  0.27791000  0.71119900  1
  P  P12  1  0.27791000  0.89229800  0.71119900  1
  P  P13  1  0.66980500  0.66980500  0.07770400  1
  P  P14  1  0.31202000  0.31202000  0.90239400  1
  P  P15  1  0.70838600  0.08432400  0.29379500  1
  P  P16  1  0.08432400  0.70838600  0.29379500  1
  O  O17  1  0.57931200  0.75391700  0.93607800  1
  O  O18  1  0.75391700  0.57931200  0.93607800  1
  O  O19  1  0.78976300  0.78976300  0.14832200  1
  O  O20  1  0.94498500  0.37934900  0.86845100  1
  O  O21  1  0.37934900  0.94498500  0.86845100  1
  O  O22  1  0.88916700  0.10240300  0.77494800  1
  O  O23  1  0.10240300  0.88916700  0.77494800  1
  O  O24  1  0.71626200  0.27448000  0.72208800  1
  O  O25  1  0.27448000  0.71626200  0.72208800  1
  O  O26  1  0.55308800  0.55308800  0.25848500  1
  O  O27  1  0.41895000  0.41895000  0.70543700  1
  O  O28  1  0.11451000  0.88613400  0.21168700  1
  O  O29  1  0.88613400  0.11451000  0.21168700  1
  O  O30  1  0.68475500  0.24828600  0.31291600  1
  O  O31  1  0.24828600  0.68475500  0.31291600  1
  O  O32  1  0.66652800  0.96098600  0.49533200  1
  O  O33  1  0.96098600  0.66652800  0.49533200  1
  O  O34  1  0.18613800  0.18613800  0.85390600  1
  O  O35  1  0.60984800  0.03089300  0.13386600  1
  O  O36  1  0.03089300  0.60984800  0.13386600  1
  O  O37  1  0.41025400  0.23498400  0.03932300  1
  O  O38  1  0.23498400  0.41025400  0.03932300  1
  O  O39  1  0.33820800  0.00152800  0.50034900  1
  O  O40  1  0.00152800  0.33820800  0.50034900  1
