# generated using pymatgen
data_Li4Mn3O7
_symmetry_space_group_name_H-M   'P 1'
_cell_length_a   5.28452300
_cell_length_b   7.67098198
_cell_length_c   7.76887498
_cell_angle_alpha   116.16715021
_cell_angle_beta   105.81373396
_cell_angle_gamma   97.35950513
_symmetry_Int_Tables_number   1
_chemical_formula_structural   Li4Mn3O7
_chemical_formula_sum   'Li8 Mn6 O14'
_cell_volume   260.47421259
_cell_formula_units_Z   2
loop_
 _symmetry_equiv_pos_site_id
 _symmetry_equiv_pos_as_xyz
  1  'x, y, z'
loop_
 _atom_site_type_symbol
 _atom_site_label
 _atom_site_symmetry_multiplicity
 _atom_site_fract_x
 _atom_site_fract_y
 _atom_site_fract_z
 _atom_site_occupancy
  Li  Li0  1  0.44982400  0.79579700  0.94097000  1
  Li  Li1  1  0.85633900  0.06823200  0.34036500  1
  Li  Li2  1  0.29710800  0.35626300  0.79384400  1
  Li  Li3  1  0.70289200  0.64373700  0.20615600  1
  Li  Li4  1  0.14366100  0.93176800  0.65963500  1
  Li  Li5  1  0.55017600  0.20420300  0.05903000  1
  Li  Li6  1  0.00000000  0.50000000  0.50000000  1
  Li  Li7  1  0.00000000  0.00000000  0.00000000  1
  Mn  Mn8  1  0.84828800  0.57531500  0.85901000  1
  Mn  Mn9  1  0.15171200  0.42468500  0.14099000  1
  Mn  Mn10  1  0.27742900  0.85926900  0.27933800  1
  Mn  Mn11  1  0.72257100  0.14073100  0.72066200  1
  Mn  Mn12  1  0.57877700  0.71618500  0.57715300  1
  Mn  Mn13  1  0.42122300  0.28381500  0.42284700  1
  O  O14  1  0.94373800  0.73672400  0.73702600  1
  O  O15  1  0.43866700  0.04520500  0.19910800  1
  O  O16  1  0.80406400  0.31786100  0.60358500  1
  O  O17  1  0.28337900  0.61378200  0.04882000  1
  O  O18  1  0.72139900  0.89225900  0.48886000  1
  O  O19  1  0.14376400  0.19342800  0.90233000  1
  O  O20  1  0.58054200  0.46821100  0.34324100  1
  O  O21  1  0.85623600  0.80657200  0.09767000  1
  O  O22  1  0.27860100  0.10774100  0.51114000  1
  O  O23  1  0.71662100  0.38621800  0.95118000  1
  O  O24  1  0.19593600  0.68213900  0.39641500  1
  O  O25  1  0.56133300  0.95479500  0.80089200  1
  O  O26  1  0.05626200  0.26327600  0.26297400  1
  O  O27  1  0.41945800  0.53178900  0.65675900  1
