# generated using pymatgen
data_Li4FeTe(WO6)2
_symmetry_space_group_name_H-M   'P 1'
_cell_length_a   5.18299137
_cell_length_b   7.56719283
_cell_length_c   11.02359939
_cell_angle_alpha   85.64648562
_cell_angle_beta   90.25780668
_cell_angle_gamma   90.27827936
_symmetry_Int_Tables_number   1
_chemical_formula_structural   Li4FeTe(WO6)2
_chemical_formula_sum   'Li8 Fe2 Te2 W4 O24'
_cell_volume   431.09696358
_cell_formula_units_Z   2
loop_
 _symmetry_equiv_pos_site_id
 _symmetry_equiv_pos_as_xyz
  1  'x, y, z'
loop_
 _atom_site_type_symbol
 _atom_site_label
 _atom_site_symmetry_multiplicity
 _atom_site_fract_x
 _atom_site_fract_y
 _atom_site_fract_z
 _atom_site_occupancy
  Li  Li0  1  0.00648500  0.26676400  0.29284400  1
  Li  Li1  1  0.00932700  0.27271900  0.79690300  1
  Li  Li2  1  0.49766500  0.80116300  0.53158000  1
  Li  Li3  1  0.49381900  0.80886800  0.02385900  1
  Li  Li4  1  0.99017800  0.81171100  0.29949500  1
  Li  Li5  1  0.00052700  0.80206100  0.79369100  1
  Li  Li6  1  0.50421500  0.21987400  0.98108000  1
  Li  Li7  1  0.50467000  0.20836800  0.47325400  1
  Fe  Fe8  1  0.00270200  0.00121500  0.50690800  1
  Fe  Fe9  1  0.00078800  0.99947100  0.00768800  1
  Te  Te10  1  0.49875500  0.50330400  0.74990500  1
  Te  Te11  1  0.48066700  0.51654600  0.25467400  1
  W  W12  1  0.99526700  0.50286300  0.50439200  1
  W  W13  1  0.50856700  0.00593200  0.25104100  1
  W  W14  1  0.98259900  0.50473600  0.00332200  1
  W  W15  1  0.50675000  0.00507300  0.74884000  1
  O  O16  1  0.29987300  0.42591400  0.40811400  1
  O  O17  1  0.30749500  0.42552000  0.89474800  1
  O  O18  1  0.12505700  0.73669700  0.50481200  1
  O  O19  1  0.12630700  0.73632500  0.98604900  1
  O  O20  1  0.32727800  0.04848100  0.59646300  1
  O  O21  1  0.32243500  0.04920600  0.09703300  1
  O  O22  1  0.19656200  0.43020100  0.65663000  1
  O  O23  1  0.14068900  0.43717400  0.15528500  1
  O  O24  1  0.80263400  0.93976800  0.65783300  1
  O  O25  1  0.79185800  0.92299100  0.15500000  1
  O  O26  1  0.37472100  0.74614200  0.74344300  1
  O  O27  1  0.34866100  0.75630100  0.25610900  1
  O  O28  1  0.62823200  0.25515100  0.74859900  1
  O  O29  1  0.64355700  0.23374800  0.25654600  1
  O  O30  1  0.20630800  0.04812200  0.84099000  1
  O  O31  1  0.20724600  0.05611500  0.34638200  1
  O  O32  1  0.82107800  0.55749800  0.82828600  1
  O  O33  1  0.82478300  0.57291100  0.35437300  1
  O  O34  1  0.69734300  0.94394200  0.89635600  1
  O  O35  1  0.69846900  0.93397700  0.40068400  1
  O  O36  1  0.88913600  0.25766500  0.98517900  1
  O  O37  1  0.88413000  0.26018800  0.49803000  1
  O  O38  1  0.67330200  0.57524600  0.06121300  1
  O  O39  1  0.67986500  0.56244800  0.59476900  1
