# generated using pymatgen
data_Li9Mn2Co5O16
_symmetry_space_group_name_H-M   'P 1'
_cell_length_a   5.91159143
_cell_length_b   5.91159143
_cell_length_c   9.71678652
_cell_angle_alpha   82.34428039
_cell_angle_beta   82.34428039
_cell_angle_gamma   58.13804645
_symmetry_Int_Tables_number   1
_chemical_formula_structural   Li9Mn2Co5O16
_chemical_formula_sum   'Li9 Mn2 Co5 O16'
_cell_volume   285.03606735
_cell_formula_units_Z   1
loop_
 _symmetry_equiv_pos_site_id
 _symmetry_equiv_pos_as_xyz
  1  'x, y, z'
loop_
 _atom_site_type_symbol
 _atom_site_label
 _atom_site_symmetry_multiplicity
 _atom_site_fract_x
 _atom_site_fract_y
 _atom_site_fract_z
 _atom_site_occupancy
  Li  Li0  1  0.62678900  0.13587700  0.73452100  1
  Li  Li1  1  0.86412300  0.37321100  0.26547900  1
  Li  Li2  1  0.13587700  0.62678900  0.73452100  1
  Li  Li3  1  0.12630200  0.12630200  0.73809800  1
  Li  Li4  1  0.37685700  0.37685700  0.26352200  1
  Li  Li5  1  0.62314300  0.62314300  0.73647700  1
  Li  Li6  1  0.87369800  0.87369800  0.26190200  1
  Li  Li7  1  0.37321100  0.86412300  0.26547900  1
  Li  Li8  1  0.50000000  0.50000000  0.50000000  1
  Mn  Mn9  1  0.24995600  0.24995600  0.00040000  1
  Mn  Mn10  1  0.75004400  0.75004400  0.99960000  1
  Co  Co11  1  0.00000000  0.00000000  0.50000000  1
  Co  Co12  1  0.74947600  0.25052400  0.00000000  1
  Co  Co13  1  0.00000000  0.50000000  0.50000000  1
  Co  Co14  1  0.25052400  0.74947600  0.00000000  1
  Co  Co15  1  0.50000000  0.00000000  0.50000000  1
  O  O16  1  0.44837300  0.94486100  0.88443100  1
  O  O17  1  0.70319600  0.16969300  0.38781800  1
  O  O18  1  0.94486100  0.44837300  0.88443100  1
  O  O19  1  0.94107100  0.94107100  0.89244100  1
  O  O20  1  0.17248200  0.17248200  0.38729200  1
  O  O21  1  0.44194400  0.44194400  0.88841600  1
  O  O22  1  0.69541700  0.69541700  0.38693100  1
  O  O23  1  0.16969300  0.70319600  0.38781800  1
  O  O24  1  0.83030700  0.29680400  0.61218200  1
  O  O25  1  0.05513900  0.55162700  0.11556900  1
  O  O26  1  0.29680400  0.83030700  0.61218200  1
  O  O27  1  0.30458300  0.30458300  0.61306900  1
  O  O28  1  0.55805600  0.55805600  0.11158400  1
  O  O29  1  0.82751800  0.82751800  0.61270800  1
  O  O30  1  0.05892900  0.05892900  0.10755900  1
  O  O31  1  0.55162700  0.05513900  0.11556900  1
