# generated using pymatgen
data_Li(CrS2)2
_symmetry_space_group_name_H-M   'P 1'
_cell_length_a   5.40784300
_cell_length_b   8.15001800
_cell_length_c   12.93078500
_cell_angle_alpha   90.00000000
_cell_angle_beta   90.00000000
_cell_angle_gamma   90.00000000
_symmetry_Int_Tables_number   1
_chemical_formula_structural   Li(CrS2)2
_chemical_formula_sum   'Li4 Cr8 S16'
_cell_volume   569.91164814
_cell_formula_units_Z   4
loop_
 _symmetry_equiv_pos_site_id
 _symmetry_equiv_pos_as_xyz
  1  'x, y, z'
loop_
 _atom_site_type_symbol
 _atom_site_label
 _atom_site_symmetry_multiplicity
 _atom_site_fract_x
 _atom_site_fract_y
 _atom_site_fract_z
 _atom_site_occupancy
  Li  Li0  1  0.23094300  0.25000000  0.39655700  1
  Li  Li1  1  0.76905700  0.75000000  0.60344300  1
  Li  Li2  1  0.26905700  0.75000000  0.89655700  1
  Li  Li3  1  0.73094300  0.25000000  0.10344300  1
  Cr  Cr4  1  0.02236100  0.75000000  0.26783700  1
  Cr  Cr5  1  0.97763900  0.25000000  0.73216300  1
  Cr  Cr6  1  0.47763900  0.25000000  0.76783700  1
  Cr  Cr7  1  0.52236100  0.75000000  0.23216300  1
  Cr  Cr8  1  0.13382800  0.25000000  0.92351300  1
  Cr  Cr9  1  0.86617200  0.75000000  0.07648700  1
  Cr  Cr10  1  0.36617200  0.75000000  0.42351300  1
  Cr  Cr11  1  0.63382800  0.25000000  0.57648700  1
  S  S12  1  0.21968000  0.45536600  0.82183300  1
  S  S13  1  0.78032000  0.54463400  0.17816700  1
  S  S14  1  0.28032000  0.54463400  0.32183300  1
  S  S15  1  0.71968000  0.45536600  0.67816700  1
  S  S16  1  0.71968000  0.04463400  0.67816700  1
  S  S17  1  0.28032000  0.95536600  0.32183300  1
  S  S18  1  0.78032000  0.95536600  0.17816700  1
  S  S19  1  0.21968000  0.04463400  0.82183300  1
  S  S20  1  0.73969300  0.25000000  0.42069900  1
  S  S21  1  0.26030700  0.75000000  0.57930100  1
  S  S22  1  0.76030700  0.75000000  0.92069900  1
  S  S23  1  0.23969300  0.25000000  0.07930100  1
  S  S24  1  0.26142800  0.75000000  0.09342100  1
  S  S25  1  0.73857200  0.25000000  0.90657900  1
  S  S26  1  0.23857200  0.25000000  0.59342100  1
  S  S27  1  0.76142800  0.75000000  0.40657900  1
