# generated using pymatgen
data_Na4LiNb5O15
_symmetry_space_group_name_H-M   'P 1'
_cell_length_a   23.65487414
_cell_length_b   23.65487414
_cell_length_c   23.65487443
_cell_angle_alpha   13.41476411
_cell_angle_beta   13.41476411
_cell_angle_gamma   13.41476173
_symmetry_Int_Tables_number   1
_chemical_formula_structural   Na4LiNb5O15
_chemical_formula_sum   'Na8 Li2 Nb10 O30'
_cell_volume   619.78690103
_cell_formula_units_Z   2
loop_
 _symmetry_equiv_pos_site_id
 _symmetry_equiv_pos_as_xyz
  1  'x, y, z'
loop_
 _atom_site_type_symbol
 _atom_site_label
 _atom_site_symmetry_multiplicity
 _atom_site_fract_x
 _atom_site_fract_y
 _atom_site_fract_z
 _atom_site_occupancy
  Na  Na0  1  0.64494700  0.64494700  0.64494700  1
  Na  Na1  1  0.24469700  0.24469700  0.24469700  1
  Na  Na2  1  0.84451100  0.84451100  0.84451100  1
  Na  Na3  1  0.44476700  0.44476700  0.44476700  1
  Na  Na4  1  0.04507100  0.04507100  0.04507100  1
  Na  Na5  1  0.94470600  0.94470600  0.94470600  1
  Na  Na6  1  0.54461800  0.54461800  0.54461800  1
  Na  Na7  1  0.14455600  0.14455600  0.14455600  1
  Li  Li8  1  0.74227800  0.74227800  0.74227800  1
  Li  Li9  1  0.34236900  0.34236900  0.34236900  1
  Nb  Nb10  1  0.29698400  0.29698400  0.29698400  1
  Nb  Nb11  1  0.89663000  0.89663000  0.89663000  1
  Nb  Nb12  1  0.49642600  0.49642600  0.49642600  1
  Nb  Nb13  1  0.09626400  0.09626400  0.09626400  1
  Nb  Nb14  1  0.69672100  0.69672100  0.69672100  1
  Nb  Nb15  1  0.99741200  0.99741200  0.99741200  1
  Nb  Nb16  1  0.59679500  0.59679500  0.59679500  1
  Nb  Nb17  1  0.19652900  0.19652900  0.19652900  1
  Nb  Nb18  1  0.79623900  0.79623900  0.79623900  1
  Nb  Nb19  1  0.39693000  0.39693000  0.39693000  1
  O  O20  1  0.34866500  0.15174500  0.74936600  1
  O  O21  1  0.94907200  0.75177200  0.35013100  1
  O  O22  1  0.52351100  0.38058700  0.94699000  1
  O  O23  1  0.12386800  0.98000500  0.54643900  1
  O  O24  1  0.72312500  0.58040400  0.14616900  1
  O  O25  1  0.15174500  0.74936600  0.34866500  1
  O  O26  1  0.75177200  0.35013100  0.94907200  1
  O  O27  1  0.38058700  0.94699000  0.52351100  1
  O  O28  1  0.98000500  0.54643900  0.12386800  1
  O  O29  1  0.58040400  0.14616900  0.72312500  1
  O  O30  1  0.74936600  0.34866500  0.15174500  1
  O  O31  1  0.35013100  0.94907200  0.75177200  1
  O  O32  1  0.94699000  0.52351100  0.38058700  1
  O  O33  1  0.54643900  0.12386800  0.98000500  1
  O  O34  1  0.14616900  0.72312500  0.58040400  1
  O  O35  1  0.02627900  0.44446200  0.87900100  1
  O  O36  1  0.62757600  0.04470300  0.47906300  1
  O  O37  1  0.22468700  0.64694300  0.08038800  1
  O  O38  1  0.82353100  0.24683400  0.68023900  1
  O  O39  1  0.42376700  0.84630300  0.28000400  1
  O  O40  1  0.44446200  0.87900100  0.02627900  1
  O  O41  1  0.04470300  0.47906300  0.62757600  1
  O  O42  1  0.64694300  0.08038800  0.22468700  1
  O  O43  1  0.24683400  0.68023900  0.82353100  1
  O  O44  1  0.84630300  0.28000400  0.42376700  1
  O  O45  1  0.87900100  0.02627900  0.44446200  1
  O  O46  1  0.47906300  0.62757600  0.04470300  1
  O  O47  1  0.08038800  0.22468700  0.64694300  1
  O  O48  1  0.68023900  0.82353100  0.24683400  1
  O  O49  1  0.28000400  0.42376700  0.84630300  1
