# generated using pymatgen
data_Li5Co3O8
_symmetry_space_group_name_H-M   'P 1'
_cell_length_a   2.93648400
_cell_length_b   5.93416400
_cell_length_c   8.07851920
_cell_angle_alpha   89.17217203
_cell_angle_beta   90.00000000
_cell_angle_gamma   90.00000000
_symmetry_Int_Tables_number   1
_chemical_formula_structural   Li5Co3O8
_chemical_formula_sum   'Li5 Co3 O8'
_cell_volume   140.75817028
_cell_formula_units_Z   1
loop_
 _symmetry_equiv_pos_site_id
 _symmetry_equiv_pos_as_xyz
  1  'x, y, z'
loop_
 _atom_site_type_symbol
 _atom_site_label
 _atom_site_symmetry_multiplicity
 _atom_site_fract_x
 _atom_site_fract_y
 _atom_site_fract_z
 _atom_site_occupancy
  Li  Li0  1  0.00000000  0.25799100  0.25935500  1
  Li  Li1  1  0.50000000  0.50000000  0.00000000  1
  Li  Li2  1  0.00000000  0.74200900  0.74064500  1
  Li  Li3  1  0.50000000  0.00000000  0.50000000  1
  Li  Li4  1  0.50000000  0.50000000  0.50000000  1
  Co  Co5  1  0.00000000  0.25702000  0.73627700  1
  Co  Co6  1  0.00000000  0.74298000  0.26372300  1
  Co  Co7  1  0.50000000  0.00000000  0.00000000  1
  O  O8  1  0.00000000  0.76468200  0.02117000  1
  O  O9  1  0.50000000  0.01079300  0.75475600  1
  O  O10  1  0.00000000  0.24883900  0.52256400  1
  O  O11  1  0.50000000  0.51832100  0.24830500  1
  O  O12  1  0.00000000  0.75116100  0.47743600  1
  O  O13  1  0.50000000  0.98920700  0.24524400  1
  O  O14  1  0.00000000  0.23531800  0.97883000  1
  O  O15  1  0.50000000  0.48167900  0.75169500  1
