# generated using pymatgen
data_Li6MnV3(PO4)6
_symmetry_space_group_name_H-M   'P 1'
_cell_length_a   8.78851800
_cell_length_b   8.80378643
_cell_length_c   14.53531596
_cell_angle_alpha   73.13402221
_cell_angle_beta   74.16743924
_cell_angle_gamma   60.72396464
_symmetry_Int_Tables_number   1
_chemical_formula_structural   Li6MnV3(PO4)6
_chemical_formula_sum   'Li12 Mn2 V6 P12 O48'
_cell_volume   927.16657361
_cell_formula_units_Z   2
loop_
 _symmetry_equiv_pos_site_id
 _symmetry_equiv_pos_as_xyz
  1  'x, y, z'
loop_
 _atom_site_type_symbol
 _atom_site_label
 _atom_site_symmetry_multiplicity
 _atom_site_fract_x
 _atom_site_fract_y
 _atom_site_fract_z
 _atom_site_occupancy
  Li  Li0  1  0.14499000  0.01355700  0.11268900  1
  Li  Li1  1  0.50000000  0.00000000  0.00000000  1
  Li  Li2  1  0.23394100  0.10450400  0.63733500  1
  Li  Li3  1  0.75170500  0.24862400  0.25128700  1
  Li  Li4  1  0.35590500  0.48631700  0.38842000  1
  Li  Li5  1  0.26369800  0.39511500  0.86284500  1
  Li  Li6  1  0.73630200  0.60488500  0.13715500  1
  Li  Li7  1  0.64409500  0.51368300  0.61158000  1
  Li  Li8  1  0.24829500  0.75137600  0.74871300  1
  Li  Li9  1  0.00000000  0.50000000  0.50000000  1
  Li  Li10  1  0.76605900  0.89549600  0.36266500  1
  Li  Li11  1  0.85501000  0.98644300  0.88731100  1
  Mn  Mn12  1  0.67935200  0.17283600  0.46538400  1
  Mn  Mn13  1  0.32064800  0.82716400  0.53461600  1
  V  V14  1  0.57573100  0.06956500  0.78661200  1
  V  V15  1  0.07807500  0.56734100  0.28699100  1
  V  V16  1  0.81766200  0.32690600  0.03715600  1
  V  V17  1  0.18233800  0.67309400  0.96284400  1
  V  V18  1  0.92192500  0.43265900  0.71300900  1
  V  V19  1  0.42426900  0.93043500  0.21338800  1
  P  P20  1  0.13104000  0.33207700  0.11918200  1
  P  P21  1  0.36934300  0.16647900  0.38226000  1
  P  P22  1  0.17370500  0.07642700  0.87551200  1
  P  P23  1  0.91544200  0.12046600  0.63187200  1
  P  P24  1  0.32248000  0.42875600  0.62409700  1
  P  P25  1  0.41838800  0.61872400  0.13170800  1
  P  P26  1  0.58161200  0.38127600  0.86829200  1
  P  P27  1  0.67752000  0.57124400  0.37590300  1
  P  P28  1  0.08455800  0.87953400  0.36812800  1
  P  P29  1  0.82629500  0.92357300  0.12448800  1
  P  P30  1  0.63065700  0.83352100  0.61774000  1
  P  P31  1  0.86896000  0.66792300  0.88081800  1
  O  O32  1  0.28143000  0.14090200  0.11478800  1
  O  O33  1  0.38745600  0.08905900  0.29720700  1
  O  O34  1  0.33142500  0.05512100  0.48132700  1
  O  O35  1  0.16602400  0.44413600  0.01984100  1
  O  O36  1  0.11607700  0.40999900  0.20336300  1
  O  O37  1  0.81013800  0.10673000  0.12780200  1
  O  O38  1  0.10152500  0.19799900  0.78128700  1
  O  O39  1  0.54958200  0.17697100  0.36810600  1
  O  O40  1  0.05426200  0.14695700  0.96851900  1
  O  O41  1  0.89596200  0.02870500  0.35896300  1
  O  O42  1  0.22082600  0.35717700  0.38645100  1
  O  O43  1  0.35767600  0.05984900  0.87849900  1
  O  O44  1  0.13853400  0.44397500  0.62244000  1
  O  O45  1  0.83917100  0.13426300  0.54544300  1
  O  O46  1  0.34044700  0.63405700  0.04620300  1
  O  O47  1  0.43852200  0.36089600  0.53063000  1
  O  O48  1  0.79944100  0.08856200  0.72958700  1
  O  O49  1  0.60931900  0.46793900  0.13713600  1
  O  O50  1  0.39597100  0.30531900  0.71820400  1
  O  O51  1  0.30621700  0.58387200  0.22987000  1
  O  O52  1  0.95268900  0.32002000  0.13485900  1
  O  O53  1  0.57159100  0.20141900  0.88513700  1
  O  O54  1  0.68875300  0.38989500  0.37157500  1
  O  O55  1  0.07606400  0.69846200  0.38532400  1
  O  O56  1  0.92393600  0.30153800  0.61467600  1
  O  O57  1  0.31124700  0.61010500  0.62842500  1
  O  O58  1  0.42840900  0.79858100  0.11486300  1
  O  O59  1  0.04731100  0.67998000  0.86514100  1
  O  O60  1  0.69378300  0.41612800  0.77013000  1
  O  O61  1  0.60402900  0.69468100  0.28179600  1
  O  O62  1  0.39068100  0.53206100  0.86286400  1
  O  O63  1  0.20055900  0.91143800  0.27041300  1
  O  O64  1  0.56147800  0.63910400  0.46937000  1
  O  O65  1  0.65955300  0.36594300  0.95379700  1
  O  O66  1  0.16082900  0.86573700  0.45455700  1
  O  O67  1  0.86146600  0.55602500  0.37756000  1
  O  O68  1  0.64232400  0.94015100  0.12150100  1
  O  O69  1  0.77917400  0.64282300  0.61354900  1
  O  O70  1  0.10403800  0.97129500  0.64103700  1
  O  O71  1  0.94573800  0.85304300  0.03148100  1
  O  O72  1  0.45041800  0.82302900  0.63189400  1
  O  O73  1  0.89847500  0.80200100  0.21871300  1
  O  O74  1  0.18986200  0.89327000  0.87219800  1
  O  O75  1  0.88392300  0.59000100  0.79663700  1
  O  O76  1  0.83397600  0.55586400  0.98015900  1
  O  O77  1  0.66857500  0.94487900  0.51867300  1
  O  O78  1  0.61254400  0.91094100  0.70279300  1
  O  O79  1  0.71857000  0.85909800  0.88521200  1
