# generated using pymatgen
data_Li9Mn2Co5O16
_symmetry_space_group_name_H-M   'P 1'
_cell_length_a   10.14065527
_cell_length_b   10.14065527
_cell_length_c   5.16383966
_cell_angle_alpha   81.47217542
_cell_angle_beta   81.47217542
_cell_angle_gamma   33.20414774
_symmetry_Int_Tables_number   1
_chemical_formula_structural   Li9Mn2Co5O16
_chemical_formula_sum   'Li9 Mn2 Co5 O16'
_cell_volume   287.29252753
_cell_formula_units_Z   1
loop_
 _symmetry_equiv_pos_site_id
 _symmetry_equiv_pos_as_xyz
  1  'x, y, z'
loop_
 _atom_site_type_symbol
 _atom_site_label
 _atom_site_symmetry_multiplicity
 _atom_site_fract_x
 _atom_site_fract_y
 _atom_site_fract_z
 _atom_site_occupancy
  Li  Li0  1  0.25150400  0.50330200  0.25039600  1
  Li  Li1  1  0.37849500  0.12268500  0.49695300  1
  Li  Li2  1  0.49669800  0.74849600  0.74960400  1
  Li  Li3  1  0.62248300  0.37751700  0.00000000  1
  Li  Li4  1  0.75171800  0.00417500  0.25318800  1
  Li  Li5  1  0.87731500  0.62150500  0.50304700  1
  Li  Li6  1  0.99582500  0.24828200  0.74681200  1
  Li  Li7  1  0.12112800  0.87887200  0.00000000  1
  Li  Li8  1  0.87237500  0.12762500  0.50000000  1
  Mn  Mn9  1  0.00375500  0.74971800  0.75195200  1
  Mn  Mn10  1  0.25028200  0.99624500  0.24804800  1
  Co  Co11  1  0.12682300  0.37202800  0.00312400  1
  Co  Co12  1  0.37310200  0.62689800  0.50000000  1
  Co  Co13  1  0.50784200  0.25069200  0.74179800  1
  Co  Co14  1  0.62797200  0.87317700  0.99687600  1
  Co  Co15  1  0.74930800  0.49215800  0.25820200  1
  O  O16  1  0.29370500  0.57039900  0.87906900  1
  O  O17  1  0.43390600  0.17984900  0.11084400  1
  O  O18  1  0.55802700  0.80971600  0.35142600  1
  O  O19  1  0.66574600  0.45462000  0.59866600  1
  O  O20  1  0.80884100  0.05259700  0.87110200  1
  O  O21  1  0.94082800  0.68934400  0.09646100  1
  O  O22  1  0.07124000  0.29709900  0.36293100  1
  O  O23  1  0.20162200  0.92691500  0.58083100  1
  O  O24  1  0.19028400  0.44197300  0.64857400  1
  O  O25  1  0.31065600  0.05917200  0.90353900  1
  O  O26  1  0.42960100  0.70629500  0.12093100  1
  O  O27  1  0.54538000  0.33425400  0.40133400  1
  O  O28  1  0.70290100  0.92876000  0.63706900  1
  O  O29  1  0.82015100  0.56609400  0.88915600  1
  O  O30  1  0.94740300  0.19115900  0.12889800  1
  O  O31  1  0.07308500  0.79837800  0.41916900  1
