# generated using pymatgen
data_LiPd2Au
_symmetry_space_group_name_H-M   'P 1'
_cell_length_a   10.47748354
_cell_length_b   10.47748354
_cell_length_c   10.47748354
_cell_angle_alpha   123.21638424
_cell_angle_beta   118.82730483
_cell_angle_gamma   88.28237551
_symmetry_Int_Tables_number   1
_chemical_formula_structural   LiPd2Au
_chemical_formula_sum   'Li1 Pd2 Au1'
_cell_volume   798.83338106
_cell_formula_units_Z   1
loop_
 _symmetry_equiv_pos_site_id
 _symmetry_equiv_pos_as_xyz
  1  'x, y, z'
loop_
 _atom_site_type_symbol
 _atom_site_label
 _atom_site_symmetry_multiplicity
 _atom_site_fract_x
 _atom_site_fract_y
 _atom_site_fract_z
 _atom_site_occupancy
  Li  Li0  1  0.00000000  0.00000000  0.00000000  1
  Pd  Pd1  1  0.00000000  0.23681300  0.23681300  1
  Pd  Pd2  1  0.00000000  0.76318700  0.76318700  1
  Au  Au3  1  0.00000000  0.50000000  0.50000000  1
