# generated using pymatgen
data_LiTiSn(PO4)3
_symmetry_space_group_name_H-M   'P 1'
_cell_length_a   8.74566895
_cell_length_b   8.74566895
_cell_length_c   8.74566921
_cell_angle_alpha   59.58487523
_cell_angle_beta   59.58487523
_cell_angle_gamma   59.58487496
_symmetry_Int_Tables_number   1
_chemical_formula_structural   LiTiSn(PO4)3
_chemical_formula_sum   'Li2 Ti2 Sn2 P6 O24'
_cell_volume   468.53989941
_cell_formula_units_Z   2
loop_
 _symmetry_equiv_pos_site_id
 _symmetry_equiv_pos_as_xyz
  1  'x, y, z'
loop_
 _atom_site_type_symbol
 _atom_site_label
 _atom_site_symmetry_multiplicity
 _atom_site_fract_x
 _atom_site_fract_y
 _atom_site_fract_z
 _atom_site_occupancy
  Li  Li0  1  0.50145800  0.50145800  0.50145800  1
  Li  Li1  1  0.00145800  0.00145800  0.00145800  1
  Ti  Ti2  1  0.64189600  0.64189600  0.64189600  1
  Ti  Ti3  1  0.14189600  0.14189600  0.14189600  1
  Sn  Sn4  1  0.35681200  0.35681200  0.35681200  1
  Sn  Sn5  1  0.85681200  0.85681200  0.85681200  1
  P  P6  1  0.45502300  0.04087800  0.75152600  1
  P  P7  1  0.04087800  0.75152600  0.45502300  1
  P  P8  1  0.75152600  0.45502300  0.04087800  1
  P  P9  1  0.95502300  0.25152600  0.54087800  1
  P  P10  1  0.25152600  0.54087800  0.95502300  1
  P  P11  1  0.54087800  0.95502300  0.25152600  1
  O  O12  1  0.50066900  0.87539100  0.69698900  1
  O  O13  1  0.87539100  0.69698900  0.50066900  1
  O  O14  1  0.69698900  0.50066900  0.87539100  1
  O  O15  1  0.00066900  0.19698900  0.37539100  1
  O  O16  1  0.19698900  0.37539100  0.00066900  1
  O  O17  1  0.37539100  0.00066900  0.19698900  1
  O  O18  1  0.51001800  0.11313000  0.30433200  1
  O  O19  1  0.11313000  0.30433200  0.51001800  1
  O  O20  1  0.30433200  0.51001800  0.11313000  1
  O  O21  1  0.01001800  0.80433200  0.61313000  1
  O  O22  1  0.80433200  0.61313000  0.01001800  1
  O  O23  1  0.61313000  0.01001800  0.80433200  1
  O  O24  1  0.55929400  0.76648700  0.41745600  1
  O  O25  1  0.76648700  0.41745600  0.55929400  1
  O  O26  1  0.41745600  0.55929400  0.76648700  1
  O  O27  1  0.05929400  0.91745600  0.26648700  1
  O  O28  1  0.91745600  0.26648700  0.05929400  1
  O  O29  1  0.26648700  0.05929400  0.91745600  1
  O  O30  1  0.44030200  0.23115400  0.58718400  1
  O  O31  1  0.23115400  0.58718400  0.44030200  1
  O  O32  1  0.58718400  0.44030200  0.23115400  1
  O  O33  1  0.94030200  0.08718400  0.73115400  1
  O  O34  1  0.08718400  0.73115400  0.94030200  1
  O  O35  1  0.73115400  0.94030200  0.08718400  1
