# generated using pymatgen
data_Li9Mn2Co5O16
_symmetry_space_group_name_H-M   'P 1'
_cell_length_a   5.12994900
_cell_length_b   7.69418818
_cell_length_c   7.79291287
_cell_angle_alpha   82.57897978
_cell_angle_beta   83.89885131
_cell_angle_gamma   71.86901189
_symmetry_Int_Tables_number   1
_chemical_formula_structural   Li9Mn2Co5O16
_chemical_formula_sum   'Li9 Mn2 Co5 O16'
_cell_volume   289.15749115
_cell_formula_units_Z   1
loop_
 _symmetry_equiv_pos_site_id
 _symmetry_equiv_pos_as_xyz
  1  'x, y, z'
loop_
 _atom_site_type_symbol
 _atom_site_label
 _atom_site_symmetry_multiplicity
 _atom_site_fract_x
 _atom_site_fract_y
 _atom_site_fract_z
 _atom_site_occupancy
  Li  Li0  1  0.50225900  0.93988500  0.19295800  1
  Li  Li1  1  0.50052300  0.55714400  0.32462400  1
  Li  Li2  1  0.50733400  0.80719800  0.56472700  1
  Li  Li3  1  0.49952900  0.44799600  0.67157900  1
  Li  Li4  1  0.50119800  0.68600500  0.93456000  1
  Li  Li5  1  0.49688600  0.31335200  0.06291200  1
  Li  Li6  1  0.49294700  0.18800300  0.43935600  1
  Li  Li7  1  0.49712100  0.06221600  0.81009100  1
  Li  Li8  1  0.00087700  0.50253300  0.49678500  1
  Mn  Mn9  1  0.99534200  0.00089100  0.00293400  1
  Mn  Mn10  1  0.00382300  0.62321600  0.12618600  1
  Co  Co11  1  0.99168200  0.25755500  0.25935000  1
  Co  Co12  1  0.00453500  0.86845900  0.38007800  1
  Co  Co13  1  0.99710300  0.12621500  0.62295600  1
  Co  Co14  1  0.00402800  0.73928600  0.74270700  1
  Co  Co15  1  0.00343700  0.37476400  0.86624900  1
  O  O16  1  0.21777300  0.15399700  0.03605700  1
  O  O17  1  0.22328200  0.78815700  0.14656600  1
  O  O18  1  0.22999000  0.03421000  0.40374000  1
  O  O19  1  0.24329500  0.66946700  0.53355800  1
  O  O20  1  0.21752300  0.91030700  0.79461600  1
  O  O21  1  0.22900800  0.53688400  0.91450300  1
  O  O22  1  0.23093300  0.42055800  0.26389800  1
  O  O23  1  0.22657100  0.27460600  0.66781100  1
  O  O24  1  0.78054900  0.72069100  0.32901500  1
  O  O25  1  0.76409200  0.32987900  0.46017800  1
  O  O26  1  0.76701800  0.59690000  0.72778700  1
  O  O27  1  0.77021500  0.20378700  0.85437000  1
  O  O28  1  0.77833600  0.47435200  0.08993100  1
  O  O29  1  0.77168500  0.08823100  0.20755800  1
  O  O30  1  0.77112500  0.96544800  0.59456800  1
  O  O31  1  0.77998200  0.83781200  0.97779100  1
