# generated using pymatgen
data_Li4MnCo2O7
_symmetry_space_group_name_H-M   'P 1'
_cell_length_a   10.20778393
_cell_length_b   10.20778393
_cell_length_c   5.19497132
_cell_angle_alpha   84.34801137
_cell_angle_beta   84.34801137
_cell_angle_gamma   150.34028109
_symmetry_Int_Tables_number   1
_chemical_formula_structural   Li4MnCo2O7
_chemical_formula_sum   'Li8 Mn2 Co4 O14'
_cell_volume   247.24195151
_cell_formula_units_Z   2
loop_
 _symmetry_equiv_pos_site_id
 _symmetry_equiv_pos_as_xyz
  1  'x, y, z'
loop_
 _atom_site_type_symbol
 _atom_site_label
 _atom_site_symmetry_multiplicity
 _atom_site_fract_x
 _atom_site_fract_y
 _atom_site_fract_z
 _atom_site_occupancy
  Li  Li0  1  0.64122500  0.35877500  0.50000000  1
  Li  Li1  1  0.07030100  0.92969900  0.50000000  1
  Li  Li2  1  0.50000000  0.50000000  0.50000000  1
  Li  Li3  1  0.92969900  0.07030100  0.50000000  1
  Li  Li4  1  0.35877500  0.64122500  0.50000000  1
  Li  Li5  1  0.78580900  0.21419100  0.50000000  1
  Li  Li6  1  0.21419100  0.78580900  0.50000000  1
  Li  Li7  1  0.00000000  0.00000000  0.00000000  1
  Mn  Mn8  1  0.71328700  0.28671300  0.00000000  1
  Mn  Mn9  1  0.28671300  0.71328700  0.00000000  1
  Co  Co10  1  0.14012300  0.85987700  0.00000000  1
  Co  Co11  1  0.57090400  0.42909600  0.00000000  1
  Co  Co12  1  0.42909600  0.57090400  0.00000000  1
  Co  Co13  1  0.85987700  0.14012300  0.00000000  1
  O  O14  1  0.41566000  0.13762400  0.23440100  1
  O  O15  1  0.82007200  0.66968600  0.20749700  1
  O  O16  1  0.28564000  0.28564000  0.23296800  1
  O  O17  1  0.66968600  0.82007200  0.20749700  1
  O  O18  1  0.13762400  0.41566000  0.23440100  1
  O  O19  1  0.56392000  0.99238400  0.23200500  1
  O  O20  1  0.99238400  0.56392000  0.23200500  1
  O  O21  1  0.86237600  0.58434000  0.76559900  1
  O  O22  1  0.33031400  0.17992800  0.79250300  1
  O  O23  1  0.71436000  0.71436000  0.76703200  1
  O  O24  1  0.17992800  0.33031400  0.79250300  1
  O  O25  1  0.58434000  0.86237600  0.76559900  1
  O  O26  1  0.00761600  0.43608000  0.76799500  1
  O  O27  1  0.43608000  0.00761600  0.76799500  1
