# generated using pymatgen
data_Li4MnCo2O7
_symmetry_space_group_name_H-M   'P 1'
_cell_length_a   3.02850800
_cell_length_b   8.03693422
_cell_length_c   10.69749927
_cell_angle_alpha   78.55604412
_cell_angle_beta   86.88218685
_cell_angle_gamma   89.11708098
_symmetry_Int_Tables_number   1
_chemical_formula_structural   Li4MnCo2O7
_chemical_formula_sum   'Li8 Mn2 Co4 O14'
_cell_volume   254.81921474
_cell_formula_units_Z   2
loop_
 _symmetry_equiv_pos_site_id
 _symmetry_equiv_pos_as_xyz
  1  'x, y, z'
loop_
 _atom_site_type_symbol
 _atom_site_label
 _atom_site_symmetry_multiplicity
 _atom_site_fract_x
 _atom_site_fract_y
 _atom_site_fract_z
 _atom_site_occupancy
  Li  Li0  1  0.14450500  0.06726300  0.70960800  1
  Li  Li1  1  0.85460000  0.92935200  0.28721400  1
  Li  Li2  1  0.57338800  0.78297000  0.85563700  1
  Li  Li3  1  0.71518800  0.35724600  0.57041000  1
  Li  Li4  1  0.42658000  0.21541300  0.14478800  1
  Li  Li5  1  0.28568500  0.64557300  0.43114100  1
  Li  Li6  1  0.00072800  0.50187600  0.00110400  1
  Li  Li7  1  0.71400600  0.85803100  0.57076000  1
  Mn  Mn8  1  0.99917100  0.99689500  0.00183600  1
  Mn  Mn9  1  0.57424900  0.28988700  0.85461500  1
  Co  Co10  1  0.42756600  0.71132500  0.14543900  1
  Co  Co11  1  0.14948200  0.58478600  0.70639600  1
  Co  Co12  1  0.85765300  0.42654900  0.28631200  1
  Co  Co13  1  0.28213000  0.13233300  0.43401900  1
  O  O14  1  0.59436900  0.04328900  0.85943600  1
  O  O15  1  0.29145200  0.91781400  0.42536400  1
  O  O16  1  0.02109100  0.75338700  0.00916900  1
  O  O17  1  0.15910900  0.34097100  0.71779800  1
  O  O18  1  0.87605800  0.18862800  0.29480400  1
  O  O19  1  0.72763200  0.60463200  0.58136900  1
  O  O20  1  0.44851600  0.47309700  0.15141100  1
  O  O21  1  0.69720000  0.11126600  0.56022400  1
  O  O22  1  0.41118600  0.95246500  0.13976900  1
  O  O23  1  0.13468000  0.79796200  0.71692500  1
  O  O24  1  0.26665200  0.37551400  0.41956400  1
  O  O25  1  0.97784100  0.24276500  0.99659100  1
  O  O26  1  0.83779400  0.66734700  0.27994700  1
  O  O27  1  0.55149000  0.53136500  0.84835100  1
