# generated using pymatgen
data_Li4Mn3O7
_symmetry_space_group_name_H-M   'P 1'
_cell_length_a   6.88663857
_cell_length_b   6.88663857
_cell_length_c   14.75821585
_cell_angle_alpha   65.77290175
_cell_angle_beta   65.77290175
_cell_angle_gamma   24.16264254
_symmetry_Int_Tables_number   1
_chemical_formula_structural   Li4Mn3O7
_chemical_formula_sum   'Li8 Mn6 O14'
_cell_volume   260.04949087
_cell_formula_units_Z   2
loop_
 _symmetry_equiv_pos_site_id
 _symmetry_equiv_pos_as_xyz
  1  'x, y, z'
loop_
 _atom_site_type_symbol
 _atom_site_label
 _atom_site_symmetry_multiplicity
 _atom_site_fract_x
 _atom_site_fract_y
 _atom_site_fract_z
 _atom_site_occupancy
  Li  Li0  1  0.71146800  0.71146800  0.93060900  1
  Li  Li1  1  0.28853200  0.28853200  0.06939100  1
  Li  Li2  1  0.86531500  0.86531500  0.20897900  1
  Li  Li3  1  0.13468500  0.13468500  0.79102100  1
  Li  Li4  1  0.57314300  0.57314300  0.64300900  1
  Li  Li5  1  0.42685700  0.42685700  0.35699100  1
  Li  Li6  1  0.00000000  0.00000000  0.50000000  1
  Li  Li7  1  0.00000000  0.00000000  0.00000000  1
  Mn  Mn8  1  0.43635400  0.43635400  0.86302000  1
  Mn  Mn9  1  0.56364600  0.56364600  0.13698000  1
  Mn  Mn10  1  0.14064900  0.14064900  0.28209300  1
  Mn  Mn11  1  0.71293900  0.71293900  0.42809600  1
  Mn  Mn12  1  0.28706100  0.28706100  0.57190400  1
  Mn  Mn13  1  0.85935100  0.85935100  0.71790700  1
  O  O14  1  0.86297700  0.86297700  0.95468900  1
  O  O15  1  0.44280900  0.44280900  0.11140000  1
  O  O16  1  0.00499600  0.00499600  0.23656800  1
  O  O17  1  0.29921300  0.29921300  0.81805200  1
  O  O18  1  0.71953800  0.71953800  0.66866200  1
  O  O19  1  0.57387400  0.57387400  0.37965700  1
  O  O20  1  0.14463500  0.14463500  0.52559600  1
  O  O21  1  0.55719100  0.55719100  0.88860000  1
  O  O22  1  0.13702300  0.13702300  0.04531100  1
  O  O23  1  0.70078700  0.70078700  0.18194800  1
  O  O24  1  0.99500400  0.99500400  0.76343200  1
  O  O25  1  0.42612600  0.42612600  0.62034300  1
  O  O26  1  0.28046200  0.28046200  0.33133800  1
  O  O27  1  0.85536500  0.85536500  0.47440400  1
