# generated using pymatgen
data_LiLa2Tl
_symmetry_space_group_name_H-M   'P 1'
_cell_length_a   12.46881227
_cell_length_b   12.46881227
_cell_length_c   12.46881227
_cell_angle_alpha   122.42392188
_cell_angle_beta   119.16602836
_cell_angle_gamma   88.65220612
_symmetry_Int_Tables_number   1
_chemical_formula_structural   LiLa2Tl
_chemical_formula_sum   'Li1 La2 Tl1'
_cell_volume   1352.46999753
_cell_formula_units_Z   1
loop_
 _symmetry_equiv_pos_site_id
 _symmetry_equiv_pos_as_xyz
  1  'x, y, z'
loop_
 _atom_site_type_symbol
 _atom_site_label
 _atom_site_symmetry_multiplicity
 _atom_site_fract_x
 _atom_site_fract_y
 _atom_site_fract_z
 _atom_site_occupancy
  Li  Li0  1  0.00000000  0.00000000  0.00000000  1
  La  La1  1  0.00000000  0.25699900  0.25699900  1
  La  La2  1  0.00000000  0.74300100  0.74300100  1
  Tl  Tl3  1  0.00000000  0.50000000  0.50000000  1
