# generated using pymatgen
data_Li7Ho3(MoO4)8
_symmetry_space_group_name_H-M   'P 1'
_cell_length_a   6.82606400
_cell_length_b   9.98246647
_cell_length_c   10.77376787
_cell_angle_alpha   66.22150846
_cell_angle_beta   83.84655346
_cell_angle_gamma   74.96455497
_symmetry_Int_Tables_number   1
_chemical_formula_structural   Li7Ho3(MoO4)8
_chemical_formula_sum   'Li7 Ho3 Mo8 O32'
_cell_volume   648.81290249
_cell_formula_units_Z   1
loop_
 _symmetry_equiv_pos_site_id
 _symmetry_equiv_pos_as_xyz
  1  'x, y, z'
loop_
 _atom_site_type_symbol
 _atom_site_label
 _atom_site_symmetry_multiplicity
 _atom_site_fract_x
 _atom_site_fract_y
 _atom_site_fract_z
 _atom_site_occupancy
  Li  Li0  1  0.50142100  0.50001400  0.50151600  1
  Li  Li1  1  0.99997100  0.00075200  0.50021000  1
  Li  Li2  1  0.43943000  0.15090100  0.63221200  1
  Li  Li3  1  0.93597600  0.64593500  0.63774100  1
  Li  Li4  1  0.05872600  0.34942500  0.36849400  1
  Li  Li5  1  0.56047000  0.84985400  0.36827600  1
  Li  Li6  1  0.76689200  0.45572500  0.93415800  1
  Ho  Ho7  1  0.27185200  0.95531500  0.93856800  1
  Ho  Ho8  1  0.72686900  0.04869400  0.05841900  1
  Ho  Ho9  1  0.23130900  0.54328900  0.05642800  1
  Mo  Mo10  1  0.38574600  0.76694900  0.70221000  1
  Mo  Mo11  1  0.88550600  0.26958000  0.70209300  1
  Mo  Mo12  1  0.11556400  0.73087000  0.29865800  1
  Mo  Mo13  1  0.61483400  0.23220300  0.29856200  1
  Mo  Mo14  1  0.34589500  0.35656500  0.81991200  1
  Mo  Mo15  1  0.84189000  0.85830000  0.82135100  1
  Mo  Mo16  1  0.15506100  0.14443100  0.17754600  1
  Mo  Mo17  1  0.65861400  0.64240400  0.17705100  1
  O  O18  1  0.58876700  0.28894300  0.90844700  1
  O  O19  1  0.08839500  0.79388600  0.91254400  1
  O  O20  1  0.91352800  0.19964700  0.09342300  1
  O  O21  1  0.41051000  0.70709800  0.08712300  1
  O  O22  1  0.63717600  0.30160000  0.64008600  1
  O  O23  1  0.13632600  0.80226000  0.64095300  1
  O  O24  1  0.86353000  0.20014800  0.35904000  1
  O  O25  1  0.36274000  0.69938600  0.35963900  1
  O  O26  1  0.05512500  0.26074800  0.56786200  1
  O  O27  1  0.55768500  0.76087000  0.56821700  1
  O  O28  1  0.44512100  0.23553600  0.43343200  1
  O  O29  1  0.94492800  0.73661100  0.43238800  1
  O  O30  1  0.43731200  0.59826300  0.86024400  1
  O  O31  1  0.94555900  0.09408700  0.86478800  1
  O  O32  1  0.05457900  0.90196700  0.13687400  1
  O  O33  1  0.54909500  0.40554900  0.14517200  1
  O  O34  1  0.29506000  0.19889400  0.79468700  1
  O  O35  1  0.79384400  0.70532800  0.79585100  1
  O  O36  1  0.20114400  0.30110000  0.20521900  1
  O  O37  1  0.70123200  0.80072200  0.20415300  1
  O  O38  1  0.31815100  0.51114200  0.66047600  1
  O  O39  1  0.81673000  0.01063000  0.66134300  1
  O  O40  1  0.18022900  0.99080900  0.33699900  1
  O  O41  1  0.68518700  0.49159100  0.33828000  1
  O  O42  1  0.64247500  0.92243900  0.92971000  1
  O  O43  1  0.15847500  0.41566100  0.93178300  1
  O  O44  1  0.86037400  0.58684700  0.07331900  1
  O  O45  1  0.35374100  0.07750500  0.07064000  1
  O  O46  1  0.38591200  0.93419900  0.73485900  1
  O  O47  1  0.89158600  0.43494400  0.72670200  1
  O  O48  1  0.11697000  0.56418600  0.26779400  1
  O  O49  1  0.61248800  0.06619900  0.26454900  1
