# generated using pymatgen
data_KLiWO5
_symmetry_space_group_name_H-M   'P 1'
_cell_length_a   7.73301800
_cell_length_b   10.99145300
_cell_length_c   12.65971900
_cell_angle_alpha   90.00000000
_cell_angle_beta   90.00000000
_cell_angle_gamma   90.00000000
_symmetry_Int_Tables_number   1
_chemical_formula_structural   KLiWO5
_chemical_formula_sum   'K8 Li8 W8 O40'
_cell_volume   1076.03945113
_cell_formula_units_Z   8
loop_
 _symmetry_equiv_pos_site_id
 _symmetry_equiv_pos_as_xyz
  1  'x, y, z'
loop_
 _atom_site_type_symbol
 _atom_site_label
 _atom_site_symmetry_multiplicity
 _atom_site_fract_x
 _atom_site_fract_y
 _atom_site_fract_z
 _atom_site_occupancy
  K  K0  1  0.19436800  0.79570700  0.87268700  1
  K  K1  1  0.80563200  0.20429300  0.12731300  1
  K  K2  1  0.30563200  0.29570700  0.12731300  1
  K  K3  1  0.80563200  0.70429300  0.37268700  1
  K  K4  1  0.69436800  0.70429300  0.87268700  1
  K  K5  1  0.19436800  0.29570700  0.62731300  1
  K  K6  1  0.69436800  0.20429300  0.62731300  1
  K  K7  1  0.30563200  0.79570700  0.37268700  1
  Li  Li8  1  0.00894300  0.58209300  0.67465800  1
  Li  Li9  1  0.99105700  0.41790700  0.32534200  1
  Li  Li10  1  0.49105700  0.08209300  0.32534200  1
  Li  Li11  1  0.99105700  0.91790700  0.17465800  1
  Li  Li12  1  0.50894300  0.91790700  0.67465800  1
  Li  Li13  1  0.00894300  0.08209300  0.82534200  1
  Li  Li14  1  0.50894300  0.41790700  0.82534200  1
  Li  Li15  1  0.49105700  0.58209300  0.17465800  1
  W  W16  1  0.43807000  0.62191000  0.62418700  1
  W  W17  1  0.56193000  0.37809000  0.37581300  1
  W  W18  1  0.06193000  0.12191000  0.37581300  1
  W  W19  1  0.56193000  0.87809000  0.12418700  1
  W  W20  1  0.93807000  0.87809000  0.62418700  1
  W  W21  1  0.43807000  0.12191000  0.87581300  1
  W  W22  1  0.93807000  0.37809000  0.87581300  1
  W  W23  1  0.06193000  0.62191000  0.12418700  1
  O  O24  1  0.22273500  0.56188100  0.59789600  1
  O  O25  1  0.77726500  0.43811900  0.40210400  1
  O  O26  1  0.27726500  0.06188100  0.40210400  1
  O  O27  1  0.77726500  0.93811900  0.09789600  1
  O  O28  1  0.72273500  0.93811900  0.59789600  1
  O  O29  1  0.22273500  0.06188100  0.90210400  1
  O  O30  1  0.72273500  0.43811900  0.90210400  1
  O  O31  1  0.27726500  0.56188100  0.09789600  1
  O  O32  1  0.03621500  0.83432900  0.50145600  1
  O  O33  1  0.96378500  0.16567100  0.49854400  1
  O  O34  1  0.46378500  0.33432900  0.49854400  1
  O  O35  1  0.96378500  0.66567100  0.00145600  1
  O  O36  1  0.53621500  0.66567100  0.50145600  1
  O  O37  1  0.03621500  0.33432900  0.99854400  1
  O  O38  1  0.53621500  0.16567100  0.99854400  1
  O  O39  1  0.46378500  0.83432900  0.00145600  1
  O  O40  1  0.06971300  0.98896500  0.69699800  1
  O  O41  1  0.93028700  0.01103500  0.30300200  1
  O  O42  1  0.43028700  0.48896500  0.30300200  1
  O  O43  1  0.93028700  0.51103500  0.19699800  1
  O  O44  1  0.56971300  0.51103500  0.69699800  1
  O  O45  1  0.06971300  0.48896500  0.80300200  1
  O  O46  1  0.56971300  0.01103500  0.80300200  1
  O  O47  1  0.43028700  0.98896500  0.19699800  1
  O  O48  1  0.34116800  0.54685600  0.89065200  1
  O  O49  1  0.65883200  0.45314400  0.10934800  1
  O  O50  1  0.15883200  0.04685600  0.10934800  1
  O  O51  1  0.65883200  0.95314400  0.39065200  1
  O  O52  1  0.84116800  0.95314400  0.89065200  1
  O  O53  1  0.34116800  0.04685600  0.60934800  1
  O  O54  1  0.84116800  0.45314400  0.60934800  1
  O  O55  1  0.15883200  0.54685600  0.39065200  1
  O  O56  1  0.42180600  0.75673500  0.70762000  1
  O  O57  1  0.57819400  0.24326500  0.29238000  1
  O  O58  1  0.07819400  0.25673500  0.29238000  1
  O  O59  1  0.57819400  0.74326500  0.20762000  1
  O  O60  1  0.92180600  0.74326500  0.70762000  1
  O  O61  1  0.42180600  0.25673500  0.79238000  1
  O  O62  1  0.92180600  0.24326500  0.79238000  1
  O  O63  1  0.07819400  0.75673500  0.20762000  1
