# generated using pymatgen
data_Li2Mn3SnO8
_symmetry_space_group_name_H-M   'P 1'
_cell_length_a   5.88547403
_cell_length_b   10.60638700
_cell_length_c   6.09934676
_cell_angle_alpha   75.20520451
_cell_angle_beta   61.09415699
_cell_angle_gamma   73.87867312
_symmetry_Int_Tables_number   1
_chemical_formula_structural   Li2Mn3SnO8
_chemical_formula_sum   'Li4 Mn6 Sn2 O16'
_cell_volume   316.86213946
_cell_formula_units_Z   2
loop_
 _symmetry_equiv_pos_site_id
 _symmetry_equiv_pos_as_xyz
  1  'x, y, z'
loop_
 _atom_site_type_symbol
 _atom_site_label
 _atom_site_symmetry_multiplicity
 _atom_site_fract_x
 _atom_site_fract_y
 _atom_site_fract_z
 _atom_site_occupancy
  Li  Li0  1  0.44681200  0.68584500  0.44139800  1
  Li  Li1  1  0.92707900  0.18523100  0.94048800  1
  Li  Li2  1  0.07290700  0.81478300  0.05964400  1
  Li  Li3  1  0.55329100  0.31422700  0.55846900  1
  Mn  Mn4  1  0.50010300  0.99990500  0.00037300  1
  Mn  Mn5  1  0.00001700  0.00009600  0.50014200  1
  Mn  Mn6  1  0.49990600  0.50004400  0.99978300  1
  Mn  Mn7  1  0.49990600  0.99989000  0.50032700  1
  Mn  Mn8  1  0.00009300  0.49991300  0.99978100  1
  Mn  Mn9  1  0.00004800  0.50009400  0.49943300  1
  Sn  Sn10  1  0.23849500  0.24996400  0.24967300  1
  Sn  Sn11  1  0.76147700  0.75005000  0.75058800  1
  O  O12  1  0.35664200  0.89719500  0.39236400  1
  O  O13  1  0.85618600  0.39835800  0.88658300  1
  O  O14  1  0.14368600  0.60163800  0.11304000  1
  O  O15  1  0.64321500  0.10274200  0.60812100  1
  O  O16  1  0.59346900  0.11957600  0.12322600  1
  O  O17  1  0.11107200  0.60876600  0.66414000  1
  O  O18  1  0.12880400  0.11879100  0.59510500  1
  O  O19  1  0.65631500  0.61870700  0.09569800  1
  O  O20  1  0.12144100  0.10640100  0.16133200  1
  O  O21  1  0.66447900  0.61871700  0.62391600  1
  O  O22  1  0.33575500  0.38137700  0.37560000  1
  O  O23  1  0.87853600  0.89361800  0.83883000  1
  O  O24  1  0.34375500  0.38110700  0.90401800  1
  O  O25  1  0.87096600  0.88136600  0.40544800  1
  O  O26  1  0.88898500  0.39113100  0.33543000  1
  O  O27  1  0.40656000  0.88046900  0.87704900  1
