# generated using pymatgen
data_Li2CrN2
_symmetry_space_group_name_H-M   'P 1'
_cell_length_a   2.92886822
_cell_length_b   2.92887346
_cell_length_c   5.61510325
_cell_angle_alpha   90.00000204
_cell_angle_beta   90.00004345
_cell_angle_gamma   120.00005634
_symmetry_Int_Tables_number   1
_chemical_formula_structural   Li2CrN2
_chemical_formula_sum   'Li2 Cr1 N2'
_cell_volume   41.71464699
_cell_formula_units_Z   1
loop_
 _symmetry_equiv_pos_site_id
 _symmetry_equiv_pos_as_xyz
  1  'x, y, z'
loop_
 _atom_site_type_symbol
 _atom_site_label
 _atom_site_symmetry_multiplicity
 _atom_site_fract_x
 _atom_site_fract_y
 _atom_site_fract_z
 _atom_site_occupancy
  Li  Li0  1  0.66666600  0.33333300  0.35468239  1
  Li  Li1  1  0.33333400  0.66666700  0.64531761  1
  Cr  Cr2  1  0.00000000  0.00000000  0.00000000  1
  N  N3  1  0.66666600  0.33333300  0.79624242  1
  N  N4  1  0.33333400  0.66666700  0.20375758  1
