# generated using pymatgen
data_Li6MnV3(PO4)6
_symmetry_space_group_name_H-M   'P 1'
_cell_length_a   8.59148900
_cell_length_b   8.77946502
_cell_length_c   12.04770196
_cell_angle_alpha   90.25768902
_cell_angle_beta   91.01608931
_cell_angle_gamma   90.62060631
_symmetry_Int_Tables_number   1
_chemical_formula_structural   Li6MnV3(PO4)6
_chemical_formula_sum   'Li12 Mn2 V6 P12 O48'
_cell_volume   908.53603100
_cell_formula_units_Z   2
loop_
 _symmetry_equiv_pos_site_id
 _symmetry_equiv_pos_as_xyz
  1  'x, y, z'
loop_
 _atom_site_type_symbol
 _atom_site_label
 _atom_site_symmetry_multiplicity
 _atom_site_fract_x
 _atom_site_fract_y
 _atom_site_fract_z
 _atom_site_occupancy
  Li  Li0  1  0.06521500  0.48699400  0.34748100  1
  Li  Li1  1  0.07921400  0.91343400  0.69042600  1
  Li  Li2  1  0.18080800  0.22033600  0.17818900  1
  Li  Li3  1  0.32010700  0.72199800  0.32240200  1
  Li  Li4  1  0.41982800  0.41287800  0.80936400  1
  Li  Li5  1  0.43495100  0.98917200  0.15369500  1
  Li  Li6  1  0.56510900  0.01418300  0.84664600  1
  Li  Li7  1  0.58051700  0.58595400  0.19130100  1
  Li  Li8  1  0.68007500  0.27898700  0.67805800  1
  Li  Li9  1  0.82019800  0.78010300  0.82198100  1
  Li  Li10  1  0.92078200  0.08594900  0.30980200  1
  Li  Li11  1  0.93469700  0.51308200  0.65259000  1
  Mn  Mn12  1  0.25298200  0.03533600  0.39142800  1
  Mn  Mn13  1  0.75227500  0.02743400  0.10735300  1
  V  V14  1  0.24334000  0.97314100  0.89565600  1
  V  V15  1  0.24524800  0.53452900  0.10873400  1
  V  V16  1  0.25446400  0.47184400  0.60517400  1
  V  V17  1  0.74474200  0.96586100  0.60824900  1
  V  V18  1  0.74539000  0.52804200  0.39500600  1
  V  V19  1  0.75541100  0.46449000  0.89066200  1
  P  P20  1  0.04042300  0.75113200  0.49081000  1
  P  P21  1  0.11368500  0.61730400  0.84752100  1
  P  P22  1  0.11685400  0.88742500  0.14795200  1
  P  P23  1  0.38496300  0.11679800  0.65081200  1
  P  P24  1  0.38568200  0.38913500  0.35315400  1
  P  P25  1  0.45862800  0.25240400  0.00961200  1
  P  P26  1  0.54184300  0.75028700  0.98943100  1
  P  P27  1  0.61479600  0.61029700  0.64719500  1
  P  P28  1  0.61352000  0.88129700  0.34729000  1
  P  P29  1  0.88481300  0.11046700  0.85309000  1
  P  P30  1  0.88547800  0.38092800  0.15158800  1
  P  P31  1  0.95797800  0.24999500  0.50957000  1
  O  O32  1  0.05212200  0.11042800  0.89746100  1
  O  O33  1  0.04638400  0.12905000  0.44518100  1
  O  O34  1  0.05454700  0.33530600  0.60039200  1
  O  O35  1  0.05749600  0.42015300  0.18953400  1
  O  O36  1  0.09795300  0.63933700  0.58209600  1
  O  O37  1  0.12413600  0.79370100  0.83019100  1
  O  O38  1  0.13908500  0.57928800  0.97000200  1
  O  O39  1  0.13036700  0.00622500  0.24824800  1
  O  O40  1  0.17509600  0.73004200  0.18827000  1
  O  O41  1  0.18657000  0.82188300  0.43470700  1
  O  O42  1  0.22951200  0.52874600  0.77534800  1
  O  O43  1  0.23764900  0.95014200  0.06305300  1
  O  O44  1  0.26532500  0.44910400  0.43854200  1
  O  O45  1  0.26940200  0.02801800  0.72352300  1
  O  O46  1  0.31295400  0.32477100  0.06450600  1
  O  O47  1  0.32749300  0.23030500  0.31199300  1
  O  O48  1  0.36216100  0.07984000  0.52696100  1
  O  O49  1  0.37228700  0.50581600  0.25434300  1
  O  O50  1  0.37572100  0.29319100  0.66911700  1
  O  O51  1  0.40116600  0.14001900  0.91699300  1
  O  O52  1  0.44590100  0.83499200  0.90031500  1
  O  O53  1  0.44431900  0.91790400  0.30772300  1
  O  O54  1  0.44748400  0.60956900  0.60293500  1
  O  O55  1  0.45037900  0.63105400  0.05584400  1
  O  O56  1  0.55016900  0.37347600  0.94534600  1
  O  O57  1  0.55285000  0.39061300  0.39756300  1
  O  O58  1  0.55686900  0.07810600  0.68717300  1
  O  O59  1  0.55033200  0.17015100  0.10184400  1
  O  O60  1  0.60125700  0.86266900  0.08356800  1
  O  O61  1  0.62492300  0.70464400  0.33080700  1
  O  O62  1  0.62777000  0.49329900  0.74579800  1
  O  O63  1  0.63746200  0.92030700  0.47025300  1
  O  O64  1  0.67241300  0.76939200  0.68757200  1
  O  O65  1  0.68513800  0.67778700  0.93388800  1
  O  O66  1  0.73206000  0.97206100  0.27778700  1
  O  O67  1  0.73517900  0.55032300  0.56193500  1
  O  O68  1  0.76272000  0.04916100  0.93681300  1
  O  O69  1  0.77026300  0.46946700  0.22414200  1
  O  O70  1  0.81331700  0.17863300  0.56706600  1
  O  O71  1  0.82918000  0.26920500  0.81274100  1
  O  O72  1  0.87274400  0.99403300  0.75298800  1
  O  O73  1  0.86088200  0.42043200  0.02984000  1
  O  O74  1  0.87746400  0.20288100  0.16750500  1
  O  O75  1  0.90055500  0.36187400  0.41822200  1
  O  O76  1  0.94149400  0.57823300  0.81059100  1
  O  O77  1  0.94470000  0.66535000  0.39953900  1
  O  O78  1  0.94949600  0.87155200  0.55479600  1
  O  O79  1  0.95123800  0.88625300  0.10273100  1
