# generated using pymatgen
data_Li19V12O32
_symmetry_space_group_name_H-M   'P 1'
_cell_length_a   7.28632708
_cell_length_b   7.28632708
_cell_length_c   12.45149212
_cell_angle_alpha   75.65411537
_cell_angle_beta   75.65411537
_cell_angle_gamma   67.44255772
_symmetry_Int_Tables_number   1
_chemical_formula_structural   Li19V12O32
_chemical_formula_sum   'Li19 V12 O32'
_cell_volume   582.76577550
_cell_formula_units_Z   1
loop_
 _symmetry_equiv_pos_site_id
 _symmetry_equiv_pos_as_xyz
  1  'x, y, z'
loop_
 _atom_site_type_symbol
 _atom_site_label
 _atom_site_symmetry_multiplicity
 _atom_site_fract_x
 _atom_site_fract_y
 _atom_site_fract_z
 _atom_site_occupancy
  Li  Li0  1  0.52442800  0.52442800  0.67728400  1
  Li  Li1  1  0.02946500  0.02946500  0.67307500  1
  Li  Li2  1  0.97366700  0.46286900  0.32624800  1
  Li  Li3  1  0.46286900  0.97366700  0.32624800  1
  Li  Li4  1  0.26535100  0.26535100  0.67882500  1
  Li  Li5  1  0.76090100  0.76090100  0.68084900  1
  Li  Li6  1  0.24120900  0.74008900  0.32192500  1
  Li  Li7  1  0.74008900  0.24120900  0.32192500  1
  Li  Li8  1  0.20104600  0.20104600  0.93861800  1
  Li  Li9  1  0.69953600  0.69953600  0.93783700  1
  Li  Li10  1  0.29845100  0.80155200  0.06040900  1
  Li  Li11  1  0.80155200  0.29845100  0.06040900  1
  Li  Li12  1  0.62581600  0.62581600  0.20747300  1
  Li  Li13  1  0.12948500  0.12948500  0.21712800  1
  Li  Li14  1  0.87538700  0.37468500  0.78969300  1
  Li  Li15  1  0.37468500  0.87538700  0.78969300  1
  Li  Li16  1  0.57759000  0.57759000  0.43485800  1
  Li  Li17  1  0.41132600  0.91992600  0.56323700  1
  Li  Li18  1  0.91992600  0.41132600  0.56323700  1
  V  V19  1  0.39003500  0.39003500  0.19080200  1
  V  V20  1  0.88759300  0.88759300  0.19270700  1
  V  V21  1  0.11221900  0.61293100  0.80798600  1
  V  V22  1  0.61293100  0.11221900  0.80798600  1
  V  V23  1  0.31802000  0.31802000  0.44073500  1
  V  V24  1  0.81626500  0.81626500  0.44469300  1
  V  V25  1  0.17899300  0.68415600  0.55724200  1
  V  V26  1  0.68415600  0.17899300  0.55724200  1
  V  V27  1  0.97243800  0.97243800  0.92841500  1
  V  V28  1  0.47206700  0.47206700  0.92892900  1
  V  V29  1  0.52730500  0.02683200  0.06974700  1
  V  V30  1  0.02683200  0.52730500  0.06974700  1
  O  O31  1  0.37120900  0.37120900  0.82519000  1
  O  O32  1  0.87089200  0.87089200  0.82644700  1
  O  O33  1  0.12074000  0.63867800  0.17517100  1
  O  O34  1  0.63867800  0.12074000  0.17517100  1
  O  O35  1  0.53167700  0.53167700  0.05685500  1
  O  O36  1  0.02880700  0.02880700  0.05872500  1
  O  O37  1  0.96832700  0.46833200  0.94362400  1
  O  O38  1  0.46833200  0.96832700  0.94362400  1
  O  O39  1  0.41579900  0.41579900  0.55257900  1
  O  O40  1  0.91023000  0.91023000  0.55095600  1
  O  O41  1  0.08188600  0.58630200  0.44610300  1
  O  O42  1  0.58630200  0.08188600  0.44610300  1
  O  O43  1  0.18985600  0.18985600  0.55489800  1
  O  O44  1  0.68188300  0.68188300  0.55107500  1
  O  O45  1  0.31990000  0.80843100  0.44862300  1
  O  O46  1  0.80843100  0.31990000  0.44862300  1
  O  O47  1  0.10352100  0.10352100  0.82176500  1
  O  O48  1  0.60243900  0.60243900  0.82002300  1
  O  O49  1  0.39686400  0.89942100  0.18052200  1
  O  O50  1  0.89942100  0.39686400  0.18052200  1
  O  O51  1  0.80337400  0.80337400  0.06269000  1
  O  O52  1  0.30517700  0.30517700  0.06129800  1
  O  O53  1  0.69506500  0.19468700  0.94009600  1
  O  O54  1  0.19468700  0.69506500  0.94009600  1
  O  O55  1  0.24936500  0.24936500  0.31440600  1
  O  O56  1  0.74451700  0.74451700  0.31571000  1
  O  O57  1  0.25527500  0.75896800  0.68166100  1
  O  O58  1  0.75896800  0.25527500  0.68166100  1
  O  O59  1  0.46917700  0.46917700  0.31454300  1
  O  O60  1  0.96235500  0.96235500  0.30344500  1
  O  O61  1  0.03200600  0.53371000  0.68479600  1
  O  O62  1  0.53371000  0.03200600  0.68479600  1
