# generated using pymatgen
data_Li2Mn3NbO8
_symmetry_space_group_name_H-M   'P 1'
_cell_length_a   6.23475463
_cell_length_b   11.03628836
_cell_length_c   5.84002559
_cell_angle_alpha   90.00094098
_cell_angle_beta   117.92766084
_cell_angle_gamma   68.35032709
_symmetry_Int_Tables_number   1
_chemical_formula_structural   Li2Mn3NbO8
_chemical_formula_sum   'Li4 Mn6 Nb2 O16'
_cell_volume   322.61272925
_cell_formula_units_Z   2
loop_
 _symmetry_equiv_pos_site_id
 _symmetry_equiv_pos_as_xyz
  1  'x, y, z'
loop_
 _atom_site_type_symbol
 _atom_site_label
 _atom_site_symmetry_multiplicity
 _atom_site_fract_x
 _atom_site_fract_y
 _atom_site_fract_z
 _atom_site_occupancy
  Li  Li0  1  0.88340100  0.19411000  0.93872500  1
  Li  Li1  1  0.88336900  0.69410700  0.44459900  1
  Li  Li2  1  0.11649800  0.30593700  0.55534300  1
  Li  Li3  1  0.11655300  0.80594600  0.06113400  1
  Mn  Mn4  1  0.00012000  0.00006600  0.50019400  1
  Mn  Mn5  1  0.50005500  0.49981600  0.50006800  1
  Mn  Mn6  1  0.50007600  0.99992800  0.99977400  1
  Mn  Mn7  1  0.50002300  0.49990500  0.00013100  1
  Mn  Mn8  1  0.49998300  0.00020800  0.50020300  1
  Mn  Mn9  1  0.00006600  0.49986100  0.00004600  1
  Nb  Nb10  1  0.49985500  0.74997600  0.75403100  1
  Nb  Nb11  1  0.49984600  0.24997300  0.24560400  1
  O  O12  1  0.72304800  0.39757900  0.86075900  1
  O  O13  1  0.72310800  0.89771100  0.36237800  1
  O  O14  1  0.27706800  0.10242500  0.63779600  1
  O  O15  1  0.27700200  0.60230300  0.13931400  1
  O  O16  1  0.75196100  0.62457000  0.10479900  1
  O  O17  1  0.75326000  0.12442800  0.60051700  1
  O  O18  1  0.29888900  0.62548200  0.65055200  1
  O  O19  1  0.29886800  0.12554200  0.14822100  1
  O  O20  1  0.75329000  0.62433400  0.65283800  1
  O  O21  1  0.75211100  0.12463300  0.14722000  1
  O  O22  1  0.24799400  0.87551100  0.85288400  1
  O  O23  1  0.24668100  0.37561300  0.34727300  1
  O  O24  1  0.70117300  0.87447600  0.85163000  1
  O  O25  1  0.70120300  0.37440500  0.34945400  1
  O  O26  1  0.24665500  0.87571900  0.39947600  1
  O  O27  1  0.24784400  0.37543900  0.89503900  1
