# generated using pymatgen
data_Li4Mn3O7
_symmetry_space_group_name_H-M   'P 1'
_cell_length_a   17.36606692
_cell_length_b   17.36606692
_cell_length_c   5.27326326
_cell_angle_alpha   83.25247795
_cell_angle_beta   83.25247795
_cell_angle_gamma   9.52118926
_symmetry_Int_Tables_number   1
_chemical_formula_structural   Li4Mn3O7
_chemical_formula_sum   'Li8 Mn6 O14'
_cell_volume   261.22253526
_cell_formula_units_Z   2
loop_
 _symmetry_equiv_pos_site_id
 _symmetry_equiv_pos_as_xyz
  1  'x, y, z'
loop_
 _atom_site_type_symbol
 _atom_site_label
 _atom_site_symmetry_multiplicity
 _atom_site_fract_x
 _atom_site_fract_y
 _atom_site_fract_z
 _atom_site_occupancy
  Li  Li0  1  0.93095800  0.93095800  0.35084400  1
  Li  Li1  1  0.35743300  0.35743300  0.21462000  1
  Li  Li2  1  0.78588700  0.78588700  0.07081900  1
  Li  Li3  1  0.21411300  0.21411300  0.92918100  1
  Li  Li4  1  0.64256700  0.64256700  0.78538000  1
  Li  Li5  1  0.50000000  0.50000000  0.50000000  1
  Li  Li6  1  0.06904200  0.06904200  0.64915600  1
  Li  Li7  1  0.00000000  0.00000000  0.00000000  1
  Mn  Mn8  1  0.43209300  0.43209300  0.87559800  1
  Mn  Mn9  1  0.56790700  0.56790700  0.12440200  1
  Mn  Mn10  1  0.85875700  0.85875700  0.72376800  1
  Mn  Mn11  1  0.28632600  0.28632600  0.57195800  1
  Mn  Mn12  1  0.71367400  0.71367400  0.42804200  1
  Mn  Mn13  1  0.14124300  0.14124300  0.27623200  1
  O  O14  1  0.96093300  0.96093300  0.69222400  1
  O  O15  1  0.39228100  0.39228100  0.57242100  1
  O  O16  1  0.81856000  0.81856000  0.40214000  1
  O  O17  1  0.24596700  0.24596700  0.25891600  1
  O  O18  1  0.67442300  0.67442300  0.11352900  1
  O  O19  1  0.53965800  0.53965800  0.85632800  1
  O  O20  1  0.10243400  0.10243400  0.97381000  1
  O  O21  1  0.89756600  0.89756600  0.02619000  1
  O  O22  1  0.32557700  0.32557700  0.88647100  1
  O  O23  1  0.75403300  0.75403300  0.74108400  1
  O  O24  1  0.18144000  0.18144000  0.59786000  1
  O  O25  1  0.60771900  0.60771900  0.42757900  1
  O  O26  1  0.46034200  0.46034200  0.14367200  1
  O  O27  1  0.03906700  0.03906700  0.30777600  1
