# generated using pymatgen
data_Li2MnH8(SO6)2
_symmetry_space_group_name_H-M   'P 1'
_cell_length_a   11.90192210
_cell_length_b   11.90192210
_cell_length_c   12.57777561
_cell_angle_alpha   61.84933111
_cell_angle_beta   61.84933111
_cell_angle_gamma   45.99393931
_symmetry_Int_Tables_number   1
_chemical_formula_structural   Li2MnH8(SO6)2
_chemical_formula_sum   'Li8 Mn4 H32 S8 O48'
_cell_volume   1100.41222144
_cell_formula_units_Z   4
loop_
 _symmetry_equiv_pos_site_id
 _symmetry_equiv_pos_as_xyz
  1  'x, y, z'
loop_
 _atom_site_type_symbol
 _atom_site_label
 _atom_site_symmetry_multiplicity
 _atom_site_fract_x
 _atom_site_fract_y
 _atom_site_fract_z
 _atom_site_occupancy
  Li  Li0  1  0.99362400  0.75762600  0.19063800  1
  Li  Li1  1  0.37458800  0.35418800  0.15934800  1
  Li  Li2  1  0.64581200  0.62541200  0.34065200  1
  Li  Li3  1  0.24237400  0.00637600  0.30936200  1
  Li  Li4  1  0.75762600  0.99362400  0.69063800  1
  Li  Li5  1  0.35418800  0.37458800  0.65934800  1
  Li  Li6  1  0.62541200  0.64581200  0.84065200  1
  Li  Li7  1  0.00637600  0.24237400  0.80936200  1
  Mn  Mn8  1  0.00000000  0.50000000  0.50000000  1
  Mn  Mn9  1  0.74974300  0.25025700  0.25000000  1
  Mn  Mn10  1  0.50000000  0.00000000  0.00000000  1
  Mn  Mn11  1  0.25025700  0.74974300  0.75000000  1
  H  H12  1  0.98858800  0.76000400  0.45867400  1
  H  H13  1  0.27180000  0.47161100  0.44705600  1
  H  H14  1  0.64023200  0.07764400  0.45593300  1
  H  H15  1  0.02744100  0.94137700  0.32433700  1
  H  H16  1  0.44323900  0.52434100  0.32463500  1
  H  H17  1  0.18494600  0.18684900  0.49004300  1
  H  H18  1  0.68524400  0.69794900  0.49286700  1
  H  H19  1  0.59528500  0.11334400  0.33561000  1
  H  H20  1  0.88665600  0.40471500  0.16439000  1
  H  H21  1  0.30205100  0.31475600  0.00713300  1
  H  H22  1  0.76000400  0.98858800  0.95867400  1
  H  H23  1  0.81315100  0.81505400  0.00995700  1
  H  H24  1  0.47161100  0.27180000  0.94705600  1
  H  H25  1  0.07764400  0.64023200  0.95593300  1
  H  H26  1  0.94137700  0.02744100  0.82433700  1
  H  H27  1  0.52434100  0.44323900  0.82463500  1
  H  H28  1  0.47565900  0.55676100  0.17536500  1
  H  H29  1  0.05862300  0.97255900  0.17566300  1
  H  H30  1  0.92235600  0.35976800  0.04406700  1
  H  H31  1  0.52838900  0.72820000  0.05294400  1
  H  H32  1  0.18684900  0.18494600  0.99004300  1
  H  H33  1  0.23999600  0.01141200  0.04132600  1
  H  H34  1  0.69794900  0.68524400  0.99286700  1
  H  H35  1  0.11334400  0.59528500  0.83561000  1
  H  H36  1  0.40471500  0.88665600  0.66439000  1
  H  H37  1  0.31475600  0.30205100  0.50713300  1
  H  H38  1  0.81505400  0.81315100  0.50995700  1
  H  H39  1  0.55676100  0.47565900  0.67536500  1
  H  H40  1  0.97255900  0.05862300  0.67566300  1
  H  H41  1  0.35976800  0.92235600  0.54406700  1
  H  H42  1  0.72820000  0.52838900  0.55294400  1
  H  H43  1  0.01141200  0.23999600  0.54132600  1
  S  S44  1  0.24272100  0.72032600  0.48052000  1
  S  S45  1  0.47532500  0.99159800  0.29671000  1
  S  S46  1  0.00840200  0.52467500  0.20329000  1
  S  S47  1  0.72032600  0.24272100  0.98052000  1
  S  S48  1  0.27967400  0.75727900  0.01948000  1
  S  S49  1  0.99159800  0.47532500  0.79671000  1
  S  S50  1  0.52467500  0.00840200  0.70329000  1
  S  S51  1  0.75727900  0.27967400  0.51948000  1
  O  O52  1  0.07798900  0.81990000  0.46238100  1
  O  O53  1  0.33084100  0.54769700  0.48416700  1
  O  O54  1  0.91772800  0.74436300  0.45568700  1
  O  O55  1  0.25140700  0.40251300  0.44923500  1
  O  O56  1  0.62419700  0.14569500  0.37171700  1
  O  O57  1  0.98208200  0.01791800  0.25000000  1
  O  O58  1  0.51857100  0.48142900  0.25000000  1
  O  O59  1  0.32515300  0.04075200  0.39914400  1
  O  O60  1  0.00481400  0.56287100  0.30328100  1
  O  O61  1  0.61097500  0.82458800  0.34087600  1
  O  O62  1  0.51028500  0.10593500  0.25276500  1
  O  O63  1  0.72823200  0.23141300  0.09880500  1
  O  O64  1  0.21983900  0.66834600  0.12605600  1
  O  O65  1  0.33165400  0.78016100  0.37394400  1
  O  O66  1  0.76858700  0.27176800  0.40119500  1
  O  O67  1  0.89406500  0.48971500  0.24723500  1
  O  O68  1  0.17541200  0.38902500  0.15912400  1
  O  O69  1  0.43712900  0.99518600  0.19671900  1
  O  O70  1  0.95924800  0.67484700  0.10085600  1
  O  O71  1  0.81990000  0.07798900  0.96238100  1
  O  O72  1  0.54769700  0.33084100  0.98416700  1
  O  O73  1  0.74436300  0.91772800  0.95568700  1
  O  O74  1  0.40251300  0.25140700  0.94923500  1
  O  O75  1  0.85430500  0.37580300  0.12828300  1
  O  O76  1  0.14569500  0.62419700  0.87171700  1
  O  O77  1  0.59748700  0.74859300  0.05076500  1
  O  O78  1  0.25563700  0.08227200  0.04431300  1
  O  O79  1  0.01791800  0.98208200  0.75000000  1
  O  O80  1  0.48142900  0.51857100  0.75000000  1
  O  O81  1  0.45230300  0.66915900  0.01583300  1
  O  O82  1  0.18010000  0.92201100  0.03761900  1
  O  O83  1  0.04075200  0.32515300  0.89914400  1
  O  O84  1  0.56287100  0.00481400  0.80328100  1
  O  O85  1  0.82458800  0.61097500  0.84087600  1
  O  O86  1  0.10593500  0.51028500  0.75276500  1
  O  O87  1  0.23141300  0.72823200  0.59880500  1
  O  O88  1  0.66834600  0.21983900  0.62605600  1
  O  O89  1  0.78016100  0.33165400  0.87394400  1
  O  O90  1  0.27176800  0.76858700  0.90119500  1
  O  O91  1  0.48971500  0.89406500  0.74723500  1
  O  O92  1  0.38902500  0.17541200  0.65912400  1
  O  O93  1  0.99518600  0.43712900  0.69671900  1
  O  O94  1  0.67484700  0.95924800  0.60085600  1
  O  O95  1  0.37580300  0.85430500  0.62828300  1
  O  O96  1  0.74859300  0.59748700  0.55076500  1
  O  O97  1  0.08227200  0.25563700  0.54431300  1
  O  O98  1  0.66915900  0.45230300  0.51583300  1
  O  O99  1  0.92201100  0.18010000  0.53761900  1
