# generated using pymatgen
data_Li5Fe3(OF5)2
_symmetry_space_group_name_H-M   'P 1'
_cell_length_a   5.15058739
_cell_length_b   5.56364914
_cell_length_c   9.13629315
_cell_angle_alpha   85.31294041
_cell_angle_beta   73.76390656
_cell_angle_gamma   117.43010314
_symmetry_Int_Tables_number   1
_chemical_formula_structural   Li5Fe3(OF5)2
_chemical_formula_sum   'Li5 Fe3 O2 F10'
_cell_volume   216.19342443
_cell_formula_units_Z   1
loop_
 _symmetry_equiv_pos_site_id
 _symmetry_equiv_pos_as_xyz
  1  'x, y, z'
loop_
 _atom_site_type_symbol
 _atom_site_label
 _atom_site_symmetry_multiplicity
 _atom_site_fract_x
 _atom_site_fract_y
 _atom_site_fract_z
 _atom_site_occupancy
  Li  Li0  1  0.13549165  0.85577665  0.58147260  1
  Li  Li1  1  0.42126137  0.91950470  0.16689272  1
  Li  Li2  1  0.33656063  0.37781474  0.67284566  1
  Li  Li3  1  0.62006524  0.59110616  0.30810430  1
  Li  Li4  1  0.67409509  0.11966989  0.82702420  1
  Fe  Fe5  1  0.15788265  0.39090489  0.07356235  1
  Fe  Fe6  1  0.82760526  0.09384887  0.43643528  1
  Fe  Fe7  1  0.83557354  0.61152491  0.93167286  1
  O  O8  1  0.53963007  0.61736182  0.10839088  1
  O  O9  1  0.79479473  0.26213833  0.02567108  1
  F  F10  1  0.05215747  0.53598711  0.72425341  1
  F  F11  1  0.04929937  0.03611116  0.22623356  1
  F  F12  1  0.45596464  0.88717893  0.38143372  1
  F  F13  1  0.22269742  0.26915067  0.47021934  1
  F  F14  1  0.23825331  0.79617223  0.97283251  1
  F  F15  1  0.75016514  0.73018620  0.52710121  1
  F  F16  1  0.43905115  0.37832190  0.87186968  1
  F  F17  1  0.57697832  0.13044768  0.61984029  1
  F  F18  1  0.92734022  0.44100582  0.29470514  1
  F  F19  1  0.94513172  0.95578733  0.77944021  1
