# generated using pymatgen
data_LiMg3(WO4)3
_symmetry_space_group_name_H-M   'P 1'
_cell_length_a   5.23808000
_cell_length_b   10.72291000
_cell_length_c   17.32878500
_cell_angle_alpha   90.00000000
_cell_angle_beta   90.00000000
_cell_angle_gamma   90.00000000
_symmetry_Int_Tables_number   1
_chemical_formula_structural   LiMg3(WO4)3
_chemical_formula_sum   'Li4 Mg12 W12 O48'
_cell_volume   973.31384549
_cell_formula_units_Z   4
loop_
 _symmetry_equiv_pos_site_id
 _symmetry_equiv_pos_as_xyz
  1  'x, y, z'
loop_
 _atom_site_type_symbol
 _atom_site_label
 _atom_site_symmetry_multiplicity
 _atom_site_fract_x
 _atom_site_fract_y
 _atom_site_fract_z
 _atom_site_occupancy
  Li  Li0  1  0.27743900  0.25000000  0.69513700  1
  Li  Li1  1  0.72256100  0.75000000  0.30486300  1
  Li  Li2  1  0.22256100  0.75000000  0.19513700  1
  Li  Li3  1  0.77743900  0.25000000  0.80486300  1
  Mg  Mg4  1  0.10215800  0.25000000  0.25103100  1
  Mg  Mg5  1  0.89784200  0.75000000  0.74896900  1
  Mg  Mg6  1  0.39784200  0.75000000  0.75103100  1
  Mg  Mg7  1  0.60215800  0.25000000  0.24896900  1
  Mg  Mg8  1  0.24205100  0.07038900  0.52761900  1
  Mg  Mg9  1  0.75794900  0.92961100  0.47238100  1
  Mg  Mg10  1  0.25794900  0.92961100  0.02761900  1
  Mg  Mg11  1  0.75794900  0.57038900  0.47238100  1
  Mg  Mg12  1  0.74205100  0.07038900  0.97238100  1
  Mg  Mg13  1  0.24205100  0.42961100  0.52761900  1
  Mg  Mg14  1  0.74205100  0.42961100  0.97238100  1
  Mg  Mg15  1  0.25794900  0.57038900  0.02761900  1
  W  W16  1  0.28269300  0.25000000  0.05494100  1
  W  W17  1  0.71730700  0.75000000  0.94505900  1
  W  W18  1  0.21730700  0.75000000  0.55494100  1
  W  W19  1  0.78269300  0.25000000  0.44505900  1
  W  W20  1  0.27794800  0.53609400  0.33124100  1
  W  W21  1  0.72205200  0.46390600  0.66875900  1
  W  W22  1  0.22205200  0.46390600  0.83124100  1
  W  W23  1  0.72205200  0.03609400  0.66875900  1
  W  W24  1  0.77794800  0.53609400  0.16875900  1
  W  W25  1  0.27794800  0.96390600  0.33124100  1
  W  W26  1  0.77794800  0.96390600  0.16875900  1
  W  W27  1  0.22205200  0.03609400  0.83124100  1
  O  O28  1  0.35464200  0.12282300  0.29337000  1
  O  O29  1  0.64535800  0.87717700  0.70663000  1
  O  O30  1  0.14535800  0.87717700  0.79337000  1
  O  O31  1  0.64535800  0.62282300  0.70663000  1
  O  O32  1  0.85464200  0.12282300  0.20663000  1
  O  O33  1  0.35464200  0.37717700  0.29337000  1
  O  O34  1  0.85464200  0.37717700  0.20663000  1
  O  O35  1  0.14535800  0.62282300  0.79337000  1
  O  O36  1  0.01646200  0.61256700  0.27516700  1
  O  O37  1  0.98353800  0.38743300  0.72483300  1
  O  O38  1  0.48353800  0.38743300  0.77516700  1
  O  O39  1  0.98353800  0.11256700  0.72483300  1
  O  O40  1  0.51646200  0.61256700  0.22483300  1
  O  O41  1  0.01646200  0.88743300  0.27516700  1
  O  O42  1  0.51646200  0.88743300  0.22483300  1
  O  O43  1  0.48353800  0.11256700  0.77516700  1
  O  O44  1  0.06917000  0.25000000  0.50672200  1
  O  O45  1  0.93083000  0.75000000  0.49327800  1
  O  O46  1  0.43083000  0.75000000  0.00672200  1
  O  O47  1  0.56917000  0.25000000  0.99327800  1
  O  O48  1  0.08525500  0.11519400  0.03443200  1
  O  O49  1  0.91474500  0.88480600  0.96556800  1
  O  O50  1  0.41474500  0.88480600  0.53443200  1
  O  O51  1  0.91474500  0.61519400  0.96556800  1
  O  O52  1  0.58525500  0.11519400  0.46556800  1
  O  O53  1  0.08525500  0.38480600  0.03443200  1
  O  O54  1  0.58525500  0.38480600  0.46556800  1
  O  O55  1  0.41474500  0.61519400  0.53443200  1
  O  O56  1  0.35330700  0.25000000  0.15731700  1
  O  O57  1  0.64669300  0.75000000  0.84268300  1
  O  O58  1  0.14669300  0.75000000  0.65731700  1
  O  O59  1  0.85330700  0.25000000  0.34268300  1
  O  O60  1  0.08436300  0.00603000  0.42187200  1
  O  O61  1  0.91563700  0.99397000  0.57812800  1
  O  O62  1  0.41563700  0.99397000  0.92187200  1
  O  O63  1  0.91563700  0.50603000  0.57812800  1
  O  O64  1  0.58436300  0.00603000  0.07812800  1
  O  O65  1  0.08436300  0.49397000  0.42187200  1
  O  O66  1  0.58436300  0.49397000  0.07812800  1
  O  O67  1  0.41563700  0.50603000  0.92187200  1
  O  O68  1  0.04648100  0.61644200  0.12127000  1
  O  O69  1  0.95351900  0.38355800  0.87873000  1
  O  O70  1  0.45351900  0.38355800  0.62127000  1
  O  O71  1  0.95351900  0.11644200  0.87873000  1
  O  O72  1  0.54648100  0.61644200  0.37873000  1
  O  O73  1  0.04648100  0.88355800  0.12127000  1
  O  O74  1  0.54648100  0.88355800  0.37873000  1
  O  O75  1  0.45351900  0.11644200  0.62127000  1
