# generated using pymatgen
data_K2LiNbO4
_symmetry_space_group_name_H-M   'P 1'
_cell_length_a   6.15259000
_cell_length_b   8.68000781
_cell_length_c   10.83311243
_cell_angle_alpha   87.62071832
_cell_angle_beta   80.91121137
_cell_angle_gamma   89.40323572
_symmetry_Int_Tables_number   1
_chemical_formula_structural   K2LiNbO4
_chemical_formula_sum   'K8 Li4 Nb4 O16'
_cell_volume   570.77672772
_cell_formula_units_Z   4
loop_
 _symmetry_equiv_pos_site_id
 _symmetry_equiv_pos_as_xyz
  1  'x, y, z'
loop_
 _atom_site_type_symbol
 _atom_site_label
 _atom_site_symmetry_multiplicity
 _atom_site_fract_x
 _atom_site_fract_y
 _atom_site_fract_z
 _atom_site_occupancy
  K  K0  1  0.64441800  0.80696400  0.11390500  1
  K  K1  1  0.30846300  0.48972900  0.30762100  1
  K  K2  1  0.12970900  0.73976500  0.57242000  1
  K  K3  1  0.24537600  0.01798300  0.24096900  1
  K  K4  1  0.82169900  0.05107200  0.80860300  1
  K  K5  1  0.83786300  0.21498000  0.41068600  1
  K  K6  1  0.74462000  0.45554100  0.66333800  1
  K  K7  1  0.32137900  0.26214300  0.90864600  1
  Li  Li8  1  0.70346200  0.53232500  0.93725400  1
  Li  Li9  1  0.90163500  0.54497600  0.21009800  1
  Li  Li10  1  0.60315700  0.73952600  0.79080700  1
  Li  Li11  1  0.41391700  0.96144100  0.69315200  1
  Nb  Nb12  1  0.79018400  0.28677600  0.07691300  1
  Nb  Nb13  1  0.30692200  0.21609700  0.56640800  1
  Nb  Nb14  1  0.68083600  0.76792500  0.43591400  1
  Nb  Nb15  1  0.17687600  0.70680900  0.92455900  1
  O  O16  1  0.62554500  0.10633900  0.08184600  1
  O  O17  1  0.65201300  0.47802900  0.12168600  1
  O  O18  1  0.40506700  0.20996100  0.39571700  1
  O  O19  1  0.43079300  0.77489700  0.35893900  1
  O  O20  1  0.15792600  0.40334300  0.59083400  1
  O  O21  1  0.14414000  0.03808400  0.62655800  1
  O  O22  1  0.03485400  0.28300700  0.16058900  1
  O  O23  1  0.09965100  0.69588700  0.09696100  1
  O  O24  1  0.87513600  0.33154000  0.90470200  1
  O  O25  1  0.90164000  0.70540400  0.85932500  1
  O  O26  1  0.86601800  0.92489400  0.36976100  1
  O  O27  1  0.82672300  0.57913200  0.39233700  1
  O  O28  1  0.54647300  0.18783900  0.65811500  1
  O  O29  1  0.60216600  0.78195700  0.61605300  1
  O  O30  1  0.41129000  0.56674200  0.87337400  1
  O  O31  1  0.33880800  0.88741800  0.87056500  1
