# generated using pymatgen
data_Li9Mn2Co5O16
_symmetry_space_group_name_H-M   'P 1'
_cell_length_a   2.93960700
_cell_length_b   9.80623444
_cell_length_c   10.23859725
_cell_angle_alpha   78.30394176
_cell_angle_beta   89.57358207
_cell_angle_gamma   89.00742374
_symmetry_Int_Tables_number   1
_chemical_formula_structural   Li9Mn2Co5O16
_chemical_formula_sum   'Li9 Mn2 Co5 O16'
_cell_volume   288.96885783
_cell_formula_units_Z   1
loop_
 _symmetry_equiv_pos_site_id
 _symmetry_equiv_pos_as_xyz
  1  'x, y, z'
loop_
 _atom_site_type_symbol
 _atom_site_label
 _atom_site_symmetry_multiplicity
 _atom_site_fract_x
 _atom_site_fract_y
 _atom_site_fract_z
 _atom_site_occupancy
  Li  Li0  1  0.98812300  0.74028700  0.87828800  1
  Li  Li1  1  0.48538500  0.49121500  0.50025700  1
  Li  Li2  1  0.00834400  0.25750700  0.11440000  1
  Li  Li3  1  0.51470400  0.01410000  0.75218100  1
  Li  Li4  1  0.49687000  0.49421900  0.99864000  1
  Li  Li5  1  0.00144700  0.25150500  0.63483500  1
  Li  Li6  1  0.50288900  0.00388600  0.24850900  1
  Li  Li7  1  0.99912600  0.75075400  0.37217500  1
  Li  Li8  1  0.49687300  0.24568300  0.87086200  1
  Mn  Mn9  1  0.01483100  0.00447200  0.99666100  1
  Mn  Mn10  1  0.50043200  0.74774000  0.62758200  1
  Co  Co11  1  0.98934500  0.50239200  0.24974700  1
  Co  Co12  1  0.00184700  0.00472900  0.49653600  1
  Co  Co13  1  0.49976400  0.75116700  0.12894300  1
  Co  Co14  1  0.99544400  0.48053700  0.76442300  1
  Co  Co15  1  0.49910100  0.25080600  0.36877500  1
  O  O16  1  0.52010900  0.88061600  0.95539100  1
  O  O17  1  0.00631900  0.64089000  0.57332900  1
  O  O18  1  0.49380000  0.37545500  0.19540400  1
  O  O19  1  0.00727100  0.10895100  0.82592200  1
  O  O20  1  0.94982100  0.62920800  0.07443400  1
  O  O21  1  0.49776600  0.38682200  0.68857500  1
  O  O22  1  0.00599900  0.12853500  0.31562900  1
  O  O23  1  0.50119500  0.87477600  0.45229000  1
  O  O24  1  0.49780800  0.62754300  0.79841600  1
  O  O25  1  0.99299500  0.37808200  0.42369200  1
  O  O26  1  0.50771400  0.10749200  0.05385000  1
  O  O27  1  0.99364100  0.85996200  0.67946100  1
  O  O28  1  0.99956200  0.38371500  0.93146500  1
  O  O29  1  0.50458400  0.12626600  0.55093100  1
  O  O30  1  0.04170600  0.87338600  0.17657500  1
  O  O31  1  0.48518300  0.62730200  0.30182700  1
