# generated using pymatgen
data_Li2Mn3NbO8
_symmetry_space_group_name_H-M   'P 1'
_cell_length_a   6.20989276
_cell_length_b   6.12165850
_cell_length_c   10.22297540
_cell_angle_alpha   103.95516713
_cell_angle_beta   89.98890359
_cell_angle_gamma   59.51424167
_symmetry_Int_Tables_number   1
_chemical_formula_structural   Li2Mn3NbO8
_chemical_formula_sum   'Li4 Mn6 Nb2 O16'
_cell_volume   321.50696657
_cell_formula_units_Z   2
loop_
 _symmetry_equiv_pos_site_id
 _symmetry_equiv_pos_as_xyz
  1  'x, y, z'
loop_
 _atom_site_type_symbol
 _atom_site_label
 _atom_site_symmetry_multiplicity
 _atom_site_fract_x
 _atom_site_fract_y
 _atom_site_fract_z
 _atom_site_occupancy
  Li  Li0  1  0.30689400  0.38624400  0.57011000  1
  Li  Li1  1  0.80686900  0.38624800  0.07011400  1
  Li  Li2  1  0.19213000  0.61574700  0.93010000  1
  Li  Li3  1  0.69207800  0.61580800  0.43010700  1
  Mn  Mn4  1  0.75002700  0.99919200  0.75083300  1
  Mn  Mn5  1  0.25076100  0.99924400  0.75084600  1
  Mn  Mn6  1  0.00244300  0.99513700  0.49804500  1
  Mn  Mn7  1  0.25005300  0.99921400  0.25085700  1
  Mn  Mn8  1  0.75066600  0.99929500  0.25083000  1
  Mn  Mn9  1  0.50243100  0.99516600  0.99796500  1
  Nb  Nb10  1  0.75259700  0.49484800  0.74669700  1
  Nb  Nb11  1  0.25251300  0.49486500  0.24667700  1
  O  O12  1  0.09487300  0.81028400  0.63738900  1
  O  O13  1  0.59488600  0.81023100  0.13738800  1
  O  O14  1  0.40504700  0.18992500  0.86362300  1
  O  O15  1  0.90500100  0.18999900  0.36361300  1
  O  O16  1  0.86339200  0.27317600  0.87158100  1
  O  O17  1  0.36341000  0.27317900  0.37157300  1
  O  O18  1  0.64888100  0.24560400  0.63807800  1
  O  O19  1  0.14885300  0.24561400  0.13808100  1
  O  O20  1  0.10559000  0.24570700  0.63815400  1
  O  O21  1  0.60556000  0.24565400  0.13811100  1
  O  O22  1  0.39495000  0.75579100  0.86230600  1
  O  O23  1  0.89493100  0.75579800  0.36228000  1
  O  O24  1  0.84920700  0.75580300  0.86233000  1
  O  O25  1  0.34911500  0.75587200  0.36235300  1
  O  O26  1  0.63341300  0.73317300  0.62998100  1
  O  O27  1  0.13343000  0.73318200  0.12997900  1
