# generated using pymatgen
data_Na5Li3V8O24
_symmetry_space_group_name_H-M   'P 1'
_cell_length_a   5.92102100
_cell_length_b   7.02484343
_cell_length_c   13.83663070
_cell_angle_alpha   90.67920989
_cell_angle_beta   100.28860212
_cell_angle_gamma   104.22397915
_symmetry_Int_Tables_number   1
_chemical_formula_structural   Na5Li3V8O24
_chemical_formula_sum   'Na5 Li3 V8 O24'
_cell_volume   547.97153624
_cell_formula_units_Z   1
loop_
 _symmetry_equiv_pos_site_id
 _symmetry_equiv_pos_as_xyz
  1  'x, y, z'
loop_
 _atom_site_type_symbol
 _atom_site_label
 _atom_site_symmetry_multiplicity
 _atom_site_fract_x
 _atom_site_fract_y
 _atom_site_fract_z
 _atom_site_occupancy
  Na  Na0  1  0.10578700  0.71205300  0.85607700  1
  Na  Na1  1  0.60562500  0.71058000  0.35527600  1
  Na  Na2  1  0.39465600  0.28942900  0.64484600  1
  Na  Na3  1  0.89410200  0.28817200  0.14392500  1
  Na  Na4  1  0.79238400  0.08491100  0.54243000  1
  Li  Li5  1  0.29395300  0.08780800  0.04391300  1
  Li  Li6  1  0.70611100  0.91206800  0.95604200  1
  Li  Li7  1  0.20534100  0.91086600  0.45545600  1
  V  V8  1  0.85146600  0.62211600  0.59897200  1
  V  V9  1  0.35038900  0.62005900  0.09823700  1
  V  V10  1  0.06049400  0.19756300  0.81302700  1
  V  V11  1  0.55591000  0.19667500  0.30804300  1
  V  V12  1  0.65034800  0.38048100  0.90203700  1
  V  V13  1  0.15199500  0.38212700  0.40081600  1
  V  V14  1  0.43973000  0.80222200  0.69127900  1
  V  V15  1  0.94205400  0.80346500  0.18992500  1
  O  O16  1  0.73885500  0.39452700  0.54821700  1
  O  O17  1  0.24588900  0.38959000  0.04878500  1
  O  O18  1  0.00637800  0.09485700  0.69924100  1
  O  O19  1  0.49749400  0.09901700  0.19270700  1
  O  O20  1  0.75455000  0.61102900  0.95139900  1
  O  O21  1  0.25545100  0.61222300  0.45081700  1
  O  O22  1  0.50244900  0.90230400  0.80647800  1
  O  O23  1  0.00141300  0.90220800  0.30516200  1
  O  O24  1  0.14136100  0.64129900  0.67700800  1
  O  O25  1  0.64174900  0.64438900  0.17588900  1
  O  O26  1  0.85594600  0.35203100  0.82206800  1
  O  O27  1  0.35675100  0.35366900  0.32076100  1
  O  O28  1  0.35949000  0.35735800  0.82487300  1
  O  O29  1  0.85776300  0.35444100  0.32455100  1
  O  O30  1  0.64431900  0.65077300  0.67813200  1
  O  O31  1  0.14371800  0.64819600  0.17782000  1
  O  O32  1  0.86698700  0.78187100  0.50942200  1
  O  O33  1  0.36187700  0.78693200  0.01174900  1
  O  O34  1  0.04433300  0.02338200  0.89590100  1
  O  O35  1  0.53287200  0.01905500  0.38867900  1
  O  O36  1  0.63832400  0.21293600  0.98840300  1
  O  O37  1  0.15099800  0.21600500  0.48720000  1
  O  O38  1  0.44411400  0.97468200  0.60784900  1
  O  O39  1  0.95657400  0.97663200  0.10659100  1
