# generated using pymatgen
data_Li5Mn3O8
_symmetry_space_group_name_H-M   'P 1'
_cell_length_a   5.07503193
_cell_length_b   10.49790461
_cell_length_c   5.85220684
_cell_angle_alpha   97.09204151
_cell_angle_beta   104.57009307
_cell_angle_gamma   103.97228380
_symmetry_Int_Tables_number   1
_chemical_formula_structural   Li5Mn3O8
_chemical_formula_sum   'Li10 Mn6 O16'
_cell_volume   287.14656500
_cell_formula_units_Z   2
loop_
 _symmetry_equiv_pos_site_id
 _symmetry_equiv_pos_as_xyz
  1  'x, y, z'
loop_
 _atom_site_type_symbol
 _atom_site_label
 _atom_site_symmetry_multiplicity
 _atom_site_fract_x
 _atom_site_fract_y
 _atom_site_fract_z
 _atom_site_occupancy
  Li  Li0  1  0.74996700  0.74999700  0.62469000  1
  Li  Li1  1  0.75000400  0.74999000  0.12529100  1
  Li  Li2  1  0.63705100  0.12324400  0.19229800  1
  Li  Li3  1  0.63709600  0.12324500  0.69216900  1
  Li  Li4  1  0.86292900  0.37675300  0.55775600  1
  Li  Li5  1  0.86292500  0.37679100  0.05777400  1
  Li  Li6  1  0.13801700  0.64042500  0.45285500  1
  Li  Li7  1  0.13811400  0.64032300  0.95320600  1
  Li  Li8  1  0.36192900  0.85968900  0.79682600  1
  Li  Li9  1  0.36203200  0.85956900  0.29712600  1
  Mn  Mn10  1  0.24984800  0.24996400  0.37491300  1
  Mn  Mn11  1  0.25007500  0.25001300  0.87510000  1
  Mn  Mn12  1  0.99890100  0.98959500  0.99286000  1
  Mn  Mn13  1  0.99957700  0.98979700  0.49287600  1
  Mn  Mn14  1  0.50039700  0.51019300  0.25718400  1
  Mn  Mn15  1  0.50111500  0.51043600  0.75711300  1
  O  O16  1  0.28114700  0.06026700  0.32420700  1
  O  O17  1  0.28043800  0.06007000  0.82342500  1
  O  O18  1  0.21882100  0.43973800  0.42578100  1
  O  O19  1  0.21958900  0.43991800  0.92657900  1
  O  O20  1  0.54686700  0.31774300  0.23294600  1
  O  O21  1  0.54705300  0.31769900  0.73415900  1
  O  O22  1  0.95311300  0.18225100  0.51707000  1
  O  O23  1  0.95290300  0.18230100  0.01581400  1
  O  O24  1  0.76827200  0.55419000  0.57605400  1
  O  O25  1  0.76804700  0.55428800  0.07574500  1
  O  O26  1  0.73196900  0.94570700  0.67424400  1
  O  O27  1  0.73173400  0.94580200  0.17395600  1
  O  O28  1  0.06909000  0.82774300  0.47412300  1
  O  O29  1  0.06933600  0.82802000  0.97432500  1
  O  O30  1  0.43069500  0.67200000  0.77567300  1
  O  O31  1  0.43094800  0.67223700  0.27586300  1
