# generated using pymatgen
data_Li2V3SnO8
_symmetry_space_group_name_H-M   'P 1'
_cell_length_a   6.07516169
_cell_length_b   10.51640390
_cell_length_c   6.02705396
_cell_angle_alpha   106.56237736
_cell_angle_beta   59.73709153
_cell_angle_gamma   90.08103906
_symmetry_Int_Tables_number   1
_chemical_formula_structural   Li2V3SnO8
_chemical_formula_sum   'Li4 V6 Sn2 O16'
_cell_volume   314.04631239
_cell_formula_units_Z   2
loop_
 _symmetry_equiv_pos_site_id
 _symmetry_equiv_pos_as_xyz
  1  'x, y, z'
loop_
 _atom_site_type_symbol
 _atom_site_label
 _atom_site_symmetry_multiplicity
 _atom_site_fract_x
 _atom_site_fract_y
 _atom_site_fract_z
 _atom_site_occupancy
  Li  Li0  1  0.31110600  0.55354600  0.36640400  1
  Li  Li1  1  0.82106500  0.05383900  0.36912100  1
  Li  Li2  1  0.75695800  0.75325500  0.49744500  1
  Li  Li3  1  0.24604600  0.25305800  0.49575100  1
  V  V4  1  0.76061600  0.75041100  0.00437100  1
  V  V5  1  0.25262200  0.25081200  0.00806300  1
  V  V6  1  0.98790100  0.51625200  0.01440800  1
  V  V7  1  0.23705900  0.74966500  0.00978200  1
  V  V8  1  0.73547800  0.25057000  0.00327800  1
  V  V9  1  0.49606600  0.01542700  0.01887000  1
  Sn  Sn10  1  0.18078400  0.94393400  0.64964400  1
  Sn  Sn11  1  0.67258200  0.44404200  0.64550400  1
  O  O12  1  0.11526500  0.62401300  0.77499400  1
  O  O13  1  0.60749300  0.12475800  0.77962700  1
  O  O14  1  0.38498900  0.87707200  0.23741900  1
  O  O15  1  0.87888700  0.37708600  0.23332200  1
  O  O16  1  0.89154400  0.85603000  0.21745000  1
  O  O17  1  0.39151200  0.35522000  0.21512900  1
  O  O18  1  0.12733300  0.61775600  0.20902100  1
  O  O19  1  0.62494000  0.11503800  0.21089300  1
  O  O20  1  0.66604800  0.61525000  0.20985200  1
  O  O21  1  0.16545400  0.11764600  0.20607600  1
  O  O22  1  0.84790000  0.87352100  0.76891600  1
  O  O23  1  0.33742800  0.37523600  0.76965100  1
  O  O24  1  0.39157300  0.87402800  0.77264900  1
  O  O25  1  0.88490000  0.37425800  0.76624000  1
  O  O26  1  0.61552800  0.64398500  0.77331300  1
  O  O27  1  0.11092600  0.14428800  0.77280800  1
