# generated using pymatgen
data_Li9Mn2Co5O16
_symmetry_space_group_name_H-M   'P 1'
_cell_length_a   5.11239200
_cell_length_b   5.88983810
_cell_length_c   10.43854448
_cell_angle_alpha   74.41603284
_cell_angle_beta   76.21890019
_cell_angle_gamma   74.14086448
_symmetry_Int_Tables_number   1
_chemical_formula_structural   Li9Mn2Co5O16
_chemical_formula_sum   'Li9 Mn2 Co5 O16'
_cell_volume   286.59410873
_cell_formula_units_Z   1
loop_
 _symmetry_equiv_pos_site_id
 _symmetry_equiv_pos_as_xyz
  1  'x, y, z'
loop_
 _atom_site_type_symbol
 _atom_site_label
 _atom_site_symmetry_multiplicity
 _atom_site_fract_x
 _atom_site_fract_y
 _atom_site_fract_z
 _atom_site_occupancy
  Li  Li0  1  0.50269300  0.81050200  0.12617400  1
  Li  Li1  1  0.49564500  0.31651700  0.12554400  1
  Li  Li2  1  0.49867700  0.42842700  0.38440900  1
  Li  Li3  1  0.50050800  0.92835900  0.38228300  1
  Li  Li4  1  0.50671200  0.06962300  0.62159000  1
  Li  Li5  1  0.50483700  0.56156600  0.62240300  1
  Li  Li6  1  0.49720500  0.69392600  0.86847700  1
  Li  Li7  1  0.49742900  0.19032400  0.87171900  1
  Li  Li8  1  0.99854500  0.25269900  0.49851200  1
  Mn  Mn9  1  0.99999400  0.00167500  0.00020800  1
  Mn  Mn10  1  0.00340900  0.61534200  0.25260600  1
  Co  Co11  1  0.99384300  0.50370400  0.00088700  1
  Co  Co12  1  0.00505200  0.11715700  0.25235500  1
  Co  Co13  1  0.00062200  0.74470100  0.50081600  1
  Co  Co14  1  0.00420800  0.88464900  0.73927600  1
  Co  Co15  1  0.99206300  0.37584800  0.74222200  1
  O  O16  1  0.22333400  0.14360000  0.07175500  1
  O  O17  1  0.21817300  0.67237800  0.06094700  1
  O  O18  1  0.23798500  0.76004400  0.31029200  1
  O  O19  1  0.22400700  0.29711000  0.29973900  1
  O  O20  1  0.23464000  0.42953200  0.56545400  1
  O  O21  1  0.23762600  0.90287000  0.57337500  1
  O  O22  1  0.22712500  0.03592800  0.82457100  1
  O  O23  1  0.20770400  0.52915100  0.82588100  1
  O  O24  1  0.77724000  0.48029500  0.17837800  1
  O  O25  1  0.78873300  0.95051100  0.18559600  1
  O  O26  1  0.78258200  0.07648800  0.42515100  1
  O  O27  1  0.77251300  0.59713000  0.42237500  1
  O  O28  1  0.75819500  0.72059400  0.68653300  1
  O  O29  1  0.76089400  0.22518400  0.69473600  1
  O  O30  1  0.77606000  0.32439000  0.94934000  1
  O  O31  1  0.77174500  0.85978000  0.93639600  1
