# generated using pymatgen
data_Li5V3P8O29
_symmetry_space_group_name_H-M   'P 1'
_cell_length_a   9.79620600
_cell_length_b   9.85805780
_cell_length_c   14.08155447
_cell_angle_alpha   89.82130260
_cell_angle_beta   89.77358807
_cell_angle_gamma   60.24643835
_symmetry_Int_Tables_number   1
_chemical_formula_structural   Li5V3P8O29
_chemical_formula_sum   'Li10 V6 P16 O58'
_cell_volume   1180.59203587
_cell_formula_units_Z   2
loop_
 _symmetry_equiv_pos_site_id
 _symmetry_equiv_pos_as_xyz
  1  'x, y, z'
loop_
 _atom_site_type_symbol
 _atom_site_label
 _atom_site_symmetry_multiplicity
 _atom_site_fract_x
 _atom_site_fract_y
 _atom_site_fract_z
 _atom_site_occupancy
  Li  Li0  1  0.68636200  0.08612800  0.43785000  1
  Li  Li1  1  0.22998500  0.67693200  0.43816100  1
  Li  Li2  1  0.34654000  0.32851400  0.11107300  1
  Li  Li3  1  0.09182300  0.67715400  0.94155500  1
  Li  Li4  1  0.22859900  0.09470400  0.94202900  1
  Li  Li5  1  0.09549000  0.23102500  0.43713200  1
  Li  Li6  1  0.66588100  0.66454600  0.89211300  1
  Li  Li7  1  0.77057000  0.32059600  0.56077900  1
  Li  Li8  1  0.31674500  0.90918600  0.55755900  1
  Li  Li9  1  0.95013500  0.03376800  0.00436100  1
  V  V10  1  0.00159600  0.57018700  0.74615700  1
  V  V11  1  0.99515200  0.43652700  0.24741500  1
  V  V12  1  0.57194400  0.99826700  0.24949900  1
  V  V13  1  0.43241400  0.00134300  0.75105300  1
  V  V14  1  0.56847000  0.42760300  0.75603400  1
  V  V15  1  0.43784700  0.56526200  0.24555900  1
  P  P16  1  0.69115300  0.22250200  0.15882300  1
  P  P17  1  0.68247700  0.08612800  0.65792300  1
  P  P18  1  0.23774300  0.67976200  0.65816200  1
  P  P19  1  0.32634100  0.33439300  0.87294300  1
  P  P20  1  0.33297900  0.33378400  0.37077100  1
  P  P21  1  0.08924300  0.68365100  0.15544600  1
  P  P22  1  0.91712900  0.76846100  0.33978100  1
  P  P23  1  0.22479900  0.09369000  0.15800200  1
  P  P24  1  0.77906200  0.91106600  0.84141200  1
  P  P25  1  0.08580600  0.23407400  0.65685100  1
  P  P26  1  0.91314500  0.31400500  0.84062100  1
  P  P27  1  0.66662200  0.66286500  0.62992200  1
  P  P28  1  0.66884500  0.66772500  0.12889000  1
  P  P29  1  0.76709700  0.31980200  0.34258500  1
  P  P30  1  0.31762500  0.91346300  0.33945500  1
  P  P31  1  0.31315900  0.77469900  0.84132300  1
  O  O32  1  0.76186500  0.24135300  0.43318700  1
  O  O33  1  0.66418900  0.25132400  0.66534000  1
  O  O34  1  0.80056800  0.98946500  0.92444100  1
  O  O35  1  0.65773400  0.08377200  0.16760300  1
  O  O36  1  0.52613400  0.37248700  0.16697600  1
  O  O37  1  0.47384700  0.33080300  0.83087600  1
  O  O38  1  0.38661900  0.52349200  0.67981100  1
  O  O39  1  0.21115100  0.78128600  0.92138600  1
  O  O40  1  0.25733700  0.65355400  0.16226400  1
  O  O41  1  0.48578500  0.18529400  0.33412800  1
  O  O42  1  0.52182300  0.09546400  0.68362500  1
  O  O43  1  0.33540700  0.48186800  0.32850200  1
  O  O44  1  0.31211900  0.34789700  0.97921600  1
  O  O45  1  0.32093400  0.33811200  0.47651700  1
  O  O46  1  0.17777300  0.48624900  0.83020100  1
  O  O47  1  0.37343400  0.10917100  0.16923700  1
  O  O48  1  0.32006500  0.18725600  0.83770500  1
  O  O49  1  0.09196100  0.65652800  0.66606200  1
  O  O50  1  0.99382500  0.79232200  0.24364000  1
  O  O51  1  0.01301000  0.75535000  0.42370900  1
  O  O52  1  0.00935900  0.75910300  0.06502700  1
  O  O53  1  0.09919500  0.51995200  0.17262900  1
  O  O54  1  0.18323100  0.33336100  0.32662500  1
  O  O55  1  0.92172800  0.73762800  0.83513400  1
  O  O56  1  0.09746100  0.38201700  0.68007100  1
  O  O57  1  0.25009100  0.08584600  0.65925700  1
  O  O58  1  0.79659500  0.98845500  0.74376200  1
  O  O59  1  0.74462100  0.01090800  0.56509100  1
  O  O60  1  0.24204600  0.00319800  0.42911300  1
  O  O61  1  0.74978100  0.91288400  0.34112700  1
  O  O62  1  0.90808200  0.61711000  0.32024100  1
  O  O63  1  0.08009100  0.26166300  0.16991300  1
  O  O64  1  0.81763900  0.65923600  0.67940700  1
  O  O65  1  0.90351500  0.47551300  0.83075600  1
  O  O66  1  0.00485700  0.21324900  0.92149600  1
  O  O67  1  0.00056400  0.25075500  0.56553700  1
  O  O68  1  0.98792500  0.21753600  0.74280800  1
  O  O69  1  0.91628000  0.33895000  0.33922000  1
  O  O70  1  0.66861100  0.81139200  0.17006100  1
  O  O71  1  0.62803200  0.89783300  0.83264300  1
  O  O72  1  0.81793900  0.51866000  0.17400200  1
  O  O73  1  0.67612300  0.65711700  0.02343000  1
  O  O74  1  0.67801400  0.66265500  0.52480100  1
  O  O75  1  0.67117700  0.51154900  0.66874200  1
  O  O76  1  0.47562500  0.90752200  0.31962000  1
  O  O77  1  0.51661000  0.81282600  0.66925200  1
  O  O78  1  0.74088700  0.34632600  0.83831500  1
  O  O79  1  0.78797200  0.20714900  0.25519000  1
  O  O80  1  0.78893100  0.20825100  0.07545100  1
  O  O81  1  0.61964600  0.47762000  0.32620200  1
  O  O82  1  0.52329700  0.65971400  0.17035500  1
  O  O83  1  0.47794700  0.62854000  0.83218900  1
  O  O84  1  0.33847800  0.91968000  0.83978600  1
  O  O85  1  0.21269600  0.02127900  0.06824800  1
  O  O86  1  0.20880300  0.00201600  0.24879100  1
  O  O87  1  0.33649300  0.74948500  0.33953200  1
  O  O88  1  0.24580000  0.75186400  0.56621700  1
  O  O89  1  0.21815700  0.79629500  0.74260400  1
