# generated using pymatgen
data_Li9Mn2Co5O16
_symmetry_space_group_name_H-M   'P 1'
_cell_length_a   2.94546100
_cell_length_b   9.80054445
_cell_length_c   10.19080536
_cell_angle_alpha   78.87669707
_cell_angle_beta   88.60983954
_cell_angle_gamma   86.58065435
_symmetry_Int_Tables_number   1
_chemical_formula_structural   Li9Mn2Co5O16
_chemical_formula_sum   'Li9 Mn2 Co5 O16'
_cell_volume   288.11454418
_cell_formula_units_Z   1
loop_
 _symmetry_equiv_pos_site_id
 _symmetry_equiv_pos_as_xyz
  1  'x, y, z'
loop_
 _atom_site_type_symbol
 _atom_site_label
 _atom_site_symmetry_multiplicity
 _atom_site_fract_x
 _atom_site_fract_y
 _atom_site_fract_z
 _atom_site_occupancy
  Li  Li0  1  0.99720500  0.75002500  0.87621600  1
  Li  Li1  1  0.49189100  0.49559100  0.49640700  1
  Li  Li2  1  0.99733200  0.24922600  0.12619500  1
  Li  Li3  1  0.50826200  0.00452400  0.74342400  1
  Li  Li4  1  0.49962400  0.49844800  0.00037400  1
  Li  Li5  1  0.99183500  0.25055500  0.62213000  1
  Li  Li6  1  0.50143200  0.99786800  0.26377300  1
  Li  Li7  1  0.01155200  0.75776900  0.37637200  1
  Li  Li8  1  0.98758500  0.99680900  0.49318000  1
  Mn  Mn9  1  0.99592000  0.00153200  0.99704200  1
  Mn  Mn10  1  0.50249300  0.75801400  0.61754800  1
  Co  Co11  1  0.99922600  0.49738000  0.25447100  1
  Co  Co12  1  0.50521700  0.25129800  0.87511600  1
  Co  Co13  1  0.49826400  0.74834300  0.12416700  1
  Co  Co14  1  0.01212700  0.50040500  0.75395600  1
  Co  Co15  1  0.49786200  0.23968300  0.38292700  1
  O  O16  1  0.45873700  0.87556400  0.94226000  1
  O  O17  1  0.02684600  0.63806000  0.57283000  1
  O  O18  1  0.49127800  0.37204900  0.20703000  1
  O  O19  1  0.96322000  0.12799100  0.81755900  1
  O  O20  1  0.98806500  0.62637500  0.07144900  1
  O  O21  1  0.49520000  0.37900400  0.70056100  1
  O  O22  1  0.97040400  0.13648000  0.31612600  1
  O  O23  1  0.49530100  0.86467800  0.44982400  1
  O  O24  1  0.51987200  0.62214600  0.80063900  1
  O  O25  1  0.02754500  0.37072100  0.43125800  1
  O  O26  1  0.52885000  0.12843100  0.04902200  1
  O  O27  1  0.97947700  0.85964600  0.67919700  1
  O  O28  1  0.03672300  0.36985800  0.93187900  1
  O  O29  1  0.50194500  0.14119800  0.54471400  1
  O  O30  1  0.00933800  0.87229500  0.17730800  1
  O  O31  1  0.50937400  0.61803400  0.30505000  1
