# generated using pymatgen
data_Li4TiV4(Fe2O9)2
_symmetry_space_group_name_H-M   'P 1'
_cell_length_a   2.95085300
_cell_length_b   8.99040800
_cell_length_c   25.60867300
_cell_angle_alpha   90.00000000
_cell_angle_beta   90.00000000
_cell_angle_gamma   90.00000000
_symmetry_Int_Tables_number   1
_chemical_formula_structural   Li4TiV4(Fe2O9)2
_chemical_formula_sum   'Li8 Ti2 V8 Fe8 O36'
_cell_volume   679.38202315
_cell_formula_units_Z   2
loop_
 _symmetry_equiv_pos_site_id
 _symmetry_equiv_pos_as_xyz
  1  'x, y, z'
loop_
 _atom_site_type_symbol
 _atom_site_label
 _atom_site_symmetry_multiplicity
 _atom_site_fract_x
 _atom_site_fract_y
 _atom_site_fract_z
 _atom_site_occupancy
  Li  Li0  1  0.00000000  0.93839400  0.99190400  1
  Li  Li1  1  0.00000000  0.95369600  0.18774800  1
  Li  Li2  1  0.00000000  0.04630400  0.68774800  1
  Li  Li3  1  0.00000000  0.06160600  0.49190400  1
  Li  Li4  1  0.00000000  0.44354400  0.51520900  1
  Li  Li5  1  0.00000000  0.45234600  0.31426400  1
  Li  Li6  1  0.00000000  0.54765400  0.81426400  1
  Li  Li7  1  0.00000000  0.55645600  0.01520900  1
  Ti  Ti8  1  0.00000000  0.24428900  0.39759400  1
  Ti  Ti9  1  0.00000000  0.75571100  0.89759400  1
  V  V10  1  0.00000000  0.74804700  0.50077500  1
  V  V11  1  0.00000000  0.74535700  0.10217800  1
  V  V12  1  0.50000000  0.89326600  0.80404900  1
  V  V13  1  0.50000000  0.10673400  0.30404900  1
  V  V14  1  0.00000000  0.25464300  0.60217800  1
  V  V15  1  0.00000000  0.25195300  0.00077500  1
  V  V16  1  0.50000000  0.39622100  0.69262800  1
  V  V17  1  0.50000000  0.60377900  0.19262800  1
  Fe  Fe18  1  0.00000000  0.76212300  0.30614600  1
  Fe  Fe19  1  0.50000000  0.89718300  0.58810900  1
  Fe  Fe20  1  0.50000000  0.10281700  0.08810900  1
  Fe  Fe21  1  0.00000000  0.23787700  0.80614600  1
  Fe  Fe22  1  0.00000000  0.26306000  0.19086100  1
  Fe  Fe23  1  0.50000000  0.40032100  0.91330600  1
  Fe  Fe24  1  0.50000000  0.59967900  0.41330600  1
  Fe  Fe25  1  0.00000000  0.73694000  0.69086100  1
  O  O26  1  0.00000000  0.74128200  0.42605800  1
  O  O27  1  0.00000000  0.75271700  0.57549400  1
  O  O28  1  0.50000000  0.80793900  0.94124500  1
  O  O29  1  0.50000000  0.79567800  0.15952400  1
  O  O30  1  0.50000000  0.86600600  0.66660100  1
  O  O31  1  0.00000000  0.83439400  0.75855900  1
  O  O32  1  0.50000000  0.90115500  0.50478800  1
  O  O33  1  0.50000000  0.90515400  0.28563300  1
  O  O34  1  0.00000000  0.93278900  0.85460600  1
  O  O35  1  0.00000000  0.94918000  0.08685900  1
  O  O36  1  0.00000000  0.05082000  0.58685900  1
  O  O37  1  0.00000000  0.06721100  0.35460600  1
  O  O38  1  0.50000000  0.09484600  0.78563300  1
  O  O39  1  0.50000000  0.09884500  0.00478800  1
  O  O40  1  0.00000000  0.16560600  0.25855900  1
  O  O41  1  0.50000000  0.13399400  0.16660100  1
  O  O42  1  0.50000000  0.20432200  0.65952400  1
  O  O43  1  0.50000000  0.19206100  0.44124500  1
  O  O44  1  0.00000000  0.24728300  0.07549400  1
  O  O45  1  0.00000000  0.25871800  0.92605800  1
  O  O46  1  0.50000000  0.30964200  0.55775800  1
  O  O47  1  0.50000000  0.29981800  0.34153300  1
  O  O48  1  0.50000000  0.35973500  0.83485900  1
  O  O49  1  0.00000000  0.34995700  0.74007700  1
  O  O50  1  0.50000000  0.39947800  0.99887600  1
  O  O51  1  0.50000000  0.39568100  0.20772100  1
  O  O52  1  0.00000000  0.43303600  0.64184400  1
  O  O53  1  0.00000000  0.45708900  0.41319200  1
  O  O54  1  0.00000000  0.54291100  0.91319200  1
  O  O55  1  0.00000000  0.56696400  0.14184400  1
  O  O56  1  0.50000000  0.60431900  0.70772100  1
  O  O57  1  0.50000000  0.60052200  0.49887600  1
  O  O58  1  0.00000000  0.65004300  0.24007700  1
  O  O59  1  0.50000000  0.64026500  0.33485900  1
  O  O60  1  0.50000000  0.70018200  0.84153300  1
  O  O61  1  0.50000000  0.69035800  0.05775800  1
