# generated using pymatgen
data_NaLi15V16O48
_symmetry_space_group_name_H-M   'P 1'
_cell_length_a   10.13591795
_cell_length_b   10.13591795
_cell_length_c   12.81258330
_cell_angle_alpha   82.48016479
_cell_angle_beta   82.48016479
_cell_angle_gamma   50.43277610
_symmetry_Int_Tables_number   1
_chemical_formula_structural   NaLi15V16O48
_chemical_formula_sum   'Na1 Li15 V16 O48'
_cell_volume   1004.05246116
_cell_formula_units_Z   1
loop_
 _symmetry_equiv_pos_site_id
 _symmetry_equiv_pos_as_xyz
  1  'x, y, z'
loop_
 _atom_site_type_symbol
 _atom_site_label
 _atom_site_symmetry_multiplicity
 _atom_site_fract_x
 _atom_site_fract_y
 _atom_site_fract_z
 _atom_site_occupancy
  Na  Na0  1  0.10006300  0.89993700  0.50000000  1
  Li  Li1  1  0.01625700  0.23401800  0.62440900  1
  Li  Li2  1  0.66000200  0.58982000  0.62484400  1
  Li  Li3  1  0.73041600  0.26958400  0.50000000  1
  Li  Li4  1  0.41018000  0.33999800  0.37515600  1
  Li  Li5  1  0.76598200  0.98374300  0.37559100  1
  Li  Li6  1  0.90944400  0.84041500  0.87512400  1
  Li  Li7  1  0.26720800  0.48247800  0.87515300  1
  Li  Li8  1  0.98278500  0.51753700  0.74976900  1
  Li  Li9  1  0.34008000  0.15878400  0.75011800  1
  Li  Li10  1  0.48246300  0.01721500  0.25023100  1
  Li  Li11  1  0.84121600  0.65992000  0.24988200  1
  Li  Li12  1  0.51752200  0.73279200  0.12484700  1
  Li  Li13  1  0.15958500  0.09055600  0.12487600  1
  Li  Li14  1  0.59025800  0.40974200  0.00000000  1
  Li  Li15  1  0.23279600  0.76720400  0.00000000  1
  V  V16  1  0.04510800  0.23861900  0.35089400  1
  V  V17  1  0.52053600  0.70200100  0.39551400  1
  V  V18  1  0.23461400  0.79490300  0.73078700  1
  V  V19  1  0.70270600  0.26732900  0.77266900  1
  V  V20  1  0.29799900  0.47946400  0.60448600  1
  V  V21  1  0.76138100  0.95489200  0.64910600  1
  V  V22  1  0.98276300  0.54817800  0.47773300  1
  V  V23  1  0.45182200  0.01723700  0.52226700  1
  V  V24  1  0.79688000  0.98273700  0.10286700  1
  V  V25  1  0.26748700  0.45209500  0.14654300  1
  V  V26  1  0.48275000  0.04703100  0.97807100  1
  V  V27  1  0.95296900  0.51725000  0.02192900  1
  V  V28  1  0.54790500  0.73251300  0.85345700  1
  V  V29  1  0.01726300  0.20312000  0.89713300  1
  V  V30  1  0.73267100  0.29729400  0.22733100  1
  V  V31  1  0.20509700  0.76538600  0.26921300  1
  O  O32  1  0.00763600  0.43846400  0.36529800  1
  O  O33  1  0.25125000  0.08659200  0.31534400  1
  O  O34  1  0.49095900  0.81647300  0.50665600  1
  O  O35  1  0.66478400  0.49764800  0.43614400  1
  O  O36  1  0.99055500  0.17438400  0.46405200  1
  O  O37  1  0.32615000  0.73344500  0.37615200  1
  O  O38  1  0.65466300  0.25096500  0.33817100  1
  O  O39  1  0.43487300  0.75729400  0.74354500  1
  O  O40  1  0.74903500  0.34533700  0.66182900  1
  O  O41  1  0.08908600  0.99838800  0.68732100  1
  O  O42  1  0.26655500  0.67385000  0.62384800  1
  O  O43  1  0.82561600  0.00944500  0.53594800  1
  O  O44  1  0.50235200  0.33521600  0.56385600  1
  O  O45  1  0.18352700  0.50904100  0.49334400  1
  O  O46  1  0.49913100  0.09541700  0.41200500  1
  O  O47  1  0.49781600  0.41308900  0.81206700  1
  O  O48  1  0.83647600  0.75305300  0.43895800  1
  O  O49  1  0.15397400  0.75122200  0.84115000  1
  O  O50  1  0.74240400  0.06602200  0.75852200  1
  O  O51  1  0.91340800  0.74875000  0.68465600  1
  O  O52  1  0.25147700  0.40110400  0.71468600  1
  O  O53  1  0.56153600  0.99236400  0.63470200  1
  O  O54  1  0.34573300  0.49903300  0.03627200  1
  O  O55  1  0.24694700  0.16352400  0.56104200  1
  O  O56  1  0.00218900  0.83704900  0.06404200  1
  O  O57  1  0.90458300  0.50086900  0.58799500  1
  O  O58  1  0.68422600  0.00665600  0.99285100  1
  O  O59  1  0.99931400  0.59551600  0.91136200  1
  O  O60  1  0.33712800  0.25215200  0.93891800  1
  O  O61  1  0.50725000  0.93416700  0.86801000  1
  O  O62  1  0.09517000  0.24905700  0.78623400  1
  O  O63  1  0.41319200  0.24722200  0.18611800  1
  O  O64  1  0.75277800  0.58680800  0.81388200  1
  O  O65  1  0.75094300  0.90483000  0.21376600  1
  O  O66  1  0.06583300  0.49275000  0.13199000  1
  O  O67  1  0.74784800  0.66287300  0.06108200  1
  O  O68  1  0.40448400  0.00068600  0.08863800  1
  O  O69  1  0.99334400  0.31577400  0.00714900  1
  O  O70  1  0.16295100  0.99781100  0.93595800  1
  O  O71  1  0.50096700  0.65426700  0.96372800  1
  O  O72  1  0.81595900  0.24319000  0.88233400  1
  O  O73  1  0.59889600  0.74852300  0.28531400  1
  O  O74  1  0.93397800  0.25759600  0.24147800  1
  O  O75  1  0.24877800  0.84602600  0.15885000  1
  O  O76  1  0.58691100  0.50218400  0.18793300  1
  O  O77  1  0.75681000  0.18404100  0.11766600  1
  O  O78  1  0.00161200  0.91091400  0.31267900  1
  O  O79  1  0.24270600  0.56512700  0.25645500  1
