# generated using pymatgen
data_LiV3Zn2O8
_symmetry_space_group_name_H-M   'P 1'
_cell_length_a   5.96797756
_cell_length_b   5.96495555
_cell_length_c   10.33657460
_cell_angle_alpha   89.99488920
_cell_angle_beta   106.71668083
_cell_angle_gamma   60.39712873
_symmetry_Int_Tables_number   1
_chemical_formula_structural   LiV3Zn2O8
_chemical_formula_sum   'Li2 V6 Zn4 O16'
_cell_volume   301.91761542
_cell_formula_units_Z   2
loop_
 _symmetry_equiv_pos_site_id
 _symmetry_equiv_pos_as_xyz
  1  'x, y, z'
loop_
 _atom_site_type_symbol
 _atom_site_label
 _atom_site_symmetry_multiplicity
 _atom_site_fract_x
 _atom_site_fract_y
 _atom_site_fract_z
 _atom_site_occupancy
  Li  Li0  1  0.37722300  0.05910500  0.31324700  1
  Li  Li1  1  0.37468000  0.56201100  0.81425500  1
  V  V2  1  0.37884400  0.81635500  0.56223500  1
  V  V3  1  0.37180900  0.06166700  0.81020400  1
  V  V4  1  0.87322300  0.56412700  0.81090400  1
  V  V5  1  0.37395800  0.31000800  0.06600500  1
  V  V6  1  0.37873500  0.56257200  0.31290600  1
  V  V7  1  0.88205600  0.05692900  0.31492700  1
  Zn  Zn8  1  0.99006800  0.99248200  0.00171500  1
  Zn  Zn9  1  0.99170900  0.49714300  0.50076300  1
  Zn  Zn10  1  0.75105600  0.63276000  0.12081800  1
  Zn  Zn11  1  0.75601900  0.13411900  0.62076600  1
  O  O12  1  0.62522000  0.41237600  0.18627200  1
  O  O13  1  0.62939900  0.92868900  0.70158100  1
  O  O14  1  0.12371400  0.70641400  0.43315500  1
  O  O15  1  0.13044400  0.20003600  0.93236800  1
  O  O16  1  0.15849400  0.42927100  0.17911900  1
  O  O17  1  0.16210800  0.94130900  0.69656400  1
  O  O18  1  0.59075200  0.69332400  0.43592100  1
  O  O19  1  0.57985100  0.19086300  0.93714600  1
  O  O20  1  0.11361900  0.93052200  0.20400200  1
  O  O21  1  0.12738000  0.42088600  0.70541000  1
  O  O22  1  0.12425400  0.15724300  0.43583700  1
  O  O23  1  0.11949300  0.65255800  0.93407100  1
  O  O24  1  0.62246000  0.97198200  0.18622000  1
  O  O25  1  0.63700900  0.46612400  0.69600800  1
  O  O26  1  0.63337500  0.19268200  0.41859300  1
  O  O27  1  0.62304900  0.70644300  0.91898800  1
