# generated using pymatgen
data_Li7Mn5O12
_symmetry_space_group_name_H-M   'P 1'
_cell_length_a   6.49941644
_cell_length_b   7.74179195
_cell_length_c   9.90965979
_cell_angle_alpha   94.46958426
_cell_angle_beta   98.96058241
_cell_angle_gamma   114.15971174
_symmetry_Int_Tables_number   1
_chemical_formula_structural   Li7Mn5O12
_chemical_formula_sum   'Li14 Mn10 O24'
_cell_volume   443.81050316
_cell_formula_units_Z   2
loop_
 _symmetry_equiv_pos_site_id
 _symmetry_equiv_pos_as_xyz
  1  'x, y, z'
loop_
 _atom_site_type_symbol
 _atom_site_label
 _atom_site_symmetry_multiplicity
 _atom_site_fract_x
 _atom_site_fract_y
 _atom_site_fract_z
 _atom_site_occupancy
  Li  Li0  1  0.32865700  0.41511700  0.07970100  1
  Li  Li1  1  0.33790700  0.91817000  0.58689200  1
  Li  Li2  1  0.17943900  0.70033200  0.05062700  1
  Li  Li3  1  0.17062000  0.19483800  0.54356200  1
  Li  Li4  1  0.48691800  0.63333700  0.61557800  1
  Li  Li5  1  0.49635100  0.13825000  0.12348000  1
  Li  Li6  1  0.84810500  0.05474800  0.71988500  1
  Li  Li7  1  0.84367800  0.54787500  0.21958100  1
  Li  Li8  1  0.82323900  0.78555000  0.44672900  1
  Li  Li9  1  0.81848900  0.27871300  0.94709700  1
  Li  Li10  1  0.17293100  0.46936800  0.79815400  1
  Li  Li11  1  0.15227600  0.94750500  0.28712300  1
  Li  Li12  1  0.51473200  0.38568500  0.37955400  1
  Li  Li13  1  0.49294000  0.86390400  0.86812500  1
  Mn  Mn14  1  0.33323800  0.66677700  0.33339400  1
  Mn  Mn15  1  0.33334200  0.16659100  0.83334400  1
  Mn  Mn16  1  0.00574300  0.00370000  0.00525800  1
  Mn  Mn17  1  0.01176000  0.51031500  0.50691500  1
  Mn  Mn18  1  0.65457600  0.82291900  0.15970200  1
  Mn  Mn19  1  0.66079800  0.32951300  0.66145100  1
  Mn  Mn20  1  0.00326200  0.25233700  0.25059300  1
  Mn  Mn21  1  0.01079100  0.75483900  0.75064500  1
  Mn  Mn22  1  0.66387700  0.08119700  0.41609900  1
  Mn  Mn23  1  0.65574100  0.57830100  0.91595700  1
  O  O24  1  0.74960000  0.29578800  0.31003000  1
  O  O25  1  0.78472900  0.82044000  0.83336800  1
  O  O26  1  0.91709800  0.03750500  0.35644100  1
  O  O27  1  0.88208000  0.51282500  0.83343800  1
  O  O28  1  0.08788000  0.21095400  0.89899500  1
  O  O29  1  0.09070000  0.71711200  0.39717800  1
  O  O30  1  0.57598500  0.61643400  0.26968300  1
  O  O31  1  0.57877100  0.12215800  0.76760700  1
  O  O32  1  0.42397900  0.63875300  0.97331800  1
  O  O33  1  0.45555200  0.16550800  0.49522300  1
  O  O34  1  0.24282100  0.69464800  0.69340000  1
  O  O35  1  0.21135700  0.16786100  0.17167000  1
  O  O36  1  0.75645800  0.04604400  0.05951200  1
  O  O37  1  0.75438200  0.55192100  0.56430300  1
  O  O38  1  0.91023700  0.28725800  0.60717300  1
  O  O39  1  0.91216700  0.78139900  0.10243500  1
  O  O40  1  0.10460600  0.48948900  0.17238500  1
  O  O41  1  0.10707900  0.99160900  0.67375500  1
  O  O42  1  0.56242000  0.84407400  0.49421100  1
  O  O43  1  0.55946400  0.34152700  0.99297400  1
  O  O44  1  0.41327100  0.87578800  0.22774700  1
  O  O45  1  0.41407900  0.37365200  0.72368700  1
  O  O46  1  0.25330200  0.45793600  0.43897200  1
  O  O47  1  0.25257300  0.95943000  0.94305500  1
