# generated using pymatgen
data_LiV(CO3)2
_symmetry_space_group_name_H-M   'P 1'
_cell_length_a   7.07650595
_cell_length_b   9.38274379
_cell_length_c   7.07614942
_cell_angle_alpha   70.80387749
_cell_angle_beta   111.68456681
_cell_angle_gamma   109.14161006
_symmetry_Int_Tables_number   1
_chemical_formula_structural   LiV(CO3)2
_chemical_formula_sum   'Li4 V4 C8 O24'
_cell_volume   400.74373436
_cell_formula_units_Z   4
loop_
 _symmetry_equiv_pos_site_id
 _symmetry_equiv_pos_as_xyz
  1  'x, y, z'
loop_
 _atom_site_type_symbol
 _atom_site_label
 _atom_site_symmetry_multiplicity
 _atom_site_fract_x
 _atom_site_fract_y
 _atom_site_fract_z
 _atom_site_occupancy
  Li  Li0  1  0.41870100  0.37536200  0.91821500  1
  Li  Li1  1  0.91822500  0.62516200  0.41809700  1
  Li  Li2  1  0.41833200  0.87479400  0.91864000  1
  Li  Li3  1  0.91774800  0.12497100  0.41803600  1
  V  V4  1  0.34169700  0.00128300  0.34146800  1
  V  V5  1  0.84160300  0.24938000  0.84188900  1
  V  V6  1  0.34185300  0.50028100  0.34158200  1
  V  V7  1  0.84149000  0.74996900  0.84167900  1
  C  C8  1  0.11738700  0.55825300  0.88060200  1
  C  C9  1  0.61754800  0.80874800  0.38075200  1
  C  C10  1  0.11732600  0.05805500  0.88047400  1
  C  C11  1  0.61800900  0.30867500  0.38086700  1
  C  C12  1  0.38061300  0.19175200  0.61756200  1
  C  C13  1  0.88083400  0.44140900  0.11770300  1
  C  C14  1  0.38048800  0.69156400  0.61715100  1
  C  C15  1  0.88081500  0.94126700  0.11793800  1
  O  O16  1  0.24147000  0.61684300  0.48120600  1
  O  O17  1  0.74160600  0.86756600  0.98093400  1
  O  O18  1  0.24141700  0.11712700  0.48153700  1
  O  O19  1  0.74184100  0.36713100  0.98122300  1
  O  O20  1  0.75883500  0.37084000  0.52835800  1
  O  O21  1  0.25907200  0.62012700  0.02818600  1
  O  O22  1  0.75899900  0.87043400  0.52853600  1
  O  O23  1  0.25874400  0.11968300  0.02837000  1
  O  O24  1  0.02855400  0.37947500  0.25909400  1
  O  O25  1  0.52809200  0.62969500  0.75918400  1
  O  O26  1  0.02812600  0.87888500  0.25901300  1
  O  O27  1  0.52840600  0.12985800  0.75889100  1
  O  O28  1  0.37053700  0.32974500  0.61090300  1
  O  O29  1  0.87063000  0.57952000  0.11113100  1
  O  O30  1  0.37063500  0.82995200  0.60962300  1
  O  O31  1  0.87134100  0.07946500  0.11176700  1
  O  O32  1  0.11044400  0.41998900  0.87077000  1
  O  O33  1  0.61111800  0.67067000  0.37056600  1
  O  O34  1  0.11083100  0.92005600  0.87045300  1
  O  O35  1  0.61226400  0.17059600  0.37138500  1
  O  O36  1  0.98137800  0.13284300  0.74137800  1
  O  O37  1  0.48097700  0.38249700  0.24166800  1
  O  O38  1  0.98115600  0.63288300  0.74157200  1
  O  O39  1  0.48112300  0.88319600  0.24186500  1
