# generated using pymatgen
data_Li5V2Ni3O10
_symmetry_space_group_name_H-M   'P 1'
_cell_length_a   5.11139629
_cell_length_b   7.76901969
_cell_length_c   10.19595861
_cell_angle_alpha   108.39293316
_cell_angle_beta   100.47399526
_cell_angle_gamma   71.14621094
_symmetry_Int_Tables_number   1
_chemical_formula_structural   Li5V2Ni3O10
_chemical_formula_sum   'Li10 V4 Ni6 O20'
_cell_volume   362.15009961
_cell_formula_units_Z   2
loop_
 _symmetry_equiv_pos_site_id
 _symmetry_equiv_pos_as_xyz
  1  'x, y, z'
loop_
 _atom_site_type_symbol
 _atom_site_label
 _atom_site_symmetry_multiplicity
 _atom_site_fract_x
 _atom_site_fract_y
 _atom_site_fract_z
 _atom_site_occupancy
  Li  Li0  1  0.99697500  0.50086700  0.24917100  1
  Li  Li1  1  0.99650700  0.50137400  0.74956300  1
  Li  Li2  1  0.50528400  0.39729000  0.10705800  1
  Li  Li3  1  0.50536100  0.39754900  0.60728000  1
  Li  Li4  1  0.50215400  0.60049500  0.39471100  1
  Li  Li5  1  0.50252800  0.60050600  0.89481500  1
  Li  Li6  1  0.50765700  0.79808400  0.20154300  1
  Li  Li7  1  0.50732800  0.79822300  0.70154600  1
  Li  Li8  1  0.49340400  0.20137400  0.29836300  1
  Li  Li9  1  0.49358000  0.20121500  0.79846800  1
  V  V10  1  0.01783600  0.69086500  0.05029600  1
  V  V11  1  0.01728200  0.69058800  0.55018000  1
  V  V12  1  0.98702300  0.30233300  0.44871200  1
  V  V13  1  0.98667600  0.30231200  0.94855400  1
  Ni  Ni14  1  0.50044900  0.00065900  0.49938700  1
  Ni  Ni15  1  0.49978600  0.00067400  0.99926100  1
  Ni  Ni16  1  0.99405100  0.90014600  0.34854300  1
  Ni  Ni17  1  0.99390500  0.89980500  0.84822300  1
  Ni  Ni18  1  0.00185900  0.10170100  0.15203300  1
  Ni  Ni19  1  0.00167900  0.10163200  0.65187500  1
  O  O20  1  0.23283900  0.83961000  0.02451600  1
  O  O21  1  0.23246200  0.83989800  0.52452300  1
  O  O22  1  0.75940300  0.15383000  0.47565900  1
  O  O23  1  0.75950700  0.15374700  0.97535800  1
  O  O24  1  0.76815100  0.92872800  0.16312500  1
  O  O25  1  0.76736000  0.92913600  0.66341900  1
  O  O26  1  0.23578100  0.06197400  0.33214200  1
  O  O27  1  0.23499400  0.06194200  0.83226100  1
  O  O28  1  0.78128600  0.54986500  0.06841400  1
  O  O29  1  0.78101500  0.55002000  0.56846200  1
  O  O30  1  0.22082200  0.46762400  0.43553100  1
  O  O31  1  0.22099900  0.46729200  0.93543000  1
  O  O32  1  0.23564100  0.24868300  0.10970700  1
  O  O33  1  0.23602300  0.24831200  0.60943400  1
  O  O34  1  0.76311400  0.75345000  0.39143900  1
  O  O35  1  0.76349400  0.75306100  0.89115800  1
  O  O36  1  0.22963600  0.65861100  0.21071900  1
  O  O37  1  0.22928800  0.65882800  0.71062300  1
  O  O38  1  0.76859300  0.34368900  0.28934400  1
  O  O39  1  0.76826900  0.34401000  0.78915300  1
