# generated using pymatgen
data_CsLi3I4
_symmetry_space_group_name_H-M   'P 1'
_cell_length_a   4.68042400
_cell_length_b   11.20504400
_cell_length_c   11.67802548
_cell_angle_alpha   86.82296243
_cell_angle_beta   90.00000000
_cell_angle_gamma   90.00000000
_symmetry_Int_Tables_number   1
_chemical_formula_structural   CsLi3I4
_chemical_formula_sum   'Cs2 Li6 I8'
_cell_volume   611.50523919
_cell_formula_units_Z   2
loop_
 _symmetry_equiv_pos_site_id
 _symmetry_equiv_pos_as_xyz
  1  'x, y, z'
loop_
 _atom_site_type_symbol
 _atom_site_label
 _atom_site_symmetry_multiplicity
 _atom_site_fract_x
 _atom_site_fract_y
 _atom_site_fract_z
 _atom_site_occupancy
  Cs  Cs0  1  0.50000000  0.86756500  0.15268400  1
  Cs  Cs1  1  0.50000000  0.42047300  0.29997700  1
  Li  Li2  1  0.00000000  0.01091300  0.44447700  1
  Li  Li3  1  0.00000000  0.64029100  0.61105500  1
  Li  Li4  1  0.50000000  0.28840600  0.66377100  1
  Li  Li5  1  0.50000000  0.92590100  0.76962800  1
  Li  Li6  1  0.50000000  0.54383400  0.93697000  1
  Li  Li7  1  0.00000000  0.18952900  0.98920900  1
  I  I8  1  0.00000000  0.58385200  0.06653800  1
  I  I9  1  0.00000000  0.14735900  0.22946400  1
  I  I10  1  0.00000000  0.77007400  0.40426600  1
  I  I11  1  0.50000000  0.06487800  0.56622600  1
  I  I12  1  0.00000000  0.39642300  0.57209400  1
  I  I13  1  0.50000000  0.68293500  0.73441800  1
  I  I14  1  0.00000000  0.96852000  0.89400200  1
  I  I15  1  0.50000000  0.29911100  0.90345900  1
