# generated using pymatgen
data_Li4MnCo2O7
_symmetry_space_group_name_H-M   'P 1'
_cell_length_a   9.91015269
_cell_length_b   9.91015269
_cell_length_c   9.80847622
_cell_angle_alpha   66.78708034
_cell_angle_beta   66.78708034
_cell_angle_gamma   16.87596549
_symmetry_Int_Tables_number   1
_chemical_formula_structural   Li4MnCo2O7
_chemical_formula_sum   'Li8 Mn2 Co4 O14'
_cell_volume   256.48812209
_cell_formula_units_Z   2
loop_
 _symmetry_equiv_pos_site_id
 _symmetry_equiv_pos_as_xyz
  1  'x, y, z'
loop_
 _atom_site_type_symbol
 _atom_site_label
 _atom_site_symmetry_multiplicity
 _atom_site_fract_x
 _atom_site_fract_y
 _atom_site_fract_z
 _atom_site_occupancy
  Li  Li0  1  0.34229200  0.34229200  0.09493600  1
  Li  Li1  1  0.07832900  0.07832900  0.20887800  1
  Li  Li2  1  0.78462500  0.78462500  0.36033000  1
  Li  Li3  1  0.50094400  0.50094400  0.48842200  1
  Li  Li4  1  0.21845500  0.21845500  0.64277400  1
  Li  Li5  1  0.92233200  0.92233200  0.78654300  1
  Li  Li6  1  0.64761500  0.64761500  0.93063000  1
  Li  Li7  1  0.71202100  0.71202100  0.14603000  1
  Mn  Mn8  1  0.99953900  0.99953900  0.99830300  1
  Mn  Mn9  1  0.57586700  0.57586700  0.70332800  1
  Co  Co10  1  0.42442000  0.42442000  0.29030500  1
  Co  Co11  1  0.15119000  0.15119000  0.40381200  1
  Co  Co12  1  0.85854600  0.85854600  0.57883200  1
  Co  Co13  1  0.27640300  0.27640300  0.88128000  1
  O  O14  1  0.47782500  0.47782500  0.88260500  1
  O  O15  1  0.18268200  0.18268200  0.02465900  1
  O  O16  1  0.89408200  0.89408200  0.18433700  1
  O  O17  1  0.60748000  0.60748000  0.33056100  1
  O  O18  1  0.32558100  0.32558100  0.47288700  1
  O  O19  1  0.04171200  0.04171200  0.61591800  1
  O  O20  1  0.75769900  0.75769900  0.75807200  1
  O  O21  1  0.24395300  0.24395300  0.26536500  1
  O  O22  1  0.95870100  0.95870100  0.38634000  1
  O  O23  1  0.66947500  0.66947500  0.53919700  1
  O  O24  1  0.39199200  0.39199200  0.67203000  1
  O  O25  1  0.10724900  0.10724900  0.79971500  1
  O  O26  1  0.81856400  0.81856400  0.95744400  1
  O  O27  1  0.53042500  0.53042500  0.09646700  1
