# generated using pymatgen
data_Rb2Li14Pr3O14
_symmetry_space_group_name_H-M   'P 1'
_cell_length_a   8.86049251
_cell_length_b   8.86049251
_cell_length_c   8.86049251
_cell_angle_alpha   129.95781394
_cell_angle_beta   123.56143895
_cell_angle_gamma   78.75210658
_symmetry_Int_Tables_number   1
_chemical_formula_structural   Rb2Li14Pr3O14
_chemical_formula_sum   'Rb2 Li14 Pr3 O14'
_cell_volume   430.15430725
_cell_formula_units_Z   1
loop_
 _symmetry_equiv_pos_site_id
 _symmetry_equiv_pos_as_xyz
  1  'x, y, z'
loop_
 _atom_site_type_symbol
 _atom_site_label
 _atom_site_symmetry_multiplicity
 _atom_site_fract_x
 _atom_site_fract_y
 _atom_site_fract_z
 _atom_site_occupancy
  Rb  Rb0  1  0.50000000  0.76224400  0.26224400  1
  Rb  Rb1  1  0.50000000  0.23775600  0.73775600  1
  Li  Li2  1  0.71303600  0.14524900  0.12378100  1
  Li  Li3  1  0.97853200  0.85475100  0.56778700  1
  Li  Li4  1  0.02146800  0.58925400  0.87621900  1
  Li  Li5  1  0.28696400  0.41074600  0.43221300  1
  Li  Li6  1  0.02146800  0.14524900  0.43221300  1
  Li  Li7  1  0.15867600  0.50000000  0.65867600  1
  Li  Li8  1  0.84132400  0.50000000  0.34132400  1
  Li  Li9  1  0.41425700  0.76858100  0.64567500  1
  Li  Li10  1  0.58574300  0.23141900  0.35432500  1
  Li  Li11  1  0.87709400  0.23141900  0.64567500  1
  Li  Li12  1  0.12290600  0.76858100  0.35432500  1
  Li  Li13  1  0.71303600  0.58925400  0.56778700  1
  Li  Li14  1  0.28696400  0.85475100  0.87621900  1
  Li  Li15  1  0.97853200  0.41074600  0.12378100  1
  Pr  Pr16  1  0.00000000  0.00000000  0.00000000  1
  Pr  Pr17  1  0.27209100  0.27209100  0.00000000  1
  Pr  Pr18  1  0.72790900  0.72790900  0.00000000  1
  O  O19  1  0.05804300  0.86777600  0.19026800  1
  O  O20  1  0.40166400  0.62414300  0.77752100  1
  O  O21  1  0.84662300  0.62414300  0.22247900  1
  O  O22  1  0.59833600  0.37585700  0.22247900  1
  O  O23  1  0.15337700  0.37585700  0.77752100  1
  O  O24  1  0.75893900  0.06399700  0.30505800  1
  O  O25  1  0.24106100  0.54611900  0.30505800  1
  O  O26  1  0.24106100  0.93600300  0.69494200  1
  O  O27  1  0.75893900  0.45388100  0.69494200  1
  O  O28  1  0.00000000  0.69382300  0.69382300  1
  O  O29  1  0.00000000  0.30617700  0.30617700  1
  O  O30  1  0.67750800  0.86777600  0.80973200  1
  O  O31  1  0.32249200  0.13222400  0.19026800  1
  O  O32  1  0.94195700  0.13222400  0.80973200  1
