# generated using pymatgen
data_RbNa3Li12(SiO4)4
_symmetry_space_group_name_H-M   'P 1'
_cell_length_a   8.39277639
_cell_length_b   8.39277639
_cell_length_c   8.39277639
_cell_angle_alpha   98.24306150
_cell_angle_beta   98.24306150
_cell_angle_gamma   135.50032714
_symmetry_Int_Tables_number   1
_chemical_formula_structural   RbNa3Li12(SiO4)4
_chemical_formula_sum   'Rb1 Na3 Li12 Si4 O16'
_cell_volume   383.50600659
_cell_formula_units_Z   1
loop_
 _symmetry_equiv_pos_site_id
 _symmetry_equiv_pos_as_xyz
  1  'x, y, z'
loop_
 _atom_site_type_symbol
 _atom_site_label
 _atom_site_symmetry_multiplicity
 _atom_site_fract_x
 _atom_site_fract_y
 _atom_site_fract_z
 _atom_site_occupancy
  Rb  Rb0  1  0.00000000  0.00000000  0.00000000  1
  Na  Na1  1  0.75000000  0.25000000  0.50000000  1
  Na  Na2  1  0.25000000  0.75000000  0.50000000  1
  Na  Na3  1  0.50000000  0.50000000  0.00000000  1
  Li  Li4  1  0.71373000  0.92752800  0.64125800  1
  Li  Li5  1  0.92752800  0.28627000  0.21379700  1
  Li  Li6  1  0.28627000  0.07247200  0.35874200  1
  Li  Li7  1  0.07247200  0.71373000  0.78620300  1
  Li  Li8  1  0.36429900  0.49066800  0.34149000  1
  Li  Li9  1  0.02280800  0.36429900  0.87363100  1
  Li  Li10  1  0.63570100  0.50933200  0.65851000  1
  Li  Li11  1  0.14917800  0.02280800  0.65851000  1
  Li  Li12  1  0.85082200  0.97719200  0.34149000  1
  Li  Li13  1  0.50933200  0.85082200  0.87363100  1
  Li  Li14  1  0.97719200  0.63570100  0.12636900  1
  Li  Li15  1  0.49066800  0.14917800  0.12636900  1
  Si  Si16  1  0.42515400  0.78020600  0.20535900  1
  Si  Si17  1  0.78020600  0.57484600  0.35505200  1
  Si  Si18  1  0.21979400  0.42515400  0.64494800  1
  Si  Si19  1  0.57484600  0.21979400  0.79464100  1
  O  O20  1  0.36696200  0.08667900  0.88691000  1
  O  O21  1  0.08667900  0.19976800  0.71971700  1
  O  O22  1  0.19976800  0.48005200  0.11309000  1
  O  O23  1  0.48005200  0.36696200  0.28028300  1
  O  O24  1  0.91332100  0.80023200  0.28028300  1
  O  O25  1  0.63303800  0.91332100  0.11309000  1
  O  O26  1  0.51994800  0.63303800  0.71971700  1
  O  O27  1  0.80023200  0.51994800  0.88691000  1
  O  O28  1  0.83936800  0.43515500  0.27452400  1
  O  O29  1  0.56484500  0.83936800  0.40421300  1
  O  O30  1  0.43515500  0.16063200  0.59578700  1
  O  O31  1  0.16063200  0.56484500  0.72547600  1
  O  O32  1  0.32519400  0.89212100  0.21731500  1
  O  O33  1  0.10787900  0.32519400  0.43307300  1
  O  O34  1  0.89212100  0.67480600  0.56692700  1
  O  O35  1  0.67480600  0.10787900  0.78268500  1
