# generated using pymatgen
data_Li4MnCo2O7
_symmetry_space_group_name_H-M   'P 1'
_cell_length_a   9.90537492
_cell_length_b   9.90537492
_cell_length_c   9.78303673
_cell_angle_alpha   64.22302776
_cell_angle_beta   64.22302776
_cell_angle_gamma   17.00609849
_symmetry_Int_Tables_number   1
_chemical_formula_structural   Li4MnCo2O7
_chemical_formula_sum   'Li8 Mn2 Co4 O14'
_cell_volume   252.14349511
_cell_formula_units_Z   2
loop_
 _symmetry_equiv_pos_site_id
 _symmetry_equiv_pos_as_xyz
  1  'x, y, z'
loop_
 _atom_site_type_symbol
 _atom_site_label
 _atom_site_symmetry_multiplicity
 _atom_site_fract_x
 _atom_site_fract_y
 _atom_site_fract_z
 _atom_site_occupancy
  Li  Li0  1  0.08248400  0.08248400  0.21379300  1
  Li  Li1  1  0.78072100  0.78072100  0.35354300  1
  Li  Li2  1  0.50615800  0.50615800  0.49935100  1
  Li  Li3  1  0.21313100  0.21313100  0.64891700  1
  Li  Li4  1  0.92829100  0.92829100  0.78749100  1
  Li  Li5  1  0.64842700  0.64842700  0.92667800  1
  Li  Li6  1  0.34625700  0.34625700  0.07315500  1
  Li  Li7  1  0.71412600  0.71412600  0.14471600  1
  Mn  Mn8  1  0.00080200  0.00080200  0.00207400  1
  Mn  Mn9  1  0.85815500  0.85815500  0.57046500  1
  Co  Co10  1  0.42925400  0.42925400  0.28603700  1
  Co  Co11  1  0.14835700  0.14835700  0.40683800  1
  Co  Co12  1  0.57749400  0.57749400  0.69901900  1
  Co  Co13  1  0.27898700  0.27898700  0.88059200  1
  O  O14  1  0.52669300  0.52669300  0.10636000  1
  O  O15  1  0.24607100  0.24607100  0.26412500  1
  O  O16  1  0.95597000  0.95597000  0.38548600  1
  O  O17  1  0.67436000  0.67436000  0.54627600  1
  O  O18  1  0.39020000  0.39020000  0.65953600  1
  O  O19  1  0.09800900  0.09800900  0.83189700  1
  O  O20  1  0.82434100  0.82434100  0.95196300  1
  O  O21  1  0.60735500  0.60735500  0.32760500  1
  O  O22  1  0.33190600  0.33190600  0.46549500  1
  O  O23  1  0.03756400  0.03756400  0.61494700  1
  O  O24  1  0.76127700  0.76127700  0.73727800  1
  O  O25  1  0.47092900  0.47092900  0.90773000  1
  O  O26  1  0.18280000  0.18280000  0.02327800  1
  O  O27  1  0.90279700  0.90279700  0.18535400  1
