# generated using pymatgen
data_Li3CrPCO7
_symmetry_space_group_name_H-M   'P 1'
_cell_length_a   6.46006900
_cell_length_b   8.67608372
_cell_length_c   10.03295888
_cell_angle_alpha   94.74628841
_cell_angle_beta   90.08397099
_cell_angle_gamma   90.07645309
_symmetry_Int_Tables_number   1
_chemical_formula_structural   Li3CrPCO7
_chemical_formula_sum   'Li12 Cr4 P4 C4 O28'
_cell_volume   560.39877804
_cell_formula_units_Z   4
loop_
 _symmetry_equiv_pos_site_id
 _symmetry_equiv_pos_as_xyz
  1  'x, y, z'
loop_
 _atom_site_type_symbol
 _atom_site_label
 _atom_site_symmetry_multiplicity
 _atom_site_fract_x
 _atom_site_fract_y
 _atom_site_fract_z
 _atom_site_occupancy
  Li  Li0  1  0.74003400  0.89922400  0.38181800  1
  Li  Li1  1  0.74398300  0.89998000  0.88504800  1
  Li  Li2  1  0.52976100  0.71430300  0.12397300  1
  Li  Li3  1  0.96988900  0.72647300  0.62852200  1
  Li  Li4  1  0.53066300  0.72709300  0.62870600  1
  Li  Li5  1  0.74756500  0.34481300  0.10596200  1
  Li  Li6  1  0.48454300  0.27283600  0.35962600  1
  Li  Li7  1  0.01675000  0.27542100  0.36128500  1
  Li  Li8  1  0.48480700  0.27672100  0.88363900  1
  Li  Li9  1  0.01358300  0.27413100  0.88464800  1
  Li  Li10  1  0.25058300  0.11684200  0.10797400  1
  Li  Li11  1  0.25137700  0.10592000  0.61692200  1
  Cr  Cr12  1  0.00372500  0.73864000  0.13116000  1
  Cr  Cr13  1  0.25090200  0.66170400  0.40192000  1
  Cr  Cr14  1  0.25517700  0.66040400  0.88297500  1
  Cr  Cr15  1  0.75014000  0.33122900  0.60448000  1
  P  P16  1  0.74922500  0.58546000  0.36109300  1
  P  P17  1  0.75034600  0.58375000  0.85831600  1
  P  P18  1  0.24708600  0.40947500  0.13960100  1
  P  P19  1  0.25073300  0.40918400  0.64022400  1
  C  C20  1  0.24348600  0.96793100  0.34969100  1
  C  C21  1  0.24850900  0.96870400  0.85423800  1
  C  C22  1  0.75104400  0.03788500  0.14867400  1
  C  C23  1  0.75079100  0.03059100  0.64862300  1
  O  O24  1  0.25234300  0.94477900  0.47381700  1
  O  O25  1  0.76271900  0.88904500  0.18137200  1
  O  O26  1  0.24410200  0.94093800  0.97896000  1
  O  O27  1  0.23864800  0.84288300  0.26244200  1
  O  O28  1  0.75064200  0.89091500  0.68830800  1
  O  O29  1  0.25302000  0.85145200  0.76268900  1
  O  O30  1  0.93708200  0.68492300  0.41733400  1
  O  O31  1  0.56388200  0.68713000  0.41727500  1
  O  O32  1  0.94020900  0.68472900  0.91484300  1
  O  O33  1  0.56586900  0.68575800  0.91618600  1
  O  O34  1  0.24518800  0.58057500  0.09330700  1
  O  O35  1  0.74901100  0.57522600  0.20597800  1
  O  O36  1  0.25090500  0.57749800  0.59750700  1
  O  O37  1  0.75117100  0.58174900  0.70363800  1
  O  O38  1  0.24976600  0.42367800  0.29566900  1
  O  O39  1  0.74845400  0.42115400  0.40900600  1
  O  O40  1  0.25177300  0.41776200  0.79565000  1
  O  O41  1  0.75118900  0.42029300  0.90355300  1
  O  O42  1  0.05660900  0.31531200  0.08781200  1
  O  O43  1  0.43860500  0.31987500  0.08477000  1
  O  O44  1  0.43672700  0.31141500  0.58234900  1
  O  O45  1  0.06360800  0.31179700  0.58271100  1
  O  O46  1  0.73853500  0.14368000  0.24479100  1
  O  O47  1  0.24309700  0.10334300  0.30593900  1
  O  O48  1  0.75024300  0.14948900  0.73778100  1
  O  O49  1  0.75122200  0.06343400  0.02521100  1
  O  O50  1  0.24934700  0.10863400  0.81795200  1
  O  O51  1  0.75132700  0.05382000  0.52403400  1
