# generated using pymatgen
data_Li3VFe3O8
_symmetry_space_group_name_H-M   'P 1'
_cell_length_a   5.90207809
_cell_length_b   5.90207809
_cell_length_c   9.60868685
_cell_angle_alpha   89.87727973
_cell_angle_beta   89.87727973
_cell_angle_gamma   120.25738433
_symmetry_Int_Tables_number   1
_chemical_formula_structural   Li3VFe3O8
_chemical_formula_sum   'Li6 V2 Fe6 O16'
_cell_volume   289.11347292
_cell_formula_units_Z   2
loop_
 _symmetry_equiv_pos_site_id
 _symmetry_equiv_pos_as_xyz
  1  'x, y, z'
loop_
 _atom_site_type_symbol
 _atom_site_label
 _atom_site_symmetry_multiplicity
 _atom_site_fract_x
 _atom_site_fract_y
 _atom_site_fract_z
 _atom_site_occupancy
  Li  Li0  1  0.82825400  0.65154700  0.05655400  1
  Li  Li1  1  0.34796000  0.17440700  0.05802900  1
  Li  Li2  1  0.82812100  0.17899200  0.05723300  1
  Li  Li3  1  0.17899200  0.82812100  0.55723300  1
  Li  Li4  1  0.65154700  0.82825400  0.55655400  1
  Li  Li5  1  0.17440700  0.34796000  0.55802900  1
  V  V6  1  0.66909900  0.33859000  0.51017100  1
  V  V7  1  0.33859000  0.66909900  0.01017100  1
  Fe  Fe8  1  0.83356000  0.66269600  0.78567300  1
  Fe  Fe9  1  0.33402000  0.16817900  0.78861100  1
  Fe  Fe10  1  0.83427700  0.17247800  0.78655100  1
  Fe  Fe11  1  0.17247800  0.83427700  0.28655100  1
  Fe  Fe12  1  0.66269600  0.83356000  0.28567300  1
  Fe  Fe13  1  0.16817900  0.33402000  0.28861100  1
  O  O14  1  0.99876800  0.99994100  0.67771800  1
  O  O15  1  0.82802700  0.65394200  0.40864000  1
  O  O16  1  0.51775600  0.48114500  0.65339200  1
  O  O17  1  0.96525800  0.48306900  0.65300500  1
  O  O18  1  0.32956000  0.16238200  0.40916100  1
  O  O19  1  0.66535900  0.33356500  0.90404400  1
  O  O20  1  0.52149700  0.04374400  0.65144100  1
  O  O21  1  0.83401200  0.16392100  0.40840400  1
  O  O22  1  0.16392100  0.83401200  0.90840400  1
  O  O23  1  0.48306900  0.96525800  0.15300500  1
  O  O24  1  0.04374400  0.52149700  0.15144100  1
  O  O25  1  0.99994100  0.99876800  0.17771800  1
  O  O26  1  0.33356500  0.66535900  0.40404400  1
  O  O27  1  0.65394200  0.82802700  0.90864000  1
  O  O28  1  0.48114500  0.51775600  0.15339200  1
  O  O29  1  0.16238200  0.32956000  0.90916100  1
