# generated using pymatgen
data_Li(CuO)2
_symmetry_space_group_name_H-M   'P 1'
_cell_length_a   2.88433400
_cell_length_b   5.73093800
_cell_length_c   12.58707300
_cell_angle_alpha   90.00000000
_cell_angle_beta   90.00000000
_cell_angle_gamma   90.00000000
_symmetry_Int_Tables_number   1
_chemical_formula_structural   Li(CuO)2
_chemical_formula_sum   'Li4 Cu8 O8'
_cell_volume   208.06355297
_cell_formula_units_Z   4
loop_
 _symmetry_equiv_pos_site_id
 _symmetry_equiv_pos_as_xyz
  1  'x, y, z'
loop_
 _atom_site_type_symbol
 _atom_site_label
 _atom_site_symmetry_multiplicity
 _atom_site_fract_x
 _atom_site_fract_y
 _atom_site_fract_z
 _atom_site_occupancy
  Li  Li0  1  0.75000000  0.36676000  0.92776100  1
  Li  Li1  1  0.25000000  0.63324000  0.07223900  1
  Li  Li2  1  0.75000000  0.86676000  0.57223900  1
  Li  Li3  1  0.25000000  0.13324000  0.42776100  1
  Cu  Cu4  1  0.25000000  0.12382800  0.10019800  1
  Cu  Cu5  1  0.25000000  0.62382800  0.39980200  1
  Cu  Cu6  1  0.75000000  0.37617200  0.60019800  1
  Cu  Cu7  1  0.25000000  0.12049400  0.74239700  1
  Cu  Cu8  1  0.75000000  0.87950600  0.25760300  1
  Cu  Cu9  1  0.25000000  0.62049400  0.75760300  1
  Cu  Cu10  1  0.75000000  0.37950600  0.24239700  1
  Cu  Cu11  1  0.75000000  0.87617200  0.89980200  1
  O  O12  1  0.75000000  0.88520400  0.10973100  1
  O  O13  1  0.25000000  0.61479600  0.60973100  1
  O  O14  1  0.75000000  0.38520400  0.39026900  1
  O  O15  1  0.25000000  0.13355600  0.59304700  1
  O  O16  1  0.75000000  0.86644400  0.40695300  1
  O  O17  1  0.25000000  0.63355600  0.90695300  1
  O  O18  1  0.25000000  0.11479600  0.89026900  1
  O  O19  1  0.75000000  0.36644400  0.09304700  1
