# generated using pymatgen
data_Li2Zr2O5
_symmetry_space_group_name_H-M   'P 1'
_cell_length_a   5.60421400
_cell_length_b   8.20077400
_cell_length_c   11.36465100
_cell_angle_alpha   90.00000000
_cell_angle_beta   90.00000000
_cell_angle_gamma   90.00000000
_symmetry_Int_Tables_number   1
_chemical_formula_structural   Li2Zr2O5
_chemical_formula_sum   'Li8 Zr8 O20'
_cell_volume   522.30677317
_cell_formula_units_Z   4
loop_
 _symmetry_equiv_pos_site_id
 _symmetry_equiv_pos_as_xyz
  1  'x, y, z'
loop_
 _atom_site_type_symbol
 _atom_site_label
 _atom_site_symmetry_multiplicity
 _atom_site_fract_x
 _atom_site_fract_y
 _atom_site_fract_z
 _atom_site_occupancy
  Li  Li0  1  0.04971400  0.41260100  0.08815700  1
  Li  Li1  1  0.04971400  0.08739900  0.41184300  1
  Li  Li2  1  0.45028600  0.41260100  0.91184300  1
  Li  Li3  1  0.45028600  0.08739900  0.58815700  1
  Li  Li4  1  0.95028600  0.58739900  0.91184300  1
  Li  Li5  1  0.95028600  0.91260100  0.58815700  1
  Li  Li6  1  0.54971400  0.58739900  0.08815700  1
  Li  Li7  1  0.54971400  0.91260100  0.41184300  1
  Zr  Zr8  1  0.53469500  0.33870400  0.41196100  1
  Zr  Zr9  1  0.53469500  0.16129600  0.08803900  1
  Zr  Zr10  1  0.96530500  0.33870400  0.58803900  1
  Zr  Zr11  1  0.96530500  0.16129600  0.91196100  1
  Zr  Zr12  1  0.46530500  0.66129600  0.58803900  1
  Zr  Zr13  1  0.46530500  0.83870400  0.91196100  1
  Zr  Zr14  1  0.03469500  0.66129600  0.41196100  1
  Zr  Zr15  1  0.03469500  0.83870400  0.08803900  1
  O  O16  1  0.47991000  0.25000000  0.25000000  1
  O  O17  1  0.02009000  0.25000000  0.75000000  1
  O  O18  1  0.52009000  0.75000000  0.75000000  1
  O  O19  1  0.97991000  0.75000000  0.25000000  1
  O  O20  1  0.25000000  0.86250600  0.50000000  1
  O  O21  1  0.25000000  0.63749400  0.00000000  1
  O  O22  1  0.75000000  0.13749400  0.50000000  1
  O  O23  1  0.75000000  0.36250600  0.00000000  1
  O  O24  1  0.25000000  0.22616700  0.50000000  1
  O  O25  1  0.25000000  0.27383300  0.00000000  1
  O  O26  1  0.75000000  0.77383300  0.50000000  1
  O  O27  1  0.75000000  0.72616700  0.00000000  1
  O  O28  1  0.38191200  0.93593700  0.10122500  1
  O  O29  1  0.38191200  0.56406300  0.39877500  1
  O  O30  1  0.11808800  0.93593700  0.89877500  1
  O  O31  1  0.11808800  0.56406300  0.60122500  1
  O  O32  1  0.88191200  0.43593700  0.39877500  1
  O  O33  1  0.88191200  0.06406300  0.10122500  1
  O  O34  1  0.61808800  0.43593700  0.60122500  1
  O  O35  1  0.61808800  0.06406300  0.89877500  1
