# generated using pymatgen
data_Li9Mn2Co5O16
_symmetry_space_group_name_H-M   'P 1'
_cell_length_a   9.82389173
_cell_length_b   9.82389173
_cell_length_c   10.27352256
_cell_angle_alpha   84.16005699
_cell_angle_beta   84.16005699
_cell_angle_gamma   16.98632305
_symmetry_Int_Tables_number   1
_chemical_formula_structural   Li9Mn2Co5O16
_chemical_formula_sum   'Li9 Mn2 Co5 O16'
_cell_volume   288.11913935
_cell_formula_units_Z   1
loop_
 _symmetry_equiv_pos_site_id
 _symmetry_equiv_pos_as_xyz
  1  'x, y, z'
loop_
 _atom_site_type_symbol
 _atom_site_label
 _atom_site_symmetry_multiplicity
 _atom_site_fract_x
 _atom_site_fract_y
 _atom_site_fract_z
 _atom_site_occupancy
  Li  Li0  1  0.38152300  0.38152300  0.93198500  1
  Li  Li1  1  0.11588100  0.11588100  0.80244600  1
  Li  Li2  1  0.88300500  0.88300500  0.68683300  1
  Li  Li3  1  0.62221200  0.62221200  0.55757600  1
  Li  Li4  1  0.38047500  0.38047500  0.43772400  1
  Li  Li5  1  0.12258700  0.12258700  0.31903900  1
  Li  Li6  1  0.87550600  0.87550600  0.19346300  1
  Li  Li7  1  0.62049800  0.62049800  0.06462300  1
  Li  Li8  1  0.49807200  0.49807200  0.75071400  1
  Mn  Mn9  1  0.99820600  0.99820600  0.99325800  1
  Mn  Mn10  1  0.74958100  0.74958100  0.87518800  1
  Co  Co11  1  0.25002200  0.25002200  0.62205700  1
  Co  Co12  1  0.00458100  0.00458100  0.51956300  1
  Co  Co13  1  0.75074800  0.75074800  0.37494200  1
  Co  Co14  1  0.49951400  0.49951400  0.25624300  1
  Co  Co15  1  0.24908900  0.24908900  0.12829200  1
  O  O16  1  0.44360900  0.44360900  0.08631900  1
  O  O17  1  0.19283200  0.19283200  0.95263500  1
  O  O18  1  0.94196100  0.94196100  0.85934500  1
  O  O19  1  0.69867800  0.69867800  0.72007700  1
  O  O20  1  0.44134600  0.44134600  0.58568100  1
  O  O21  1  0.19238300  0.19238300  0.46138700  1
  O  O22  1  0.94197000  0.94197000  0.33683000  1
  O  O23  1  0.69376000  0.69376000  0.21246500  1
  O  O24  1  0.30659300  0.30659300  0.79753900  1
  O  O25  1  0.06246200  0.06246200  0.64577700  1
  O  O26  1  0.80549900  0.80549900  0.53738700  1
  O  O27  1  0.55686900  0.55686900  0.40499800  1
  O  O28  1  0.30935100  0.30935100  0.28466600  1
  O  O29  1  0.05520300  0.05520300  0.15075400  1
  O  O30  1  0.79981900  0.79981900  0.03223300  1
  O  O31  1  0.55616300  0.55616300  0.91796200  1
