# generated using pymatgen
data_Li2CrCo3O8
_symmetry_space_group_name_H-M   'P 1'
_cell_length_a   8.14808810
_cell_length_b   8.16646949
_cell_length_c   8.14868256
_cell_angle_alpha   89.71910236
_cell_angle_beta   90.21332284
_cell_angle_gamma   89.85123673
_symmetry_Int_Tables_number   1
_chemical_formula_structural   Li2CrCo3O8
_chemical_formula_sum   'Li8 Cr4 Co12 O32'
_cell_volume   542.21027810
_cell_formula_units_Z   4
loop_
 _symmetry_equiv_pos_site_id
 _symmetry_equiv_pos_as_xyz
  1  'x, y, z'
loop_
 _atom_site_type_symbol
 _atom_site_label
 _atom_site_symmetry_multiplicity
 _atom_site_fract_x
 _atom_site_fract_y
 _atom_site_fract_z
 _atom_site_occupancy
  Li  Li0  1  0.00025500  0.00110400  0.99918000  1
  Li  Li1  1  0.24670800  0.24991100  0.25172500  1
  Li  Li2  1  0.24990400  0.75081000  0.74919700  1
  Li  Li3  1  0.50027600  0.99920700  0.50085400  1
  Li  Li4  1  0.50190200  0.49849900  0.99646600  1
  Li  Li5  1  0.74920900  0.25119900  0.75158500  1
  Li  Li6  1  0.75141100  0.74943700  0.25318100  1
  Li  Li7  1  0.99998800  0.49934000  0.49829900  1
  Cr  Cr8  1  0.12385500  0.87683200  0.37480800  1
  Cr  Cr9  1  0.37204900  0.12624900  0.87437100  1
  Cr  Cr10  1  0.62511500  0.62539600  0.62412200  1
  Cr  Cr11  1  0.87364100  0.37562800  0.12575000  1
  Co  Co12  1  0.12039900  0.12759000  0.62431200  1
  Co  Co13  1  0.12582100  0.37988600  0.87142000  1
  Co  Co14  1  0.13044100  0.62461000  0.12129400  1
  Co  Co15  1  0.37133700  0.37558000  0.62041600  1
  Co  Co16  1  0.37644400  0.61999700  0.36905800  1
  Co  Co17  1  0.37977300  0.87013600  0.12580500  1
  Co  Co18  1  0.62124300  0.37190200  0.37413900  1
  Co  Co19  1  0.62439800  0.12179400  0.12990600  1
  Co  Co20  1  0.62929400  0.87425600  0.87920000  1
  Co  Co21  1  0.86952700  0.12447700  0.38010700  1
  Co  Co22  1  0.87602200  0.87960900  0.62900500  1
  Co  Co23  1  0.87966400  0.62958100  0.87592200  1
  O  O24  1  0.10425500  0.11854800  0.39026100  1
  O  O25  1  0.10739900  0.89228600  0.61923800  1
  O  O26  1  0.11294500  0.61564500  0.88854000  1
  O  O27  1  0.14031100  0.14258100  0.86347700  1
  O  O28  1  0.11794900  0.39476100  0.10807100  1
  O  O29  1  0.14027000  0.36404200  0.63709700  1
  O  O30  1  0.14119700  0.62842100  0.34951300  1
  O  O31  1  0.14921100  0.85602600  0.12545000  1
  O  O32  1  0.36020600  0.14131200  0.63684200  1
  O  O33  1  0.36261200  0.36294500  0.85527000  1
  O  O34  1  0.36510800  0.63666600  0.13461800  1
  O  O35  1  0.37812500  0.60550600  0.60566600  1
  O  O36  1  0.37190700  0.85436900  0.35375200  1
  O  O37  1  0.38891800  0.38552100  0.38609400  1
  O  O38  1  0.39061300  0.10808700  0.11590600  1
  O  O39  1  0.39027200  0.88834400  0.89236400  1
  O  O40  1  0.60423700  0.37962300  0.60618600  1
  O  O41  1  0.61178900  0.60425800  0.38037700  1
  O  O42  1  0.61113100  0.88806700  0.11593900  1
  O  O43  1  0.62719400  0.35388000  0.14317000  1
  O  O44  1  0.61146700  0.11067800  0.89603700  1
  O  O45  1  0.63305800  0.13777900  0.36054700  1
  O  O46  1  0.64316500  0.87093200  0.64518300  1
  O  O47  1  0.64716400  0.64025600  0.86979200  1
  O  O48  1  0.85067200  0.36025900  0.37244800  1
  O  O49  1  0.85457500  0.12953100  0.14165200  1
  O  O50  1  0.86287200  0.86154800  0.86389300  1
  O  O51  1  0.88064100  0.89027100  0.39702300  1
  O  O52  1  0.87188400  0.64579200  0.64380600  1
  O  O53  1  0.88501400  0.11053600  0.61479400  1
  O  O54  1  0.89053100  0.39819200  0.87999400  1
  O  O55  1  0.89463000  0.62044400  0.10701700  1
