# generated using pymatgen
data_Li2Cr5(PO4)4
_symmetry_space_group_name_H-M   'P 1'
_cell_length_a   5.51195900
_cell_length_b   8.05584968
_cell_length_c   8.64209689
_cell_angle_alpha   63.34773544
_cell_angle_beta   84.45070538
_cell_angle_gamma   79.16137416
_symmetry_Int_Tables_number   1
_chemical_formula_structural   Li2Cr5(PO4)4
_chemical_formula_sum   'Li2 Cr5 P4 O16'
_cell_volume   336.81378510
_cell_formula_units_Z   1
loop_
 _symmetry_equiv_pos_site_id
 _symmetry_equiv_pos_as_xyz
  1  'x, y, z'
loop_
 _atom_site_type_symbol
 _atom_site_label
 _atom_site_symmetry_multiplicity
 _atom_site_fract_x
 _atom_site_fract_y
 _atom_site_fract_z
 _atom_site_occupancy
  Li  Li0  1  0.63011100  0.10442800  0.70982300  1
  Li  Li1  1  0.36988900  0.89557200  0.29017700  1
  Cr  Cr2  1  0.82431400  0.44264500  0.79358800  1
  Cr  Cr3  1  0.28980400  0.74623100  0.71009400  1
  Cr  Cr4  1  0.71019600  0.25376900  0.28990600  1
  Cr  Cr5  1  0.00000000  0.00000000  0.00000000  1
  Cr  Cr6  1  0.17568600  0.55735500  0.20641200  1
  P  P7  1  0.12552800  0.19937400  0.58809600  1
  P  P8  1  0.66943900  0.69419100  0.00736600  1
  P  P9  1  0.33056100  0.30580900  0.99263400  1
  P  P10  1  0.87447200  0.80062600  0.41190400  1
  O  O11  1  0.74424200  0.63533200  0.52748000  1
  O  O12  1  0.10292300  0.81908800  0.49119400  1
  O  O13  1  0.56603100  0.25353800  0.90085800  1
  O  O14  1  0.39632500  0.35730100  0.13700500  1
  O  O15  1  0.98184500  0.78152000  0.24268500  1
  O  O16  1  0.43396900  0.74646200  0.09914200  1
  O  O17  1  0.83260900  0.51602100  0.14376800  1
  O  O18  1  0.01815500  0.21848000  0.75731500  1
  O  O19  1  0.18925800  0.13693400  0.08712400  1
  O  O20  1  0.89707700  0.18091200  0.50880600  1
  O  O21  1  0.81074200  0.86306600  0.91287600  1
  O  O22  1  0.25575800  0.36466800  0.47252000  1
  O  O23  1  0.32303700  0.01681600  0.65493700  1
  O  O24  1  0.67696300  0.98318400  0.34506300  1
  O  O25  1  0.60367600  0.64269900  0.86299500  1
  O  O26  1  0.16739100  0.48397900  0.85623200  1
