# generated using pymatgen
data_Li2Fe2(SiO3)3
_symmetry_space_group_name_H-M   'P 1'
_cell_length_a   10.17608347
_cell_length_b   10.17682164
_cell_length_c   12.24749006
_cell_angle_alpha   89.99696746
_cell_angle_beta   90.00612488
_cell_angle_gamma   119.99787557
_symmetry_Int_Tables_number   1
_chemical_formula_structural   Li2Fe2(SiO3)3
_chemical_formula_sum   'Li12 Fe12 Si18 O54'
_cell_volume   1098.44886742
_cell_formula_units_Z   6
loop_
 _symmetry_equiv_pos_site_id
 _symmetry_equiv_pos_as_xyz
  1  'x, y, z'
loop_
 _atom_site_type_symbol
 _atom_site_label
 _atom_site_symmetry_multiplicity
 _atom_site_fract_x
 _atom_site_fract_y
 _atom_site_fract_z
 _atom_site_occupancy
  Li  Li0  1  0.15163780  0.98755303  0.17458173  1
  Li  Li1  1  0.20161806  0.76416779  0.01461431  1
  Li  Li2  1  0.23574665  0.43729717  0.68113282  1
  Li  Li3  1  0.01254260  0.16413349  0.84119515  1
  Li  Li4  1  0.56264963  0.79838166  0.34796773  1
  Li  Li5  1  0.17402643  0.02489467  0.67109440  1
  Li  Li6  1  0.31872386  0.27459061  0.78715069  1
  Li  Li7  1  0.83528744  0.84857112  0.50831734  1
  Li  Li8  1  0.85099790  0.82625185  0.00417929  1
  Li  Li9  1  0.72543281  0.04417452  0.45382402  1
  Li  Li10  1  0.95593131  0.68156425  0.12041321  1
  Li  Li11  1  0.97513254  0.14890923  0.33769154  1
  Fe  Fe12  1  0.33284435  0.84478483  0.49351635  1
  Fe  Fe13  1  0.15504703  0.48804559  0.16013253  1
  Fe  Fe14  1  0.51201750  0.66704793  0.82690237  1
  Fe  Fe15  1  0.33581482  0.32427221  0.24878871  1
  Fe  Fe16  1  0.36564397  0.33122369  0.00410100  1
  Fe  Fe17  1  0.50876511  0.16503656  0.83853414  1
  Fe  Fe18  1  0.65636841  0.49131745  0.17185341  1
  Fe  Fe19  1  0.98830687  0.66420331  0.58214002  1
  Fe  Fe20  1  0.96565307  0.63449824  0.33740165  1
  Fe  Fe21  1  0.66877709  0.03439422  0.67079358  1
  Fe  Fe22  1  0.67579135  0.01158821  0.91550537  1
  Fe  Fe23  1  0.83490189  0.34388202  0.50510122  1
  Si  Si24  1  0.13081098  0.95232001  0.91846284  1
  Si  Si25  1  0.29766691  0.82279631  0.76726908  1
  Si  Si26  1  0.18960583  0.50873353  0.89018875  1
  Si  Si27  1  0.31920786  0.81044819  0.22354119  1
  Si  Si28  1  0.04769395  0.17826837  0.58521628  1
  Si  Si29  1  0.17705809  0.47476007  0.43384144  1
  Si  Si30  1  0.18357780  0.01697642  0.42978995  1
  Si  Si31  1  0.49115692  0.68079093  0.55693623  1
  Si  Si32  1  0.52513102  0.70238864  0.10055649  1
  Si  Si33  1  0.61697913  0.49719336  0.44556859  1
  Si  Si34  1  0.47800771  0.20033576  0.57584492  1
  Si  Si35  1  0.82146875  0.86921546  0.25188702  1
  Si  Si36  1  0.83354562  0.81649445  0.76306732  1
  Si  Si37  1  0.72243564  0.52201711  0.90920923  1
  Si  Si38  1  0.50286807  0.11990351  0.11228252  1
  Si  Si39  1  0.88018408  0.38300865  0.77889619  1
  Si  Si40  1  0.79973158  0.27768479  0.24256352  1
  Si  Si41  1  0.98295845  0.16641645  0.09650139  1
  O  O42  1  0.10480785  0.83121505  0.43601436  1
  O  O43  1  0.07390516  0.87782245  0.03794036  1
  O  O44  1  0.19715284  0.84935382  0.86178981  1
  O  O45  1  0.13693417  0.69100173  0.21586800  1
  O  O46  1  0.05008627  0.52522499  0.44668038  1
  O  O47  1  0.03985502  0.38660728  0.81789837  1
  O  O48  1  0.22276932  0.80592753  0.64633842  1
  O  O49  1  0.14649961  0.55316336  0.00476380  1
  O  O50  1  0.34681053  0.96033234  0.15141019  1
  O  O51  1  0.28133225  0.66147597  0.81067134  1
  O  O52  1  0.15008652  0.34746192  0.52819777  1
  O  O53  1  0.40660172  0.85320433  0.33815413  1
  O  O54  1  0.12250493  0.19648705  0.70464891  1
  O  O55  1  0.19416168  0.41697573  0.31293077  1
  O  O56  1  0.47512048  0.94978423  0.78016134  1
  O  O57  1  0.38005745  0.71872593  0.14391431  1
  O  O58  1  0.30915100  0.44604996  0.88264049  1
  O  O59  1  0.16870560  0.27333560  0.10267951  1
  O  O60  1  0.08579387  0.05963869  0.51716929  1
  O  O61  1  0.33836194  0.61963630  0.47749081  1
  O  O62  1  0.19921972  0.09967407  0.31462025  1
  O  O63  1  0.44683611  0.59337464  0.67151910  1
  O  O64  1  0.55387814  0.86305790  0.54931590  1
  O  O65  1  0.58316491  0.77725752  0.97963370  1
  O  O66  1  0.25322870  0.12948101  0.90594168  1
  O  O67  1  0.47480419  0.52495526  0.11338147  1
  O  O68  1  0.65219475  0.80297605  0.19505506  1
  O  O69  1  0.61325341  0.65320487  0.48455557  1
  O  O70  1  0.35029826  0.06942559  0.49007418  1
  O  O71  1  0.72657534  0.89526584  0.76936422  1
  O  O72  1  0.54450825  0.45128048  0.32334288  1
  O  O73  1  0.39849840  0.16987781  0.69555147  1
  O  O74  1  0.80357476  0.92588451  0.37135603  1
  O  O75  1  0.50693776  0.36423601  0.53163657  1
  O  O76  1  0.46243850  0.25539656  0.12685267  1
  O  O77  1  0.55464982  0.37387291  0.90112790  1
  O  O78  1  0.71938999  0.64989579  0.82350317  1
  O  O79  1  0.54865060  0.09315380  0.99004577  1
  O  O80  1  0.77143326  0.60154666  0.02888142  1
  O  O81  1  0.90038846  0.80074998  0.64790920  1
  O  O82  1  0.87616526  0.74685355  0.23922193  1
  O  O83  1  0.62619839  0.18079505  0.56775497  1
  O  O84  1  0.79298990  0.53763950  0.46019042  1
  O  O85  1  0.97447398  0.91474075  0.85004063  1
  O  O86  1  0.63577657  0.14273975  0.19832442  1
  O  O87  1  0.85751759  0.49312654  0.86502392  1
  O  O88  1  0.81933869  0.44542655  0.23447303  1
  O  O89  1  0.74463823  0.20702657  0.79354925  1
  O  O90  1  0.83012715  0.22859493  0.36226053  1
  O  O91  1  0.90676647  0.45550673  0.65667583  1
  O  O92  1  0.87038850  0.12294061  0.57281177  1
  O  O93  1  0.93056418  0.28072095  0.15677511  1
  O  O94  1  0.90033626  0.09947025  0.98130935  1
  O  O95  1  0.94035347  0.02588804  0.18382471  1
