# generated using pymatgen
data_Li4Mn3O7
_symmetry_space_group_name_H-M   'P 1'
_cell_length_a   5.09128900
_cell_length_b   5.98737951
_cell_length_c   8.78272999
_cell_angle_alpha   89.38282961
_cell_angle_beta   93.96479620
_cell_angle_gamma   103.38530706
_symmetry_Int_Tables_number   1
_chemical_formula_structural   Li4Mn3O7
_chemical_formula_sum   'Li8 Mn6 O14'
_cell_volume   259.82828479
_cell_formula_units_Z   2
loop_
 _symmetry_equiv_pos_site_id
 _symmetry_equiv_pos_as_xyz
  1  'x, y, z'
loop_
 _atom_site_type_symbol
 _atom_site_label
 _atom_site_symmetry_multiplicity
 _atom_site_fract_x
 _atom_site_fract_y
 _atom_site_fract_z
 _atom_site_occupancy
  Li  Li0  1  0.50000000  0.00000000  0.50000000  1
  Li  Li1  1  0.08050700  0.14767700  0.63870000  1
  Li  Li2  1  0.91949300  0.85232300  0.36130000  1
  Li  Li3  1  0.35818200  0.70407300  0.21881100  1
  Li  Li4  1  0.64181800  0.29592700  0.78118900  1
  Li  Li5  1  0.21493200  0.42974600  0.92416900  1
  Li  Li6  1  0.78506800  0.57025400  0.07583100  1
  Li  Li7  1  0.50000000  0.50000000  0.50000000  1
  Mn  Mn8  1  0.93522200  0.37128900  0.36078600  1
  Mn  Mn9  1  0.06477800  0.62871100  0.63921400  1
  Mn  Mn10  1  0.63422700  0.77301300  0.78001600  1
  Mn  Mn11  1  0.20976100  0.92596800  0.92652900  1
  Mn  Mn12  1  0.79023900  0.07403200  0.07347100  1
  Mn  Mn13  1  0.36577300  0.22698700  0.21998400  1
  O  O14  1  0.81755700  0.34672900  0.56677100  1
  O  O15  1  0.33207400  0.46896700  0.70731600  1
  O  O16  1  0.20493400  0.18578900  0.41313700  1
  O  O17  1  0.66696300  0.07306000  0.28765700  1
  O  O18  1  0.91479600  0.60367800  0.83948300  1
  O  O19  1  0.48802000  0.75743600  0.98569700  1
  O  O20  1  0.06459800  0.90037300  0.12874000  1
  O  O21  1  0.18244300  0.65327100  0.43322900  1
  O  O22  1  0.79506600  0.81421100  0.58686300  1
  O  O23  1  0.66792600  0.53103300  0.29268400  1
  O  O24  1  0.08520400  0.39632200  0.16051700  1
  O  O25  1  0.33303700  0.92694000  0.71234300  1
  O  O26  1  0.93540200  0.09962700  0.87126000  1
  O  O27  1  0.51198000  0.24256400  0.01430300  1
