# generated using pymatgen
data_Li2FeP2O7
_symmetry_space_group_name_H-M   'P 1'
_cell_length_a   5.13948498
_cell_length_b   8.80890582
_cell_length_c   13.32619553
_cell_angle_alpha   103.04016588
_cell_angle_beta   88.84230597
_cell_angle_gamma   91.02844944
_symmetry_Int_Tables_number   1
_chemical_formula_structural   Li2FeP2O7
_chemical_formula_sum   'Li8 Fe4 P8 O28'
_cell_volume   587.58618861
_cell_formula_units_Z   4
loop_
 _symmetry_equiv_pos_site_id
 _symmetry_equiv_pos_as_xyz
  1  'x, y, z'
loop_
 _atom_site_type_symbol
 _atom_site_label
 _atom_site_symmetry_multiplicity
 _atom_site_fract_x
 _atom_site_fract_y
 _atom_site_fract_z
 _atom_site_occupancy
  Li  Li0  1  0.03892242  0.16925283  0.41058442  1
  Li  Li1  1  0.53857852  0.66915656  0.41026026  1
  Li  Li2  1  0.52186084  0.89191671  0.09138473  1
  Li  Li3  1  0.02264627  0.39232821  0.09243225  1
  Li  Li4  1  0.97737832  0.60776561  0.90746515  1
  Li  Li5  1  0.47832854  0.10806238  0.90867549  1
  Li  Li6  1  0.46132633  0.33076639  0.58969491  1
  Li  Li7  1  0.96111293  0.83077466  0.58933818  1
  Fe  Fe8  1  0.99957525  0.50011270  0.50022320  1
  Fe  Fe9  1  0.00017077  -0.00001780  1.00005531  1
  Fe  Fe10  1  0.50032083  0.99992133  0.49995097  1
  Fe  Fe11  1  0.50016869  0.49987298  -0.00001284  1
  P  P12  1  0.96998794  0.18601223  0.63110380  1
  P  P13  1  0.46997969  0.68636117  0.63089277  1
  P  P14  1  0.98697402  0.26978526  0.86847406  1
  P  P15  1  0.48666238  0.76914016  0.86805280  1
  P  P16  1  0.51323729  0.23086257  0.13195799  1
  P  P17  1  0.01315082  0.73026445  0.13153707  1
  P  P18  1  0.53000030  0.31367152  0.36911529  1
  P  P19  1  0.03005001  0.81392066  0.36885566  1
  O  O20  1  0.02611201  0.27195536  0.74868229  1
  O  O21  1  0.52627920  0.77267377  0.74838476  1
  O  O22  1  0.47376485  0.22734439  0.25160339  1
  O  O23  1  0.97389056  0.72793067  0.25131458  1
  O  O24  1  0.10400518  0.11826260  0.88549328  1
  O  O25  1  0.60408326  0.61762030  0.88470372  1
  O  O26  1  0.67405331  0.16005589  0.61949811  1
  O  O27  1  0.17405060  0.66039727  0.61928600  1
  O  O28  1  0.82591708  0.33965637  0.38075991  1
  O  O29  1  0.32592346  0.83991298  0.38047979  1
  O  O30  1  0.39582174  0.38236760  0.11527731  1
  O  O31  1  0.89604414  0.88173764  0.11455092  1
  O  O32  1  0.14337763  0.41420661  0.92250122  1
  O  O33  1  0.64226044  0.91320671  0.92308960  1
  O  O34  1  0.07441180  0.30500010  0.57154878  1
  O  O35  1  0.57401840  0.80475417  0.57071348  1
  O  O36  1  0.42598824  0.19520921  0.42927151  1
  O  O37  1  0.92552202  0.69503171  0.42847728  1
  O  O38  1  0.35767118  0.08670848  0.07709009  1
  O  O39  1  0.85671508  0.58593301  0.07742208  1
  O  O40  1  0.87673631  0.96571707  0.39654386  1
  O  O41  1  0.37659166  0.46543389  0.39652511  1
  O  O42  1  0.80335019  0.21604637  0.10347824  1
  O  O43  1  0.30297015  0.71483236  0.10244221  1
  O  O44  1  0.69703779  0.28520808  0.89755076  1
  O  O45  1  0.19640650  0.78407635  0.89640945  1
  O  O46  1  0.62334542  0.53455735  0.60347132  1
  O  O47  1  0.12322161  0.03423312  0.60338947  1
