# generated using pymatgen
data_Li2MnP2O7
_symmetry_space_group_name_H-M   'P 1'
_cell_length_a   8.19365589
_cell_length_b   8.19360132
_cell_length_c   9.92420780
_cell_angle_alpha   93.43062820
_cell_angle_beta   86.57031641
_cell_angle_gamma   74.52204602
_symmetry_Int_Tables_number   1
_chemical_formula_structural   Li2MnP2O7
_chemical_formula_sum   'Li8 Mn4 P8 O28'
_cell_volume   638.96073036
_cell_formula_units_Z   4
loop_
 _symmetry_equiv_pos_site_id
 _symmetry_equiv_pos_as_xyz
  1  'x, y, z'
loop_
 _atom_site_type_symbol
 _atom_site_label
 _atom_site_symmetry_multiplicity
 _atom_site_fract_x
 _atom_site_fract_y
 _atom_site_fract_z
 _atom_site_occupancy
  Li  Li0  1  0.23518400  0.23460900  0.99934000  1
  Li  Li1  1  0.73607200  0.73440700  0.49921700  1
  Li  Li2  1  0.51610500  0.01402400  0.74993700  1
  Li  Li3  1  0.01556700  0.51417400  0.24977100  1
  Li  Li4  1  0.98591800  0.48392400  0.74999700  1
  Li  Li5  1  0.48581600  0.98433400  0.24970800  1
  Li  Li6  1  0.76527200  0.76465600  0.99933900  1
  Li  Li7  1  0.26579400  0.26416200  0.49922700  1
  Mn  Mn8  1  0.50079300  0.49949400  0.49994800  1
  Mn  Mn9  1  0.24398100  0.75596000  0.24968100  1
  Mn  Mn10  1  0.00032300  0.99941400  0.00304100  1
  Mn  Mn11  1  0.74748200  0.25249900  0.74904500  1
  P  P12  1  0.67597400  0.09906100  0.46151200  1
  P  P13  1  0.17522000  0.59982800  0.96232700  1
  P  P14  1  0.59946900  0.17531900  0.03812100  1
  P  P15  1  0.09956500  0.67535000  0.53829800  1
  P  P16  1  0.90105600  0.32410000  0.46154000  1
  P  P17  1  0.40003600  0.82476700  0.96230700  1
  P  P18  1  0.82458400  0.40045900  0.03811900  1
  P  P19  1  0.32480400  0.90050400  0.53829800  1
  O  O20  1  0.84286000  0.15723900  0.40727400  1
  O  O21  1  0.34214500  0.65778200  0.90808000  1
  O  O22  1  0.65777500  0.34213500  0.09206800  1
  O  O23  1  0.15826800  0.84184800  0.59249500  1
  O  O24  1  0.43712400  0.17758600  0.11978500  1
  O  O25  1  0.93797000  0.67687200  0.62072500  1
  O  O26  1  0.67809600  0.93693200  0.37961600  1
  O  O27  1  0.17753700  0.43748800  0.88058700  1
  O  O28  1  0.82236300  0.56273500  0.11981200  1
  O  O29  1  0.32317800  0.06221900  0.62060500  1
  O  O30  1  0.06326600  0.32188400  0.37971100  1
  O  O31  1  0.56235300  0.82249500  0.88061500  1
  O  O32  1  0.25125400  0.98161100  0.94194700  1
  O  O33  1  0.75243000  0.48113500  0.44134300  1
  O  O34  1  0.48203100  0.75157500  0.55735000  1
  O  O35  1  0.98159400  0.25190500  0.05865700  1
  O  O36  1  0.69141400  0.07552400  0.61444600  1
  O  O37  1  0.19029300  0.57694200  0.11539200  1
  O  O38  1  0.57610100  0.19041700  0.88510800  1
  O  O39  1  0.07408400  0.69193100  0.38568300  1
  O  O40  1  0.92440800  0.30868100  0.61450100  1
  O  O41  1  0.42290600  0.80969900  0.11537700  1
  O  O42  1  0.80942600  0.42392800  0.88512400  1
  O  O43  1  0.30830100  0.92569000  0.38563500  1
  O  O44  1  0.24861300  0.51814800  0.55715400  1
  O  O45  1  0.74789800  0.01827000  0.05875200  1
  O  O46  1  0.01829400  0.74848100  0.94197300  1
  O  O47  1  0.51900100  0.24780600  0.44141400  1
