# generated using pymatgen
data_LiTiSiO4
_symmetry_space_group_name_H-M   'P 1'
_cell_length_a   5.65410400
_cell_length_b   8.42314200
_cell_length_c   18.00124200
_cell_angle_alpha   90.00000000
_cell_angle_beta   90.00000000
_cell_angle_gamma   90.00000000
_symmetry_Int_Tables_number   1
_chemical_formula_structural   LiTiSiO4
_chemical_formula_sum   'Li12 Ti12 Si12 O48'
_cell_volume   857.31492639
_cell_formula_units_Z   12
loop_
 _symmetry_equiv_pos_site_id
 _symmetry_equiv_pos_as_xyz
  1  'x, y, z'
loop_
 _atom_site_type_symbol
 _atom_site_label
 _atom_site_symmetry_multiplicity
 _atom_site_fract_x
 _atom_site_fract_y
 _atom_site_fract_z
 _atom_site_occupancy
  Li  Li0  1  0.47987200  0.16374800  0.91668200  1
  Li  Li1  1  0.02012800  0.66374800  0.91668200  1
  Li  Li2  1  0.50000000  0.84020800  0.75000000  1
  Li  Li3  1  0.00000000  0.34020800  0.75000000  1
  Li  Li4  1  0.52012800  0.16374800  0.58331800  1
  Li  Li5  1  0.97987200  0.66374800  0.58331800  1
  Li  Li6  1  0.47987200  0.83625200  0.41668200  1
  Li  Li7  1  0.02012800  0.33625200  0.41668200  1
  Li  Li8  1  0.50000000  0.15979200  0.25000000  1
  Li  Li9  1  0.00000000  0.65979200  0.25000000  1
  Li  Li10  1  0.52012800  0.83625200  0.08331800  1
  Li  Li11  1  0.97987200  0.33625200  0.08331800  1
  Ti  Ti12  1  0.50000000  0.50000000  0.00000000  1
  Ti  Ti13  1  0.00000000  0.00000000  0.00000000  1
  Ti  Ti14  1  0.99773200  0.00156400  0.82929800  1
  Ti  Ti15  1  0.50226800  0.50156400  0.82929800  1
  Ti  Ti16  1  0.00226800  0.00156400  0.67070200  1
  Ti  Ti17  1  0.49773200  0.50156400  0.67070200  1
  Ti  Ti18  1  0.50000000  0.50000000  0.50000000  1
  Ti  Ti19  1  0.00000000  0.00000000  0.50000000  1
  Ti  Ti20  1  0.99773200  0.99843600  0.32929800  1
  Ti  Ti21  1  0.50226800  0.49843600  0.32929800  1
  Ti  Ti22  1  0.00226800  0.99843600  0.17070200  1
  Ti  Ti23  1  0.49773200  0.49843600  0.17070200  1
  Si  Si24  1  0.49949000  0.84787000  0.91589700  1
  Si  Si25  1  0.00051000  0.34787000  0.91589700  1
  Si  Si26  1  0.50000000  0.15500300  0.75000000  1
  Si  Si27  1  0.00000000  0.65500300  0.75000000  1
  Si  Si28  1  0.50051000  0.84787000  0.58410300  1
  Si  Si29  1  0.99949000  0.34787000  0.58410300  1
  Si  Si30  1  0.49949000  0.15213000  0.41589700  1
  Si  Si31  1  0.00051000  0.65213000  0.41589700  1
  Si  Si32  1  0.50000000  0.84499700  0.25000000  1
  Si  Si33  1  0.00000000  0.34499700  0.25000000  1
  Si  Si34  1  0.50051000  0.15213000  0.08410300  1
  Si  Si35  1  0.99949000  0.65213000  0.08410300  1
  O  O36  1  0.99594400  0.76720700  0.01124600  1
  O  O37  1  0.49594400  0.73279300  0.98875400  1
  O  O38  1  0.00405600  0.23279300  0.98875400  1
  O  O39  1  0.76656000  0.47237400  0.91616700  1
  O  O40  1  0.23391700  0.47007900  0.91598000  1
  O  O41  1  0.26608300  0.97007900  0.91598000  1
  O  O42  1  0.73344000  0.97237400  0.91616700  1
  O  O43  1  0.49746700  0.73462400  0.84259100  1
  O  O44  1  0.00253300  0.23462400  0.84259100  1
  O  O45  1  0.49942100  0.26713400  0.82287500  1
  O  O46  1  0.00057900  0.76713400  0.82287500  1
  O  O47  1  0.22838300  0.52948100  0.75038700  1
  O  O48  1  0.77161700  0.52948100  0.74961300  1
  O  O49  1  0.72838300  0.02948100  0.74961300  1
  O  O50  1  0.27161700  0.02948100  0.75038700  1
  O  O51  1  0.50057900  0.26713400  0.67712500  1
  O  O52  1  0.99942100  0.76713400  0.67712500  1
  O  O53  1  0.50253300  0.73462400  0.65740900  1
  O  O54  1  0.99746700  0.23462400  0.65740900  1
  O  O55  1  0.23344000  0.47237400  0.58383300  1
  O  O56  1  0.76608300  0.47007900  0.58402000  1
  O  O57  1  0.73391700  0.97007900  0.58402000  1
  O  O58  1  0.26656000  0.97237400  0.58383300  1
  O  O59  1  0.50405600  0.73279300  0.51124600  1
  O  O60  1  0.99594400  0.23279300  0.51124600  1
  O  O61  1  0.49594400  0.26720700  0.48875400  1
  O  O62  1  0.00405600  0.76720700  0.48875400  1
  O  O63  1  0.76656000  0.52762600  0.41616700  1
  O  O64  1  0.23391700  0.52992100  0.41598000  1
  O  O65  1  0.26608300  0.02992100  0.41598000  1
  O  O66  1  0.73344000  0.02762600  0.41616700  1
  O  O67  1  0.49746700  0.26537600  0.34259100  1
  O  O68  1  0.00253300  0.76537600  0.34259100  1
  O  O69  1  0.49942100  0.73286600  0.32287500  1
  O  O70  1  0.00057900  0.23286600  0.32287500  1
  O  O71  1  0.77161700  0.47051900  0.24961300  1
  O  O72  1  0.22838300  0.47051900  0.25038700  1
  O  O73  1  0.27161700  0.97051900  0.25038700  1
  O  O74  1  0.72838300  0.97051900  0.24961300  1
  O  O75  1  0.50057900  0.73286600  0.17712500  1
  O  O76  1  0.99942100  0.23286600  0.17712500  1
  O  O77  1  0.50253300  0.26537600  0.15740900  1
  O  O78  1  0.99746700  0.76537600  0.15740900  1
  O  O79  1  0.23344000  0.52762600  0.08383300  1
  O  O80  1  0.76608300  0.52992100  0.08402000  1
  O  O81  1  0.73391700  0.02992100  0.08402000  1
  O  O82  1  0.26656000  0.02762600  0.08383300  1
  O  O83  1  0.50405600  0.26720700  0.01124600  1
