# generated using pymatgen
data_LiMn6O12
_symmetry_space_group_name_H-M   'P 1'
_cell_length_a   6.61292900
_cell_length_b   6.61587334
_cell_length_c   15.39555995
_cell_angle_alpha   82.71883327
_cell_angle_beta   82.88140900
_cell_angle_gamma   82.65528881
_symmetry_Int_Tables_number   1
_chemical_formula_structural   LiMn6O12
_chemical_formula_sum   'Li3 Mn18 O36'
_cell_volume   658.66258070
_cell_formula_units_Z   3
loop_
 _symmetry_equiv_pos_site_id
 _symmetry_equiv_pos_as_xyz
  1  'x, y, z'
loop_
 _atom_site_type_symbol
 _atom_site_label
 _atom_site_symmetry_multiplicity
 _atom_site_fract_x
 _atom_site_fract_y
 _atom_site_fract_z
 _atom_site_occupancy
  Li  Li0  1  0.24697100  0.25237400  0.08617000  1
  Li  Li1  1  0.24734800  0.24997400  0.74964200  1
  Li  Li2  1  0.59112400  0.91347900  0.41111500  1
  Mn  Mn3  1  0.01184200  0.01246800  0.33311500  1
  Mn  Mn4  1  0.99242500  0.99222900  0.66823700  1
  Mn  Mn5  1  0.82181000  0.15417700  0.16694600  1
  Mn  Mn6  1  0.83452900  0.16840200  0.50233800  1
  Mn  Mn7  1  0.82595400  0.16077300  0.83408500  1
  Mn  Mn8  1  0.67405700  0.34147000  0.33328100  1
  Mn  Mn9  1  0.66980700  0.33803200  0.66825300  1
  Mn  Mn10  1  0.50829100  0.50531300  0.16528900  1
  Mn  Mn11  1  0.67896800  0.34116200  0.99710500  1
  Mn  Mn12  1  0.48890900  0.48844000  0.50143900  1
  Mn  Mn13  1  0.50575100  0.50598600  0.83350300  1
  Mn  Mn14  1  0.33035600  0.66421400  0.33201700  1
  Mn  Mn15  1  0.33745800  0.67132200  0.66797100  1
  Mn  Mn16  1  0.16217000  0.83018700  0.16492500  1
  Mn  Mn17  1  0.34066700  0.67495700  0.99835700  1
  Mn  Mn18  1  0.15615200  0.82413500  0.50287000  1
  Mn  Mn19  1  0.16072300  0.82575900  0.83430000  1
  Mn  Mn20  1  0.99726800  0.99877300  0.99804300  1
  O  O21  1  0.10585300  0.10105500  0.19538600  1
  O  O22  1  0.73341500  0.06739600  0.30229400  1
  O  O23  1  0.09654700  0.09143300  0.54985500  1
  O  O24  1  0.73067000  0.07117000  0.62512400  1
  O  O25  1  0.09697500  0.09586300  0.87310100  1
  O  O26  1  0.56114100  0.24446900  0.11458600  1
  O  O27  1  0.73212200  0.07106300  0.95412500  1
  O  O28  1  0.57345600  0.22729000  0.45272600  1
  O  O29  1  0.94666300  0.26740300  0.03220600  1
  O  O30  1  0.56215400  0.23949500  0.78979700  1
  O  O31  1  0.93476000  0.27457300  0.38411700  1
  O  O32  1  0.40666200  0.40259400  0.28501600  1
  O  O33  1  0.93725500  0.25793400  0.71463500  1
  O  O34  1  0.39370800  0.39527200  0.63990500  1
  O  O35  1  0.76678800  0.42697800  0.21088900  1
  O  O36  1  0.24369100  0.56271300  0.11676900  1
  O  O37  1  0.40728400  0.40721500  0.95585200  1
  O  O38  1  0.75651400  0.43068400  0.54924600  1
  O  O39  1  0.22636900  0.56521600  0.45260300  1
  O  O40  1  0.60662600  0.60624800  0.04239200  1
  O  O41  1  0.77054200  0.43166100  0.87506200  1
  O  O42  1  0.23939100  0.56262700  0.78884100  1
  O  O43  1  0.59701800  0.61302900  0.36998500  1
  O  O44  1  0.06942600  0.74199100  0.28468700  1
  O  O45  1  0.60328300  0.60485900  0.71360800  1
  O  O46  1  0.42890800  0.76690400  0.20978200  1
  O  O47  1  0.06788500  0.72819500  0.62627400  1
  O  O48  1  0.07237000  0.73159100  0.95458100  1
  O  O49  1  0.42497600  0.75955100  0.54623400  1
  O  O50  1  0.26316700  0.93795300  0.04272300  1
  O  O51  1  0.89959400  0.89449200  0.11525800  1
  O  O52  1  0.43067600  0.76993600  0.87645900  1
  O  O53  1  0.27299200  0.92431900  0.38439700  1
  O  O54  1  0.88864300  0.89959500  0.46672100  1
  O  O55  1  0.25792800  0.93728000  0.71460600  1
  O  O56  1  0.89453900  0.89489000  0.79039900  1
