# generated using pymatgen
data_Li2TiCrO4
_symmetry_space_group_name_H-M   'P 1'
_cell_length_a   4.16431362
_cell_length_b   17.23728541
_cell_length_c   4.16003326
_cell_angle_alpha   90.00001322
_cell_angle_beta   90.00338986
_cell_angle_gamma   90.00000175
_symmetry_Int_Tables_number   1
_chemical_formula_structural   Li2TiCrO4
_chemical_formula_sum   'Li8 Ti4 Cr4 O16'
_cell_volume   298.61327064
_cell_formula_units_Z   4
loop_
 _symmetry_equiv_pos_site_id
 _symmetry_equiv_pos_as_xyz
  1  'x, y, z'
loop_
 _atom_site_type_symbol
 _atom_site_label
 _atom_site_symmetry_multiplicity
 _atom_site_fract_x
 _atom_site_fract_y
 _atom_site_fract_z
 _atom_site_occupancy
  Li  Li0  1  0.49999200  0.37527300  0.00001700  1
  Li  Li1  1  0.99998600  0.62519300  0.50002800  1
  Li  Li2  1  0.50000800  0.87505000  0.99998600  1
  Li  Li3  1  0.99999000  0.12520400  0.49996300  1
  Li  Li4  1  0.99998000  0.24978700  0.00000300  1
  Li  Li5  1  0.50000700  0.49959200  0.50004900  1
  Li  Li6  1  0.99997800  0.74967400  0.00000800  1
  Li  Li7  1  0.50004100  0.99960700  0.49994000  1
  Ti  Ti8  1  0.99998900  0.37504300  0.50002600  1
  Ti  Ti9  1  0.49998800  0.62493600  0.00002600  1
  Ti  Ti10  1  0.00000300  0.87486100  0.49997800  1
  Ti  Ti11  1  0.49999700  0.12496900  0.99996700  1
  Cr  Cr12  1  0.00000400  0.50015000  0.00005200  1
  Cr  Cr13  1  0.49998600  0.75009700  0.50000900  1
  Cr  Cr14  1  0.00003900  0.99992000  0.99994400  1
  Cr  Cr15  1  0.49998300  0.25018500  0.49999500  1
  O  O16  1  0.00000200  0.48897600  0.50005400  1
  O  O17  1  0.49998500  0.73880500  0.00001400  1
  O  O18  1  0.00003600  0.98863500  0.49994000  1
  O  O19  1  0.49999500  0.23877600  0.99999400  1
  O  O20  1  0.99998300  0.26128600  0.50000900  1
  O  O21  1  0.50000200  0.51117000  0.00005000  1
  O  O22  1  0.99998400  0.76105300  0.49999800  1
  O  O23  1  0.50004500  0.01122900  0.99994700  1
  O  O24  1  0.49998900  0.63033500  0.50003100  1
  O  O25  1  0.00000900  0.88019500  0.99996600  1
  O  O26  1  0.49999900  0.13038200  0.49996900  1
  O  O27  1  0.99999100  0.38034800  0.00003700  1
  O  O28  1  0.00002000  0.11975200  0.99996200  1
  O  O29  1  0.49998900  0.36993200  0.50002500  1
  O  O30  1  0.99999500  0.61981300  0.00003100  1
  O  O31  1  0.50000300  0.86977200  0.49998000  1
