# generated using pymatgen
data_Li7Mn4(P2O7)4
_symmetry_space_group_name_H-M   'P 1'
_cell_length_a   9.89179000
_cell_length_b   9.91363853
_cell_length_c   11.36553480
_cell_angle_alpha   102.93090570
_cell_angle_beta   89.87622870
_cell_angle_gamma   90.55645231
_symmetry_Int_Tables_number   1
_chemical_formula_structural   Li7Mn4(P2O7)4
_chemical_formula_sum   'Li14 Mn8 P16 O56'
_cell_volume   1086.23020128
_cell_formula_units_Z   2
loop_
 _symmetry_equiv_pos_site_id
 _symmetry_equiv_pos_as_xyz
  1  'x, y, z'
loop_
 _atom_site_type_symbol
 _atom_site_label
 _atom_site_symmetry_multiplicity
 _atom_site_fract_x
 _atom_site_fract_y
 _atom_site_fract_z
 _atom_site_occupancy
  Li  Li0  1  0.27947600  0.11211500  0.44613800  1
  Li  Li1  1  0.58672700  0.17925700  0.55014300  1
  Li  Li2  1  0.89000900  0.08693400  0.02741400  1
  Li  Li3  1  0.09532400  0.34211800  0.95857600  1
  Li  Li4  1  0.39274500  0.41355800  0.97281700  1
  Li  Li5  1  0.06764400  0.33816200  0.46015300  1
  Li  Li6  1  0.22060800  0.61173000  0.44888900  1
  Li  Li7  1  0.91952600  0.66328000  0.54351500  1
  Li  Li8  1  0.60750800  0.58658600  0.03123700  1
  Li  Li9  1  0.41331000  0.85279100  0.95841600  1
  Li  Li10  1  0.90931900  0.65394100  0.04241800  1
  Li  Li11  1  0.10621600  0.91453400  0.97161700  1
  Li  Li12  1  0.42336500  0.82954000  0.45594500  1
  Li  Li13  1  0.72009100  0.88789400  0.55194200  1
  Mn  Mn14  1  0.07652300  0.20161600  0.67119300  1
  Mn  Mn15  1  0.78421100  0.25972300  0.82422400  1
  Mn  Mn16  1  0.28889700  0.24186100  0.17553700  1
  Mn  Mn17  1  0.58183600  0.29643400  0.32451300  1
  Mn  Mn18  1  0.42212600  0.70282500  0.67755700  1
  Mn  Mn19  1  0.71564600  0.75705200  0.82580700  1
  Mn  Mn20  1  0.21576500  0.74731400  0.17810300  1
  Mn  Mn21  1  0.91902500  0.79699600  0.32419200  1
  P  P22  1  0.54835200  0.02845800  0.75752300  1
  P  P23  1  0.29385000  0.12035700  0.89077300  1
  P  P24  1  0.06717400  0.06033100  0.24374500  1
  P  P25  1  0.84840000  0.12308400  0.42548300  1
  P  P26  1  0.35130700  0.37674000  0.57247400  1
  P  P27  1  0.56816700  0.44027500  0.75805200  1
  P  P28  1  0.95149400  0.52453300  0.75897800  1
  P  P29  1  0.79291500  0.38047000  0.11025000  1
  P  P30  1  0.20468900  0.61816700  0.89320400  1
  P  P31  1  0.04934400  0.47364600  0.23795600  1
  P  P32  1  0.43257200  0.55974000  0.24432600  1
  P  P33  1  0.64694700  0.61927500  0.42241400  1
  P  P34  1  0.14975800  0.87646900  0.57304000  1
  P  P35  1  0.93179600  0.94126300  0.75556500  1
  P  P36  1  0.70583300  0.88186500  0.10874200  1
  P  P37  1  0.45705200  0.97800700  0.24337200  1
  O  O38  1  0.57888200  0.02056400  0.62514400  1
  O  O39  1  0.16229700  0.02332900  0.55350300  1
  O  O40  1  0.91263300  0.08790900  0.73263700  1
  O  O41  1  0.65095600  0.11681100  0.84503200  1
  O  O42  1  0.40329400  0.10128900  0.78023000  1
  O  O43  1  0.16943300  0.17880300  0.84032900  1
  O  O44  1  0.35319600  0.22856900  0.99768400  1
  O  O45  1  0.73093000  0.01760600  0.07665500  1
  O  O46  1  0.91978400  0.11276900  0.29458100  1
  O  O47  1  0.06443900  0.06392800  0.11107100  1
  O  O48  1  0.46908000  0.13243800  0.22872000  1
  O  O49  1  0.70712600  0.18208900  0.41162400  1
  O  O50  1  0.17336400  0.16492100  0.31189900  1
  O  O51  1  0.93990500  0.21657600  0.51677400  1
  O  O52  1  0.43754900  0.27501800  0.48122000  1
  O  O53  1  0.67159300  0.32851300  0.69763400  1
  O  O54  1  0.21071200  0.31199100  0.57999100  1
  O  O55  1  0.95708300  0.37340900  0.78614000  1
  O  O56  1  0.42111700  0.38541700  0.70305400  1
  O  O57  1  0.56066100  0.44248800  0.89130400  1
  O  O58  1  0.22422600  0.48021900  0.92605800  1
  O  O59  1  0.86023800  0.27664800  0.00003400  1
  O  O60  1  0.67120900  0.32222000  0.16279200  1
  O  O61  1  0.90233000  0.40144100  0.22000300  1
  O  O62  1  0.41817500  0.41393500  0.27186500  1
  O  O63  1  0.14149600  0.38422200  0.14341500  1
  O  O64  1  0.92133300  0.52330100  0.62981300  1
  O  O65  1  0.64795600  0.46770400  0.43267100  1
  O  O66  1  0.34141100  0.52377800  0.55358900  1
  O  O67  1  0.08653200  0.47683800  0.36813100  1
  O  O68  1  0.86287900  0.61324000  0.85711700  1
  O  O69  1  0.59070200  0.58274600  0.72802500  1
  O  O70  1  0.10295400  0.58949500  0.77844300  1
  O  O71  1  0.32989400  0.68353100  0.84857100  1
  O  O72  1  0.13406000  0.72313900  0.99773300  1
  O  O73  1  0.77634300  0.51838000  0.07586300  1
  O  O74  1  0.43233800  0.56319900  0.11207600  1
  O  O75  1  0.57949500  0.62063900  0.29298700  1
  O  O76  1  0.03651600  0.62121000  0.21242400  1
  O  O77  1  0.78917200  0.68040100  0.41842500  1
  O  O78  1  0.32738200  0.66230700  0.31407800  1
  O  O79  1  0.56357100  0.71920200  0.51744800  1
  O  O80  1  0.06245100  0.77493100  0.48171900  1
  O  O81  1  0.82679600  0.83680600  0.68573100  1
  O  O82  1  0.28870100  0.81108300  0.58147000  1
  O  O83  1  0.53569900  0.88295900  0.78812200  1
  O  O84  1  0.93501900  0.93525800  0.88745600  1
  O  O85  1  0.07937600  0.88797000  0.70387300  1
  O  O86  1  0.27526300  0.98031100  0.92114200  1
  O  O87  1  0.63208200  0.77652100  0.00457900  1
  O  O88  1  0.82633400  0.81182300  0.15487700  1
  O  O89  1  0.60249100  0.90794200  0.22512900  1
  O  O90  1  0.36405700  0.89631800  0.14382500  1
  O  O91  1  0.08709800  0.91507800  0.26909000  1
  O  O92  1  0.83432200  0.97504000  0.44428500  1
  O  O93  1  0.41390500  0.97309800  0.37056100  1
