# generated using pymatgen
data_Li6V3P8O29
_symmetry_space_group_name_H-M   'P 1'
_cell_length_a   9.82393811
_cell_length_b   9.82393811
_cell_length_c   13.90658000
_cell_angle_alpha   90.00000000
_cell_angle_beta   90.00000000
_cell_angle_gamma   120.00000074
_symmetry_Int_Tables_number   1
_chemical_formula_structural   Li6V3P8O29
_chemical_formula_sum   'Li12 V6 P16 O58'
_cell_volume   1162.31061077
_cell_formula_units_Z   2
loop_
 _symmetry_equiv_pos_site_id
 _symmetry_equiv_pos_as_xyz
  1  'x, y, z'
loop_
 _atom_site_type_symbol
 _atom_site_label
 _atom_site_symmetry_multiplicity
 _atom_site_fract_x
 _atom_site_fract_y
 _atom_site_fract_z
 _atom_site_occupancy
  Li  Li0  1  0.10174900  0.76297000  0.05657900  1
  Li  Li1  1  0.23727000  0.89601600  0.56604000  1
  Li  Li2  1  0.65874700  0.76273000  0.56604000  1
  Li  Li3  1  0.00000000  0.00000000  0.87923900  1
  Li  Li4  1  0.66122200  0.89825100  0.05657900  1
  Li  Li5  1  0.23703000  0.33877800  0.05657900  1
  Li  Li6  1  0.56111500  0.98902900  0.44387100  1
  Li  Li7  1  0.10398400  0.34125300  0.56604000  1
  Li  Li8  1  0.66666700  0.33333300  0.11141300  1
  Li  Li9  1  0.01097100  0.57208600  0.44387100  1
  Li  Li10  1  0.42791400  0.43888500  0.44387100  1
  Li  Li11  1  0.33333300  0.66666700  0.98599100  1
  V  V12  1  0.76588700  0.09805100  0.25027500  1
  V  V13  1  0.89674500  0.23470400  0.75342600  1
  V  V14  1  0.33795900  0.10325500  0.75342600  1
  V  V15  1  0.33216400  0.23411300  0.25027500  1
  V  V16  1  0.90194900  0.66783600  0.25027500  1
  V  V17  1  0.76529600  0.66204100  0.75342600  1
  P  P18  1  0.10878900  0.75823700  0.84370000  1
  P  P19  1  0.24800700  0.89969500  0.34313800  1
  P  P20  1  0.65168800  0.75199300  0.34313800  1
  P  P21  1  0.00000000  0.00000000  0.12491500  1
  P  P22  1  0.00000000  0.00000000  0.62698100  1
  P  P23  1  0.64944800  0.89121100  0.84370000  1
  P  P24  1  0.56483500  0.98552200  0.65802500  1
  P  P25  1  0.24176300  0.35055200  0.84370000  1
  P  P26  1  0.42115400  0.98048800  0.15710200  1
  P  P27  1  0.10030500  0.34831200  0.34313800  1
  P  P28  1  0.01951200  0.44066600  0.15710200  1
  P  P29  1  0.66666700  0.33333300  0.37316000  1
  P  P30  1  0.66666700  0.33333300  0.87281900  1
  P  P31  1  0.01447800  0.57931200  0.65802500  1
  P  P32  1  0.42068800  0.43516500  0.65802500  1
  P  P33  1  0.55933400  0.57884600  0.15710200  1
  O  O34  1  0.09324800  0.67013700  0.56850100  1
  O  O35  1  0.08290100  0.75191000  0.34092600  1
  O  O36  1  0.32919600  0.88237000  0.07364600  1
  O  O37  1  0.25089500  0.92373200  0.83825400  1
  O  O38  1  0.95931600  0.77263200  0.83005000  1
  O  O39  1  0.00879900  0.85467600  0.16432000  1
  O  O40  1  0.81063600  0.76066700  0.32152900  1
  O  O41  1  0.55317400  0.67080400  0.07364600  1
  O  O42  1  0.67283700  0.74910500  0.83825400  1
  O  O43  1  0.14959500  0.99924900  0.66902800  1
  O  O44  1  0.23933300  0.04996900  0.32152900  1
  O  O45  1  0.84965400  0.85040500  0.66902800  1
  O  O46  1  0.00000000  0.00000000  0.01672100  1
  O  O47  1  0.00000000  0.00000000  0.51949300  1
  O  O48  1  0.84587800  0.99120100  0.16432000  1
  O  O49  1  0.22736800  0.18668400  0.83005000  1
  O  O50  1  0.14532400  0.15412200  0.16432000  1
  O  O51  1  0.66900900  0.91709900  0.34092600  1
  O  O52  1  0.54331500  0.87659300  0.75068600  1
  O  O53  1  0.57688900  0.90675200  0.56850100  1
  O  O54  1  0.56524000  0.88748500  0.93324100  1
  O  O55  1  0.81331600  0.04068400  0.83005000  1
  O  O56  1  0.00075100  0.15034600  0.66902800  1
  O  O57  1  0.59095500  0.00430300  0.16006600  1
  O  O58  1  0.95003100  0.18936400  0.32152900  1
  O  O59  1  0.24809000  0.33099100  0.34092600  1
  O  O60  1  0.34036600  0.88049000  0.25392300  1
  O  O61  1  0.33412000  0.91252500  0.43442600  1
  O  O62  1  0.32986300  0.42311100  0.56850100  1
  O  O63  1  0.41664900  0.00092900  0.65805200  1
  O  O64  1  0.71459600  0.14325500  0.67339400  1
  O  O65  1  0.07626800  0.32716300  0.83825400  1
  O  O66  1  0.66007800  0.17950700  0.33216800  1
  O  O67  1  0.85473200  0.29355200  0.16940700  1
  O  O68  1  0.11763000  0.44682600  0.07364600  1
  O  O69  1  0.08747500  0.42159500  0.43442600  1
  O  O70  1  0.11951000  0.45987600  0.25392300  1
  O  O71  1  0.99907100  0.41572000  0.65805200  1
  O  O72  1  0.51734100  0.18548200  0.83011000  1
  O  O73  1  0.43882000  0.14526800  0.16940700  1
  O  O74  1  0.81451800  0.33185900  0.83011000  1
  O  O75  1  0.66666700  0.33333300  0.98007300  1
  O  O76  1  0.66666700  0.33333300  0.48008600  1
  O  O77  1  0.82049300  0.48057100  0.33216800  1
  O  O78  1  0.42866000  0.28540400  0.67339400  1
  O  O79  1  0.51942900  0.33992200  0.33216800  1
  O  O80  1  0.99569700  0.58665200  0.16006600  1
  O  O81  1  0.12340700  0.66672300  0.75068600  1
  O  O82  1  0.11251500  0.67775500  0.93324100  1
  O  O83  1  0.85674500  0.57134000  0.67339400  1
  O  O84  1  0.66814100  0.48265900  0.83011000  1
  O  O85  1  0.70644800  0.56118000  0.16940700  1
  O  O86  1  0.41334800  0.40904500  0.16006600  1
  O  O87  1  0.32224500  0.43476000  0.93324100  1
  O  O88  1  0.33327700  0.45668500  0.75068600  1
  O  O89  1  0.58428000  0.58335100  0.65805200  1
  O  O90  1  0.57840500  0.66588000  0.43442600  1
  O  O91  1  0.54012400  0.65963400  0.25392300  1
