# generated using pymatgen
data_Li2V3SnO8
_symmetry_space_group_name_H-M   'P 1'
_cell_length_a   6.04750328
_cell_length_b   5.98985297
_cell_length_c   8.64540708
_cell_angle_alpha   90.40930795
_cell_angle_beta   89.98324254
_cell_angle_gamma   90.07664195
_symmetry_Int_Tables_number   1
_chemical_formula_structural   Li2V3SnO8
_chemical_formula_sum   'Li4 V6 Sn2 O16'
_cell_volume   313.15996361
_cell_formula_units_Z   2
loop_
 _symmetry_equiv_pos_site_id
 _symmetry_equiv_pos_as_xyz
  1  'x, y, z'
loop_
 _atom_site_type_symbol
 _atom_site_label
 _atom_site_symmetry_multiplicity
 _atom_site_fract_x
 _atom_site_fract_y
 _atom_site_fract_z
 _atom_site_occupancy
  Li  Li0  1  0.99855500  0.25163500  0.11459500  1
  Li  Li1  1  0.50059600  0.75189100  0.61450200  1
  Li  Li2  1  0.00159700  0.99411300  0.50335900  1
  Li  Li3  1  0.49927100  0.49431500  0.00346100  1
  V  V4  1  0.50076800  0.01183000  0.99612700  1
  V  V5  1  0.22762100  0.75624200  0.25971200  1
  V  V6  1  0.75742800  0.74734000  0.25765800  1
  V  V7  1  0.99919100  0.51183300  0.49614700  1
  V  V8  1  0.74263100  0.24691200  0.75759700  1
  V  V9  1  0.27242700  0.25595800  0.75989300  1
  Sn  Sn10  1  0.00281500  0.76136500  0.88405700  1
  Sn  Sn11  1  0.49727300  0.26175700  0.38415200  1
  O  O12  1  0.01046600  0.51731600  0.25690000  1
  O  O13  1  0.48950400  0.01692700  0.75700900  1
  O  O14  1  0.00544900  0.48683000  0.74598100  1
  O  O15  1  0.49421900  0.98714400  0.24601900  1
  O  O16  1  0.24075100  0.73225200  0.47567100  1
  O  O17  1  0.73218100  0.23761600  0.98108400  1
  O  O18  1  0.76738700  0.73705800  0.48113300  1
  O  O19  1  0.25880300  0.23191700  0.97561400  1
  O  O20  1  0.01509000  0.96717500  0.24672000  1
  O  O21  1  0.48523600  0.46678700  0.74645900  1
  O  O22  1  0.00564500  0.02585100  0.74372500  1
  O  O23  1  0.49441600  0.52604600  0.24369600  1
  O  O24  1  0.22999400  0.25408400  0.51857800  1
  O  O25  1  0.73218600  0.75708100  0.01602800  1
  O  O26  1  0.76828700  0.25666400  0.51573000  1
  O  O27  1  0.27021300  0.75406100  0.01839100  1
