# generated using pymatgen
data_LiB11
_symmetry_space_group_name_H-M   'P 1'
_cell_length_a   5.15503320
_cell_length_b   5.15503320
_cell_length_c   5.15503296
_cell_angle_alpha   55.80643001
_cell_angle_beta   55.80643001
_cell_angle_gamma   55.80642082
_symmetry_Int_Tables_number   1
_chemical_formula_structural   LiB11
_chemical_formula_sum   'Li1 B11'
_cell_volume   87.44865728
_cell_formula_units_Z   1
loop_
 _symmetry_equiv_pos_site_id
 _symmetry_equiv_pos_as_xyz
  1  'x, y, z'
loop_
 _atom_site_type_symbol
 _atom_site_label
 _atom_site_symmetry_multiplicity
 _atom_site_fract_x
 _atom_site_fract_y
 _atom_site_fract_z
 _atom_site_occupancy
  Li  Li0  1  0.46337000  0.46337000  0.46337000  1
  B  B1  1  0.37494400  0.37494400  0.01589000  1
  B  B2  1  0.01589000  0.37494400  0.37494400  1
  B  B3  1  0.37494400  0.01589000  0.37494400  1
  B  B4  1  0.41018000  0.01393100  0.01393100  1
  B  B5  1  0.01393100  0.41018000  0.01393100  1
  B  B6  1  0.01393100  0.01393100  0.41018000  1
  B  B7  1  0.03199600  0.03199600  0.03199600  1
  B  B8  1  0.77795900  0.77795900  0.77795900  1
  B  B9  1  0.41374100  0.79467200  0.79467200  1
  B  B10  1  0.79467200  0.41374100  0.79467200  1
  B  B11  1  0.79467200  0.79467200  0.41374100  1
