# generated using pymatgen
data_Li3MnV(PO4)3
_symmetry_space_group_name_H-M   'P 1'
_cell_length_a   8.66025900
_cell_length_b   8.67673399
_cell_length_c   12.63450724
_cell_angle_alpha   105.55622331
_cell_angle_beta   105.99559300
_cell_angle_gamma   95.61037158
_symmetry_Int_Tables_number   1
_chemical_formula_structural   Li3MnV(PO4)3
_chemical_formula_sum   'Li12 Mn4 V4 P12 O48'
_cell_volume   863.96474206
_cell_formula_units_Z   4
loop_
 _symmetry_equiv_pos_site_id
 _symmetry_equiv_pos_as_xyz
  1  'x, y, z'
loop_
 _atom_site_type_symbol
 _atom_site_label
 _atom_site_symmetry_multiplicity
 _atom_site_fract_x
 _atom_site_fract_y
 _atom_site_fract_z
 _atom_site_occupancy
  Li  Li0  1  0.99999200  0.99912400  0.12659100  1
  Li  Li1  1  0.00149800  0.99270800  0.62506600  1
  Li  Li2  1  0.71063700  0.29320100  0.37715400  1
  Li  Li3  1  0.50074600  0.50223200  0.25133600  1
  Li  Li4  1  0.71023600  0.29252300  0.87512200  1
  Li  Li5  1  0.49952000  0.49976700  0.49825000  1
  Li  Li6  1  0.28958300  0.71107900  0.12580900  1
  Li  Li7  1  0.49960400  0.49908400  0.75017600  1
  Li  Li8  1  0.49850400  0.49900200  0.00014100  1
  Li  Li9  1  0.28563400  0.70761400  0.62244600  1
  Li  Li10  1  0.00133200  0.99978900  0.37545100  1
  Li  Li11  1  0.00287300  0.00566800  0.87312200  1
  Mn  Mn12  1  0.94201800  0.62995700  0.68402900  1
  Mn  Mn13  1  0.62665000  0.94403600  0.43583800  1
  Mn  Mn14  1  0.05729400  0.37661900  0.31515700  1
  Mn  Mn15  1  0.05797200  0.36885000  0.81351300  1
  V  V16  1  0.94323400  0.62355700  0.18091600  1
  V  V17  1  0.37907900  0.05492700  0.07074600  1
  V  V18  1  0.62025200  0.94341400  0.93123000  1
  V  V19  1  0.37809900  0.05693300  0.56891700  1
  P  P20  1  0.71290700  0.29021200  0.12550200  1
  P  P21  1  0.86467600  0.66510100  0.43429500  1
  P  P22  1  0.66160800  0.86097100  0.18397100  1
  P  P23  1  0.71393200  0.29035500  0.62454900  1
  P  P24  1  0.85926400  0.66665000  0.93035300  1
  P  P25  1  0.66374900  0.86824200  0.68226000  1
  P  P26  1  0.33215100  0.13382300  0.31644000  1
  P  P27  1  0.13944900  0.33836100  0.06744600  1
  P  P28  1  0.28822500  0.71317800  0.37522300  1
  P  P29  1  0.33709400  0.13075800  0.81773200  1
  P  P30  1  0.14166800  0.33452000  0.56723000  1
  P  P31  1  0.28386600  0.70840900  0.87462900  1
  O  O32  1  0.98541500  0.66080000  0.04337700  1
  O  O33  1  0.94939400  0.61118200  0.33878800  1
  O  O34  1  0.73962500  0.17518900  0.01760200  1
  O  O35  1  0.98813800  0.65673500  0.54912900  1
  O  O36  1  0.82645000  0.27011000  0.23905100  1
  O  O37  1  0.84436600  0.84290700  0.19696000  1
  O  O38  1  0.73501600  0.46467500  0.11435000  1
  O  O39  1  0.85482400  0.84956500  0.45524400  1
  O  O40  1  0.94484000  0.61538800  0.83452800  1
  O  O41  1  0.73549000  0.17431800  0.51352600  1
  O  O42  1  0.82671300  0.26627900  0.73671900  1
  O  O43  1  0.84764000  0.85985300  0.69702000  1
  O  O44  1  0.70270600  0.54926600  0.39898000  1
  O  O45  1  0.60190100  0.95208700  0.09084900  1
  O  O46  1  0.66539000  0.98381600  0.30096000  1
  O  O47  1  0.53736400  0.26284900  0.13466100  1
  O  O48  1  0.74110200  0.46340700  0.61211500  1
  O  O49  1  0.54322700  0.70190800  0.14844800  1
  O  O50  1  0.83995000  0.84983300  0.94999500  1
  O  O51  1  0.70045100  0.54622400  0.89563200  1
  O  O52  1  0.59825700  0.95559900  0.58671800  1
  O  O53  1  0.44849400  0.29501700  0.35007000  1
  O  O54  1  0.65880700  0.99029300  0.79623700  1
  O  O55  1  0.53915900  0.26638200  0.63494700  1
  O  O56  1  0.46559200  0.73960800  0.36799800  1
  O  O57  1  0.34220900  0.00884800  0.20449400  1
  O  O58  1  0.55074400  0.70565400  0.64773800  1
  O  O59  1  0.38845500  0.05133200  0.41319700  1
  O  O60  1  0.29904300  0.45624300  0.10345000  1
  O  O61  1  0.15751800  0.15619300  0.05392900  1
  O  O62  1  0.45022400  0.29352600  0.85168900  1
  O  O63  1  0.26274000  0.53576000  0.38257000  1
  O  O64  1  0.46130800  0.73423100  0.86838800  1
  O  O65  1  0.34050400  0.00857000  0.70334900  1
  O  O66  1  0.40197700  0.04589700  0.91366600  1
  O  O67  1  0.30094100  0.45453100  0.60328500  1
  O  O68  1  0.14707900  0.14462900  0.29477400  1
  O  O69  1  0.17615100  0.73900600  0.26458900  1
  O  O70  1  0.26142900  0.82316700  0.48511700  1
  O  O71  1  0.04751100  0.39837000  0.16045000  1
  O  O72  1  0.15990200  0.15152700  0.54969800  1
  O  O73  1  0.25766900  0.53356400  0.88496800  1
  O  O74  1  0.15296300  0.13980000  0.80290100  1
  O  O75  1  0.17431300  0.73134100  0.76106000  1
  O  O76  1  0.01791700  0.33736800  0.45172400  1
  O  O77  1  0.25771900  0.82433700  0.98250100  1
  O  O78  1  0.05262900  0.38479400  0.66130500  1
  O  O79  1  0.01539800  0.33735500  0.95061900  1
