# generated using pymatgen
data_LiInN
_symmetry_space_group_name_H-M   'P 1'
_cell_length_a   3.66476400
_cell_length_b   3.66488635
_cell_length_c   4.18683800
_cell_angle_alpha   90.00000000
_cell_angle_beta   90.00000000
_cell_angle_gamma   119.99889566
_symmetry_Int_Tables_number   1
_chemical_formula_structural   LiInN
_chemical_formula_sum   'Li1 In1 N1'
_cell_volume   48.69990856
_cell_formula_units_Z   1
loop_
 _symmetry_equiv_pos_site_id
 _symmetry_equiv_pos_as_xyz
  1  'x, y, z'
loop_
 _atom_site_type_symbol
 _atom_site_label
 _atom_site_symmetry_multiplicity
 _atom_site_fract_x
 _atom_site_fract_y
 _atom_site_fract_z
 _atom_site_occupancy
  Li  Li0  1  0.00001500  0.00002900  0.50000000  1
  In  In1  1  0.66669600  0.33339300  0.00000000  1
  N  N2  1  0.66668900  0.33337800  0.50000000  1
