# generated using pymatgen
data_Li4TiCo5O12
_symmetry_space_group_name_H-M   'P 1'
_cell_length_a   4.94739467
_cell_length_b   10.83547709
_cell_length_c   8.66155457
_cell_angle_alpha   113.29937198
_cell_angle_beta   89.86100944
_cell_angle_gamma   85.07478682
_symmetry_Int_Tables_number   1
_chemical_formula_structural   Li4TiCo5O12
_chemical_formula_sum   'Li8 Ti2 Co10 O24'
_cell_volume   424.54737485
_cell_formula_units_Z   2
loop_
 _symmetry_equiv_pos_site_id
 _symmetry_equiv_pos_as_xyz
  1  'x, y, z'
loop_
 _atom_site_type_symbol
 _atom_site_label
 _atom_site_symmetry_multiplicity
 _atom_site_fract_x
 _atom_site_fract_y
 _atom_site_fract_z
 _atom_site_occupancy
  Li  Li0  1  0.03903600  0.74712100  0.20780400  1
  Li  Li1  1  0.53893400  0.74670700  0.70956900  1
  Li  Li2  1  0.46172700  0.25230900  0.96150500  1
  Li  Li3  1  0.95836800  0.25341500  0.46280700  1
  Li  Li4  1  0.54983100  0.74766700  0.04667700  1
  Li  Li5  1  0.04524700  0.74758500  0.54578000  1
  Li  Li6  1  0.95382500  0.25288500  0.79803800  1
  Li  Li7  1  0.45482200  0.25270900  0.29822400  1
  Ti  Ti8  1  0.99982800  0.99991700  0.00092900  1
  Ti  Ti9  1  0.50000900  0.00001300  0.50118900  1
  Co  Co10  1  0.75087500  0.49980800  0.74643000  1
  Co  Co11  1  0.74880000  0.50004400  0.41117900  1
  Co  Co12  1  0.75066900  0.50078800  0.08021500  1
  Co  Co13  1  0.49986200  0.99985100  0.83392100  1
  Co  Co14  1  0.99980900  0.00012200  0.33406400  1
  Co  Co15  1  0.25091400  0.49994400  0.24599600  1
  Co  Co16  1  0.25172500  0.50037100  0.91476900  1
  Co  Co17  1  0.24902100  0.49896800  0.58337500  1
  Co  Co18  1  0.99989300  0.00002200  0.66713300  1
  Co  Co19  1  0.49978800  0.00011100  0.16713800  1
  O  O20  1  0.41053200  0.60138700  0.79359800  1
  O  O21  1  0.90635300  0.60394000  0.29213500  1
  O  O22  1  0.59419900  0.39547500  0.18717200  1
  O  O23  1  0.08727500  0.39716100  0.69133200  1
  O  O24  1  0.82262800  0.10555400  0.55292400  1
  O  O25  1  0.32248600  0.10564600  0.05299200  1
  O  O26  1  0.17718700  0.89440100  0.44820400  1
  O  O27  1  0.67705800  0.89444300  0.94830700  1
  O  O28  1  0.30993300  0.10560600  0.72399400  1
  O  O29  1  0.80957100  0.10575100  0.22409300  1
  O  O30  1  0.18992100  0.89446600  0.11914100  1
  O  O31  1  0.69019200  0.89420500  0.61920200  1
  O  O32  1  0.80976100  0.10488600  0.88171500  1
  O  O33  1  0.30984200  0.10513400  0.38193600  1
  O  O34  1  0.68989600  0.89523400  0.27771000  1
  O  O35  1  0.18978500  0.89478500  0.77746600  1
  O  O36  1  0.08970200  0.39234700  0.01868700  1
  O  O37  1  0.58488200  0.39299500  0.52350400  1
  O  O38  1  0.61773700  0.39429600  0.87208000  1
  O  O39  1  0.10701500  0.39398100  0.37539700  1
  O  O40  1  0.41381600  0.60866900  0.12780500  1
  O  O41  1  0.91112800  0.60538900  0.63165500  1
  O  O42  1  0.88502300  0.60818500  0.98082600  1
  O  O43  1  0.39109800  0.60570700  0.48138000  1
