# generated using pymatgen
data_LiCoBP2H2O11
_symmetry_space_group_name_H-M   'P 1'
_cell_length_a   9.90601556
_cell_length_b   9.90601556
_cell_length_c   16.39280500
_cell_angle_alpha   90.00000000
_cell_angle_beta   90.00000000
_cell_angle_gamma   119.99999707
_symmetry_Int_Tables_number   1
_chemical_formula_structural   LiCoBP2H2O11
_chemical_formula_sum   'Li6 Co6 B6 P12 H12 O66'
_cell_volume   1393.09883508
_cell_formula_units_Z   6
loop_
 _symmetry_equiv_pos_site_id
 _symmetry_equiv_pos_as_xyz
  1  'x, y, z'
loop_
 _atom_site_type_symbol
 _atom_site_label
 _atom_site_symmetry_multiplicity
 _atom_site_fract_x
 _atom_site_fract_y
 _atom_site_fract_z
 _atom_site_occupancy
  Li  Li0  1  0.22594100  0.45188200  0.25000000  1
  Li  Li1  1  0.54811800  0.77405900  0.58333300  1
  Li  Li2  1  0.77405900  0.54811800  0.75000000  1
  Li  Li3  1  0.45188200  0.22594100  0.08333300  1
  Li  Li4  1  0.22594100  0.77405900  0.91666700  1
  Li  Li5  1  0.77405900  0.22594100  0.41666700  1
  Co  Co6  1  0.51809600  0.03619100  0.25000000  1
  Co  Co7  1  0.96380900  0.48190400  0.58333300  1
  Co  Co8  1  0.48190400  0.96380900  0.75000000  1
  Co  Co9  1  0.03619100  0.51809600  0.08333300  1
  Co  Co10  1  0.51809600  0.48190400  0.91666700  1
  Co  Co11  1  0.48190400  0.51809600  0.41666700  1
  B  B12  1  0.84955300  0.69910700  0.25000000  1
  B  B13  1  0.30089300  0.15044700  0.58333300  1
  B  B14  1  0.15044700  0.30089300  0.75000000  1
  B  B15  1  0.69910700  0.84955300  0.08333300  1
  B  B16  1  0.84955300  0.15044700  0.91666700  1
  B  B17  1  0.15044700  0.84955300  0.41666700  1
  P  P18  1  0.35578900  0.17779800  0.42177300  1
  P  P19  1  0.82220200  0.17799100  0.75510600  1
  P  P20  1  0.64421100  0.82220200  0.92177300  1
  P  P21  1  0.17779800  0.35578900  0.91156100  1
  P  P22  1  0.82200900  0.64421100  0.08843900  1
  P  P23  1  0.17779800  0.82200900  0.25510600  1
  P  P24  1  0.17799100  0.82220200  0.57822700  1
  P  P25  1  0.82220200  0.64421100  0.41156100  1
  P  P26  1  0.17799100  0.35578900  0.58843900  1
  P  P27  1  0.82200900  0.17779800  0.07822700  1
  P  P28  1  0.64421100  0.82200900  0.24489400  1
  P  P29  1  0.35578900  0.17799100  0.74489400  1
  H  H30  1  0.48361800  0.52356500  0.07040500  1
  H  H31  1  0.47643500  0.96005300  0.40373900  1
  H  H32  1  0.51638200  0.47643500  0.57040500  1
  H  H33  1  0.52356500  0.48361800  0.26292800  1
  H  H34  1  0.03994700  0.51638200  0.73707200  1
  H  H35  1  0.52356500  0.03994700  0.90373900  1
  H  H36  1  0.96005300  0.47643500  0.92959500  1
  H  H37  1  0.47643500  0.51638200  0.76292800  1
  H  H38  1  0.96005300  0.48361800  0.23707200  1
  H  H39  1  0.03994700  0.52356500  0.42959500  1
  H  H40  1  0.51638200  0.03994700  0.59626100  1
  H  H41  1  0.48361800  0.96005300  0.09626100  1
  O  O42  1  0.73025200  0.22930800  0.13392700  1
  O  O43  1  0.77069200  0.50094400  0.46726000  1
  O  O44  1  0.26974800  0.77069200  0.63392700  1
  O  O45  1  0.22930800  0.73025200  0.19940600  1
  O  O46  1  0.49905600  0.26974800  0.80059400  1
  O  O47  1  0.22930800  0.49905600  0.96726000  1
  O  O48  1  0.50094400  0.77069200  0.86607300  1
  O  O49  1  0.77069200  0.26974800  0.69940600  1
  O  O50  1  0.50094400  0.73025200  0.30059400  1
  O  O51  1  0.49905600  0.22930800  0.36607300  1
  O  O52  1  0.26974800  0.49905600  0.53274000  1
  O  O53  1  0.73025200  0.50094400  0.03274000  1
  O  O54  1  0.04772000  0.48697100  0.20711700  1
  O  O55  1  0.51302900  0.56074800  0.54045000  1
  O  O56  1  0.95228000  0.51302900  0.70711700  1
  O  O57  1  0.48697100  0.04772000  0.12621600  1
  O  O58  1  0.43925200  0.95228000  0.87378400  1
  O  O59  1  0.48697100  0.43925200  0.04045000  1
  O  O60  1  0.56074800  0.51302900  0.79288300  1
  O  O61  1  0.51302900  0.95228000  0.62621600  1
  O  O62  1  0.56074800  0.04772000  0.37378400  1
  O  O63  1  0.43925200  0.48697100  0.29288300  1
  O  O64  1  0.95228000  0.43925200  0.45955000  1
  O  O65  1  0.04772000  0.56074800  0.95955000  1
  O  O66  1  0.21467500  0.01710900  0.40129400  1
  O  O67  1  0.98289100  0.19756700  0.73462700  1
  O  O68  1  0.78532500  0.98289100  0.90129400  1
  O  O69  1  0.01710900  0.21467500  0.93204000  1
  O  O70  1  0.80243300  0.78532500  0.06796000  1
  O  O71  1  0.01710900  0.80243300  0.23462700  1
  O  O72  1  0.19756700  0.98289100  0.59870600  1
  O  O73  1  0.98289100  0.78532500  0.43204000  1
  O  O74  1  0.19756700  0.21467500  0.56796000  1
  O  O75  1  0.80243300  0.01710900  0.09870600  1
  O  O76  1  0.78532500  0.80243300  0.26537300  1
  O  O77  1  0.21467500  0.19756700  0.76537300  1
  O  O78  1  0.11091800  0.22183700  0.25000000  1
  O  O79  1  0.77816300  0.88908200  0.58333300  1
  O  O80  1  0.88908200  0.77816300  0.75000000  1
  O  O81  1  0.22183700  0.11091800  0.08333300  1
  O  O82  1  0.11091800  0.88908200  0.91666700  1
  O  O83  1  0.88908200  0.11091800  0.41666700  1
  O  O84  1  0.40629100  0.17623600  0.51331000  1
  O  O85  1  0.82376400  0.23005600  0.84664300  1
  O  O86  1  0.59370900  0.82376400  0.01331000  1
  O  O87  1  0.17623600  0.40629100  0.82002300  1
  O  O88  1  0.76994400  0.59370900  0.17997700  1
  O  O89  1  0.17623600  0.76994400  0.34664300  1
  O  O90  1  0.23005600  0.82376400  0.48669000  1
  O  O91  1  0.82376400  0.59370900  0.32002300  1
  O  O92  1  0.23005600  0.40629100  0.67997700  1
  O  O93  1  0.76994400  0.17623600  0.98669000  1
  O  O94  1  0.59370900  0.76994400  0.15335700  1
  O  O95  1  0.40629100  0.23005600  0.65335700  1
  O  O96  1  0.30961400  0.30422100  0.41290900  1
  O  O97  1  0.69577900  0.00539300  0.74624200  1
  O  O98  1  0.69038600  0.69577900  0.91290900  1
  O  O99  1  0.30422100  0.30961400  0.92042400  1
  O  O100  1  0.99460700  0.69038600  0.07957600  1
  O  O101  1  0.30422100  0.99460700  0.24624200  1
  O  O102  1  0.00539300  0.69577900  0.58709100  1
  O  O103  1  0.69577900  0.69038600  0.42042400  1
  O  O104  1  0.00539300  0.30961400  0.57957600  1
  O  O105  1  0.99460700  0.30422100  0.08709100  1
  O  O106  1  0.69038600  0.99460700  0.25375800  1
  O  O107  1  0.30961400  0.00539300  0.75375800  1
