# generated using pymatgen
data_Li22Sn5
_symmetry_space_group_name_H-M   'P 1'
_cell_length_a   13.94793865
_cell_length_b   13.94793865
_cell_length_c   13.94793865
_cell_angle_alpha   60.00000000
_cell_angle_beta   60.00000000
_cell_angle_gamma   60.00000000
_symmetry_Int_Tables_number   1
_chemical_formula_structural   Li22Sn5
_chemical_formula_sum   'Li88 Sn20'
_cell_volume   1918.73539539
_cell_formula_units_Z   4
loop_
 _symmetry_equiv_pos_site_id
 _symmetry_equiv_pos_as_xyz
  1  'x, y, z'
loop_
 _atom_site_type_symbol
 _atom_site_label
 _atom_site_symmetry_multiplicity
 _atom_site_fract_x
 _atom_site_fract_y
 _atom_site_fract_z
 _atom_site_occupancy
  Li  Li0  1  0.07525600  0.07525600  0.07525600  1
  Li  Li1  1  0.07525600  0.07525600  0.77423200  1
  Li  Li2  1  0.07525600  0.77423200  0.07525600  1
  Li  Li3  1  0.77423200  0.07525600  0.07525600  1
  Li  Li4  1  0.83189900  0.83189900  0.83189900  1
  Li  Li5  1  0.83189900  0.83189900  0.50430200  1
  Li  Li6  1  0.83189900  0.50430200  0.83189900  1
  Li  Li7  1  0.50430200  0.83189900  0.83189900  1
  Li  Li8  1  0.41785900  0.41785900  0.41785900  1
  Li  Li9  1  0.41785900  0.41785900  0.74642200  1
  Li  Li10  1  0.41785900  0.74642200  0.41785900  1
  Li  Li11  1  0.74642200  0.41785900  0.41785900  1
  Li  Li12  1  0.32345000  0.32345000  0.32345000  1
  Li  Li13  1  0.32345000  0.32345000  0.02965100  1
  Li  Li14  1  0.32345000  0.02965100  0.32345000  1
  Li  Li15  1  0.02965100  0.32345000  0.32345000  1
  Li  Li16  1  0.83110300  0.16889700  0.16889700  1
  Li  Li17  1  0.16889700  0.83110300  0.83110300  1
  Li  Li18  1  0.16889700  0.83110300  0.16889700  1
  Li  Li19  1  0.83110300  0.16889700  0.83110300  1
  Li  Li20  1  0.16889700  0.16889700  0.83110300  1
  Li  Li21  1  0.83110300  0.83110300  0.16889700  1
  Li  Li22  1  0.00000000  0.00000000  0.00000000  1
  Li  Li23  1  0.00268000  0.00268000  0.32616000  1
  Li  Li24  1  0.00268000  0.00268000  0.66848000  1
  Li  Li25  1  0.32616000  0.66848000  0.00268000  1
  Li  Li26  1  0.32616000  0.00268000  0.00268000  1
  Li  Li27  1  0.66848000  0.32616000  0.00268000  1
  Li  Li28  1  0.66848000  0.00268000  0.00268000  1
  Li  Li29  1  0.00268000  0.32616000  0.66848000  1
  Li  Li30  1  0.00268000  0.66848000  0.32616000  1
  Li  Li31  1  0.00268000  0.32616000  0.00268000  1
  Li  Li32  1  0.66848000  0.00268000  0.32616000  1
  Li  Li33  1  0.32616000  0.00268000  0.66848000  1
  Li  Li34  1  0.00268000  0.66848000  0.00268000  1
  Li  Li35  1  0.42164500  0.07835500  0.07835500  1
  Li  Li36  1  0.07835500  0.42164500  0.42164500  1
  Li  Li37  1  0.07835500  0.42164500  0.07835500  1
  Li  Li38  1  0.42164500  0.07835500  0.42164500  1
  Li  Li39  1  0.07835500  0.07835500  0.42164500  1
  Li  Li40  1  0.42164500  0.42164500  0.07835500  1
  Li  Li41  1  0.75000000  0.75000000  0.75000000  1
  Li  Li42  1  0.75715100  0.75715100  0.42284600  1
  Li  Li43  1  0.75715100  0.75715100  0.06285200  1
  Li  Li44  1  0.42284600  0.06285200  0.75715100  1
  Li  Li45  1  0.42284600  0.75715100  0.75715100  1
  Li  Li46  1  0.06285200  0.42284600  0.75715100  1
  Li  Li47  1  0.06285200  0.75715100  0.75715100  1
  Li  Li48  1  0.75715100  0.42284600  0.06285200  1
  Li  Li49  1  0.75715100  0.06285200  0.42284600  1
  Li  Li50  1  0.75715100  0.42284600  0.75715100  1
  Li  Li51  1  0.06285200  0.75715100  0.42284600  1
  Li  Li52  1  0.42284600  0.75715100  0.06285200  1
  Li  Li53  1  0.75715100  0.06285200  0.75715100  1
  Li  Li54  1  0.67277300  0.67277300  0.67277300  1
  Li  Li55  1  0.67277300  0.67277300  0.98168000  1
  Li  Li56  1  0.67277300  0.98168000  0.67277300  1
  Li  Li57  1  0.98168000  0.67277300  0.67277300  1
  Li  Li58  1  0.25512200  0.25512200  0.91876600  1
  Li  Li59  1  0.25512200  0.25512200  0.57099000  1
  Li  Li60  1  0.91876600  0.57099000  0.25512200  1
  Li  Li61  1  0.91876600  0.25512200  0.25512200  1
  Li  Li62  1  0.57099000  0.91876600  0.25512200  1
  Li  Li63  1  0.57099000  0.25512200  0.25512200  1
  Li  Li64  1  0.25512200  0.91876600  0.57099000  1
  Li  Li65  1  0.25512200  0.57099000  0.91876600  1
  Li  Li66  1  0.25512200  0.91876600  0.25512200  1
  Li  Li67  1  0.57099000  0.25512200  0.91876600  1
  Li  Li68  1  0.91876600  0.25512200  0.57099000  1
  Li  Li69  1  0.25512200  0.57099000  0.25512200  1
  Li  Li70  1  0.50457500  0.50457500  0.81270300  1
  Li  Li71  1  0.50457500  0.50457500  0.17814700  1
  Li  Li72  1  0.81270300  0.17814700  0.50457500  1
  Li  Li73  1  0.81270300  0.50457500  0.50457500  1
  Li  Li74  1  0.17814700  0.81270300  0.50457500  1
  Li  Li75  1  0.17814700  0.50457500  0.50457500  1
  Li  Li76  1  0.50457500  0.81270300  0.17814700  1
  Li  Li77  1  0.50457500  0.17814700  0.81270300  1
  Li  Li78  1  0.50457500  0.81270300  0.50457500  1
  Li  Li79  1  0.17814700  0.50457500  0.81270300  1
  Li  Li80  1  0.81270300  0.50457500  0.17814700  1
  Li  Li81  1  0.50457500  0.17814700  0.50457500  1
  Li  Li82  1  0.50000000  0.50000000  0.50000000  1
  Li  Li83  1  0.25000000  0.25000000  0.25000000  1
  Li  Li84  1  0.57685600  0.57685600  0.57685600  1
  Li  Li85  1  0.57685600  0.57685600  0.26943100  1
  Li  Li86  1  0.57685600  0.26943100  0.57685600  1
  Li  Li87  1  0.26943100  0.57685600  0.57685600  1
  Sn  Sn88  1  0.16168000  0.16168000  0.16168000  1
  Sn  Sn89  1  0.16168000  0.16168000  0.51496000  1
  Sn  Sn90  1  0.16168000  0.51496000  0.16168000  1
  Sn  Sn91  1  0.51496000  0.16168000  0.16168000  1
  Sn  Sn92  1  0.92545400  0.57454600  0.57454600  1
  Sn  Sn93  1  0.57454600  0.92545400  0.92545400  1
  Sn  Sn94  1  0.57454600  0.92545400  0.57454600  1
  Sn  Sn95  1  0.92545400  0.57454600  0.92545400  1
  Sn  Sn96  1  0.57454600  0.57454600  0.92545400  1
  Sn  Sn97  1  0.92545400  0.92545400  0.57454600  1
  Sn  Sn98  1  0.67622400  0.32377600  0.32377600  1
  Sn  Sn99  1  0.32377600  0.67622400  0.67622400  1
  Sn  Sn100  1  0.32377600  0.67622400  0.32377600  1
  Sn  Sn101  1  0.67622400  0.32377600  0.67622400  1
  Sn  Sn102  1  0.32377600  0.32377600  0.67622400  1
  Sn  Sn103  1  0.67622400  0.67622400  0.32377600  1
  Sn  Sn104  1  0.91657200  0.91657200  0.91657200  1
  Sn  Sn105  1  0.91657200  0.91657200  0.25028400  1
  Sn  Sn106  1  0.91657200  0.25028400  0.91657200  1
  Sn  Sn107  1  0.25028400  0.91657200  0.91657200  1
