# generated using pymatgen
data_Li2Zn2W2O9
_symmetry_space_group_name_H-M   'P 1'
_cell_length_a   5.22400025
_cell_length_b   5.22400025
_cell_length_c   14.42222800
_cell_angle_alpha   90.00000000
_cell_angle_beta   90.00000000
_cell_angle_gamma   120.00000319
_symmetry_Int_Tables_number   1
_chemical_formula_structural   Li2Zn2W2O9
_chemical_formula_sum   'Li4 Zn4 W4 O18'
_cell_volume   340.85475206
_cell_formula_units_Z   2
loop_
 _symmetry_equiv_pos_site_id
 _symmetry_equiv_pos_as_xyz
  1  'x, y, z'
loop_
 _atom_site_type_symbol
 _atom_site_label
 _atom_site_symmetry_multiplicity
 _atom_site_fract_x
 _atom_site_fract_y
 _atom_site_fract_z
 _atom_site_occupancy
  Li  Li0  1  0.33333300  0.66666700  0.51859300  1
  Li  Li1  1  0.66666700  0.33333300  0.48140700  1
  Li  Li2  1  0.66666700  0.33333300  0.98140700  1
  Li  Li3  1  0.33333300  0.66666700  0.01859300  1
  Zn  Zn4  1  0.33333300  0.66666700  0.80706100  1
  Zn  Zn5  1  0.66666700  0.33333300  0.19293900  1
  Zn  Zn6  1  0.66666700  0.33333300  0.69293900  1
  Zn  Zn7  1  0.33333300  0.66666700  0.30706100  1
  W  W8  1  0.00000000  0.00000000  0.64120800  1
  W  W9  1  0.00000000  0.00000000  0.35879200  1
  W  W10  1  0.00000000  0.00000000  0.85879200  1
  W  W11  1  0.00000000  0.00000000  0.14120800  1
  O  O12  1  0.28171500  0.00000000  0.75000000  1
  O  O13  1  0.71828500  0.00000000  0.25000000  1
  O  O14  1  0.00000000  0.28171500  0.75000000  1
  O  O15  1  0.00000000  0.71828500  0.25000000  1
  O  O16  1  0.71828500  0.71828500  0.75000000  1
  O  O17  1  0.28171500  0.28171500  0.25000000  1
  O  O18  1  0.33083600  0.30532300  0.58802800  1
  O  O19  1  0.66916400  0.69467700  0.41197200  1
  O  O20  1  0.69467700  0.02551300  0.58802800  1
  O  O21  1  0.30532300  0.33083600  0.91197200  1
  O  O22  1  0.30532300  0.97448700  0.41197200  1
  O  O23  1  0.69467700  0.66916400  0.08802800  1
  O  O24  1  0.97448700  0.66916400  0.58802800  1
  O  O25  1  0.02551300  0.69467700  0.91197200  1
  O  O26  1  0.02551300  0.33083600  0.41197200  1
  O  O27  1  0.97448700  0.30532300  0.08802800  1
  O  O28  1  0.66916400  0.97448700  0.91197200  1
  O  O29  1  0.33083600  0.02551300  0.08802800  1
