# generated using pymatgen
data_Li2V3CoO8
_symmetry_space_group_name_H-M   'P 1'
_cell_length_a   5.91570021
_cell_length_b   5.91550480
_cell_length_c   10.16781681
_cell_angle_alpha   88.29467957
_cell_angle_beta   109.13279772
_cell_angle_gamma   119.22241578
_symmetry_Int_Tables_number   1
_chemical_formula_structural   Li2V3CoO8
_chemical_formula_sum   'Li4 V6 Co2 O16'
_cell_volume   289.69465135
_cell_formula_units_Z   2
loop_
 _symmetry_equiv_pos_site_id
 _symmetry_equiv_pos_as_xyz
  1  'x, y, z'
loop_
 _atom_site_type_symbol
 _atom_site_label
 _atom_site_symmetry_multiplicity
 _atom_site_fract_x
 _atom_site_fract_y
 _atom_site_fract_z
 _atom_site_occupancy
  Li  Li0  1  0.87520000  0.43667000  0.31192000  1
  Li  Li1  1  0.87539800  0.93672300  0.81217600  1
  Li  Li2  1  0.12462500  0.06330900  0.18789900  1
  Li  Li3  1  0.12486900  0.56321500  0.68804100  1
  V  V4  1  0.50004100  0.99999600  0.50001100  1
  V  V5  1  0.50003000  0.50011000  0.49998200  1
  V  V6  1  0.99989900  0.99998400  0.49997900  1
  V  V7  1  0.49999900  0.50002300  0.00007000  1
  V  V8  1  0.49984800  0.99986800  0.99992500  1
  V  V9  1  0.99998000  0.50000300  0.99993800  1
  Co  Co10  1  0.49981600  0.75016600  0.24996200  1
  Co  Co11  1  0.50019700  0.24980100  0.74999000  1
  O  O12  1  0.25449500  0.13702800  0.39183900  1
  O  O13  1  0.25454500  0.63673300  0.89171400  1
  O  O14  1  0.74535000  0.36310300  0.10821400  1
  O  O15  1  0.74564400  0.86310100  0.60830300  1
  O  O16  1  0.73861800  0.08625800  0.37740700  1
  O  O17  1  0.73894500  0.58638800  0.87756400  1
  O  O18  1  0.74111400  0.64266400  0.38387100  1
  O  O19  1  0.74107300  0.14248000  0.88384800  1
  O  O20  1  0.29104500  0.63842100  0.37737000  1
  O  O21  1  0.29104800  0.13824400  0.87747800  1
  O  O22  1  0.70893200  0.86178500  0.12248500  1
  O  O23  1  0.70899400  0.36164900  0.62265000  1
  O  O24  1  0.25879900  0.85736400  0.11610400  1
  O  O25  1  0.25897200  0.35736900  0.61618600  1
  O  O26  1  0.26103300  0.41368000  0.12243300  1
  O  O27  1  0.26149200  0.91386600  0.62263800  1
