# generated using pymatgen
data_Li7Mn4CoO12
_symmetry_space_group_name_H-M   'P 1'
_cell_length_a   5.91780628
_cell_length_b   10.12160007
_cell_length_c   7.76780257
_cell_angle_alpha   77.15893475
_cell_angle_beta   79.31854813
_cell_angle_gamma   74.40443674
_symmetry_Int_Tables_number   1
_chemical_formula_structural   Li7Mn4CoO12
_chemical_formula_sum   'Li14 Mn8 Co2 O24'
_cell_volume   433.01007637
_cell_formula_units_Z   2
loop_
 _symmetry_equiv_pos_site_id
 _symmetry_equiv_pos_as_xyz
  1  'x, y, z'
loop_
 _atom_site_type_symbol
 _atom_site_label
 _atom_site_symmetry_multiplicity
 _atom_site_fract_x
 _atom_site_fract_y
 _atom_site_fract_z
 _atom_site_occupancy
  Li  Li0  1  0.17063200  0.99550500  0.33251500  1
  Li  Li1  1  0.16276000  0.50485800  0.33424000  1
  Li  Li2  1  0.66681100  0.24983500  0.83232800  1
  Li  Li3  1  0.66772500  0.74934400  0.83426700  1
  Li  Li4  1  0.16635400  0.25006300  0.83226200  1
  Li  Li5  1  0.16711800  0.75001400  0.83458600  1
  Li  Li6  1  0.33348900  0.25186100  0.15400700  1
  Li  Li7  1  0.32885900  0.75392500  0.15581500  1
  Li  Li8  1  0.99966100  0.24793000  0.50978800  1
  Li  Li9  1  0.00469200  0.74654700  0.51330100  1
  Li  Li10  1  0.49597900  0.00604700  0.99384100  1
  Li  Li11  1  0.50243100  0.50132100  0.99198700  1
  Li  Li12  1  0.83803500  0.49428600  0.67224200  1
  Li  Li13  1  0.83027500  0.99753300  0.67536800  1
  Mn  Mn14  1  0.99596700  0.00415200  0.99552300  1
  Mn  Mn15  1  0.00428600  0.49818300  0.99836200  1
  Mn  Mn16  1  0.32898000  0.00178400  0.66844500  1
  Mn  Mn17  1  0.33750900  0.49595600  0.67081900  1
  Mn  Mn18  1  0.83428200  0.25041400  0.16431400  1
  Mn  Mn19  1  0.82945500  0.75196200  0.16408200  1
  Mn  Mn20  1  0.49807100  0.24969300  0.50072600  1
  Mn  Mn21  1  0.50432300  0.74804600  0.50427500  1
  Co  Co22  1  0.66252200  0.50342600  0.32664800  1
  Co  Co23  1  0.67090700  0.99670400  0.33996700  1
  O  O24  1  0.98920400  0.37199400  0.23470700  1
  O  O25  1  0.99202100  0.87491100  0.22986400  1
  O  O26  1  0.34223100  0.12800000  0.43117300  1
  O  O27  1  0.34304200  0.62532600  0.43752500  1
  O  O28  1  0.81223600  0.14209800  0.41010100  1
  O  O29  1  0.81443200  0.63950300  0.40588400  1
  O  O30  1  0.52055900  0.35811300  0.25518000  1
  O  O31  1  0.51906800  0.86057800  0.26235900  1
  O  O32  1  0.13125200  0.12576300  0.09033500  1
  O  O33  1  0.12763600  0.62828200  0.09052000  1
  O  O34  1  0.20135800  0.37483800  0.57490800  1
  O  O35  1  0.20606900  0.87127600  0.57754000  1
  O  O36  1  0.64214100  0.37485700  0.57859700  1
  O  O37  1  0.66794200  0.85951400  0.58374000  1
  O  O38  1  0.69057000  0.12522800  0.08598100  1
  O  O39  1  0.66587900  0.64050200  0.08516900  1
  O  O40  1  0.49359800  0.12631900  0.72687900  1
  O  O41  1  0.50055100  0.62065100  0.72992200  1
  O  O42  1  0.83904400  0.37421900  0.93862300  1
  O  O43  1  0.83338300  0.87890300  0.93792700  1
  O  O44  1  0.34640700  0.38214700  0.89725600  1
  O  O45  1  0.30203900  0.89742200  0.91513300  1
  O  O46  1  0.98668000  0.11745400  0.76836100  1
  O  O47  1  0.03153200  0.60271000  0.75260800  1
