# generated using pymatgen
data_Li5Cr(CO3)4
_symmetry_space_group_name_H-M   'P 1'
_cell_length_a   9.25913900
_cell_length_b   8.48216100
_cell_length_c   11.35884781
_cell_angle_alpha   87.97968009
_cell_angle_beta   90.00000000
_cell_angle_gamma   90.00000000
_symmetry_Int_Tables_number   1
_chemical_formula_structural   Li5Cr(CO3)4
_chemical_formula_sum   'Li20 Cr4 C16 O48'
_cell_volume   891.54105914
_cell_formula_units_Z   4
loop_
 _symmetry_equiv_pos_site_id
 _symmetry_equiv_pos_as_xyz
  1  'x, y, z'
loop_
 _atom_site_type_symbol
 _atom_site_label
 _atom_site_symmetry_multiplicity
 _atom_site_fract_x
 _atom_site_fract_y
 _atom_site_fract_z
 _atom_site_occupancy
  Li  Li0  1  0.36788100  0.43868500  0.06655700  1
  Li  Li1  1  0.13211900  0.93868500  0.06655700  1
  Li  Li2  1  0.86736200  0.43301300  0.11068800  1
  Li  Li3  1  0.63263800  0.93301300  0.11068800  1
  Li  Li4  1  0.10545500  0.29283200  0.21721500  1
  Li  Li5  1  0.39454500  0.79283200  0.21721500  1
  Li  Li6  1  0.32428700  0.48334000  0.35152300  1
  Li  Li7  1  0.17571300  0.98334000  0.35152300  1
  Li  Li8  1  0.91169200  0.44208800  0.39964600  1
  Li  Li9  1  0.58830800  0.94208800  0.39964600  1
  Li  Li10  1  0.41169200  0.05791200  0.60035400  1
  Li  Li11  1  0.08830800  0.55791200  0.60035400  1
  Li  Li12  1  0.82428700  0.01666000  0.64847700  1
  Li  Li13  1  0.67571300  0.51666000  0.64847700  1
  Li  Li14  1  0.60545500  0.20716800  0.78278500  1
  Li  Li15  1  0.89454500  0.70716800  0.78278500  1
  Li  Li16  1  0.36736200  0.06698700  0.88931200  1
  Li  Li17  1  0.13263800  0.56698700  0.88931200  1
  Li  Li18  1  0.86788100  0.06131500  0.93344300  1
  Li  Li19  1  0.63211900  0.56131500  0.93344300  1
  Cr  Cr20  1  0.62121900  0.28378300  0.26654000  1
  Cr  Cr21  1  0.87878100  0.78378300  0.26654000  1
  Cr  Cr22  1  0.12121900  0.21621700  0.73346000  1
  Cr  Cr23  1  0.37878100  0.71621700  0.73346000  1
  C  C24  1  0.61143900  0.24685200  0.01564600  1
  C  C25  1  0.88856100  0.74685200  0.01564600  1
  C  C26  1  0.36626200  0.12417500  0.20430900  1
  C  C27  1  0.13373800  0.62417500  0.20430900  1
  C  C28  1  0.84952400  0.11156100  0.28435500  1
  C  C29  1  0.65047600  0.61156100  0.28435500  1
  C  C30  1  0.15068600  0.25388100  0.48209200  1
  C  C31  1  0.34931400  0.75388100  0.48209200  1
  C  C32  1  0.65068600  0.24611900  0.51790800  1
  C  C33  1  0.84931400  0.74611900  0.51790800  1
  C  C34  1  0.34952400  0.38843900  0.71564500  1
  C  C35  1  0.15047600  0.88843900  0.71564500  1
  C  C36  1  0.86626200  0.37582500  0.79569100  1
  C  C37  1  0.63373800  0.87582500  0.79569100  1
  C  C38  1  0.11143900  0.25314800  0.98435400  1
  C  C39  1  0.38856100  0.75314800  0.98435400  1
  O  O40  1  0.17706400  0.38160300  0.00425900  1
  O  O41  1  0.32293600  0.88160300  0.00425900  1
  O  O42  1  0.99684600  0.20827800  0.04059900  1
  O  O43  1  0.50315400  0.70827800  0.04059900  1
  O  O44  1  0.66368600  0.34385000  0.09653500  1
  O  O45  1  0.83631400  0.84385000  0.09653500  1
  O  O46  1  0.22875700  0.10158000  0.19749600  1
  O  O47  1  0.27124300  0.60158000  0.19749600  1
  O  O48  1  0.45861900  0.01403000  0.19815900  1
  O  O49  1  0.04138100  0.51403000  0.19815900  1
  O  O50  1  0.41242800  0.27060300  0.22027200  1
  O  O51  1  0.08757200  0.77060300  0.22027200  1
  O  O52  1  0.86486200  0.26228600  0.29363600  1
  O  O53  1  0.72028300  0.06584500  0.25670900  1
  O  O54  1  0.63513800  0.76228600  0.29363600  1
  O  O55  1  0.77971700  0.56584500  0.25670900  1
  O  O56  1  0.95096600  0.00988600  0.30087100  1
  O  O57  1  0.54903400  0.50988600  0.30087100  1
  O  O58  1  0.14886000  0.34260800  0.38771600  1
  O  O59  1  0.35114000  0.84260800  0.38771600  1
  O  O60  1  0.57345800  0.19363200  0.42794200  1
  O  O61  1  0.92654200  0.69363200  0.42794200  1
  O  O62  1  0.71851000  0.37718800  0.50717800  1
  O  O63  1  0.78149000  0.87718800  0.50717800  1
  O  O64  1  0.21851000  0.12281200  0.49282200  1
  O  O65  1  0.28149000  0.62281200  0.49282200  1
  O  O66  1  0.07345800  0.30636800  0.57205800  1
  O  O67  1  0.42654200  0.80636800  0.57205800  1
  O  O68  1  0.64886000  0.15739200  0.61228400  1
  O  O69  1  0.85114000  0.65739200  0.61228400  1
  O  O70  1  0.45096600  0.49011400  0.69912900  1
  O  O71  1  0.04903400  0.99011400  0.69912900  1
  O  O72  1  0.22028300  0.43415500  0.74329100  1
  O  O73  1  0.36486200  0.23771400  0.70636400  1
  O  O74  1  0.27971700  0.93415500  0.74329100  1
  O  O75  1  0.13513800  0.73771400  0.70636400  1
  O  O76  1  0.91242800  0.22939700  0.77972800  1
  O  O77  1  0.58757200  0.72939700  0.77972800  1
  O  O78  1  0.95861900  0.48597000  0.80184100  1
  O  O79  1  0.54138100  0.98597000  0.80184100  1
  O  O80  1  0.72875700  0.39842000  0.80250400  1
  O  O81  1  0.77124300  0.89842000  0.80250400  1
  O  O82  1  0.16368600  0.15615000  0.90346500  1
  O  O83  1  0.33631400  0.65615000  0.90346500  1
  O  O84  1  0.49684600  0.29172200  0.95940100  1
  O  O85  1  0.00315400  0.79172200  0.95940100  1
  O  O86  1  0.67706400  0.11839700  0.99574100  1
  O  O87  1  0.82293600  0.61839700  0.99574100  1
