# generated using pymatgen
data_LiRuN2
_symmetry_space_group_name_H-M   'P 1'
_cell_length_a   5.62574664
_cell_length_b   6.61799482
_cell_length_c   5.33273337
_cell_angle_alpha   90.00000000
_cell_angle_beta   90.00000000
_cell_angle_gamma   90.00000000
_symmetry_Int_Tables_number   1
_chemical_formula_structural   LiRuN2
_chemical_formula_sum   'Li4 Ru4 N8'
_cell_volume   198.54386065
_cell_formula_units_Z   4
loop_
 _symmetry_equiv_pos_site_id
 _symmetry_equiv_pos_as_xyz
  1  'x, y, z'
loop_
 _atom_site_type_symbol
 _atom_site_label
 _atom_site_symmetry_multiplicity
 _atom_site_fract_x
 _atom_site_fract_y
 _atom_site_fract_z
 _atom_site_occupancy
  Li  Li0  1  0.58123165  0.37726081  0.00088936  1
  Li  Li1  1  0.41876835  0.62273919  0.50088936  1
  Li  Li2  1  0.91876835  0.87726081  0.50088936  1
  Li  Li3  1  0.08123165  0.12273919  0.00088936  1
  Ru  Ru4  1  0.57404474  0.87325698  0.00589319  1
  Ru  Ru5  1  0.42595526  0.12674302  0.50589319  1
  Ru  Ru6  1  0.92595526  0.37325698  0.50589319  1
  Ru  Ru7  1  0.07404474  0.62674302  0.00589319  1
  N  N8  1  0.60466875  0.35580226  0.40508211  1
  N  N9  1  0.39533125  0.64419774  0.90508211  1
  N  N10  1  0.89533125  0.85580226  0.90508211  1
  N  N11  1  0.10466875  0.14419774  0.40508211  1
  N  N12  1  0.56123304  0.89619413  0.35813634  1
  N  N13  1  0.43876696  0.10380587  0.85813634  1
  N  N14  1  0.93876696  0.39619413  0.85813634  1
  N  N15  1  0.06123304  0.60380587  0.35813634  1
