# generated using pymatgen
data_Li7V3P8O29
_symmetry_space_group_name_H-M   'P 1'
_cell_length_a   9.82974300
_cell_length_b   9.84234840
_cell_length_c   13.91904220
_cell_angle_alpha   89.80815344
_cell_angle_beta   89.72971473
_cell_angle_gamma   60.21379073
_symmetry_Int_Tables_number   1
_chemical_formula_structural   Li7V3P8O29
_chemical_formula_sum   'Li14 V6 P16 O58'
_cell_volume   1168.71153734
_cell_formula_units_Z   2
loop_
 _symmetry_equiv_pos_site_id
 _symmetry_equiv_pos_as_xyz
  1  'x, y, z'
loop_
 _atom_site_type_symbol
 _atom_site_label
 _atom_site_symmetry_multiplicity
 _atom_site_fract_x
 _atom_site_fract_y
 _atom_site_fract_z
 _atom_site_occupancy
  Li  Li0  1  0.23375200  0.09285000  0.56490000  1
  Li  Li1  1  0.09414900  0.66893200  0.56613500  1
  Li  Li2  1  0.33011300  0.33357400  0.38542800  1
  Li  Li3  1  0.33480700  0.32742700  0.88428400  1
  Li  Li4  1  0.23246300  0.68063500  0.06057500  1
  Li  Li5  1  0.67704500  0.08945000  0.06305100  1
  Li  Li6  1  0.33234400  0.76454300  0.44428300  1
  Li  Li7  1  0.67333200  0.23220300  0.56752300  1
  Li  Li8  1  0.33584900  0.89958400  0.93386800  1
  Li  Li9  1  0.76363500  0.33924900  0.93463300  1
  Li  Li10  1  0.90209500  0.33020100  0.43942600  1
  Li  Li11  1  0.89313700  0.76836600  0.94008200  1
  Li  Li12  1  0.01365200  0.04415300  0.00355800  1
  Li  Li13  1  0.96828300  0.97411500  0.49675200  1
  V  V14  1  0.44078500  0.56176000  0.24860500  1
  V  V15  1  0.56551400  0.43461500  0.74867800  1
  V  V16  1  0.43651600  0.99994100  0.74746800  1
  V  V17  1  0.56462400  0.99549900  0.25179600  1
  V  V18  1  0.00299600  0.43569400  0.24645500  1
  V  V19  1  0.99470400  0.56583300  0.75060800  1
  P  P20  1  0.08663600  0.22054000  0.84042700  1
  P  P21  1  0.22301800  0.08862800  0.34012500  1
  P  P22  1  0.09270600  0.68547700  0.34487600  1
  P  P23  1  0.33696100  0.33294000  0.12904300  1
  P  P24  1  0.32940200  0.33566700  0.62559200  1
  P  P25  1  0.22363600  0.68128100  0.84267300  1
  P  P26  1  0.31219000  0.77243900  0.65668800  1
  P  P27  1  0.68369100  0.08951000  0.84738300  1
  P  P28  1  0.31152400  0.91397900  0.15395400  1
  P  P29  1  0.68342600  0.22255300  0.34219300  1
  P  P30  1  0.77722000  0.31095000  0.15762700  1
  P  P31  1  0.66776700  0.66435500  0.37016400  1
  P  P32  1  0.66628500  0.66809800  0.87391300  1
  P  P33  1  0.91801800  0.31226300  0.65324600  1
  P  P34  1  0.77841500  0.91563000  0.65999600  1
  P  P35  1  0.91508900  0.77429400  0.16008600  1
  O  O36  1  0.00440900  0.23231600  0.56153700  1
  O  O37  1  0.07778900  0.25351500  0.34173800  1
  O  O38  1  0.22179800  0.98847200  0.06394100  1
  O  O39  1  0.25279700  0.08038200  0.84504500  1
  O  O40  1  0.09705600  0.37339800  0.83193200  1
  O  O41  1  0.18981000  0.33394300  0.17569600  1
  O  O42  1  0.10352800  0.52348300  0.33260700  1
  O  O43  1  0.00371100  0.77239500  0.07090500  1
  O  O44  1  0.07544600  0.66384600  0.84462100  1
  O  O45  1  0.31802700  0.19263600  0.66310900  1
  O  O46  1  0.37023400  0.10823200  0.32694300  1
  O  O47  1  0.18655800  0.48931100  0.66939600  1
  O  O48  1  0.33539900  0.33545900  0.02182300  1
  O  O49  1  0.31800600  0.34543400  0.51698400  1
  O  O50  1  0.33030200  0.48633600  0.16837700  1
  O  O51  1  0.51792000  0.11256700  0.83385800  1
  O  O52  1  0.48746900  0.18674500  0.16874700  1
  O  O53  1  0.26125000  0.66070100  0.34082300  1
  O  O54  1  0.20504800  0.78684100  0.75008800  1
  O  O55  1  0.22158900  0.77250100  0.56781600  1
  O  O56  1  0.22604000  0.77115100  0.93067700  1
  O  O57  1  0.36802000  0.51678300  0.83353500  1
  O  O58  1  0.48566000  0.32419900  0.66013700  1
  O  O59  1  0.33948000  0.74513900  0.16129100  1
  O  O60  1  0.52045200  0.37324900  0.32936800  1
  O  O61  1  0.65626900  0.08278100  0.34092400  1
  O  O62  1  0.20418600  0.00340500  0.24708300  1
  O  O63  1  0.23276400  0.99506300  0.42832200  1
  O  O64  1  0.80006800  0.00801200  0.58048000  1
  O  O65  1  0.32651600  0.92017800  0.65680900  1
  O  O66  1  0.46985300  0.62374300  0.66810200  1
  O  O67  1  0.67323700  0.25049800  0.84466800  1
  O  O68  1  0.51891600  0.66321500  0.32701500  1
  O  O69  1  0.61874500  0.46442400  0.16687700  1
  O  O70  1  0.78372400  0.21868200  0.06920500  1
  O  O71  1  0.76969200  0.22674900  0.43080600  1
  O  O72  1  0.79134400  0.20546500  0.25068700  1
  O  O73  1  0.75350800  0.33322700  0.65478500  1
  O  O74  1  0.51552800  0.81136500  0.83337500  1
  O  O75  1  0.46401400  0.92000200  0.16514300  1
  O  O76  1  0.67364800  0.51499100  0.83773000  1
  O  O77  1  0.67896700  0.67320400  0.98084500  1
  O  O78  1  0.65870600  0.66686500  0.47628200  1
  O  O79  1  0.81921400  0.51661400  0.33052000  1
  O  O80  1  0.62248600  0.91878500  0.66147000  1
  O  O81  1  0.66204800  0.81279000  0.32248100  1
  O  O82  1  0.91387000  0.34183300  0.16260700  1
  O  O83  1  0.01322400  0.20015600  0.74145900  1
  O  O84  1  0.98648500  0.21741100  0.92146900  1
  O  O85  1  0.91465000  0.46908100  0.66934800  1
  O  O86  1  0.81317200  0.67460600  0.82701200  1
  O  O87  1  0.90768700  0.62258600  0.17249400  1
  O  O88  1  0.74983000  0.91906200  0.16185500  1
  O  O89  1  0.76478400  0.99979800  0.93821500  1
  O  O90  1  0.79601800  0.98948800  0.76049400  1
  O  O91  1  0.92044000  0.74689800  0.66062600  1
  O  O92  1  0.01172500  0.77158000  0.43458600  1
  O  O93  1  0.00361900  0.79225600  0.25281600  1
