# generated using pymatgen
data_Li9Mn2Co5O16
_symmetry_space_group_name_H-M   'P 1'
_cell_length_a   2.95644300
_cell_length_b   5.10110557
_cell_length_c   19.25047147
_cell_angle_alpha   93.63905403
_cell_angle_beta   93.31070683
_cell_angle_gamma   91.36877572
_symmetry_Int_Tables_number   1
_chemical_formula_structural   Li9Mn2Co5O16
_chemical_formula_sum   'Li9 Mn2 Co5 O16'
_cell_volume   289.13927038
_cell_formula_units_Z   1
loop_
 _symmetry_equiv_pos_site_id
 _symmetry_equiv_pos_as_xyz
  1  'x, y, z'
loop_
 _atom_site_type_symbol
 _atom_site_label
 _atom_site_symmetry_multiplicity
 _atom_site_fract_x
 _atom_site_fract_y
 _atom_site_fract_z
 _atom_site_occupancy
  Li  Li0  1  0.00729900  0.61844900  0.87095600  1
  Li  Li1  1  0.50876500  0.73008800  0.74885200  1
  Li  Li2  1  0.99048400  0.87635100  0.62459100  1
  Li  Li3  1  0.49503100  0.00273000  0.50080800  1
  Li  Li4  1  0.00037000  0.12690800  0.37658700  1
  Li  Li5  1  0.50284800  0.24891700  0.25007000  1
  Li  Li6  1  0.99881100  0.37415200  0.12541500  1
  Li  Li7  1  0.49705300  0.50863100  0.00170300  1
  Li  Li8  1  0.98641100  0.26621400  0.75082100  1
  Mn  Mn9  1  0.00694600  0.99698100  0.00037500  1
  Mn  Mn10  1  0.50712700  0.13101700  0.87023400  1
  Co  Co11  1  0.49062000  0.37262600  0.62895100  1
  Co  Co12  1  0.00210600  0.49122700  0.50083400  1
  Co  Co13  1  0.51463400  0.61594700  0.37629100  1
  Co  Co14  1  0.00257600  0.75690100  0.25075400  1
  Co  Co15  1  0.48679000  0.87850500  0.12622700  1
  O  O16  1  0.53992000  0.83505800  0.93749300  1
  O  O17  1  0.98314900  0.96203700  0.81892300  1
  O  O18  1  0.49871800  0.09753900  0.67729100  1
  O  O19  1  0.01960800  0.21327800  0.56255800  1
  O  O20  1  0.53486000  0.32017800  0.44060700  1
  O  O21  1  0.01656300  0.45374800  0.31568600  1
  O  O22  1  0.49702600  0.59463100  0.18897700  1
  O  O23  1  0.02607000  0.70207100  0.06401700  1
  O  O24  1  0.49433500  0.41747000  0.81758600  1
  O  O25  1  0.96366400  0.55794000  0.68159400  1
  O  O26  1  0.46658600  0.65011000  0.56289700  1
  O  O27  1  0.99975000  0.78044800  0.43799300  1
  O  O28  1  0.50225100  0.91952600  0.30960200  1
  O  O29  1  0.95550400  0.05167600  0.18491300  1
  O  O30  1  0.47325800  0.16681200  0.06395400  1
  O  O31  1  0.03087300  0.28184000  0.93243600  1
