# generated using pymatgen
data_Li9Mn2Co5O16
_symmetry_space_group_name_H-M   'P 1'
_cell_length_a   2.97939600
_cell_length_b   5.98388351
_cell_length_c   16.15881690
_cell_angle_alpha   90.73825760
_cell_angle_beta   90.99531445
_cell_angle_gamma   94.50392744
_symmetry_Int_Tables_number   1
_chemical_formula_structural   Li9Mn2Co5O16
_chemical_formula_sum   'Li9 Mn2 Co5 O16'
_cell_volume   287.12288848
_cell_formula_units_Z   1
loop_
 _symmetry_equiv_pos_site_id
 _symmetry_equiv_pos_as_xyz
  1  'x, y, z'
loop_
 _atom_site_type_symbol
 _atom_site_label
 _atom_site_symmetry_multiplicity
 _atom_site_fract_x
 _atom_site_fract_y
 _atom_site_fract_z
 _atom_site_occupancy
  Li  Li0  1  0.99618500  0.49519300  0.00476200  1
  Li  Li1  1  0.49556500  0.76062100  0.12935100  1
  Li  Li2  1  0.00112600  0.00630200  0.24556800  1
  Li  Li3  1  0.50184600  0.24900300  0.87318000  1
  Li  Li4  1  0.99928000  0.00027200  0.74944200  1
  Li  Li5  1  0.50035100  0.74819100  0.62565400  1
  Li  Li6  1  0.00036300  0.50018400  0.49942600  1
  Li  Li7  1  0.50139800  0.25155200  0.37242700  1
  Li  Li8  1  0.50838500  0.23983900  0.12838300  1
  Mn  Mn9  1  0.99665800  0.00520000  0.00398800  1
  Mn  Mn10  1  0.99984600  0.99900400  0.49942800  1
  Co  Co11  1  0.00367100  0.49109900  0.24425400  1
  Co  Co12  1  0.50165000  0.74834200  0.37309400  1
  Co  Co13  1  0.49775900  0.25245600  0.62569600  1
  Co  Co14  1  0.00002100  0.50024900  0.75062200  1
  Co  Co15  1  0.48869200  0.75249700  0.87409000  1
  O  O16  1  0.47027400  0.77775100  0.99453400  1
  O  O17  1  0.00563300  0.99625200  0.11586900  1
  O  O18  1  0.52686100  0.27109200  0.25047900  1
  O  O19  1  0.02559900  0.51355600  0.87069900  1
  O  O20  1  0.52616200  0.26364900  0.74482100  1
  O  O21  1  0.02714100  0.01211900  0.62157600  1
  O  O22  1  0.52889700  0.75214700  0.49356900  1
  O  O23  1  0.02653900  0.51342500  0.36494200  1
  O  O24  1  0.52604700  0.21836600  0.99947500  1
  O  O25  1  0.99814800  0.50436300  0.13675500  1
  O  O26  1  0.47716500  0.73598200  0.25605100  1
  O  O27  1  0.96842100  0.98438800  0.87933500  1
  O  O28  1  0.47711100  0.73562600  0.75583100  1
  O  O29  1  0.97472900  0.48844100  0.63196700  1
  O  O30  1  0.47240000  0.24590000  0.50614600  1
  O  O31  1  0.97607600  0.98693500  0.37858600  1
