# generated using pymatgen
data_Li9Mn2Co5O16
_symmetry_space_group_name_H-M   'P 1'
_cell_length_a   5.08057900
_cell_length_b   5.15820343
_cell_length_c   11.30631754
_cell_angle_alpha   81.65720658
_cell_angle_beta   86.46792855
_cell_angle_gamma   80.19064645
_symmetry_Int_Tables_number   1
_chemical_formula_structural   Li9Mn2Co5O16
_chemical_formula_sum   'Li9 Mn2 Co5 O16'
_cell_volume   288.67238950
_cell_formula_units_Z   1
loop_
 _symmetry_equiv_pos_site_id
 _symmetry_equiv_pos_as_xyz
  1  'x, y, z'
loop_
 _atom_site_type_symbol
 _atom_site_label
 _atom_site_symmetry_multiplicity
 _atom_site_fract_x
 _atom_site_fract_y
 _atom_site_fract_z
 _atom_site_occupancy
  Li  Li0  1  0.25135500  0.44112200  0.06496600  1
  Li  Li1  1  0.74527900  0.56509600  0.94234200  1
  Li  Li2  1  0.24947200  0.68883300  0.81422500  1
  Li  Li3  1  0.25260000  0.18789800  0.30556000  1
  Li  Li4  1  0.74237900  0.30866900  0.18426000  1
  Li  Li5  1  0.25271300  0.93745600  0.56294000  1
  Li  Li6  1  0.75329000  0.06066000  0.43554200  1
  Li  Li7  1  0.74893400  0.80946000  0.69004400  1
  Li  Li8  1  0.49978500  0.87599000  0.12390300  1
  Mn  Mn9  1  0.00225400  0.99428900  0.00221200  1
  Mn  Mn10  1  0.00092800  0.50262200  0.49957900  1
  Co  Co11  1  0.50052200  0.11615000  0.88300900  1
  Co  Co12  1  0.00279900  0.24632200  0.75155900  1
  Co  Co13  1  0.50130100  0.37525100  0.62740400  1
  Co  Co14  1  0.49787800  0.62772300  0.36535500  1
  Co  Co15  1  0.98886900  0.76378800  0.24568200  1
  O  O16  1  0.10929700  0.08425800  0.14753400  1
  O  O17  1  0.64184000  0.20809800  0.01950700  1
  O  O18  1  0.11960700  0.31365200  0.90591400  1
  O  O19  1  0.12678200  0.81291000  0.41259700  1
  O  O20  1  0.64252700  0.94889100  0.28430200  1
  O  O21  1  0.12037600  0.57913800  0.65027600  1
  O  O22  1  0.64507800  0.69600600  0.52660300  1
  O  O23  1  0.62566500  0.45143100  0.77345800  1
  O  O24  1  0.35166200  0.80293600  0.96638800  1
  O  O25  1  0.87564400  0.91943600  0.84894900  1
  O  O26  1  0.37233800  0.04896000  0.72354100  1
  O  O27  1  0.36655000  0.54060200  0.22951800  1
  O  O28  1  0.89121400  0.68437000  0.08817700  1
  O  O29  1  0.35989700  0.30164400  0.47874300  1
  O  O30  1  0.88023600  0.42029700  0.35347900  1
  O  O31  1  0.88093000  0.18604200  0.59243300  1
