# generated using pymatgen
data_Li4Fe(BO3)2
_symmetry_space_group_name_H-M   'P 1'
_cell_length_a   3.32509820
_cell_length_b   12.30614728
_cell_length_c   12.28214446
_cell_angle_alpha   99.38642731
_cell_angle_beta   89.81414176
_cell_angle_gamma   91.00706744
_symmetry_Int_Tables_number   1
_chemical_formula_structural   Li4Fe(BO3)2
_chemical_formula_sum   'Li16 Fe4 B8 O24'
_cell_volume   495.76919904
_cell_formula_units_Z   4
loop_
 _symmetry_equiv_pos_site_id
 _symmetry_equiv_pos_as_xyz
  1  'x, y, z'
loop_
 _atom_site_type_symbol
 _atom_site_label
 _atom_site_symmetry_multiplicity
 _atom_site_fract_x
 _atom_site_fract_y
 _atom_site_fract_z
 _atom_site_occupancy
  Li  Li0  1  0.49529400  0.11350500  0.05530600  1
  Li  Li1  1  0.50544600  0.61363700  0.55631600  1
  Li  Li2  1  0.99009500  0.55535300  0.11374800  1
  Li  Li3  1  0.00836000  0.05572300  0.61316700  1
  Li  Li4  1  0.99177000  0.44421400  0.88679000  1
  Li  Li5  1  0.01000100  0.94451700  0.38621300  1
  Li  Li6  1  0.49471000  0.88634700  0.94359800  1
  Li  Li7  1  0.50426400  0.38659700  0.44475100  1
  Li  Li8  1  0.99276700  0.10343600  0.89803600  1
  Li  Li9  1  0.00437100  0.60306400  0.39910000  1
  Li  Li10  1  0.48199600  0.39850200  0.10340200  1
  Li  Li11  1  0.50361200  0.89888100  0.60256600  1
  Li  Li12  1  0.49668100  0.60111300  0.89743900  1
  Li  Li13  1  0.51784900  0.10130700  0.39667600  1
  Li  Li14  1  0.99568600  0.89700600  0.10078200  1
  Li  Li15  1  0.00687600  0.39656100  0.60201300  1
  Fe  Fe16  1  0.00038200  0.75013400  0.74993100  1
  Fe  Fe17  1  0.50030500  0.75012400  0.24997900  1
  Fe  Fe18  1  0.99964600  0.25001000  0.25026200  1
  Fe  Fe19  1  0.50021500  0.24990200  0.74999200  1
  B  B20  1  0.48645100  0.48137500  0.28277400  1
  B  B21  1  0.48843000  0.98138000  0.78196300  1
  B  B22  1  0.98371500  0.28251000  0.98151300  1
  B  B23  1  0.01341500  0.78226200  0.48137100  1
  B  B24  1  0.98688000  0.71777700  0.01863200  1
  B  B25  1  0.01607300  0.21745300  0.51845800  1
  B  B26  1  0.51152000  0.51866100  0.71803100  1
  B  B27  1  0.51342100  0.01859300  0.21725300  1
  O  O28  1  0.47468700  0.36442300  0.25272400  1
  O  O29  1  0.47748700  0.86453400  0.75167300  1
  O  O30  1  0.97032100  0.25258000  0.86432300  1
  O  O31  1  0.02564400  0.75178500  0.36429600  1
  O  O32  1  0.97481000  0.74833500  0.13570300  1
  O  O33  1  0.02961500  0.24740100  0.63561300  1
  O  O34  1  0.52279800  0.63551700  0.74830100  1
  O  O35  1  0.52468300  0.13551100  0.24743900  1
  O  O36  1  0.00400100  0.20035600  0.04625300  1
  O  O37  1  0.01278400  0.70053900  0.54698500  1
  O  O38  1  0.48558600  0.54629200  0.20040600  1
  O  O39  1  0.50542300  0.04648800  0.69966200  1
  O  O40  1  0.49468900  0.45355500  0.80031700  1
  O  O41  1  0.51455300  0.95357900  0.29957700  1
  O  O42  1  0.98737400  0.79949400  0.95298000  1
  O  O43  1  0.99550100  0.29960400  0.45367900  1
  O  O44  1  0.50028900  0.52639600  0.39210300  1
  O  O45  1  0.48672800  0.02642600  0.89126900  1
  O  O46  1  0.98111100  0.39153700  0.02678600  1
  O  O47  1  0.00187600  0.89148300  0.52595900  1
  O  O48  1  0.99839800  0.60855600  0.97408400  1
  O  O49  1  0.01876700  0.10842300  0.47318800  1
  O  O50  1  0.51287500  0.47358500  0.60870300  1
  O  O51  1  0.49977100  0.97365800  0.10791400  1
