# generated using pymatgen
data_Li3MnCo3O8
_symmetry_space_group_name_H-M   'P 1'
_cell_length_a   5.76447934
_cell_length_b   5.91546564
_cell_length_c   10.17031775
_cell_angle_alpha   106.08474291
_cell_angle_beta   91.65052866
_cell_angle_gamma   119.50597974
_symmetry_Int_Tables_number   1
_chemical_formula_structural   Li3MnCo3O8
_chemical_formula_sum   'Li6 Mn2 Co6 O16'
_cell_volume   284.28959546
_cell_formula_units_Z   2
loop_
 _symmetry_equiv_pos_site_id
 _symmetry_equiv_pos_as_xyz
  1  'x, y, z'
loop_
 _atom_site_type_symbol
 _atom_site_label
 _atom_site_symmetry_multiplicity
 _atom_site_fract_x
 _atom_site_fract_y
 _atom_site_fract_z
 _atom_site_occupancy
  Li  Li0  1  0.74839300  0.49535500  0.24537600  1
  Li  Li1  1  0.25071000  0.50381600  0.75382300  1
  Li  Li2  1  0.99579700  0.50197400  0.00002800  1
  Li  Li3  1  0.50560700  0.49901700  0.50070300  1
  Li  Li4  1  0.00305600  0.49652100  0.49613900  1
  Li  Li5  1  0.49702500  0.50287800  0.00392700  1
  Mn  Mn6  1  0.99540000  0.99720800  0.00036200  1
  Mn  Mn7  1  0.50599400  0.00424600  0.50038800  1
  Co  Co8  1  0.49736800  0.00081900  0.99771800  1
  Co  Co9  1  0.75059400  0.99982800  0.75054400  1
  Co  Co10  1  0.74228300  0.99608800  0.24483700  1
  Co  Co11  1  0.00361000  0.00074800  0.50145100  1
  Co  Co12  1  0.24973000  0.99978000  0.24875800  1
  Co  Co13  1  0.25306400  0.99982600  0.75434400  1
  O  O14  1  0.87798300  0.76852000  0.11616200  1
  O  O15  1  0.40657200  0.78226800  0.62674000  1
  O  O16  1  0.09452000  0.21801800  0.87335000  1
  O  O17  1  0.62138600  0.23124200  0.38527400  1
  O  O18  1  0.09234100  0.20398300  0.38050600  1
  O  O19  1  0.59650400  0.21056000  0.87276400  1
  O  O20  1  0.90737400  0.79406200  0.62318700  1
  O  O21  1  0.40288800  0.79036000  0.12305200  1
  O  O22  1  0.13752900  0.78374800  0.39402400  1
  O  O23  1  0.63158700  0.78732600  0.88430400  1
  O  O24  1  0.64650800  0.78508900  0.39267500  1
  O  O25  1  0.13334400  0.77964600  0.88665900  1
  O  O26  1  0.35867700  0.21655400  0.61006100  1
  O  O27  1  0.86097900  0.21808800  0.11129000  1
  O  O28  1  0.87042900  0.21468400  0.61488300  1
  O  O29  1  0.36274500  0.21774500  0.10666900  1
