# generated using pymatgen
data_Na2Li18Ge17
_symmetry_space_group_name_H-M   'P 1'
_cell_length_a   17.28832643
_cell_length_b   17.28832643
_cell_length_c   8.15743300
_cell_angle_alpha   90.00000000
_cell_angle_beta   90.00000000
_cell_angle_gamma   120.00000164
_symmetry_Int_Tables_number   1
_chemical_formula_structural   Na2Li18Ge17
_chemical_formula_sum   'Na6 Li54 Ge51'
_cell_volume   2111.49495499
_cell_formula_units_Z   3
loop_
 _symmetry_equiv_pos_site_id
 _symmetry_equiv_pos_as_xyz
  1  'x, y, z'
loop_
 _atom_site_type_symbol
 _atom_site_label
 _atom_site_symmetry_multiplicity
 _atom_site_fract_x
 _atom_site_fract_y
 _atom_site_fract_z
 _atom_site_occupancy
  Na  Na0  1  0.34610300  0.34610300  0.56088900  1
  Na  Na1  1  0.00000000  0.65389700  0.56088900  1
  Na  Na2  1  0.65389700  0.00000000  0.56088900  1
  Na  Na3  1  0.66666700  0.33333300  0.60891900  1
  Na  Na4  1  0.33333300  0.66666700  0.60891900  1
  Na  Na5  1  0.00000000  0.00000000  0.39574500  1
  Li  Li6  1  0.32922900  0.00000000  0.67997900  1
  Li  Li7  1  0.67077100  0.67077100  0.67997900  1
  Li  Li8  1  0.00000000  0.32922900  0.67997900  1
  Li  Li9  1  0.33332500  0.00000000  0.31641000  1
  Li  Li10  1  0.66667500  0.66667500  0.31641000  1
  Li  Li11  1  0.00000000  0.33332500  0.31641000  1
  Li  Li12  1  0.16519100  0.00000000  0.80617400  1
  Li  Li13  1  0.83480900  0.83480900  0.80617400  1
  Li  Li14  1  0.00000000  0.16519100  0.80617400  1
  Li  Li15  1  0.49418800  0.16474200  0.80882100  1
  Li  Li16  1  0.67055400  0.50581200  0.80882100  1
  Li  Li17  1  0.83525800  0.32944600  0.80882100  1
  Li  Li18  1  0.32944600  0.83525800  0.80882100  1
  Li  Li19  1  0.50581200  0.67055400  0.80882100  1
  Li  Li20  1  0.16474200  0.49418800  0.80882100  1
  Li  Li21  1  0.17260100  0.00000000  0.17751500  1
  Li  Li22  1  0.82739900  0.82739900  0.17751500  1
  Li  Li23  1  0.00000000  0.17260100  0.17751500  1
  Li  Li24  1  0.48569000  0.48569000  0.24073000  1
  Li  Li25  1  0.00000000  0.51431000  0.24073000  1
  Li  Li26  1  0.51431000  0.00000000  0.24073000  1
  Li  Li27  1  0.18955700  0.18955700  0.31525000  1
  Li  Li28  1  0.00000000  0.81044300  0.31525000  1
  Li  Li29  1  0.81044300  0.00000000  0.31525000  1
  Li  Li30  1  0.15553300  0.15553300  0.67409500  1
  Li  Li31  1  0.00000000  0.84446700  0.67409500  1
  Li  Li32  1  0.84446700  0.00000000  0.67409500  1
  Li  Li33  1  0.24202600  0.24202600  0.96301500  1
  Li  Li34  1  0.00000000  0.75797400  0.96301500  1
  Li  Li35  1  0.75797400  0.00000000  0.96301500  1
  Li  Li36  1  0.49878000  0.33677800  0.32133200  1
  Li  Li37  1  0.83799800  0.50122000  0.32133200  1
  Li  Li38  1  0.66322200  0.16200200  0.32133200  1
  Li  Li39  1  0.16200200  0.66322200  0.32133200  1
  Li  Li40  1  0.50122000  0.83799800  0.32133200  1
  Li  Li41  1  0.33677800  0.49878000  0.32133200  1
  Li  Li42  1  0.33827800  0.19051900  0.23304700  1
  Li  Li43  1  0.85224100  0.66172200  0.23304700  1
  Li  Li44  1  0.80948100  0.14775900  0.23304700  1
  Li  Li45  1  0.14775900  0.80948100  0.23304700  1
  Li  Li46  1  0.66172200  0.85224100  0.23304700  1
  Li  Li47  1  0.19051900  0.33827800  0.23304700  1
  Li  Li48  1  0.50142000  0.16900900  0.17842400  1
  Li  Li49  1  0.66758900  0.49858000  0.17842400  1
  Li  Li50  1  0.83099100  0.33241100  0.17842400  1
  Li  Li51  1  0.33241100  0.83099100  0.17842400  1
  Li  Li52  1  0.49858000  0.66758900  0.17842400  1
  Li  Li53  1  0.16900900  0.50142000  0.17842400  1
  Li  Li54  1  0.43335000  0.33882200  0.94473400  1
  Li  Li55  1  0.90547200  0.56665000  0.94473400  1
  Li  Li56  1  0.66117800  0.09452800  0.94473400  1
  Li  Li57  1  0.09452800  0.66117800  0.94473400  1
  Li  Li58  1  0.56665000  0.90547200  0.94473400  1
  Li  Li59  1  0.33882200  0.43335000  0.94473400  1
  Ge  Ge60  1  0.33935100  0.33935100  0.20542200  1
  Ge  Ge61  1  0.00000000  0.66064900  0.20542200  1
  Ge  Ge62  1  0.66064900  0.00000000  0.20542200  1
  Ge  Ge63  1  0.58022400  0.33418200  0.97866500  1
  Ge  Ge64  1  0.75395800  0.41977600  0.97866500  1
  Ge  Ge65  1  0.66581800  0.24604200  0.97866500  1
  Ge  Ge66  1  0.24604200  0.66581800  0.97866500  1
  Ge  Ge67  1  0.41977600  0.75395800  0.97866500  1
  Ge  Ge68  1  0.33418200  0.58022400  0.97866500  1
  Ge  Ge69  1  0.66666700  0.33333300  0.24035300  1
  Ge  Ge70  1  0.33333300  0.66666700  0.24035300  1
  Ge  Ge71  1  0.08766100  0.08766100  0.02902700  1
  Ge  Ge72  1  0.00000000  0.91233900  0.02902700  1
  Ge  Ge73  1  0.91233900  0.00000000  0.02902700  1
  Ge  Ge74  1  0.00000000  0.00000000  0.76857500  1
  Ge  Ge75  1  0.23956500  0.08417900  0.48803500  1
  Ge  Ge76  1  0.84461400  0.76043500  0.48803500  1
  Ge  Ge77  1  0.91582100  0.15538600  0.48803500  1
  Ge  Ge78  1  0.15538600  0.91582100  0.48803500  1
  Ge  Ge79  1  0.76043500  0.84461400  0.48803500  1
  Ge  Ge80  1  0.08417900  0.23956500  0.48803500  1
  Ge  Ge81  1  0.41967900  0.17603500  0.49567100  1
  Ge  Ge82  1  0.75635700  0.58032100  0.49567100  1
  Ge  Ge83  1  0.82396500  0.24364300  0.49567100  1
  Ge  Ge84  1  0.24364300  0.82396500  0.49567100  1
  Ge  Ge85  1  0.58032100  0.75635700  0.49567100  1
  Ge  Ge86  1  0.17603500  0.41967900  0.49567100  1
  Ge  Ge87  1  0.50348600  0.09119000  0.49772000  1
  Ge  Ge88  1  0.58770400  0.49651400  0.49772000  1
  Ge  Ge89  1  0.90881000  0.41229600  0.49772000  1
  Ge  Ge90  1  0.41229600  0.90881000  0.49772000  1
  Ge  Ge91  1  0.49651400  0.58770400  0.49772000  1
  Ge  Ge92  1  0.09119000  0.50348600  0.49772000  1
  Ge  Ge93  1  0.32788200  0.17578000  0.74865400  1
  Ge  Ge94  1  0.84789800  0.67211800  0.74865400  1
  Ge  Ge95  1  0.82422000  0.15210200  0.74865400  1
  Ge  Ge96  1  0.15210200  0.82422000  0.74865400  1
  Ge  Ge97  1  0.67211800  0.84789800  0.74865400  1
  Ge  Ge98  1  0.17578000  0.32788200  0.74865400  1
  Ge  Ge99  1  0.49571600  0.49571600  0.74992700  1
  Ge  Ge100  1  0.00000000  0.50428400  0.74992700  1
  Ge  Ge101  1  0.50428400  0.00000000  0.74992700  1
  Ge  Ge102  1  0.41728600  0.00000000  0.99623100  1
  Ge  Ge103  1  0.58271400  0.58271400  0.99623100  1
  Ge  Ge104  1  0.00000000  0.41728600  0.99623100  1
  Ge  Ge105  1  0.32993200  0.08774300  0.99466200  1
  Ge  Ge106  1  0.75781200  0.67006800  0.99466200  1
  Ge  Ge107  1  0.91225700  0.24218800  0.99466200  1
  Ge  Ge108  1  0.24218800  0.91225700  0.99466200  1
  Ge  Ge109  1  0.67006800  0.75781200  0.99466200  1
  Ge  Ge110  1  0.08774300  0.32993200  0.99466200  1
