# generated using pymatgen
data_Li4V3P8O29
_symmetry_space_group_name_H-M   'P 1'
_cell_length_a   9.77506100
_cell_length_b   9.81764785
_cell_length_c   14.42713139
_cell_angle_alpha   90.01792617
_cell_angle_beta   90.15736259
_cell_angle_gamma   119.80562023
_symmetry_Int_Tables_number   1
_chemical_formula_structural   Li4V3P8O29
_chemical_formula_sum   'Li8 V6 P16 O58'
_cell_volume   1201.38559329
_cell_formula_units_Z   2
loop_
 _symmetry_equiv_pos_site_id
 _symmetry_equiv_pos_as_xyz
  1  'x, y, z'
loop_
 _atom_site_type_symbol
 _atom_site_label
 _atom_site_symmetry_multiplicity
 _atom_site_fract_x
 _atom_site_fract_y
 _atom_site_fract_z
 _atom_site_occupancy
  Li  Li0  1  0.69807100  0.78186800  0.05489000  1
  Li  Li1  1  0.67216200  0.90568300  0.56150600  1
  Li  Li2  1  0.23753300  0.33398900  0.55949600  1
  Li  Li3  1  0.08449000  0.31042200  0.05515200  1
  Li  Li4  1  0.21894000  0.91610200  0.05715300  1
  Li  Li5  1  0.09475200  0.76570800  0.56088700  1
  Li  Li6  1  0.66164600  0.33062800  0.09881300  1
  Li  Li7  1  0.99581700  0.99930800  0.50369200  1
  V  V8  1  0.99866200  0.43231400  0.25419600  1
  V  V9  1  0.00172400  0.56634600  0.75037500  1
  V  V10  1  0.56401500  0.99695100  0.74591800  1
  V  V11  1  0.43199700  0.00059700  0.25050800  1
  V  V12  1  0.56991200  0.56754300  0.25367800  1
  V  V13  1  0.43498900  0.43693400  0.74948900  1
  P  P14  1  0.67971000  0.76977400  0.84098700  1
  P  P15  1  0.68893900  0.91586600  0.34294000  1
  P  P16  1  0.22942300  0.31175600  0.34200500  1
  P  P17  1  0.33101100  0.66315900  0.13315100  1
  P  P18  1  0.33064600  0.66247700  0.62954500  1
  P  P19  1  0.08951200  0.31984300  0.84090000  1
  P  P20  1  0.91668100  0.22435900  0.66214500  1
  P  P21  1  0.23180800  0.91027900  0.84172500  1
  P  P22  1  0.77347600  0.09014300  0.16527400  1
  P  P23  1  0.08440900  0.77244200  0.34218200  1
  P  P24  1  0.90931100  0.68177500  0.16361600  1
  P  P25  1  0.66657200  0.33444700  0.36766500  1
  P  P26  1  0.66836000  0.33358600  0.86413900  1
  P  P27  1  0.77821400  0.69336800  0.66356800  1
  P  P28  1  0.30434900  0.08355100  0.66426200  1
  P  P29  1  0.31863700  0.23050900  0.16246300  1
  O  O30  1  0.79516100  0.80266800  0.58642600  1
  O  O31  1  0.66423400  0.74753900  0.32291900  1
  O  O32  1  0.76564000  0.99095400  0.08596900  1
  O  O33  1  0.65810400  0.91306800  0.82569500  1
  O  O34  1  0.51862100  0.61957800  0.81637000  1
  O  O35  1  0.47255000  0.65173500  0.17887200  1
  O  O36  1  0.38633200  0.46753200  0.32650600  1
  O  O37  1  0.23042600  0.24738800  0.08425800  1
  O  O38  1  0.25728400  0.34274600  0.82673100  1
  O  O39  1  0.48718100  0.80877900  0.66284400  1
  O  O40  1  0.53337500  0.91356800  0.32791300  1
  O  O41  1  0.32451900  0.50949100  0.67097400  1
  O  O42  1  0.33038600  0.64665600  0.03080100  1
  O  O43  1  0.31759900  0.64825000  0.52622400  1
  O  O44  1  0.17624900  0.52284000  0.17711400  1
  O  O45  1  0.37670000  0.89572900  0.81948000  1
  O  O46  1  0.34002700  0.81782200  0.16706000  1
  O  O47  1  0.08848600  0.34191600  0.32571800  1
  O  O48  1  0.98448100  0.20167600  0.76059600  1
  O  O49  1  0.01347800  0.21319400  0.58519700  1
  O  O50  1  0.01881600  0.25882100  0.93270100  1
  O  O51  1  0.09977900  0.48092800  0.81881800  1
  O  O52  1  0.18620800  0.67254900  0.67093400  1
  O  O53  1  0.91769200  0.26043800  0.16094000  1
  O  O54  1  0.08397800  0.61551700  0.32530400  1
  O  O55  1  0.25268000  0.91029300  0.32419300  1
  O  O56  1  0.80406600  0.02327100  0.26129000  1
  O  O57  1  0.76888300  0.97116000  0.43464600  1
  O  O58  1  0.19254900  0.99241100  0.58716100  1
  O  O59  1  0.74533300  0.08677700  0.65834700  1
  O  O60  1  0.92155400  0.38409400  0.67176600  1
  O  O61  1  0.08343300  0.74415000  0.82313200  1
  O  O62  1  0.81696200  0.33546300  0.32240900  1
  O  O63  1  0.89079600  0.51600200  0.17734800  1
  O  O64  1  0.00802500  0.77082300  0.08402000  1
  O  O65  1  0.02310500  0.78558600  0.43415200  1
  O  O66  1  0.97810500  0.77932200  0.25957500  1
  O  O67  1  0.91390100  0.65435900  0.66072000  1
  O  O68  1  0.65844500  0.18539200  0.82310100  1
  O  O69  1  0.62448700  0.10784300  0.17683900  1
  O  O70  1  0.82027000  0.47791000  0.82077300  1
  O  O71  1  0.66887100  0.34339600  0.96749400  1
  O  O72  1  0.68070600  0.34979800  0.46962300  1
  O  O73  1  0.67091600  0.48545100  0.32143700  1
  O  O74  1  0.45769100  0.07419500  0.66854400  1
  O  O75  1  0.52063700  0.19172400  0.32596900  1
  O  O76  1  0.73897700  0.65780900  0.15903500  1
  O  O77  1  0.80025100  0.78048600  0.76200900  1
  O  O78  1  0.73818400  0.75563300  0.93305000  1
  O  O79  1  0.61661400  0.53995300  0.67019700  1
  O  O80  1  0.52754200  0.34911500  0.82018300  1
  O  O81  1  0.48655400  0.37505100  0.17760800  1
  O  O82  1  0.33874300  0.08353100  0.15708000  1
  O  O83  1  0.22856200  0.97422200  0.93390900  1
  O  O84  1  0.21769000  0.01944200  0.76263000  1
  O  O85  1  0.34561000  0.25879500  0.66229500  1
  O  O86  1  0.21365900  0.23592100  0.43372100  1
  O  O87  1  0.21954100  0.20083700  0.25859400  1
