# generated using pymatgen
data_Li8VO6
_symmetry_space_group_name_H-M   'P 1'
_cell_length_a   5.39288856
_cell_length_b   10.50086324
_cell_length_c   5.39799160
_cell_angle_alpha   89.99773433
_cell_angle_beta   119.39012581
_cell_angle_gamma   75.34622860
_symmetry_Int_Tables_number   1
_chemical_formula_structural   Li8VO6
_chemical_formula_sum   'Li16 V2 O12'
_cell_volume   254.87017067
_cell_formula_units_Z   2
loop_
 _symmetry_equiv_pos_site_id
 _symmetry_equiv_pos_as_xyz
  1  'x, y, z'
loop_
 _atom_site_type_symbol
 _atom_site_label
 _atom_site_symmetry_multiplicity
 _atom_site_fract_x
 _atom_site_fract_y
 _atom_site_fract_z
 _atom_site_occupancy
  Li  Li0  1  0.33257200  0.48929700  0.15639700  1
  Li  Li1  1  0.35539200  0.98877000  0.68145500  1
  Li  Li2  1  0.64468000  0.01108500  0.31888700  1
  Li  Li3  1  0.66757800  0.51063600  0.84345600  1
  Li  Li4  1  0.23962800  0.17773100  0.31130200  1
  Li  Li5  1  0.23480200  0.67718800  0.81542900  1
  Li  Li6  1  0.10506500  0.32094700  0.91284300  1
  Li  Li7  1  0.09851300  0.82621300  0.41391600  1
  Li  Li8  1  0.48849100  0.32483300  0.57216600  1
  Li  Li9  1  0.49036300  0.82046800  0.08108300  1
  Li  Li10  1  0.50982500  0.17945600  0.91913900  1
  Li  Li11  1  0.51138200  0.67519300  0.42774200  1
  Li  Li12  1  0.90158500  0.17371000  0.58623300  1
  Li  Li13  1  0.89494300  0.67908500  0.08692000  1
  Li  Li14  1  0.76519100  0.32282500  0.18453900  1
  Li  Li15  1  0.76048800  0.82226700  0.68877100  1
  V  V16  1  0.99965100  0.49993900  0.49979500  1
  V  V17  1  0.99988200  0.00020300  0.99997400  1
  O  O18  1  0.09039200  0.38181600  0.23779100  1
  O  O19  1  0.08925700  0.88491100  0.75103200  1
  O  O20  1  0.23256100  0.11811800  0.96821300  1
  O  O21  1  0.22156600  0.61482500  0.47159800  1
  O  O22  1  0.62255300  0.11684300  0.64987100  1
  O  O23  1  0.61966800  0.61712900  0.15042800  1
  O  O24  1  0.38024500  0.38287500  0.84942400  1
  O  O25  1  0.37762300  0.88316600  0.35032800  1
  O  O26  1  0.77825100  0.38521400  0.52830500  1
  O  O27  1  0.76748000  0.88194100  0.03187700  1
  O  O28  1  0.91086000  0.11513400  0.24918300  1
  O  O29  1  0.90951500  0.61818200  0.76190400  1
