# generated using pymatgen
data_K2LiV5H10O19
_symmetry_space_group_name_H-M   'P 1'
_cell_length_a   8.64308000
_cell_length_b   10.25403156
_cell_length_c   10.93922700
_cell_angle_alpha   110.95532756
_cell_angle_beta   87.05715620
_cell_angle_gamma   112.95602670
_symmetry_Int_Tables_number   1
_chemical_formula_structural   K2LiV5H10O19
_chemical_formula_sum   'K4 Li2 V10 H20 O38'
_cell_volume   829.28702957
_cell_formula_units_Z   2
loop_
 _symmetry_equiv_pos_site_id
 _symmetry_equiv_pos_as_xyz
  1  'x, y, z'
loop_
 _atom_site_type_symbol
 _atom_site_label
 _atom_site_symmetry_multiplicity
 _atom_site_fract_x
 _atom_site_fract_y
 _atom_site_fract_z
 _atom_site_occupancy
  K  K0  1  0.67841800  0.29206700  0.98915900  1
  K  K1  1  0.32158200  0.70793300  0.01084100  1
  K  K2  1  0.23545900  0.32866500  0.57940500  1
  K  K3  1  0.76454100  0.67133500  0.42059500  1
  Li  Li4  1  0.56039700  0.16139700  0.63567200  1
  Li  Li5  1  0.43960300  0.83860300  0.36432800  1
  V  V6  1  0.81331500  0.00341600  0.01889800  1
  V  V7  1  0.18668500  0.99658400  0.98110200  1
  V  V8  1  0.87580000  0.70940100  0.00250600  1
  V  V9  1  0.12420000  0.29059900  0.99749400  1
  V  V10  1  0.97362800  0.99271500  0.74746000  1
  V  V11  1  0.02637200  0.00728500  0.25254000  1
  V  V12  1  0.67077000  0.70862600  0.77217400  1
  V  V13  1  0.32923000  0.29137400  0.22782600  1
  V  V14  1  0.03039100  0.69951000  0.73002400  1
  V  V15  1  0.96960900  0.30049000  0.26997600  1
  H  H16  1  0.89138400  0.25395600  0.73703900  1
  H  H17  1  0.10861600  0.74604400  0.26296100  1
  H  H18  1  0.87750300  0.41157500  0.77616600  1
  H  H19  1  0.12249700  0.58842500  0.22383400  1
  H  H20  1  0.42427400  0.96417200  0.77999400  1
  H  H21  1  0.57572600  0.03582800  0.22000600  1
  H  H22  1  0.60434700  0.97262700  0.74142800  1
  H  H23  1  0.39565300  0.02737300  0.25857200  1
  H  H24  1  0.73558700  0.98573800  0.54191000  1
  H  H25  1  0.26441300  0.01426200  0.45809000  1
  H  H26  1  0.76356400  0.06716500  0.44263100  1
  H  H27  1  0.23643600  0.93283500  0.55736900  1
  H  H28  1  0.59762700  0.25769000  0.43750800  1
  H  H29  1  0.40237300  0.74231000  0.56249200  1
  H  H30  1  0.66581900  0.39779700  0.56789200  1
  H  H31  1  0.33418100  0.60220300  0.43210800  1
  H  H32  1  0.36154500  0.24728900  0.82021200  1
  H  H33  1  0.63845500  0.75271100  0.17978800  1
  H  H34  1  0.50178500  0.40873600  0.82878700  1
  H  H35  1  0.49821500  0.59126400  0.17121300  1
  O  O36  1  0.11228700  0.58916800  0.62987000  1
  O  O37  1  0.88771300  0.41083200  0.37013000  1
  O  O38  1  0.00399700  0.09987700  0.65853500  1
  O  O39  1  0.99600300  0.90012300  0.34146500  1
  O  O40  1  0.83997800  0.60833300  0.09636800  1
  O  O41  1  0.16002200  0.39166700  0.90363200  1
  O  O42  1  0.81794400  0.88300200  0.12244900  1
  O  O43  1  0.18205600  0.11699800  0.87755100  1
  O  O44  1  0.47782800  0.60621600  0.70134000  1
  O  O45  1  0.52217200  0.39378400  0.29866000  1
  O  O46  1  0.93343700  0.87561800  0.89358100  1
  O  O47  1  0.06656300  0.12438200  0.10641900  1
  O  O48  1  0.79953400  0.61082400  0.67042600  1
  O  O49  1  0.20046600  0.38917600  0.32957400  1
  O  O50  1  0.89767300  0.12266500  0.91179200  1
  O  O51  1  0.10232700  0.87733500  0.08820800  1
  O  O52  1  0.62644700  0.87362100  0.92407600  1
  O  O53  1  0.37355300  0.12637900  0.07592400  1
  O  O54  1  0.23581000  0.86166600  0.85276700  1
  O  O55  1  0.76419000  0.13833400  0.14723300  1
  O  O56  1  0.98158700  0.62173300  0.86656900  1
  O  O57  1  0.01841300  0.37826700  0.13343100  1
  O  O58  1  0.75032200  0.86190100  0.69613800  1
  O  O59  1  0.24967800  0.13809900  0.30386200  1
  O  O60  1  0.67228700  0.62787800  0.90268200  1
  O  O61  1  0.32771300  0.37212200  0.09731800  1
  O  O62  1  0.05954800  0.85243300  0.65808100  1
  O  O63  1  0.94045200  0.14756700  0.34191900  1
  O  O64  1  0.81032700  0.30071900  0.74391600  1
  O  O65  1  0.18967300  0.69928100  0.25608400  1
  O  O66  1  0.52670400  0.02366300  0.74898700  1
  O  O67  1  0.47329600  0.97633700  0.25101300  1
  O  O68  1  0.67488900  0.01054600  0.48671700  1
  O  O69  1  0.32511100  0.98945400  0.51328300  1
  O  O70  1  0.57530200  0.29548500  0.52880400  1
  O  O71  1  0.42469800  0.70451500  0.47119600  1
  O  O72  1  0.45939900  0.29863900  0.77966400  1
  O  O73  1  0.54060100  0.70136100  0.22033600  1
