# generated using pymatgen
data_LiMnBO4
_symmetry_space_group_name_H-M   'P 1'
_cell_length_a   4.35888900
_cell_length_b   5.88607700
_cell_length_c   9.97252800
_cell_angle_alpha   90.00000000
_cell_angle_beta   90.00000000
_cell_angle_gamma   90.00000000
_symmetry_Int_Tables_number   1
_chemical_formula_structural   LiMnBO4
_chemical_formula_sum   'Li4 Mn4 B4 O16'
_cell_volume   255.86272048
_cell_formula_units_Z   4
loop_
 _symmetry_equiv_pos_site_id
 _symmetry_equiv_pos_as_xyz
  1  'x, y, z'
loop_
 _atom_site_type_symbol
 _atom_site_label
 _atom_site_symmetry_multiplicity
 _atom_site_fract_x
 _atom_site_fract_y
 _atom_site_fract_z
 _atom_site_occupancy
  Li  Li0  1  0.48306300  0.75000000  0.22380600  1
  Li  Li1  1  0.98306300  0.25000000  0.27619400  1
  Li  Li2  1  0.01693700  0.75000000  0.72380600  1
  Li  Li3  1  0.51693700  0.25000000  0.77619400  1
  Mn  Mn4  1  0.00000000  0.00000000  0.00000000  1
  Mn  Mn5  1  0.00000000  0.50000000  0.00000000  1
  Mn  Mn6  1  0.50000000  0.00000000  0.50000000  1
  Mn  Mn7  1  0.50000000  0.50000000  0.50000000  1
  B  B8  1  0.41154800  0.25000000  0.08743100  1
  B  B9  1  0.91154800  0.75000000  0.41256900  1
  B  B10  1  0.08845200  0.25000000  0.58743100  1
  B  B11  1  0.58845200  0.75000000  0.91256900  1
  O  O12  1  0.74895600  0.75000000  0.05778200  1
  O  O13  1  0.74943100  0.25000000  0.07893700  1
  O  O14  1  0.28383600  0.45786800  0.14440800  1
  O  O15  1  0.28383600  0.04213200  0.14440800  1
  O  O16  1  0.78383600  0.54213200  0.35559200  1
  O  O17  1  0.78383600  0.95786800  0.35559200  1
  O  O18  1  0.24943100  0.75000000  0.42106300  1
  O  O19  1  0.24895600  0.25000000  0.44221800  1
  O  O20  1  0.75104400  0.75000000  0.55778200  1
  O  O21  1  0.75056900  0.25000000  0.57893700  1
  O  O22  1  0.21616400  0.04213200  0.64440800  1
  O  O23  1  0.21616400  0.45786800  0.64440800  1
  O  O24  1  0.71616400  0.54213200  0.85559200  1
  O  O25  1  0.71616400  0.95786800  0.85559200  1
  O  O26  1  0.25056900  0.75000000  0.92106300  1
  O  O27  1  0.25104400  0.25000000  0.94221800  1
