# generated using pymatgen
data_Li5Fe2(IrO5)2
_symmetry_space_group_name_H-M   'P 1'
_cell_length_a   5.16522114
_cell_length_b   8.05595531
_cell_length_c   5.15064955
_cell_angle_alpha   108.64354793
_cell_angle_beta   109.38498147
_cell_angle_gamma   83.90910242
_symmetry_Int_Tables_number   1
_chemical_formula_structural   Li5Fe2(IrO5)2
_chemical_formula_sum   'Li5 Fe2 Ir2 O10'
_cell_volume   191.56372331
_cell_formula_units_Z   1
loop_
 _symmetry_equiv_pos_site_id
 _symmetry_equiv_pos_as_xyz
  1  'x, y, z'
loop_
 _atom_site_type_symbol
 _atom_site_label
 _atom_site_symmetry_multiplicity
 _atom_site_fract_x
 _atom_site_fract_y
 _atom_site_fract_z
 _atom_site_occupancy
  Li  Li0  1  0.50000000  0.39673700  0.69836900  1
  Li  Li1  1  0.00000000  0.99506500  0.99753200  1
  Li  Li2  1  0.00000000  0.19448400  0.59724200  1
  Li  Li3  1  0.00000000  0.40897700  0.20448800  1
  Li  Li4  1  0.00000000  0.60295700  0.80147900  1
  Fe  Fe5  1  0.50000000  0.79582000  0.89791000  1
  Fe  Fe6  1  0.50000000  0.00091500  0.50045700  1
  Ir  Ir7  1  0.50000000  0.60242800  0.30121400  1
  Ir  Ir8  1  0.50000000  0.20163100  0.10081500  1
  O  O9  1  0.27129800  0.19012600  0.34301700  1
  O  O10  1  0.27071600  0.40327200  0.97888200  1
  O  O11  1  0.28067200  0.60136400  0.55110600  1
  O  O12  1  0.27804100  0.79952000  0.15325800  1
  O  O13  1  0.27585800  0.00621200  0.76762500  1
  O  O14  1  0.71932800  0.60136400  0.05025700  1
  O  O15  1  0.72195900  0.79952000  0.64626100  1
  O  O16  1  0.72414200  0.00621200  0.23858600  1
  O  O17  1  0.72870200  0.19012600  0.84710900  1
  O  O18  1  0.72928400  0.40327200  0.42439000  1
