# generated using pymatgen
data_Li4Co3O7
_symmetry_space_group_name_H-M   'P 1'
_cell_length_a   2.98049100
_cell_length_b   5.03139919
_cell_length_c   16.54346966
_cell_angle_alpha   89.77527992
_cell_angle_beta   87.33410334
_cell_angle_gamma   88.67851764
_symmetry_Int_Tables_number   1
_chemical_formula_structural   Li4Co3O7
_chemical_formula_sum   'Li8 Co6 O14'
_cell_volume   247.75111774
_cell_formula_units_Z   2
loop_
 _symmetry_equiv_pos_site_id
 _symmetry_equiv_pos_as_xyz
  1  'x, y, z'
loop_
 _atom_site_type_symbol
 _atom_site_label
 _atom_site_symmetry_multiplicity
 _atom_site_fract_x
 _atom_site_fract_y
 _atom_site_fract_z
 _atom_site_occupancy
  Li  Li0  1  0.50000000  0.50000000  0.00000000  1
  Li  Li1  1  0.93342800  0.64606400  0.14307000  1
  Li  Li2  1  0.35536900  0.78638500  0.28582100  1
  Li  Li3  1  0.78522900  0.92886600  0.42844900  1
  Li  Li4  1  0.21477100  0.07113400  0.57155100  1
  Li  Li5  1  0.64463100  0.21361500  0.71417900  1
  Li  Li6  1  0.06657200  0.35393600  0.85693000  1
  Li  Li7  1  0.00000000  0.00000000  0.00000000  1
  Co  Co8  1  0.56354400  0.86106200  0.86293300  1
  Co  Co9  1  0.43645600  0.13893800  0.13706700  1
  Co  Co10  1  0.84761400  0.28140100  0.28508700  1
  Co  Co11  1  0.28195200  0.42942700  0.42793700  1
  Co  Co12  1  0.71804800  0.57057300  0.57206300  1
  Co  Co13  1  0.15238600  0.71859900  0.71491300  1
  O  O14  1  0.00469000  0.68839600  0.92261400  1
  O  O15  1  0.46095700  0.85039800  0.08047400  1
  O  O16  1  0.85953300  0.98819900  0.21379800  1
  O  O17  1  0.28364500  0.12607300  0.35671100  1
  O  O18  1  0.75330600  0.26894000  0.50095500  1
  O  O19  1  0.19089000  0.41509900  0.64476300  1
  O  O20  1  0.58760000  0.57121300  0.78562800  1
  O  O21  1  0.99531000  0.31160400  0.07738600  1
  O  O22  1  0.41240000  0.42878700  0.21437200  1
  O  O23  1  0.80911000  0.58490100  0.35523700  1
  O  O24  1  0.24669400  0.73106000  0.49904500  1
  O  O25  1  0.71635500  0.87392700  0.64328900  1
  O  O26  1  0.14046700  0.01180100  0.78620200  1
  O  O27  1  0.53904300  0.14960200  0.91952600  1
