# generated using pymatgen
data_Li6Mn3V(PO4)6
_symmetry_space_group_name_H-M   'P 1'
_cell_length_a   8.66502900
_cell_length_b   8.60164000
_cell_length_c   12.48432097
_cell_angle_alpha   87.81066781
_cell_angle_beta   90.00000000
_cell_angle_gamma   90.00000000
_symmetry_Int_Tables_number   1
_chemical_formula_structural   Li6Mn3V(PO4)6
_chemical_formula_sum   'Li12 Mn6 V2 P12 O48'
_cell_volume   929.82041705
_cell_formula_units_Z   2
loop_
 _symmetry_equiv_pos_site_id
 _symmetry_equiv_pos_as_xyz
  1  'x, y, z'
loop_
 _atom_site_type_symbol
 _atom_site_label
 _atom_site_symmetry_multiplicity
 _atom_site_fract_x
 _atom_site_fract_y
 _atom_site_fract_z
 _atom_site_occupancy
  Li  Li0  1  0.08252600  0.33194000  0.05332200  1
  Li  Li1  1  0.69456700  0.33076600  0.99063900  1
  Li  Li2  1  0.78276500  0.45791600  0.57576400  1
  Li  Li3  1  0.28276500  0.54208400  0.42423600  1
  Li  Li4  1  0.19456700  0.66923400  0.00936100  1
  Li  Li5  1  0.58252600  0.66806000  0.94667800  1
  Li  Li6  1  0.41651300  0.83003100  0.55222400  1
  Li  Li7  1  0.80626100  0.83524300  0.48941300  1
  Li  Li8  1  0.71762300  0.96120300  0.07627300  1
  Li  Li9  1  0.21762300  0.03879700  0.92372700  1
  Li  Li10  1  0.30626100  0.16475700  0.51058700  1
  Li  Li11  1  0.91651300  0.16996900  0.44777600  1
  Mn  Mn12  1  0.53723700  0.49981400  0.14890600  1
  Mn  Mn13  1  0.03723700  0.50018600  0.85109400  1
  Mn  Mn14  1  0.04179600  0.99848700  0.14068000  1
  Mn  Mn15  1  0.54179600  0.00151300  0.85932000  1
  Mn  Mn16  1  0.96252700  0.99834900  0.65265100  1
  Mn  Mn17  1  0.46252700  0.00165100  0.34734900  1
  V  V18  1  0.45798800  0.49627500  0.63947400  1
  V  V19  1  0.95798800  0.50372500  0.36052600  1
  P  P20  1  0.24855500  0.28911700  0.25546600  1
  P  P21  1  0.38386200  0.35227800  0.89203200  1
  P  P22  1  0.10082400  0.34822900  0.59779700  1
  P  P23  1  0.60082400  0.65177100  0.40220300  1
  P  P24  1  0.88386200  0.64772200  0.10796800  1
  P  P25  1  0.74855500  0.71088300  0.74453400  1
  P  P26  1  0.24643900  0.78723700  0.75367100  1
  P  P27  1  0.11625800  0.85588400  0.38821200  1
  P  P28  1  0.40267200  0.85032500  0.09268600  1
  P  P29  1  0.90267200  0.14967500  0.90731400  1
  P  P30  1  0.61625800  0.14411600  0.61178800  1
  P  P31  1  0.74643900  0.21276300  0.24632900  1
  O  O32  1  0.86259800  0.30022300  0.31654200  1
  O  O33  1  0.89401000  0.33240100  0.90056800  1
  O  O34  1  0.67772000  0.32309700  0.15572700  1
  O  O35  1  0.59395600  0.32101200  0.58684600  1
  O  O36  1  0.36859100  0.35646300  0.17624400  1
  O  O37  1  0.21398400  0.39019300  0.92790000  1
  O  O38  1  0.39923700  0.39052800  0.77146700  1
  O  O39  1  0.98188700  0.38778300  0.50571100  1
  O  O40  1  0.26542700  0.40239900  0.56006200  1
  O  O41  1  0.16817200  0.42167700  0.31567100  1
  O  O42  1  0.04402400  0.42033900  0.69821900  1
  O  O43  1  0.50377600  0.44526200  0.95481800  1
  O  O44  1  0.00377600  0.55473800  0.04518200  1
  O  O45  1  0.54402400  0.57966100  0.30178100  1
  O  O46  1  0.66817200  0.57832300  0.68432900  1
  O  O47  1  0.76542700  0.59760100  0.43993800  1
  O  O48  1  0.89923700  0.60947200  0.22853300  1
  O  O49  1  0.71398400  0.60980700  0.07210000  1
  O  O50  1  0.48188700  0.61221700  0.49428900  1
  O  O51  1  0.86859100  0.64353700  0.82375600  1
  O  O52  1  0.17772000  0.67690300  0.84427300  1
  O  O53  1  0.39401000  0.66759900  0.09943200  1
  O  O54  1  0.09395600  0.67898800  0.41315400  1
  O  O55  1  0.36259800  0.69977700  0.68345800  1
  O  O56  1  0.63241900  0.79698000  0.81535800  1
  O  O57  1  0.90508900  0.82529200  0.08343900  1
  O  O58  1  0.61266800  0.83364100  0.39673700  1
  O  O59  1  0.81773900  0.81969600  0.65401500  1
  O  O60  1  0.12531200  0.84889800  0.67174600  1
  O  O61  1  0.52455300  0.88842900  0.00119300  1
  O  O62  1  0.28693500  0.89168600  0.42431300  1
  O  O63  1  0.10514100  0.88655700  0.26614800  1
  O  O64  1  0.24004700  0.89902100  0.05419700  1
  O  O65  1  0.32123500  0.92053600  0.81201100  1
  O  O66  1  0.45999300  0.92408700  0.19315700  1
  O  O67  1  0.99707300  0.95003200  0.45013100  1
  O  O68  1  0.49707300  0.04996800  0.54986900  1
  O  O69  1  0.95999300  0.07591300  0.80684300  1
  O  O70  1  0.82123500  0.07946400  0.18798900  1
  O  O71  1  0.74004700  0.10097900  0.94580300  1
  O  O72  1  0.02455300  0.11157100  0.99880700  1
  O  O73  1  0.60514100  0.11344300  0.73385200  1
  O  O74  1  0.78693500  0.10831400  0.57568700  1
  O  O75  1  0.62531200  0.15110200  0.32825400  1
  O  O76  1  0.40508900  0.17470800  0.91656100  1
  O  O77  1  0.31773900  0.18030400  0.34598500  1
  O  O78  1  0.11266800  0.16635900  0.60326300  1
  O  O79  1  0.13241900  0.20302000  0.18464200  1
