# generated using pymatgen
data_Li2Cr(PO3)5
_symmetry_space_group_name_H-M   'P 1'
_cell_length_a   13.41502300
_cell_length_b   5.16042600
_cell_length_c   8.92954905
_cell_angle_alpha   78.53356077
_cell_angle_beta   90.00000000
_cell_angle_gamma   90.00000000
_symmetry_Int_Tables_number   1
_chemical_formula_structural   Li2Cr(PO3)5
_chemical_formula_sum   'Li4 Cr2 P10 O30'
_cell_volume   605.83015749
_cell_formula_units_Z   2
loop_
 _symmetry_equiv_pos_site_id
 _symmetry_equiv_pos_as_xyz
  1  'x, y, z'
loop_
 _atom_site_type_symbol
 _atom_site_label
 _atom_site_symmetry_multiplicity
 _atom_site_fract_x
 _atom_site_fract_y
 _atom_site_fract_z
 _atom_site_occupancy
  Li  Li0  1  0.61791700  0.94316600  0.08967400  1
  Li  Li1  1  0.11791700  0.05683400  0.91032600  1
  Li  Li2  1  0.38208300  0.05683400  0.91032600  1
  Li  Li3  1  0.88208300  0.94316600  0.08967400  1
  Cr  Cr4  1  0.00000000  0.50000000  0.50000000  1
  Cr  Cr5  1  0.50000000  0.50000000  0.50000000  1
  P  P6  1  0.64058300  0.99757200  0.51928000  1
  P  P7  1  0.42359200  0.34157500  0.18605600  1
  P  P8  1  0.07640800  0.34157500  0.18605600  1
  P  P9  1  0.92359200  0.65842500  0.81394400  1
  P  P10  1  0.57640800  0.65842500  0.81394400  1
  P  P11  1  0.35941700  0.00242800  0.48072000  1
  P  P12  1  0.75000000  0.45593400  0.00964300  1
  P  P13  1  0.25000000  0.54406600  0.99035700  1
  P  P14  1  0.85941700  0.99757200  0.51928000  1
  P  P15  1  0.14058300  0.00242800  0.48072000  1
  O  O16  1  0.53109000  0.80558000  0.92490300  1
  O  O17  1  0.65699000  0.44490700  0.89271000  1
  O  O18  1  0.35452500  0.13691100  0.30415400  1
  O  O19  1  0.42731400  0.15347500  0.56822700  1
  O  O20  1  0.49085600  0.48623900  0.27780300  1
  O  O21  1  0.34301000  0.55509300  0.10729000  1
  O  O22  1  0.25000000  0.80574900  0.88224300  1
  O  O23  1  0.87378500  0.29089800  0.50313900  1
  O  O24  1  0.03109000  0.19442000  0.07509700  1
  O  O25  1  0.00914400  0.48623900  0.27780300  1
  O  O26  1  0.75000000  0.19425100  0.11775700  1
  O  O27  1  0.84301000  0.44490700  0.89271000  1
  O  O28  1  0.57268600  0.84652500  0.43177300  1
  O  O29  1  0.15699000  0.55509300  0.10729000  1
  O  O30  1  0.25000000  0.05279600  0.53803900  1
  O  O31  1  0.99085600  0.51376100  0.72219700  1
  O  O32  1  0.75000000  0.71397700  0.06200200  1
  O  O33  1  0.92731400  0.84652500  0.43177300  1
  O  O34  1  0.07268600  0.15347500  0.56822700  1
  O  O35  1  0.25000000  0.28602300  0.93799800  1
  O  O36  1  0.64547500  0.86308900  0.69584600  1
  O  O37  1  0.46891000  0.19442000  0.07509700  1
  O  O38  1  0.37378500  0.70910200  0.49686100  1
  O  O39  1  0.14547500  0.13691100  0.30415400  1
  O  O40  1  0.75000000  0.94720400  0.46196100  1
  O  O41  1  0.12621500  0.70910200  0.49686100  1
  O  O42  1  0.50914400  0.51376100  0.72219700  1
  O  O43  1  0.85452500  0.86308900  0.69584600  1
  O  O44  1  0.96891000  0.80558000  0.92490300  1
  O  O45  1  0.62621500  0.29089800  0.50313900  1
