# generated using pymatgen
data_LiRuN2
_symmetry_space_group_name_H-M   'P 1'
_cell_length_a   5.32466908
_cell_length_b   10.38918086
_cell_length_c   14.76693174
_cell_angle_alpha   90.00000000
_cell_angle_beta   90.00000000
_cell_angle_gamma   90.00000000
_symmetry_Int_Tables_number   1
_chemical_formula_structural   LiRuN2
_chemical_formula_sum   'Li16 Ru16 N32'
_cell_volume   816.89115993
_cell_formula_units_Z   16
loop_
 _symmetry_equiv_pos_site_id
 _symmetry_equiv_pos_as_xyz
  1  'x, y, z'
loop_
 _atom_site_type_symbol
 _atom_site_label
 _atom_site_symmetry_multiplicity
 _atom_site_fract_x
 _atom_site_fract_y
 _atom_site_fract_z
 _atom_site_occupancy
  Li  Li0  1  0.31687391  0.99000036  0.43628173  1
  Li  Li1  1  0.81687391  0.50999964  0.56371827  1
  Li  Li2  1  0.68312609  0.49000036  0.06371827  1
  Li  Li3  1  0.18312609  0.00999964  0.93628173  1
  Li  Li4  1  0.68312609  0.00999964  0.56371827  1
  Li  Li5  1  0.18312609  0.49000036  0.43628173  1
  Li  Li6  1  0.31687391  0.50999964  0.93628173  1
  Li  Li7  1  0.81687391  0.99000036  0.06371827  1
  Li  Li8  1  0.15022862  0.27855146  0.29645272  1
  Li  Li9  1  0.65022862  0.22144854  0.70354728  1
  Li  Li10  1  0.84977138  0.77855146  0.20354728  1
  Li  Li11  1  0.34977138  0.72144854  0.79645272  1
  Li  Li12  1  0.84977138  0.72144854  0.70354728  1
  Li  Li13  1  0.34977138  0.77855146  0.29645272  1
  Li  Li14  1  0.15022862  0.22144854  0.79645272  1
  Li  Li15  1  0.65022862  0.27855146  0.20354728  1
  Ru  Ru16  1  0.79299447  0.02130628  0.31117806  1
  Ru  Ru17  1  0.29299447  0.47869372  0.68882194  1
  Ru  Ru18  1  0.20700553  0.52130628  0.18882194  1
  Ru  Ru19  1  0.70700553  0.97869372  0.81117806  1
  Ru  Ru20  1  0.20700553  0.97869372  0.68882194  1
  Ru  Ru21  1  0.70700553  0.52130628  0.31117806  1
  Ru  Ru22  1  0.79299447  0.47869372  0.81117806  1
  Ru  Ru23  1  0.29299447  0.02130628  0.18882194  1
  Ru  Ru24  1  0.70335793  0.27855468  0.43429403  1
  Ru  Ru25  1  0.20335793  0.22144532  0.56570597  1
  Ru  Ru26  1  0.29664207  0.77855468  0.06570597  1
  Ru  Ru27  1  0.79664207  0.72144532  0.93429403  1
  Ru  Ru28  1  0.29664207  0.72144532  0.56570597  1
  Ru  Ru29  1  0.79664207  0.77855468  0.43429403  1
  Ru  Ru30  1  0.70335793  0.22144532  0.93429403  1
  Ru  Ru31  1  0.20335793  0.27855468  0.06570597  1
  N  N32  1  0.97397974  0.33452173  0.50874145  1
  N  N33  1  0.47397974  0.16547827  0.49125855  1
  N  N34  1  0.02602026  0.83452173  0.99125855  1
  N  N35  1  0.52602026  0.66547827  0.00874145  1
  N  N36  1  0.02602026  0.66547827  0.49125855  1
  N  N37  1  0.52602026  0.83452173  0.50874145  1
  N  N38  1  0.97397974  0.16547827  0.00874145  1
  N  N39  1  0.47397974  0.33452173  0.99125855  1
  N  N40  1  0.53611894  0.43026880  0.40216637  1
  N  N41  1  0.03611894  0.06973120  0.59783363  1
  N  N42  1  0.46388106  0.93026880  0.09783363  1
  N  N43  1  0.96388106  0.56973120  0.90216637  1
  N  N44  1  0.46388106  0.56973120  0.59783363  1
  N  N45  1  0.96388106  0.93026880  0.40216637  1
  N  N46  1  0.53611894  0.06973120  0.90216637  1
  N  N47  1  0.03611894  0.43026880  0.09783363  1
  N  N48  1  0.80042059  0.20143097  0.32181655  1
  N  N49  1  0.30042059  0.29856903  0.67818345  1
  N  N50  1  0.19957941  0.70143097  0.17818345  1
  N  N51  1  0.69957941  0.79856903  0.82181655  1
  N  N52  1  0.19957941  0.79856903  0.67818345  1
  N  N53  1  0.69957941  0.70143097  0.32181655  1
  N  N54  1  0.80042059  0.29856903  0.82181655  1
  N  N55  1  0.30042059  0.20143097  0.17818345  1
  N  N56  1  0.54754227  0.47318664  0.20200264  1
  N  N57  1  0.04754227  0.02681336  0.79799736  1
  N  N58  1  0.45245773  0.97318664  0.29799736  1
  N  N59  1  0.95245773  0.52681336  0.70200264  1
  N  N60  1  0.45245773  0.52681336  0.79799736  1
  N  N61  1  0.95245773  0.97318664  0.20200264  1
  N  N62  1  0.54754227  0.02681336  0.70200264  1
  N  N63  1  0.04754227  0.47318664  0.29799736  1
