# generated using pymatgen
data_Li9Mn2Co5O16
_symmetry_space_group_name_H-M   'P 1'
_cell_length_a   4.97913400
_cell_length_b   5.93069007
_cell_length_c   10.22226489
_cell_angle_alpha   91.91963466
_cell_angle_beta   99.88166933
_cell_angle_gamma   103.67590101
_symmetry_Int_Tables_number   1
_chemical_formula_structural   Li9Mn2Co5O16
_chemical_formula_sum   'Li9 Mn2 Co5 O16'
_cell_volume   288.08451538
_cell_formula_units_Z   1
loop_
 _symmetry_equiv_pos_site_id
 _symmetry_equiv_pos_as_xyz
  1  'x, y, z'
loop_
 _atom_site_type_symbol
 _atom_site_label
 _atom_site_symmetry_multiplicity
 _atom_site_fract_x
 _atom_site_fract_y
 _atom_site_fract_z
 _atom_site_occupancy
  Li  Li0  1  0.50723800  0.38099200  0.13413000  1
  Li  Li1  1  0.00061000  0.24282500  0.25862900  1
  Li  Li2  1  0.00416000  0.50635500  0.99861600  1
  Li  Li3  1  0.50179400  0.12502800  0.37544800  1
  Li  Li4  1  0.99448500  0.99868600  0.49786500  1
  Li  Li5  1  0.49634300  0.87117200  0.61730200  1
  Li  Li6  1  0.00242600  0.74877400  0.74651000  1
  Li  Li7  1  0.49611200  0.62259900  0.87271500  1
  Li  Li8  1  0.50238200  0.62736300  0.37552200  1
  Mn  Mn9  1  0.99867900  0.99867800  0.00231900  1
  Mn  Mn10  1  0.50087900  0.87073000  0.13061200  1
  Co  Co11  1  0.99413500  0.74078700  0.25524800  1
  Co  Co12  1  0.00479200  0.51241600  0.49341800  1
  Co  Co13  1  0.50216700  0.37514200  0.62200900  1
  Co  Co14  1  0.00030300  0.25135500  0.74796000  1
  Co  Co15  1  0.49793500  0.12658500  0.87178300  1
  O  O16  1  0.25905200  0.06210600  0.17590300  1
  O  O17  1  0.74942900  0.92843100  0.29751300  1
  O  O18  1  0.73737300  0.15281500  0.06452500  1
  O  O19  1  0.22570900  0.80572200  0.42582900  1
  O  O20  1  0.76796200  0.66091800  0.56042800  1
  O  O21  1  0.25492100  0.55715800  0.67359000  1
  O  O22  1  0.75247000  0.41530200  0.81039500  1
  O  O23  1  0.24940000  0.30691800  0.92101900  1
  O  O24  1  0.74205200  0.68759900  0.07824300  1
  O  O25  1  0.25738800  0.60377100  0.18256900  1
  O  O26  1  0.25827800  0.82920900  0.94723600  1
  O  O27  1  0.77527900  0.44597100  0.32413200  1
  O  O28  1  0.22780100  0.32838800  0.44638400  1
  O  O29  1  0.74595000  0.19064200  0.57647800  1
  O  O30  1  0.24619800  0.08354200  0.69046800  1
  O  O31  1  0.74629900  0.94201800  0.82520300  1
