# generated using pymatgen
data_Li9Mn2Co5O16
_symmetry_space_group_name_H-M   'P 1'
_cell_length_a   5.91616800
_cell_length_b   6.48473796
_cell_length_c   7.77965737
_cell_angle_alpha   87.03791508
_cell_angle_beta   80.40155146
_cell_angle_gamma   76.46314225
_symmetry_Int_Tables_number   1
_chemical_formula_structural   Li9Mn2Co5O16
_chemical_formula_sum   'Li9 Mn2 Co5 O16'
_cell_volume   286.08633564
_cell_formula_units_Z   1
loop_
 _symmetry_equiv_pos_site_id
 _symmetry_equiv_pos_as_xyz
  1  'x, y, z'
loop_
 _atom_site_type_symbol
 _atom_site_label
 _atom_site_symmetry_multiplicity
 _atom_site_fract_x
 _atom_site_fract_y
 _atom_site_fract_z
 _atom_site_occupancy
  Li  Li0  1  0.93676000  0.88000300  0.36985700  1
  Li  Li1  1  0.68266800  0.36985100  0.88286300  1
  Li  Li2  1  0.57364500  0.13793300  0.60824200  1
  Li  Li3  1  0.31491000  0.61362700  0.13673100  1
  Li  Li4  1  0.18819400  0.36761200  0.88093000  1
  Li  Li5  1  0.81096400  0.61721000  0.13248700  1
  Li  Li6  1  0.44062300  0.88413800  0.36910000  1
  Li  Li7  1  0.06016300  0.13126700  0.62046100  1
  Li  Li8  1  0.62894800  0.25289700  0.24870200  1
  Mn  Mn9  1  0.99616900  0.99931100  0.00483000  1
  Mn  Mn10  1  0.87509200  0.75141400  0.74805800  1
  Co  Co11  1  0.75196300  0.50566500  0.49521800  1
  Co  Co12  1  0.50045100  0.00153900  0.00481300  1
  Co  Co13  1  0.26095300  0.48968500  0.48703000  1
  Co  Co14  1  0.37642200  0.73838800  0.74652400  1
  Co  Co15  1  0.12086600  0.25230500  0.24986900  1
  O  O16  1  0.20051500  0.93821200  0.17881700  1
  O  O17  1  0.95623600  0.46117700  0.67587100  1
  O  O18  1  0.84913800  0.21426300  0.43448000  1
  O  O19  1  0.60824300  0.70897300  0.92418200  1
  O  O20  1  0.45623500  0.45052500  0.69465500  1
  O  O21  1  0.08174400  0.70195500  0.92416700  1
  O  O22  1  0.72879500  0.94495700  0.16251200  1
  O  O23  1  0.33013200  0.19893000  0.44090500  1
  O  O24  1  0.66065300  0.80322200  0.57623100  1
  O  O25  1  0.40041200  0.28810800  0.06771100  1
  O  O26  1  0.27656700  0.03606800  0.83542200  1
  O  O27  1  0.03868900  0.55750300  0.31026300  1
  O  O28  1  0.92004700  0.29115000  0.06019700  1
  O  O29  1  0.53176200  0.56621100  0.33550500  1
  O  O30  1  0.13851900  0.79850000  0.57677500  1
  O  O31  1  0.80351900  0.04740000  0.81658900  1
