# generated using pymatgen
data_Li2Ti(OF3)2
_symmetry_space_group_name_H-M   'P 1'
_cell_length_a   5.60560313
_cell_length_b   5.60560313
_cell_length_c   4.59977316
_cell_angle_alpha   87.58487325
_cell_angle_beta   87.58487325
_cell_angle_gamma   76.07320260
_symmetry_Int_Tables_number   1
_chemical_formula_structural   Li2Ti(OF3)2
_chemical_formula_sum   'Li2 Ti1 O2 F6'
_cell_volume   140.08792966
_cell_formula_units_Z   1
loop_
 _symmetry_equiv_pos_site_id
 _symmetry_equiv_pos_as_xyz
  1  'x, y, z'
loop_
 _atom_site_type_symbol
 _atom_site_label
 _atom_site_symmetry_multiplicity
 _atom_site_fract_x
 _atom_site_fract_y
 _atom_site_fract_z
 _atom_site_occupancy
  Li  Li0  1  0.50000000  0.00000000  0.50000000  1
  Li  Li1  1  0.00000000  0.50000000  0.50000000  1
  Ti  Ti2  1  0.00000000  0.00000000  0.00000000  1
  O  O3  1  0.35079400  0.35079400  0.29700500  1
  O  O4  1  0.64920600  0.64920600  0.70299500  1
  F  F5  1  0.28741000  0.89818900  0.21616100  1
  F  F6  1  0.89818900  0.28741000  0.21616100  1
  F  F7  1  0.71259000  0.10181100  0.78383900  1
  F  F8  1  0.10181100  0.71259000  0.78383900  1
  F  F9  1  0.82502400  0.82502400  0.27352200  1
  F  F10  1  0.17497600  0.17497600  0.72647800  1
