# generated using pymatgen
data_Li2Mn3SnO8
_symmetry_space_group_name_H-M   'P 1'
_cell_length_a   8.37614200
_cell_length_b   8.64700200
_cell_length_c   8.78560700
_cell_angle_alpha   90.00000000
_cell_angle_beta   90.00000000
_cell_angle_gamma   90.00000000
_symmetry_Int_Tables_number   1
_chemical_formula_structural   Li2Mn3SnO8
_chemical_formula_sum   'Li8 Mn12 Sn4 O32'
_cell_volume   636.32848267
_cell_formula_units_Z   4
loop_
 _symmetry_equiv_pos_site_id
 _symmetry_equiv_pos_as_xyz
  1  'x, y, z'
loop_
 _atom_site_type_symbol
 _atom_site_label
 _atom_site_symmetry_multiplicity
 _atom_site_fract_x
 _atom_site_fract_y
 _atom_site_fract_z
 _atom_site_occupancy
  Li  Li0  1  0.00003300  0.99570000  0.99751500  1
  Li  Li1  1  0.24937400  0.75149100  0.75321400  1
  Li  Li2  1  0.75062600  0.25149100  0.74678600  1
  Li  Li3  1  0.99996700  0.49570000  0.50248500  1
  Li  Li4  1  0.49996700  0.00430000  0.49751500  1
  Li  Li5  1  0.25062600  0.24850900  0.25321400  1
  Li  Li6  1  0.74937400  0.74850900  0.24678600  1
  Li  Li7  1  0.50003300  0.50430000  0.00248500  1
  Mn  Mn8  1  0.13361100  0.37622400  0.87555500  1
  Mn  Mn9  1  0.38387400  0.12662200  0.87213500  1
  Mn  Mn10  1  0.62513300  0.87748000  0.87311900  1
  Mn  Mn11  1  0.37486700  0.37748000  0.62688100  1
  Mn  Mn12  1  0.61612600  0.62662200  0.62786500  1
  Mn  Mn13  1  0.86638900  0.87622400  0.62444500  1
  Mn  Mn14  1  0.36638900  0.62377600  0.37555500  1
  Mn  Mn15  1  0.11612600  0.87337800  0.37213500  1
  Mn  Mn16  1  0.87486700  0.12252000  0.37311900  1
  Mn  Mn17  1  0.12513300  0.62252000  0.12688100  1
  Mn  Mn18  1  0.88387400  0.37337800  0.12786500  1
  Mn  Mn19  1  0.63361100  0.12377600  0.12444500  1
  Sn  Sn20  1  0.87491600  0.62525900  0.87451400  1
  Sn  Sn21  1  0.12508400  0.12525900  0.62548600  1
  Sn  Sn22  1  0.62508400  0.37474100  0.37451400  1
  Sn  Sn23  1  0.37491600  0.87474100  0.12548600  1
  O  O24  1  0.12280700  0.62120000  0.90286000  1
  O  O25  1  0.90100000  0.38453000  0.87541300  1
  O  O26  1  0.61641500  0.10492700  0.88349900  1
  O  O27  1  0.14883300  0.12923000  0.86338900  1
  O  O28  1  0.39213300  0.89129200  0.88233700  1
  O  O29  1  0.36615600  0.36376100  0.85273600  1
  O  O30  1  0.62782600  0.65120000  0.87283400  1
  O  O31  1  0.85537400  0.86864100  0.86557200  1
  O  O32  1  0.14462600  0.36864100  0.63442800  1
  O  O33  1  0.37217400  0.15120000  0.62716600  1
  O  O34  1  0.63384400  0.86376100  0.64726400  1
  O  O35  1  0.60786700  0.39129200  0.61766300  1
  O  O36  1  0.85116700  0.62923000  0.63661100  1
  O  O37  1  0.38358500  0.60492700  0.61650100  1
  O  O38  1  0.09900000  0.88453000  0.62458700  1
  O  O39  1  0.87719300  0.12120000  0.59714000  1
  O  O40  1  0.37719300  0.37880000  0.40286000  1
  O  O41  1  0.59900000  0.61547000  0.37541300  1
  O  O42  1  0.88358500  0.89507300  0.38349900  1
  O  O43  1  0.35116700  0.87077000  0.36338900  1
  O  O44  1  0.10786700  0.10870800  0.38233700  1
  O  O45  1  0.13384400  0.63623900  0.35273600  1
  O  O46  1  0.87217400  0.34880000  0.37283400  1
  O  O47  1  0.64462600  0.13135900  0.36557200  1
  O  O48  1  0.35537400  0.63135900  0.13442800  1
  O  O49  1  0.12782600  0.84880000  0.12716600  1
  O  O50  1  0.86615600  0.13623900  0.14726400  1
  O  O51  1  0.89213300  0.60870800  0.11766300  1
  O  O52  1  0.64883300  0.37077000  0.13661100  1
  O  O53  1  0.11641500  0.39507300  0.11650100  1
  O  O54  1  0.40100000  0.11547000  0.12458700  1
  O  O55  1  0.62280700  0.87880000  0.09714000  1
