# generated using pymatgen
data_Li4TiCu3(PO4)4
_symmetry_space_group_name_H-M   'P 1'
_cell_length_a   6.05907300
_cell_length_b   4.81568600
_cell_length_c   10.36313943
_cell_angle_alpha   89.38117644
_cell_angle_beta   90.00000000
_cell_angle_gamma   90.00000000
_symmetry_Int_Tables_number   1
_chemical_formula_structural   Li4TiCu3(PO4)4
_chemical_formula_sum   'Li4 Ti1 Cu3 P4 O16'
_cell_volume   302.36419141
_cell_formula_units_Z   1
loop_
 _symmetry_equiv_pos_site_id
 _symmetry_equiv_pos_as_xyz
  1  'x, y, z'
loop_
 _atom_site_type_symbol
 _atom_site_label
 _atom_site_symmetry_multiplicity
 _atom_site_fract_x
 _atom_site_fract_y
 _atom_site_fract_z
 _atom_site_occupancy
  Li  Li0  1  0.26435000  0.99033900  0.01265600  1
  Li  Li1  1  0.73565000  0.99033900  0.01265600  1
  Li  Li2  1  0.73939700  0.49874200  0.48757400  1
  Li  Li3  1  0.26060300  0.49874200  0.48757400  1
  Ti  Ti4  1  0.00000000  0.01039400  0.71765600  1
  Cu  Cu5  1  0.50000000  0.99340000  0.27948000  1
  Cu  Cu6  1  0.50000000  0.54026900  0.78824600  1
  Cu  Cu7  1  0.00000000  0.46411800  0.21601900  1
  P  P8  1  0.00000000  0.92461200  0.40787700  1
  P  P9  1  0.00000000  0.59306100  0.89797100  1
  P  P10  1  0.50000000  0.41449400  0.09195800  1
  P  P11  1  0.50000000  0.06872300  0.59889700  1
  O  O12  1  0.00000000  0.80955800  0.55645800  1
  O  O13  1  0.20795500  0.79042700  0.34684600  1
  O  O14  1  0.79204500  0.79042700  0.34684600  1
  O  O15  1  0.50000000  0.75019800  0.59847200  1
  O  O16  1  0.50000000  0.73294900  0.08808200  1
  O  O17  1  0.19580700  0.74325300  0.82298700  1
  O  O18  1  0.80419300  0.74325300  0.82298700  1
  O  O19  1  0.00000000  0.69771800  0.03698500  1
  O  O20  1  0.50000000  0.29103600  0.95214700  1
  O  O21  1  0.70388000  0.27978500  0.16388700  1
  O  O22  1  0.29612000  0.27978500  0.16388700  1
  O  O23  1  0.00000000  0.27654800  0.88076600  1
  O  O24  1  0.00000000  0.24377500  0.41097700  1
  O  O25  1  0.71341500  0.18325200  0.67156300  1
  O  O26  1  0.28658500  0.18325200  0.67156300  1
  O  O27  1  0.50000000  0.21755100  0.46698000  1
