# generated using pymatgen
data_LiIrN2
_symmetry_space_group_name_H-M   'P 1'
_cell_length_a   5.71211933
_cell_length_b   4.61037355
_cell_length_c   9.38094365
_cell_angle_alpha   90.00000309
_cell_angle_beta   145.19947118
_cell_angle_gamma   113.80097054
_symmetry_Int_Tables_number   1
_chemical_formula_structural   LiIrN2
_chemical_formula_sum   'Li2 Ir2 N4'
_cell_volume   99.69854734
_cell_formula_units_Z   2
loop_
 _symmetry_equiv_pos_site_id
 _symmetry_equiv_pos_as_xyz
  1  'x, y, z'
loop_
 _atom_site_type_symbol
 _atom_site_label
 _atom_site_symmetry_multiplicity
 _atom_site_fract_x
 _atom_site_fract_y
 _atom_site_fract_z
 _atom_site_occupancy
  Li  Li0  1  -0.00000000  0.50000000  0.25000000  1
  Li  Li1  1  -0.00000000  -0.00000000  -0.00000000  1
  Ir  Ir2  1  -0.00000000  0.50000000  0.75000000  1
  Ir  Ir3  1  -0.00000000  -0.00000000  0.50000000  1
  N  N4  1  0.50000000  0.96251348  0.12500000  1
  N  N5  1  0.50000000  0.03748652  0.62500000  1
  N  N6  1  0.57497304  0.53748652  0.41248652  1
  N  N7  1  0.42502696  0.46251348  0.83751348  1
