# generated using pymatgen
data_Li2WO12
_symmetry_space_group_name_H-M   'P 1'
_cell_length_a   10.15578500
_cell_length_b   6.81090000
_cell_length_c   12.87953403
_cell_angle_alpha   84.26000419
_cell_angle_beta   90.00000000
_cell_angle_gamma   90.00000000
_symmetry_Int_Tables_number   1
_chemical_formula_structural   Li2WO12
_chemical_formula_sum   'Li8 W4 O48'
_cell_volume   886.41096858
_cell_formula_units_Z   4
loop_
 _symmetry_equiv_pos_site_id
 _symmetry_equiv_pos_as_xyz
  1  'x, y, z'
loop_
 _atom_site_type_symbol
 _atom_site_label
 _atom_site_symmetry_multiplicity
 _atom_site_fract_x
 _atom_site_fract_y
 _atom_site_fract_z
 _atom_site_occupancy
  Li  Li0  1  0.68251400  0.71447100  0.04977000  1
  Li  Li1  1  0.31748600  0.28552900  0.95023000  1
  Li  Li2  1  0.18251400  0.28552900  0.45023000  1
  Li  Li3  1  0.81748600  0.71447100  0.54977000  1
  Li  Li4  1  0.57782900  0.89022000  0.34007300  1
  Li  Li5  1  0.42217100  0.10978000  0.65992700  1
  Li  Li6  1  0.07782900  0.10978000  0.15992700  1
  Li  Li7  1  0.92217100  0.89022000  0.84007300  1
  W  W8  1  0.61587500  0.46948600  0.25010800  1
  W  W9  1  0.38412500  0.53051400  0.74989200  1
  W  W10  1  0.11587500  0.53051400  0.24989200  1
  W  W11  1  0.88412500  0.46948600  0.75010800  1
  O  O12  1  0.41822700  0.86682700  0.45686100  1
  O  O13  1  0.58177300  0.13317300  0.54313900  1
  O  O14  1  0.91822700  0.13317300  0.04313900  1
  O  O15  1  0.08177300  0.86682700  0.95686100  1
  O  O16  1  0.64655000  0.76402800  0.20923500  1
  O  O17  1  0.35345000  0.23597200  0.79076500  1
  O  O18  1  0.14655000  0.23597200  0.29076500  1
  O  O19  1  0.85345000  0.76402800  0.70923500  1
  O  O20  1  0.07713400  0.81886200  0.21738400  1
  O  O21  1  0.92286600  0.18113800  0.78261600  1
  O  O22  1  0.57713400  0.18113800  0.28261600  1
  O  O23  1  0.42286600  0.81886200  0.71738400  1
  O  O24  1  0.50386600  0.71346500  0.22999400  1
  O  O25  1  0.49613400  0.28653500  0.77000600  1
  O  O26  1  0.00386600  0.28653500  0.27000600  1
  O  O27  1  0.99613400  0.71346500  0.72999400  1
  O  O28  1  0.49615100  0.90954200  0.00179500  1
  O  O29  1  0.50384900  0.09045800  0.99820500  1
  O  O30  1  0.99615100  0.09045800  0.49820500  1
  O  O31  1  0.00384900  0.90954200  0.50179500  1
  O  O32  1  0.74730100  0.42101900  0.14130900  1
  O  O33  1  0.25269900  0.57898100  0.85869100  1
  O  O34  1  0.24730100  0.57898100  0.35869100  1
  O  O35  1  0.75269900  0.42101900  0.64130900  1
  O  O36  1  0.63607800  0.53014500  0.39974300  1
  O  O37  1  0.36392200  0.46985500  0.60025700  1
  O  O38  1  0.13607800  0.46985500  0.10025700  1
  O  O39  1  0.86392200  0.53014500  0.89974300  1
  O  O40  1  0.61181500  0.45177800  0.09570300  1
  O  O41  1  0.38818500  0.54822200  0.90429700  1
  O  O42  1  0.11181500  0.54822200  0.40429700  1
  O  O43  1  0.88818500  0.45177800  0.59570300  1
  O  O44  1  0.95653900  0.69693500  0.22350500  1
  O  O45  1  0.04346100  0.30306500  0.77649500  1
  O  O46  1  0.45653900  0.30306500  0.27649500  1
  O  O47  1  0.54346100  0.69693500  0.72350500  1
  O  O48  1  0.75752400  0.45892600  0.35866900  1
  O  O49  1  0.24247600  0.54107400  0.64133100  1
  O  O50  1  0.25752400  0.54107400  0.14133100  1
  O  O51  1  0.74247600  0.45892600  0.85866900  1
  O  O52  1  0.87609500  0.95273400  0.04399600  1
  O  O53  1  0.12390500  0.04726600  0.95600400  1
  O  O54  1  0.37609500  0.04726600  0.45600400  1
  O  O55  1  0.62390500  0.95273400  0.54399600  1
  O  O56  1  0.71168000  0.92081800  0.46608100  1
  O  O57  1  0.28832000  0.07918200  0.53391900  1
  O  O58  1  0.21168000  0.07918200  0.03391900  1
  O  O59  1  0.78832000  0.92081800  0.96608100  1
