# generated using pymatgen
data_Li(ReN2)3
_symmetry_space_group_name_H-M   'P 1'
_cell_length_a   4.84157147
_cell_length_b   5.00436645
_cell_length_c   8.75834188
_cell_angle_alpha   90.00000000
_cell_angle_beta   90.98681465
_cell_angle_gamma   90.00000000
_symmetry_Int_Tables_number   1
_chemical_formula_structural   Li(ReN2)3
_chemical_formula_sum   'Li2 Re6 N12'
_cell_volume   212.17437331
_cell_formula_units_Z   2
loop_
 _symmetry_equiv_pos_site_id
 _symmetry_equiv_pos_as_xyz
  1  'x, y, z'
loop_
 _atom_site_type_symbol
 _atom_site_label
 _atom_site_symmetry_multiplicity
 _atom_site_fract_x
 _atom_site_fract_y
 _atom_site_fract_z
 _atom_site_occupancy
  Li  Li0  1  -0.00000000  0.50000000  0.50000000  1
  Li  Li1  1  0.50000000  0.00000000  -0.00000000  1
  Re  Re2  1  0.55900312  0.60967509  0.25019030  1
  Re  Re3  1  0.05900312  0.89032491  0.75019030  1
  Re  Re4  1  0.44099688  0.39032491  0.74980970  1
  Re  Re5  1  0.94099688  0.10967509  0.24980970  1
  Re  Re6  1  -0.00000000  0.50000000  -0.00000000  1
  Re  Re7  1  0.50000000  0.00000000  0.50000000  1
  N  N8  1  0.31710022  0.69855151  0.61324300  1
  N  N9  1  0.81710022  0.80144849  0.11324300  1
  N  N10  1  0.68289978  0.30144849  0.38675700  1
  N  N11  1  0.18289978  0.19855151  0.88675700  1
  N  N12  1  0.81680150  0.81079260  0.40119038  1
  N  N13  1  0.31680150  0.68920740  0.90119038  1
  N  N14  1  0.18319850  0.18920740  0.59880962  1
  N  N15  1  0.68319850  0.31079260  0.09880962  1
  N  N16  1  0.30879434  0.89402603  0.29362757  1
  N  N17  1  0.80879434  0.60597397  0.79362757  1
  N  N18  1  0.69120566  0.10597397  0.70637243  1
  N  N19  1  0.19120566  0.39402603  0.20637243  1
