# generated using pymatgen
data_LiYbBi
_symmetry_space_group_name_H-M   'P 1'
_cell_length_a   9.64401750
_cell_length_b   9.64401750
_cell_length_c   7.71059700
_cell_angle_alpha   90.00000000
_cell_angle_beta   90.00000000
_cell_angle_gamma   119.99999654
_symmetry_Int_Tables_number   1
_chemical_formula_structural   LiYbBi
_chemical_formula_sum   'Li8 Yb8 Bi8'
_cell_volume   621.06153303
_cell_formula_units_Z   8
loop_
 _symmetry_equiv_pos_site_id
 _symmetry_equiv_pos_as_xyz
  1  'x, y, z'
loop_
 _atom_site_type_symbol
 _atom_site_label
 _atom_site_symmetry_multiplicity
 _atom_site_fract_x
 _atom_site_fract_y
 _atom_site_fract_z
 _atom_site_occupancy
  Li  Li0  1  0.16654300  0.83345700  0.32171700  1
  Li  Li1  1  0.66691300  0.83345700  0.32171700  1
  Li  Li2  1  0.16654300  0.33308700  0.32171700  1
  Li  Li3  1  0.83345700  0.16654300  0.82171700  1
  Li  Li4  1  0.33308700  0.16654300  0.82171700  1
  Li  Li5  1  0.83345700  0.66691300  0.82171700  1
  Li  Li6  1  0.33333300  0.66666700  0.66885100  1
  Li  Li7  1  0.66666700  0.33333300  0.16885100  1
  Yb  Yb8  1  0.51704000  0.48296000  0.50624600  1
  Yb  Yb9  1  0.96592100  0.48296000  0.50624600  1
  Yb  Yb10  1  0.51704000  0.03407900  0.50624600  1
  Yb  Yb11  1  0.48296000  0.51704000  0.00624600  1
  Yb  Yb12  1  0.03407900  0.51704000  0.00624600  1
  Yb  Yb13  1  0.48296000  0.96592100  0.00624600  1
  Yb  Yb14  1  0.00000000  0.00000000  0.51633600  1
  Yb  Yb15  1  0.00000000  0.00000000  0.01633600  1
  Bi  Bi16  1  0.16651200  0.83348800  0.73571600  1
  Bi  Bi17  1  0.66697700  0.83348800  0.73571600  1
  Bi  Bi18  1  0.16651200  0.33302300  0.73571600  1
  Bi  Bi19  1  0.83348800  0.16651200  0.23571600  1
  Bi  Bi20  1  0.33302300  0.16651200  0.23571600  1
  Bi  Bi21  1  0.83348800  0.66697700  0.23571600  1
  Bi  Bi22  1  0.33333300  0.66666700  0.27877000  1
  Bi  Bi23  1  0.66666700  0.33333300  0.77877000  1
