# generated using pymatgen
data_Li4Co2Ni5O12
_symmetry_space_group_name_H-M   'P 1'
_cell_length_a   5.06086300
_cell_length_b   9.72251306
_cell_length_c   13.17034110
_cell_angle_alpha   80.21609745
_cell_angle_beta   80.12692795
_cell_angle_gamma   84.70074124
_symmetry_Int_Tables_number   1
_chemical_formula_structural   Li4Co2Ni5O12
_chemical_formula_sum   'Li12 Co6 Ni15 O36'
_cell_volume   627.81908929
_cell_formula_units_Z   3
loop_
 _symmetry_equiv_pos_site_id
 _symmetry_equiv_pos_as_xyz
  1  'x, y, z'
loop_
 _atom_site_type_symbol
 _atom_site_label
 _atom_site_symmetry_multiplicity
 _atom_site_fract_x
 _atom_site_fract_y
 _atom_site_fract_z
 _atom_site_occupancy
  Li  Li0  1  0.77705700  0.99747900  0.94405900  1
  Li  Li1  1  0.81185300  0.75484200  0.64139300  1
  Li  Li2  1  0.72992600  0.50449300  0.55495500  1
  Li  Li3  1  0.60337700  0.50095000  0.77862800  1
  Li  Li4  1  0.44173500  0.99838200  0.61345100  1
  Li  Li5  1  0.46635200  0.75903100  0.30876600  1
  Li  Li6  1  0.13900000  0.74629200  0.97334200  1
  Li  Li7  1  0.39551600  0.49805600  0.21800000  1
  Li  Li8  1  0.26402700  0.50126800  0.44249600  1
  Li  Li9  1  0.05927600  0.50356700  0.89176200  1
  Li  Li10  1  0.23142100  0.99902000  0.05398400  1
  Li  Li11  1  0.11167800  0.00110500  0.28572400  1
  Co  Co12  1  0.91017000  0.75185200  0.41791100  1
  Co  Co13  1  0.74902100  0.24920900  0.25081500  1
  Co  Co14  1  0.41437300  0.24831600  0.91723900  1
  Co  Co15  1  0.59324900  0.74777700  0.08633300  1
  Co  Co16  1  0.24702500  0.74782900  0.75287200  1
  Co  Co17  1  0.07716000  0.25198700  0.58336800  1
  Ni  Ni18  1  0.99639900  0.99693400  0.50409000  1
  Ni  Ni19  1  0.96617100  0.24629000  0.80553500  1
  Ni  Ni20  1  0.69547400  0.75203300  0.85875500  1
  Ni  Ni21  1  0.82301700  0.50317700  0.33056200  1
  Ni  Ni22  1  0.85867100  0.25118600  0.02854900  1
  Ni  Ni23  1  0.67071400  0.99635100  0.17210800  1
  Ni  Ni24  1  0.53136100  0.25037900  0.69358800  1
  Ni  Ni25  1  0.63481000  0.24986100  0.47180300  1
  Ni  Ni26  1  0.32809900  0.99755500  0.83145100  1
  Ni  Ni27  1  0.36974900  0.74896900  0.52643000  1
  Ni  Ni28  1  0.49483700  0.50281200  0.00101800  1
  Ni  Ni29  1  0.15300400  0.50363100  0.66723300  1
  Ni  Ni30  1  0.19472000  0.25051700  0.36207000  1
  Ni  Ni31  1  0.30021800  0.24991300  0.13969300  1
  Ni  Ni32  1  0.04456400  0.74632600  0.19141200  1
  O  O33  1  0.94566000  0.63441800  0.76598000  1
  O  O34  1  0.78972800  0.64082800  0.98156300  1
  O  O35  1  0.95628600  0.36864900  0.46379900  1
  O  O36  1  0.85896600  0.36983000  0.67544500  1
  O  O37  1  0.70516200  0.36671200  0.90522700  1
  O  O38  1  0.82528700  0.85925800  0.29599900  1
  O  O39  1  0.70709100  0.86252800  0.50598500  1
  O  O40  1  0.79126300  0.13803200  0.59396900  1
  O  O41  1  0.48666400  0.86258900  0.95956200  1
  O  O42  1  0.97802600  0.13519900  0.16003400  1
  O  O43  1  0.89610500  0.14134400  0.37224500  1
  O  O44  1  0.87903500  0.87045400  0.07456800  1
  O  O45  1  0.62097800  0.13457000  0.82921900  1
  O  O46  1  0.54097500  0.86104400  0.74586800  1
  O  O47  1  0.61235800  0.63753700  0.43278900  1
  O  O48  1  0.70843400  0.63736300  0.19684800  1
  O  O49  1  0.38075000  0.63375200  0.86604600  1
  O  O50  1  0.44880200  0.63105500  0.65678300  1
  O  O51  1  0.60308200  0.35844900  0.12945300  1
  O  O52  1  0.51833600  0.36470400  0.34112600  1
  O  O53  1  0.28870000  0.36557400  0.79820200  1
  O  O54  1  0.36561900  0.36989200  0.57151600  1
  O  O55  1  0.37600000  0.86773800  0.16976500  1
  O  O56  1  0.44739700  0.13649000  0.25431000  1
  O  O57  1  0.16686600  0.85767200  0.62080700  1
  O  O58  1  0.53757700  0.13303700  0.03557300  1
  O  O59  1  0.04102200  0.86072000  0.83650100  1
  O  O60  1  0.12193400  0.12888600  0.92825600  1
  O  O61  1  0.28982100  0.14176700  0.48970700  1
  O  O62  1  0.21322700  0.13915400  0.70021900  1
  O  O63  1  0.20475300  0.86118600  0.41192200  1
  O  O64  1  0.30874600  0.63824700  0.09544400  1
  O  O65  1  0.03854900  0.63341800  0.53205300  1
  O  O66  1  0.11879600  0.62829300  0.32658300  1
  O  O67  1  0.20385500  0.36083600  0.00982900  1
  O  O68  1  0.05020600  0.36132300  0.24800400  1
