# generated using pymatgen
data_Li2Si3Ni2O9
_symmetry_space_group_name_H-M   'P 1'
_cell_length_a   9.98011020
_cell_length_b   9.98014230
_cell_length_c   12.14395059
_cell_angle_alpha   89.99613305
_cell_angle_beta   90.00291370
_cell_angle_gamma   119.99687959
_symmetry_Int_Tables_number   1
_chemical_formula_structural   Li2Si3Ni2O9
_chemical_formula_sum   'Li12 Si18 Ni12 O54'
_cell_volume   1047.55382543
_cell_formula_units_Z   6
loop_
 _symmetry_equiv_pos_site_id
 _symmetry_equiv_pos_as_xyz
  1  'x, y, z'
loop_
 _atom_site_type_symbol
 _atom_site_label
 _atom_site_symmetry_multiplicity
 _atom_site_fract_x
 _atom_site_fract_y
 _atom_site_fract_z
 _atom_site_occupancy
  Li  Li0  1  0.14537711  0.98714877  0.17383836  1
  Li  Li1  1  0.20011520  0.76415627  0.01659039  1
  Li  Li2  1  0.23581161  0.43592515  0.68320729  1
  Li  Li3  1  0.01293540  0.15832117  0.84050704  1
  Li  Li4  1  0.56410734  0.79989042  0.34992243  1
  Li  Li5  1  0.17482431  0.01696972  0.67098716  1
  Li  Li6  1  0.33335260  0.28069012  0.78884862  1
  Li  Li7  1  0.84176714  0.85459901  0.50716728  1
  Li  Li8  1  0.84197966  0.82517677  0.00431392  1
  Li  Li9  1  0.71939422  0.05267475  0.45549382  1
  Li  Li10  1  0.94732635  0.66669558  0.12212030  1
  Li  Li11  1  0.98316460  0.15789350  0.33761024  1
  Si  Si12  1  0.12870129  0.95237973  0.91979554  1
  Si  Si13  1  0.29781576  0.82237705  0.76519151  1
  Si  Si14  1  0.19199945  0.50709733  0.89202455  1
  Si  Si15  1  0.31508858  0.80798112  0.22535564  1
  Si  Si16  1  0.04763036  0.17635253  0.58643556  1
  Si  Si17  1  0.17766860  0.47547795  0.43183865  1
  Si  Si18  1  0.18542432  0.01562846  0.42834165  1
  Si  Si19  1  0.49290602  0.68491824  0.55868685  1
  Si  Si20  1  0.52453520  0.70215913  0.09854800  1
  Si  Si21  1  0.61729960  0.49786897  0.44444158  1
  Si  Si22  1  0.48210048  0.20064595  0.57806769  1
  Si  Si23  1  0.82364547  0.87120963  0.25312875  1
  Si  Si24  1  0.83016871  0.81456537  0.76166499  1
  Si  Si25  1  0.71851538  0.51789451  0.91139904  1
  Si  Si26  1  0.50212939  0.11940374  0.11112487  1
  Si  Si27  1  0.88057497  0.38274734  0.77777192  1
  Si  Si28  1  0.79935176  0.28141960  0.24473804  1
  Si  Si29  1  0.98437324  0.16978691  0.09497634  1
  Ni  Ni30  1  0.33128386  0.84313775  0.49213989  1
  Ni  Ni31  1  0.15684662  0.48814825  0.15882169  1
  Ni  Ni32  1  0.51184462  0.66870490  0.82549907  1
  Ni  Ni33  1  0.33342494  0.32470550  0.24259593  1
  Ni  Ni34  1  0.36950568  0.33269875  0.00337123  1
  Ni  Ni35  1  0.51059390  0.16001937  0.84155043  1
  Ni  Ni36  1  0.64943949  0.48938368  0.17490552  1
  Ni  Ni37  1  0.99125699  0.66660484  0.57591595  1
  Ni  Ni38  1  0.96321612  0.63046220  0.33667828  1
  Ni  Ni39  1  0.66728960  0.03683092  0.67000751  1
  Ni  Ni40  1  0.67533477  0.00874793  0.90925309  1
  Ni  Ni41  1  0.83996074  0.35051864  0.50821606  1
  O  O42  1  0.10666884  0.82587889  0.43375046  1
  O  O43  1  0.06635857  0.87170628  0.03781227  1
  O  O44  1  0.19602719  0.84903250  0.86050933  1
  O  O45  1  0.13032843  0.68047485  0.21835153  1
  O  O46  1  0.04770607  0.52675461  0.44582125  1
  O  O47  1  0.04297925  0.38365372  0.81560103  1
  O  O48  1  0.21850224  0.80279191  0.64436864  1
  O  O49  1  0.14215344  0.55048140  0.00516971  1
  O  O50  1  0.34060781  0.95706433  0.14901642  1
  O  O51  1  0.28819108  0.66223006  0.81123358  1
  O  O52  1  0.15101590  0.34695488  0.52707137  1
  O  O53  1  0.40831068  0.85771009  0.33849510  1
  O  O54  1  0.12829338  0.19473298  0.70445257  1
  O  O55  1  0.19728698  0.41584261  0.31099681  1
  O  O56  1  0.47905690  0.95232847  0.77915318  1
  O  O57  1  0.37403970  0.71195468  0.14441617  1
  O  O58  1  0.31948632  0.44982554  0.88504421  1
  O  O59  1  0.17413575  0.28069863  0.10044745  1
  O  O60  1  0.07985395  0.05345090  0.51471470  1
  O  O61  1  0.33781732  0.62595553  0.47786849  1
  O  O62  1  0.20469544  0.10405288  0.31378963  1
  O  O63  1  0.44945233  0.59171343  0.67185396  1
  O  O64  1  0.55021539  0.86970130  0.55167534  1
  O  O65  1  0.58441877  0.78148091  0.97773430  1
  O  O66  1  0.25673953  0.13226520  0.91159978  1
  O  O67  1  0.47318748  0.52090863  0.11250907  1
  O  O68  1  0.65290763  0.80384833  0.19391994  1
  O  O69  1  0.61639094  0.65936988  0.48230063  1
  O  O70  1  0.35132573  0.06452586  0.49293940  1
  O  O71  1  0.71921769  0.89338414  0.76710211  1
  O  O72  1  0.54122368  0.44804656  0.32264217  1
  O  O73  1  0.40353287  0.16773006  0.69893354  1
  O  O74  1  0.80544013  0.93364184  0.37113816  1
  O  O75  1  0.50589592  0.36528191  0.53301458  1
  O  O76  1  0.46224553  0.25908545  0.12778274  1
  O  O77  1  0.54946277  0.36601329  0.89835485  1
  O  O78  1  0.71320858  0.64871873  0.82630161  1
  O  O79  1  0.55189541  0.09312795  0.98930188  1
  O  O80  1  0.76413700  0.59644342  0.03226837  1
  O  O81  1  0.89918814  0.79518780  0.64709028  1
  O  O82  1  0.87548758  0.74315300  0.24492070  1
  O  O83  1  0.63398183  0.18346297  0.56503088  1
  O  O84  1  0.79688830  0.53780261  0.46109732  1
  O  O85  1  0.97362439  0.92015199  0.84798231  1
  O  O86  1  0.63477078  0.14055574  0.19963888  1
  O  O87  1  0.85938613  0.49417508  0.86630513  1
  O  O88  1  0.81651843  0.45047929  0.23167708  1
  O  O89  1  0.74092678  0.20316957  0.79443939  1
  O  O90  1  0.83229617  0.23579953  0.36561927  1
  O  O91  1  0.90679141  0.45878672  0.65595189  1
  O  O92  1  0.86775464  0.12456478  0.57825713  1
  O  O93  1  0.93549337  0.28675389  0.15965013  1
  O  O94  1  0.89599942  0.10084009  0.98037955  1
  O  O95  1  0.94640059  0.02623487  0.18124405  1
