# generated using pymatgen
data_Li4MnCo2O7
_symmetry_space_group_name_H-M   'P 1'
_cell_length_a   4.98998800
_cell_length_b   5.09190381
_cell_length_c   10.59379960
_cell_angle_alpha   85.37671978
_cell_angle_beta   76.86373960
_cell_angle_gamma   72.05206008
_symmetry_Int_Tables_number   1
_chemical_formula_structural   Li4MnCo2O7
_chemical_formula_sum   'Li8 Mn2 Co4 O14'
_cell_volume   249.35708164
_cell_formula_units_Z   2
loop_
 _symmetry_equiv_pos_site_id
 _symmetry_equiv_pos_as_xyz
  1  'x, y, z'
loop_
 _atom_site_type_symbol
 _atom_site_label
 _atom_site_symmetry_multiplicity
 _atom_site_fract_x
 _atom_site_fract_y
 _atom_site_fract_z
 _atom_site_occupancy
  Li  Li0  1  0.07447900  0.49970600  0.85322000  1
  Li  Li1  1  0.63825200  0.49866700  0.72105100  1
  Li  Li2  1  0.19841300  0.50844000  0.58069700  1
  Li  Li3  1  0.78344400  0.50113500  0.43444100  1
  Li  Li4  1  0.36681800  0.49509200  0.28309900  1
  Li  Li5  1  0.93291100  0.49976200  0.13509700  1
  Li  Li6  1  0.50232700  0.50483300  0.98956700  1
  Li  Li7  1  0.56247800  0.00509800  0.86076500  1
  Mn  Mn8  1  0.99737900  0.00335400  0.99767200  1
  Mn  Mn9  1  0.86630200  0.99192200  0.28250800  1
  Co  Co10  1  0.13231100  0.00616600  0.72179200  1
  Co  Co11  1  0.70988900  0.00576800  0.57978000  1
  Co  Co12  1  0.29189400  0.99338600  0.43128400  1
  Co  Co13  1  0.43216100  0.99784600  0.14132800  1
  O  O14  1  0.73725600  0.78428000  0.01176600  1
  O  O15  1  0.27986200  0.77261200  0.86917900  1
  O  O16  1  0.89302500  0.77130700  0.70889100  1
  O  O17  1  0.46262100  0.76868100  0.56675400  1
  O  O18  1  0.03764000  0.76656900  0.41569000  1
  O  O19  1  0.61629900  0.77089200  0.27900800  1
  O  O20  1  0.16985500  0.78145700  0.14322800  1
  O  O21  1  0.38463400  0.23560300  0.70756100  1
  O  O22  1  0.96494300  0.23456600  0.56493900  1
  O  O23  1  0.56689300  0.21688800  0.41456600  1
  O  O24  1  0.12426200  0.21004600  0.28108600  1
  O  O25  1  0.69279200  0.21360800  0.14442100  1
  O  O26  1  0.24326400  0.22287200  0.01313600  1
  O  O27  1  0.83759500  0.23944500  0.86747600  1
