# generated using pymatgen
data_Li4V3P8O29
_symmetry_space_group_name_H-M   'P 1'
_cell_length_a   9.79921045
_cell_length_b   9.79921045
_cell_length_c   14.01761959
_cell_angle_alpha   89.78351152
_cell_angle_beta   89.78351152
_cell_angle_gamma   60.13215452
_symmetry_Int_Tables_number   1
_chemical_formula_structural   Li4V3P8O29
_chemical_formula_sum   'Li8 V6 P16 O58'
_cell_volume   1167.23884805
_cell_formula_units_Z   2
loop_
 _symmetry_equiv_pos_site_id
 _symmetry_equiv_pos_as_xyz
  1  'x, y, z'
loop_
 _atom_site_type_symbol
 _atom_site_label
 _atom_site_symmetry_multiplicity
 _atom_site_fract_x
 _atom_site_fract_y
 _atom_site_fract_z
 _atom_site_occupancy
  Li  Li0  1  0.22797900  0.68252900  0.69065700  1
  Li  Li1  1  0.67579700  0.09722300  0.69035700  1
  Li  Li2  1  0.09219600  0.22427800  0.69074100  1
  Li  Li3  1  0.77572200  0.90780400  0.30925900  1
  Li  Li4  1  0.22891200  0.09377300  0.18972700  1
  Li  Li5  1  0.90622700  0.77108800  0.81027300  1
  Li  Li6  1  0.31747100  0.77202100  0.30934300  1
  Li  Li7  1  0.90277700  0.32420300  0.30964300  1
  V  V8  1  0.56719700  0.99991200  0.50056500  1
  V  V9  1  0.43641900  0.99364100  0.99389600  1
  V  V10  1  0.00635900  0.56358100  0.00610400  1
  V  V11  1  0.00008800  0.43280300  0.49943500  1
  V  V12  1  0.43574000  0.56426000  0.50000000  1
  V  V13  1  0.56660500  0.43339500  0.00000000  1
  P  P14  1  0.23017900  0.68257500  0.90809600  1
  P  P15  1  0.08679500  0.68296100  0.40837800  1
  P  P16  1  0.68521400  0.23021100  0.40702500  1
  P  P17  1  0.33371500  0.33338600  0.62295900  1
  P  P18  1  0.33697600  0.32789700  0.12172500  1
  P  P19  1  0.68291400  0.08958300  0.90992600  1
  P  P20  1  0.76851000  0.91226800  0.09207600  1
  P  P21  1  0.08773200  0.23149000  0.90792400  1
  P  P22  1  0.91284000  0.76717000  0.59256900  1
  P  P23  1  0.23283000  0.08716000  0.40743100  1
  P  P24  1  0.31703900  0.91320500  0.59162200  1
  P  P25  1  0.66661400  0.66628500  0.37704100  1
  P  P26  1  0.67210300  0.66302400  0.87827500  1
  P  P27  1  0.31742500  0.76982100  0.09190400  1
  P  P28  1  0.91041700  0.31708600  0.09007400  1
  P  P29  1  0.76978900  0.31478600  0.59297500  1
  O  O30  1  0.24485500  0.76341400  0.18307800  1
  O  O31  1  0.25619800  0.66136300  0.41184000  1
  O  O32  1  0.99875400  0.75765700  0.68322300  1
  O  O33  1  0.08329100  0.66010900  0.91379000  1
  O  O34  1  0.38225600  0.52293100  0.92792400  1
  O  O35  1  0.33014400  0.48770400  0.57922000  1
  O  O36  1  0.52329900  0.38247400  0.42786000  1
  O  O37  1  0.75682500  0.23631600  0.67988100  1
  O  O38  1  0.65779400  0.25718500  0.91493900  1
  O  O39  1  0.18487600  0.47917800  0.07639400  1
  O  O40  1  0.09805700  0.52171300  0.42532400  1
  O  O41  1  0.47967700  0.33550400  0.07572200  1
  O  O42  1  0.33266000  0.34218900  0.72915000  1
  O  O43  1  0.32862800  0.33498000  0.22709200  1
  O  O44  1  0.48797500  0.18808400  0.58356400  1
  O  O45  1  0.09343700  0.38418600  0.92899200  1
  O  O46  1  0.18737000  0.32770500  0.58271600  1
  O  O47  1  0.66174000  0.08536200  0.40960100  1
  O  O48  1  0.79159800  0.00057700  0.00059300  1
  O  O49  1  0.76276600  0.98996600  0.18293000  1
  O  O50  1  0.75765100  0.00158700  0.82010800  1
  O  O51  1  0.52210100  0.09646500  0.92664800  1
  O  O52  1  0.33286700  0.18091100  0.08138000  1
  O  O53  1  0.74740100  0.91675300  0.59040700  1
  O  O54  1  0.38105700  0.09950700  0.42560600  1
  O  O55  1  0.08324700  0.25259900  0.40959300  1
  O  O56  1  0.00595700  0.78687800  0.50399800  1
  O  O57  1  0.99663400  0.77017200  0.32321800  1
  O  O58  1  0.99841300  0.24234900  0.17989200  1
  O  O59  1  0.91149300  0.74274300  0.08195600  1
  O  O60  1  0.61581400  0.90656300  0.07100800  1
  O  O61  1  0.25725700  0.08850700  0.91804400  1
  O  O62  1  0.67229500  0.81263000  0.41728400  1
  O  O63  1  0.47828700  0.90194300  0.57467600  1
  O  O64  1  0.22982800  0.00336600  0.67678200  1
  O  O65  1  0.24234300  0.00124600  0.31677700  1
  O  O66  1  0.21312200  0.99404300  0.49600200  1
  O  O67  1  0.33989100  0.91670900  0.08621000  1
  O  O68  1  0.81908900  0.66713300  0.91862000  1
  O  O69  1  0.90049300  0.61894300  0.57439400  1
  O  O70  1  0.52082200  0.81512400  0.92360600  1
  O  O71  1  0.66502000  0.67137200  0.77290800  1
  O  O72  1  0.65781100  0.66734000  0.27085000  1
  O  O73  1  0.51229600  0.66985600  0.42078000  1
  O  O74  1  0.90353500  0.47789900  0.07335200  1
  O  O75  1  0.81191600  0.51202500  0.41643600  1
  O  O76  1  0.33863700  0.74380200  0.58816000  1
  O  O77  1  0.20950000  0.79050000  0.00000000  1
  O  O78  1  0.23658600  0.75514500  0.81692200  1
  O  O79  1  0.47706900  0.61774400  0.07207600  1
  O  O80  1  0.66449600  0.52032300  0.92427800  1
  O  O81  1  0.61752600  0.47670100  0.57214000  1
  O  O82  1  0.91463800  0.33826000  0.59039900  1
  O  O83  1  0.01003400  0.23723400  0.81707000  1
  O  O84  1  0.99942300  0.20840200  0.99940700  1
  O  O85  1  0.74281500  0.34220600  0.08506100  1
  O  O86  1  0.76368400  0.24317500  0.32011900  1
  O  O87  1  0.79070600  0.20929400  0.50000000  1
