# generated using pymatgen
data_Li3PS4
_symmetry_space_group_name_H-M   'P 1'
_cell_length_a   6.22180500
_cell_length_b   7.92446900
_cell_length_c   13.42311500
_cell_angle_alpha   90.00000000
_cell_angle_beta   90.00000000
_cell_angle_gamma   90.00000000
_symmetry_Int_Tables_number   1
_chemical_formula_structural   Li3PS4
_chemical_formula_sum   'Li12 P4 S16'
_cell_volume   661.81998488
_cell_formula_units_Z   4
loop_
 _symmetry_equiv_pos_site_id
 _symmetry_equiv_pos_as_xyz
  1  'x, y, z'
loop_
 _atom_site_type_symbol
 _atom_site_label
 _atom_site_symmetry_multiplicity
 _atom_site_fract_x
 _atom_site_fract_y
 _atom_site_fract_z
 _atom_site_occupancy
  Li  Li0  1  0.70109600  0.50045800  0.15942700  1
  Li  Li1  1  0.20109600  0.49954200  0.34057300  1
  Li  Li2  1  0.29890400  0.00045800  0.84057300  1
  Li  Li3  1  0.79890400  0.99954200  0.65942700  1
  Li  Li4  1  0.29890400  0.49954200  0.84057300  1
  Li  Li5  1  0.79890400  0.50045800  0.65942700  1
  Li  Li6  1  0.70109600  0.99954200  0.15942700  1
  Li  Li7  1  0.20109600  0.00045800  0.34057300  1
  Li  Li8  1  0.78834600  0.25000000  0.43013800  1
  Li  Li9  1  0.28834600  0.75000000  0.06986200  1
  Li  Li10  1  0.21165400  0.75000000  0.56986200  1
  Li  Li11  1  0.71165400  0.25000000  0.93013800  1
  P  P12  1  0.69571400  0.75000000  0.40747300  1
  P  P13  1  0.80428600  0.75000000  0.90747300  1
  P  P14  1  0.30428600  0.25000000  0.59252700  1
  P  P15  1  0.19571400  0.25000000  0.09252700  1
  S  S16  1  0.63714700  0.25000000  0.59559500  1
  S  S17  1  0.80252300  0.96352400  0.33555000  1
  S  S18  1  0.13714700  0.75000000  0.90440500  1
  S  S19  1  0.36285300  0.75000000  0.40440500  1
  S  S20  1  0.80252300  0.53647600  0.33555000  1
  S  S21  1  0.30252300  0.03647600  0.16445000  1
  S  S22  1  0.19747700  0.46352400  0.66445000  1
  S  S23  1  0.69747700  0.53647600  0.83555000  1
  S  S24  1  0.19747700  0.03647600  0.66445000  1
  S  S25  1  0.69747700  0.96352400  0.83555000  1
  S  S26  1  0.79994900  0.75000000  0.55266200  1
  S  S27  1  0.30252300  0.46352400  0.16445000  1
  S  S28  1  0.70005100  0.75000000  0.05266200  1
  S  S29  1  0.20005100  0.25000000  0.44733800  1
  S  S30  1  0.29994900  0.25000000  0.94733800  1
  S  S31  1  0.86285300  0.25000000  0.09559500  1
