# generated using pymatgen
data_Li4Mn2Fe3Sn3O16
_symmetry_space_group_name_H-M   'P 1'
_cell_length_a   6.10149904
_cell_length_b   6.10149904
_cell_length_c   9.68051866
_cell_angle_alpha   88.98254684
_cell_angle_beta   88.98254684
_cell_angle_gamma   60.65332635
_symmetry_Int_Tables_number   1
_chemical_formula_structural   Li4Mn2Fe3Sn3O16
_chemical_formula_sum   'Li4 Mn2 Fe3 Sn3 O16'
_cell_volume   314.07405769
_cell_formula_units_Z   1
loop_
 _symmetry_equiv_pos_site_id
 _symmetry_equiv_pos_as_xyz
  1  'x, y, z'
loop_
 _atom_site_type_symbol
 _atom_site_label
 _atom_site_symmetry_multiplicity
 _atom_site_fract_x
 _atom_site_fract_y
 _atom_site_fract_z
 _atom_site_occupancy
  Li  Li0  1  0.67494800  0.67494800  0.10699800  1
  Li  Li1  1  0.98487000  0.98487000  0.00987300  1
  Li  Li2  1  0.98624300  0.98624300  0.50203000  1
  Li  Li3  1  0.34048600  0.34048600  0.60103400  1
  Mn  Mn4  1  0.67174300  0.67174300  0.50830800  1
  Mn  Mn5  1  0.34381900  0.34381900  0.01953200  1
  Fe  Fe6  1  0.83443300  0.83443300  0.78128400  1
  Fe  Fe7  1  0.16850300  0.66781900  0.28705000  1
  Fe  Fe8  1  0.66781900  0.16850300  0.28705000  1
  Sn  Sn9  1  0.34170300  0.84273500  0.79012600  1
  Sn  Sn10  1  0.84273500  0.34170300  0.79012600  1
  Sn  Sn11  1  0.17099300  0.17099300  0.28845100  1
  O  O12  1  0.31829500  0.83880800  0.39895700  1
  O  O13  1  0.52858000  0.52858000  0.65414400  1
  O  O14  1  0.67510100  0.67510100  0.90341300  1
  O  O15  1  0.00447300  0.00447300  0.68934700  1
  O  O16  1  0.99845100  0.99845100  0.19121000  1
  O  O17  1  0.83880800  0.31829500  0.39895700  1
  O  O18  1  0.52874300  0.97327100  0.66062000  1
  O  O19  1  0.97327100  0.52874300  0.66062000  1
  O  O20  1  0.16652700  0.16652700  0.91153200  1
  O  O21  1  0.82778800  0.82778800  0.39502600  1
  O  O22  1  0.05001900  0.48403100  0.14984200  1
  O  O23  1  0.48403100  0.05001900  0.14984200  1
  O  O24  1  0.33866000  0.33866000  0.39509000  1
  O  O25  1  0.16570400  0.67336700  0.90463300  1
  O  O26  1  0.48164100  0.48164100  0.14976000  1
  O  O27  1  0.67336700  0.16570400  0.90463300  1
