# generated using pymatgen
data_Li4Fe2Cu3Sn3O16
_symmetry_space_group_name_H-M   'P 1'
_cell_length_a   6.04514910
_cell_length_b   6.10305200
_cell_length_c   9.64526613
_cell_angle_alpha   90.01871710
_cell_angle_beta   89.66665314
_cell_angle_gamma   120.32360262
_symmetry_Int_Tables_number   1
_chemical_formula_structural   Li4Fe2Cu3Sn3O16
_chemical_formula_sum   'Li4 Fe2 Cu3 Sn3 O16'
_cell_volume   307.15966016
_cell_formula_units_Z   1
loop_
 _symmetry_equiv_pos_site_id
 _symmetry_equiv_pos_as_xyz
  1  'x, y, z'
loop_
 _atom_site_type_symbol
 _atom_site_label
 _atom_site_symmetry_multiplicity
 _atom_site_fract_x
 _atom_site_fract_y
 _atom_site_fract_z
 _atom_site_occupancy
  Li  Li0  1  0.34934400  0.67479800  0.88506400  1
  Li  Li1  1  0.96367100  0.98197400  0.99060500  1
  Li  Li2  1  0.97346800  0.98679200  0.50224000  1
  Li  Li3  1  0.67621400  0.33803500  0.39761600  1
  Fe  Fe4  1  0.33833300  0.66967500  0.49768300  1
  Fe  Fe5  1  0.67730900  0.33870100  0.98645100  1
  Cu  Cu6  1  0.66199800  0.83129600  0.21578600  1
  Cu  Cu7  1  0.83239300  0.66099900  0.71341500  1
  Cu  Cu8  1  0.83249400  0.17153800  0.71365400  1
  Sn  Sn9  1  0.17202600  0.83161100  0.21450200  1
  Sn  Sn10  1  0.17062700  0.33978600  0.21392300  1
  Sn  Sn11  1  0.34106400  0.17022000  0.71339200  1
  O  O12  1  0.16190400  0.83653300  0.59460500  1
  O  O13  1  0.03713200  0.51853500  0.34531900  1
  O  O14  1  0.34795700  0.67379100  0.09965400  1
  O  O15  1  0.98770800  0.99364200  0.31483000  1
  O  O16  1  0.97976600  0.98967900  0.80364800  1
  O  O17  1  0.16195900  0.32543200  0.59423400  1
  O  O18  1  0.48674900  0.96413000  0.34430600  1
  O  O19  1  0.48750000  0.52264100  0.34452200  1
  O  O20  1  0.32337700  0.16189500  0.09204500  1
  O  O21  1  0.65907800  0.82929000  0.60251300  1
  O  O22  1  0.52641100  0.48465300  0.84340400  1
  O  O23  1  0.52644800  0.04181900  0.84342900  1
  O  O24  1  0.68842800  0.34448000  0.60787500  1
  O  O25  1  0.83547500  0.66930400  0.09681100  1
  O  O26  1  0.96410900  0.48209700  0.83946900  1
  O  O27  1  0.83705700  0.16695300  0.09684500  1
