# generated using pymatgen
data_Li9Mn2Co5O16
_symmetry_space_group_name_H-M   'P 1'
_cell_length_a   5.87653900
_cell_length_b   5.90172649
_cell_length_c   8.27251998
_cell_angle_alpha   91.02346331
_cell_angle_beta   90.00644121
_cell_angle_gamma   90.38100536
_symmetry_Int_Tables_number   1
_chemical_formula_structural   Li9Mn2Co5O16
_chemical_formula_sum   'Li9 Mn2 Co5 O16'
_cell_volume   286.85314855
_cell_formula_units_Z   1
loop_
 _symmetry_equiv_pos_site_id
 _symmetry_equiv_pos_as_xyz
  1  'x, y, z'
loop_
 _atom_site_type_symbol
 _atom_site_label
 _atom_site_symmetry_multiplicity
 _atom_site_fract_x
 _atom_site_fract_y
 _atom_site_fract_z
 _atom_site_occupancy
  Li  Li0  1  0.00000000  0.50000000  0.00000000  1
  Li  Li1  1  0.25493900  0.74804700  0.25463100  1
  Li  Li2  1  0.25609200  0.25494900  0.74387100  1
  Li  Li3  1  0.50000000  0.50000000  0.00000000  1
  Li  Li4  1  0.50000000  0.00000000  0.50000000  1
  Li  Li5  1  0.74506100  0.25195300  0.74536900  1
  Li  Li6  1  0.74390800  0.74505100  0.25612900  1
  Li  Li7  1  0.00000000  0.00000000  0.50000000  1
  Li  Li8  1  0.50000000  0.50000000  0.50000000  1
  Mn  Mn9  1  0.00000000  0.00000000  0.00000000  1
  Mn  Mn10  1  0.00000000  0.50000000  0.50000000  1
  Co  Co11  1  0.25683400  0.25980100  0.25482400  1
  Co  Co12  1  0.74316600  0.74019900  0.74517600  1
  Co  Co13  1  0.50000000  0.00000000  0.00000000  1
  Co  Co14  1  0.74380700  0.25276000  0.25739100  1
  Co  Co15  1  0.25619300  0.74724000  0.74260900  1
  O  O16  1  0.76160000  0.77155300  0.00027000  1
  O  O17  1  0.00858900  0.01719300  0.23333300  1
  O  O18  1  0.99987200  0.50358100  0.73426700  1
  O  O19  1  0.23540000  0.76815600  0.98913600  1
  O  O20  1  0.23157300  0.26596200  0.49458200  1
  O  O21  1  0.50906300  0.52164400  0.75891100  1
  O  O22  1  0.49781200  0.00570000  0.23991400  1
  O  O23  1  0.76493600  0.26215600  0.48568500  1
  O  O24  1  0.23840000  0.22844700  0.99973000  1
  O  O25  1  0.49093700  0.47835600  0.24108900  1
  O  O26  1  0.50218800  0.99430000  0.76008600  1
  O  O27  1  0.76460000  0.23184400  0.01086400  1
  O  O28  1  0.76842700  0.73403800  0.50541800  1
  O  O29  1  0.99141100  0.98280700  0.76666700  1
  O  O30  1  0.00012800  0.49641900  0.26573300  1
  O  O31  1  0.23506400  0.73784400  0.51431500  1
