# generated using pymatgen
data_Li2B12H33N7
_symmetry_space_group_name_H-M   'P 1'
_cell_length_a   8.80101182
_cell_length_b   15.39919142
_cell_length_c   16.56547638
_cell_angle_alpha   90.00000000
_cell_angle_beta   98.56155526
_cell_angle_gamma   90.00000000
_symmetry_Int_Tables_number   1
_chemical_formula_structural   Li2B12H33N7
_chemical_formula_sum   'Li8 B48 H132 N28'
_cell_volume   2220.07538420
_cell_formula_units_Z   4
loop_
 _symmetry_equiv_pos_site_id
 _symmetry_equiv_pos_as_xyz
  1  'x, y, z'
loop_
 _atom_site_type_symbol
 _atom_site_label
 _atom_site_symmetry_multiplicity
 _atom_site_fract_x
 _atom_site_fract_y
 _atom_site_fract_z
 _atom_site_occupancy
  Li  Li0  1  0.68670730  0.99938731  0.81451353  1
  Li  Li1  1  0.18670730  0.50061269  0.31451353  1
  Li  Li2  1  0.31329270  0.00061269  0.18548647  1
  Li  Li3  1  0.81329270  0.49938731  0.68548647  1
  Li  Li4  1  0.67293312  0.64892067  0.05733746  1
  Li  Li5  1  0.17293312  0.85107933  0.55733746  1
  Li  Li6  1  0.32706688  0.35107933  0.94266254  1
  Li  Li7  1  0.82706688  0.14892067  0.44266254  1
  B  B8  1  0.15282300  0.74350309  0.82456738  1
  B  B9  1  0.65282300  0.75649691  0.32456738  1
  B  B10  1  0.84717700  0.25649691  0.17543262  1
  B  B11  1  0.34717700  0.24350309  0.67543262  1
  B  B12  1  0.32896707  0.68554856  0.84835802  1
  B  B13  1  0.82896707  0.81445144  0.34835802  1
  B  B14  1  0.67103293  0.31445144  0.15164198  1
  B  B15  1  0.17103293  0.18554856  0.65164198  1
  B  B16  1  0.32962035  0.80096724  0.84516445  1
  B  B17  1  0.82962035  0.69903276  0.34516445  1
  B  B18  1  0.67037965  0.19903276  0.15483555  1
  B  B19  1  0.17037965  0.30096724  0.65483555  1
  B  B20  1  0.16567722  0.83913467  0.88577491  1
  B  B21  1  0.66567722  0.66086533  0.38577491  1
  B  B22  1  0.83432278  0.16086533  0.11422509  1
  B  B23  1  0.33432278  0.33913467  0.61422509  1
  B  B24  1  0.06340768  0.74695409  0.91414712  1
  B  B25  1  0.56340768  0.75304591  0.41414712  1
  B  B26  1  0.93659232  0.25304591  0.08585288  1
  B  B27  1  0.43659232  0.24695409  0.58585288  1
  B  B28  1  0.16423893  0.65220064  0.89103529  1
  B  B29  1  0.66423893  0.84779936  0.39103529  1
  B  B30  1  0.83576107  0.34779936  0.10896471  1
  B  B31  1  0.33576107  0.15220064  0.60896471  1
  B  B32  1  0.45054318  0.74534178  0.92423739  1
  B  B33  1  0.95054318  0.75465822  0.42423739  1
  B  B34  1  0.54945682  0.25465822  0.07576261  1
  B  B35  1  0.04945682  0.24534178  0.57576261  1
  B  B36  1  0.34969070  0.84006802  0.94740759  1
  B  B37  1  0.84969070  0.65993198  0.44740759  1
  B  B38  1  0.65030930  0.15993198  0.05259241  1
  B  B39  1  0.15030930  0.34006802  0.55259241  1
  B  B40  1  0.18490036  0.80660468  0.98995218  1
  B  B41  1  0.68490036  0.69339532  0.48995218  1
  B  B42  1  0.81509964  0.19339532  0.01004782  1
  B  B43  1  0.31509964  0.30660468  0.51004782  1
  B  B44  1  0.18421786  0.69111706  0.99324136  1
  B  B45  1  0.68421786  0.80888294  0.49324136  1
  B  B46  1  0.81578214  0.30888294  0.00675864  1
  B  B47  1  0.31578214  0.19111706  0.50675864  1
  B  B48  1  0.34825515  0.65333113  0.95262768  1
  B  B49  1  0.84825515  0.84666887  0.45262768  1
  B  B50  1  0.65174485  0.34666887  0.04737232  1
  B  B51  1  0.15174485  0.15333113  0.54737232  1
  B  B52  1  0.36094986  0.74884678  0.01378520  1
  B  B53  1  0.86094986  0.75115322  0.51378520  1
  B  B54  1  0.63905014  0.25115322  0.98621480  1
  B  B55  1  0.13905014  0.24884678  0.48621480  1
  H  H56  1  0.87990329  0.92300821  0.93565024  1
  H  H57  1  0.37990329  0.57699179  0.43565024  1
  H  H58  1  0.12009671  0.07699179  0.06434976  1
  H  H59  1  0.62009671  0.42300821  0.56434976  1
  H  H60  1  0.70014964  0.91148959  0.94947225  1
  H  H61  1  0.20014964  0.58851041  0.44947225  1
  H  H62  1  0.29985036  0.08851041  0.05052775  1
  H  H63  1  0.79985036  0.41148959  0.55052775  1
  H  H64  1  0.79001160  0.00335867  0.97450670  1
  H  H65  1  0.29001160  0.49664133  0.47450670  1
  H  H66  1  0.20998840  0.99664133  0.02549330  1
  H  H67  1  0.70998840  0.50335867  0.52549330  1
  H  H68  1  0.70254940  0.88477669  0.68589990  1
  H  H69  1  0.20254940  0.61522331  0.18589990  1
  H  H70  1  0.29745060  0.11522331  0.31410010  1
  H  H71  1  0.79745060  0.38477669  0.81410010  1
  H  H72  1  0.63538949  0.84158052  0.76362205  1
  H  H73  1  0.13538949  0.65841948  0.26362205  1
  H  H74  1  0.36461051  0.15841948  0.23637795  1
  H  H75  1  0.86461051  0.34158052  0.73637795  1
  H  H76  1  0.82012401  0.85748710  0.76843964  1
  H  H77  1  0.32012401  0.64251290  0.26843964  1
  H  H78  1  0.17987599  0.14251290  0.23156036  1
  H  H79  1  0.67987599  0.35748710  0.73156036  1
  H  H80  1  0.88230772  0.11357353  0.75183015  1
  H  H81  1  0.38230772  0.38642647  0.25183015  1
  H  H82  1  0.11769228  0.88642647  0.24816985  1
  H  H83  1  0.61769228  0.61357353  0.74816985  1
  H  H84  1  0.77820851  0.15879366  0.81433584  1
  H  H85  1  0.27820851  0.34120634  0.31433584  1
  H  H86  1  0.22179149  0.84120634  0.18566416  1
  H  H87  1  0.72179149  0.65879366  0.68566416  1
  H  H88  1  0.70167193  0.13804596  0.72030628  1
  H  H89  1  0.20167193  0.36195404  0.22030628  1
  H  H90  1  0.29832807  0.86195404  0.27969372  1
  H  H91  1  0.79832807  0.63804596  0.77969372  1
  H  H92  1  0.48008140  0.09109514  0.87237630  1
  H  H93  1  0.98008140  0.40890486  0.37237630  1
  H  H94  1  0.51991860  0.90890486  0.12762370  1
  H  H95  1  0.01991860  0.59109514  0.62762370  1
  H  H96  1  0.39887171  0.99652689  0.84876646  1
  H  H97  1  0.89887171  0.50347311  0.34876646  1
  H  H98  1  0.60112829  0.00347311  0.15123354  1
  H  H99  1  0.10112829  0.49652689  0.65123354  1
  H  H100  1  0.40387356  0.07130871  0.77767735  1
  H  H101  1  0.90387356  0.42869129  0.27767735  1
  H  H102  1  0.59612644  0.92869129  0.22232265  1
  H  H103  1  0.09612644  0.57130871  0.72232265  1
  H  H104  1  0.90838025  0.75702998  0.07604815  1
  H  H105  1  0.40838025  0.74297002  0.57604815  1
  H  H106  1  0.09161975  0.24297002  0.92395185  1
  H  H107  1  0.59161975  0.25702998  0.42395185  1
  H  H108  1  0.84904629  0.74380908  0.16539703  1
  H  H109  1  0.34904629  0.75619092  0.66539703  1
  H  H110  1  0.15095371  0.25619092  0.83460297  1
  H  H111  1  0.65095371  0.24380908  0.33460297  1
  H  H112  1  0.75582124  0.80817175  0.09717568  1
  H  H113  1  0.25582124  0.69182825  0.59717568  1
  H  H114  1  0.24417876  0.19182825  0.90282432  1
  H  H115  1  0.74417876  0.30817175  0.40282432  1
  H  H116  1  0.80005817  0.51081355  0.00069220  1
  H  H117  1  0.30005817  0.98918645  0.50069220  1
  H  H118  1  0.19994183  0.48918645  0.99930780  1
  H  H119  1  0.69994183  0.01081355  0.49930780  1
  H  H120  1  0.88266249  0.59798066  0.96854292  1
  H  H121  1  0.38266249  0.90201934  0.46854292  1
  H  H122  1  0.11733751  0.40201934  0.03145708  1
  H  H123  1  0.61733751  0.09798066  0.53145708  1
  H  H124  1  0.71092457  0.56834559  0.92491067  1
  H  H125  1  0.21092457  0.93165441  0.42491067  1
  H  H126  1  0.28907543  0.43165441  0.07508933  1
  H  H127  1  0.78907543  0.06834559  0.57508933  1
  H  H128  1  0.65185019  0.51184215  0.15100046  1
  H  H129  1  0.15185019  0.98815785  0.65100046  1
  H  H130  1  0.34814981  0.48815785  0.84899954  1
  H  H131  1  0.84814981  0.01184215  0.34899954  1
  H  H132  1  0.49460214  0.56971177  0.14423064  1
  H  H133  1  0.99460214  0.93028823  0.64423064  1
  H  H134  1  0.50539786  0.43028823  0.85576936  1
  H  H135  1  0.00539786  0.06971177  0.35576936  1
  H  H136  1  0.64625897  0.59934670  0.20799613  1
  H  H137  1  0.14625897  0.90065330  0.70799613  1
  H  H138  1  0.35374103  0.40065330  0.79200387  1
  H  H139  1  0.85374103  0.09934670  0.29200387  1
  H  H140  1  0.13215231  0.65191724  0.04601625  1
  H  H141  1  0.63215231  0.84808276  0.54601625  1
  H  H142  1  0.86784769  0.34808276  0.95398375  1
  H  H143  1  0.36784769  0.15191724  0.45398375  1
  H  H144  1  0.41353527  0.58726268  0.97644299  1
  H  H145  1  0.91353527  0.91273732  0.47644299  1
  H  H146  1  0.58646473  0.41273732  0.02355701  1
  H  H147  1  0.08646473  0.08726268  0.52355701  1
  H  H148  1  0.07867470  0.74184760  0.75740035  1
  H  H149  1  0.57867470  0.75815240  0.25740035  1
  H  H150  1  0.92132530  0.25815240  0.24259965  1
  H  H151  1  0.42132530  0.24184760  0.74259965  1
  H  H152  1  0.37997986  0.64236667  0.79778440  1
  H  H153  1  0.87997986  0.85763333  0.29778440  1
  H  H154  1  0.62002014  0.35763333  0.20221560  1
  H  H155  1  0.12002014  0.14236667  0.70221560  1
  H  H156  1  0.38129316  0.84010216  0.79234658  1
  H  H157  1  0.88129316  0.65989784  0.29234658  1
  H  H158  1  0.61870684  0.15989784  0.20765342  1
  H  H159  1  0.11870684  0.34010216  0.70765342  1
  H  H160  1  0.10104738  0.90542421  0.86195852  1
  H  H161  1  0.60104738  0.59457579  0.36195852  1
  H  H162  1  0.89895262  0.09457579  0.13804148  1
  H  H163  1  0.39895262  0.40542421  0.63804148  1
  H  H164  1  0.92573101  0.74768599  0.91048711  1
  H  H165  1  0.42573101  0.75231401  0.41048711  1
  H  H166  1  0.07426899  0.25231401  0.08951289  1
  H  H167  1  0.57426899  0.24768599  0.58951289  1
  H  H168  1  0.09815845  0.58526755  0.87117822  1
  H  H169  1  0.59815845  0.91473245  0.37117822  1
  H  H170  1  0.90184155  0.41473245  0.12882178  1
  H  H171  1  0.40184155  0.08526755  0.62882178  1
  H  H172  1  0.13312165  0.84947278  0.04022162  1
  H  H173  1  0.63312165  0.65052722  0.54022162  1
  H  H174  1  0.86687835  0.15052722  0.95977838  1
  H  H175  1  0.36687835  0.34947278  0.45977838  1
  H  H176  1  0.43509379  0.75053840  0.08106151  1
  H  H177  1  0.93509379  0.74946160  0.58106151  1
  H  H178  1  0.56490621  0.24946160  0.91893849  1
  H  H179  1  0.06490621  0.25053840  0.41893849  1
  H  H180  1  0.58832107  0.74470408  0.92791243  1
  H  H181  1  0.08832107  0.75529592  0.42791243  1
  H  H182  1  0.41167893  0.25529592  0.07208757  1
  H  H183  1  0.91167893  0.24470408  0.57208757  1
  H  H184  1  0.41588133  0.90684943  0.96761380  1
  H  H185  1  0.91588133  0.59315057  0.46761380  1
  H  H186  1  0.58411867  0.09315057  0.03238620  1
  H  H187  1  0.08411867  0.40684943  0.53238620  1
  N  N188  1  0.77694806  0.95481675  0.93183918  1
  N  N189  1  0.27694806  0.54518325  0.43183918  1
  N  N190  1  0.22305194  0.04518325  0.06816082  1
  N  N191  1  0.72305194  0.45481675  0.56816082  1
  N  N192  1  0.71500936  0.88468477  0.74821359  1
  N  N193  1  0.21500936  0.61531523  0.24821359  1
  N  N194  1  0.28499064  0.11531523  0.25178641  1
  N  N195  1  0.78499064  0.38468477  0.75178641  1
  N  N196  1  0.77520407  0.11361264  0.76872405  1
  N  N197  1  0.27520407  0.38638736  0.26872405  1
  N  N198  1  0.22479593  0.88638736  0.23127595  1
  N  N199  1  0.72479593  0.61361264  0.73127595  1
  N  N200  1  0.46563452  0.04378781  0.82847199  1
  N  N201  1  0.96563452  0.45621219  0.32847199  1
  N  N202  1  0.53436548  0.95621219  0.17152801  1
  N  N203  1  0.03436548  0.54378781  0.67152801  1
  N  N204  1  0.81261116  0.75037727  0.10398244  1
  N  N205  1  0.31261116  0.74962273  0.60398244  1
  N  N206  1  0.18738884  0.24962273  0.89601756  1
  N  N207  1  0.68738884  0.25037727  0.39601756  1
  N  N208  1  0.78008951  0.57293261  0.98000618  1
  N  N209  1  0.28008951  0.92706739  0.48000618  1
  N  N210  1  0.21991049  0.42706739  0.01999382  1
  N  N211  1  0.71991049  0.07293261  0.51999382  1
  N  N212  1  0.61163623  0.57413281  0.15094320  1
  N  N213  1  0.11163623  0.92586719  0.65094320  1
  N  N214  1  0.38836377  0.42586719  0.84905680  1
  N  N215  1  0.88836377  0.07413281  0.34905680  1
