# generated using pymatgen
data_LiCo5O7F
_symmetry_space_group_name_H-M   'P 1'
_cell_length_a   5.83448898
_cell_length_b   5.82734410
_cell_length_c   10.21458286
_cell_angle_alpha   74.59163269
_cell_angle_beta   91.63831751
_cell_angle_gamma   61.23474457
_symmetry_Int_Tables_number   1
_chemical_formula_structural   LiCo5O7F
_chemical_formula_sum   'Li2 Co10 O14 F2'
_cell_volume   288.41965024
_cell_formula_units_Z   2
loop_
 _symmetry_equiv_pos_site_id
 _symmetry_equiv_pos_as_xyz
  1  'x, y, z'
loop_
 _atom_site_type_symbol
 _atom_site_label
 _atom_site_symmetry_multiplicity
 _atom_site_fract_x
 _atom_site_fract_y
 _atom_site_fract_z
 _atom_site_occupancy
  Li  Li0  1  0.02190100  0.01313600  0.00713900  1
  Li  Li1  1  0.51451900  0.01308600  0.50180300  1
  Co  Co2  1  0.36020500  0.23608600  0.12422300  1
  Co  Co3  1  0.86188100  0.23998400  0.62278300  1
  Co  Co4  1  0.93629400  0.62454900  0.31272000  1
  Co  Co5  1  0.43516000  0.12609600  0.81176200  1
  Co  Co6  1  0.93815600  0.62332100  0.81142500  1
  Co  Co7  1  0.44198400  0.62883600  0.81203400  1
  Co  Co8  1  0.68313400  0.61846500  0.06355700  1
  Co  Co9  1  0.17519300  0.61276000  0.56150500  1
  Co  Co10  1  0.92094200  0.12750100  0.30782000  1
  Co  Co11  1  0.43540000  0.61416100  0.30778900  1
  O  O12  1  0.56050400  0.37671800  0.18320000  1
  O  O13  1  0.06677100  0.38610100  0.68017600  1
  O  O14  1  0.01979500  0.38277800  0.19550000  1
  O  O15  1  0.52934400  0.38552100  0.69847900  1
  O  O16  1  0.57861000  0.82433200  0.19536000  1
  O  O17  1  0.08454400  0.83115200  0.69747500  1
  O  O18  1  0.79876100  0.38599400  0.41467800  1
  O  O19  1  0.29163000  0.37252100  0.91961400  1
  O  O20  1  0.07364700  0.85859700  0.21378000  1
  O  O21  1  0.59161400  0.88278200  0.70836200  1
  O  O22  1  0.29130500  0.42374000  0.42473700  1
  O  O23  1  0.79332300  0.43139300  0.92824900  1
  O  O24  1  0.84486400  0.86882600  0.42357500  1
  O  O25  1  0.36113600  0.86270000  0.92874800  1
  F  F26  1  0.31474200  0.87059400  0.44736600  1
  F  F27  1  0.82464700  0.87827500  0.94614800  1
