# generated using pymatgen
data_LiFe2Rh3O8
_symmetry_space_group_name_H-M   'P 1'
_cell_length_a   5.99243790
_cell_length_b   5.99243790
_cell_length_c   5.99243774
_cell_angle_alpha   61.61836375
_cell_angle_beta   61.61836375
_cell_angle_gamma   61.61836592
_symmetry_Int_Tables_number   1
_chemical_formula_structural   LiFe2Rh3O8
_chemical_formula_sum   'Li1 Fe2 Rh3 O8'
_cell_volume   157.68131418
_cell_formula_units_Z   1
loop_
 _symmetry_equiv_pos_site_id
 _symmetry_equiv_pos_as_xyz
  1  'x, y, z'
loop_
 _atom_site_type_symbol
 _atom_site_label
 _atom_site_symmetry_multiplicity
 _atom_site_fract_x
 _atom_site_fract_y
 _atom_site_fract_z
 _atom_site_occupancy
  Li  Li0  1  0.24711000  0.24711000  0.24711000  1
  Fe  Fe1  1  0.62260400  0.62260400  0.62260400  1
  Fe  Fe2  1  0.00376100  0.00376100  0.00376100  1
  Rh  Rh3  1  0.62337000  0.62337000  0.13016900  1
  Rh  Rh4  1  0.13016900  0.62337000  0.62337000  1
  Rh  Rh5  1  0.62337000  0.13016900  0.62337000  1
  O  O6  1  0.38748400  0.38748400  0.38748400  1
  O  O7  1  0.38699600  0.38699600  0.84154600  1
  O  O8  1  0.84154600  0.38699600  0.38699600  1
  O  O9  1  0.38699600  0.84154600  0.38699600  1
  O  O10  1  0.86763800  0.86763800  0.86763800  1
  O  O11  1  0.86757500  0.86757500  0.39380600  1
  O  O12  1  0.39380600  0.86757500  0.86757500  1
  O  O13  1  0.86757500  0.39380600  0.86757500  1
