# generated using pymatgen
data_Li7Mn5O12
_symmetry_space_group_name_H-M   'P 1'
_cell_length_a   5.99756805
_cell_length_b   6.01109304
_cell_length_c   12.90869673
_cell_angle_alpha   102.84203006
_cell_angle_beta   102.99162621
_cell_angle_gamma   91.85182678
_symmetry_Int_Tables_number   1
_chemical_formula_structural   Li7Mn5O12
_chemical_formula_sum   'Li14 Mn10 O24'
_cell_volume   440.46686196
_cell_formula_units_Z   2
loop_
 _symmetry_equiv_pos_site_id
 _symmetry_equiv_pos_as_xyz
  1  'x, y, z'
loop_
 _atom_site_type_symbol
 _atom_site_label
 _atom_site_symmetry_multiplicity
 _atom_site_fract_x
 _atom_site_fract_y
 _atom_site_fract_z
 _atom_site_occupancy
  Li  Li0  1  0.33299500  0.33338200  0.16645300  1
  Li  Li1  1  0.83368900  0.83324600  0.66685300  1
  Li  Li2  1  0.33337600  0.83338300  0.16653000  1
  Li  Li3  1  0.83298100  0.33370800  0.66710000  1
  Li  Li4  1  0.83329700  0.33327500  0.16658500  1
  Li  Li5  1  0.33395600  0.83302300  0.66688200  1
  Li  Li6  1  0.14502300  0.18961500  0.33416500  1
  Li  Li7  1  0.64346700  0.68455500  0.82538400  1
  Li  Li8  1  0.52133000  0.47633200  0.99909500  1
  Li  Li9  1  0.02389000  0.98108000  0.50828000  1
  Li  Li10  1  0.50077900  0.00385200  0.00336400  1
  Li  Li11  1  0.00387200  0.50884100  0.50621000  1
  Li  Li12  1  0.16593200  0.66234200  0.32977000  1
  Li  Li13  1  0.66245600  0.15733600  0.82725400  1
  Mn  Mn14  1  0.33326700  0.33346500  0.66663900  1
  Mn  Mn15  1  0.83340700  0.83345400  0.16669000  1
  Mn  Mn16  1  0.98889900  0.00464200  0.00018600  1
  Mn  Mn17  1  0.49016400  0.50775800  0.50040500  1
  Mn  Mn18  1  0.67767000  0.66231900  0.33305300  1
  Mn  Mn19  1  0.17636400  0.15884500  0.83272800  1
  Mn  Mn20  1  0.99904500  0.49877700  0.00090100  1
  Mn  Mn21  1  0.49669900  0.00125300  0.50174900  1
  Mn  Mn22  1  0.66772000  0.16805800  0.33241100  1
  Mn  Mn23  1  0.17002400  0.66551600  0.83170800  1
  O  O24  1  0.70437800  0.25792300  0.49170500  1
  O  O25  1  0.20695900  0.75915100  0.99477200  1
  O  O26  1  0.45957400  0.90786000  0.33853200  1
  O  O27  1  0.96211400  0.40885200  0.84161600  1
  O  O28  1  0.06551900  0.06607000  0.16057500  1
  O  O29  1  0.56469400  0.56576700  0.65934800  1
  O  O30  1  0.60120600  0.60097000  0.17264600  1
  O  O31  1  0.10209400  0.10088900  0.67387500  1
  O  O32  1  0.88395200  0.42250000  0.33366000  1
  O  O33  1  0.38282800  0.91767000  0.83483000  1
  O  O34  1  0.28374400  0.74902000  0.49855700  1
  O  O35  1  0.78260500  0.24434400  0.99956000  1
  O  O36  1  0.05577100  0.60361500  0.15775100  1
  O  O37  1  0.56009300  0.10379900  0.65962000  1
  O  O38  1  0.61097300  0.06318100  0.17553900  1
  O  O39  1  0.10672500  0.56302800  0.67387300  1
  O  O40  1  0.91228900  0.88985000  0.32466400  1
  O  O41  1  0.43267600  0.41514600  0.82625900  1
  O  O42  1  0.75455200  0.77709400  0.00858700  1
  O  O43  1  0.23387000  0.25149600  0.50718100  1
  O  O44  1  0.76142700  0.75014100  0.48989800  1
  O  O45  1  0.23715400  0.22446700  0.99909900  1
  O  O46  1  0.42946900  0.44257800  0.33416300  1
  O  O47  1  0.90502700  0.91652800  0.84328800  1
