# generated using pymatgen
data_Li9Mn2Co5O16
_symmetry_space_group_name_H-M   'P 1'
_cell_length_a   4.97526100
_cell_length_b   5.94733438
_cell_length_c   9.70659369
_cell_angle_alpha   82.76306477
_cell_angle_beta   86.13799939
_cell_angle_gamma   88.38707902
_symmetry_Int_Tables_number   1
_chemical_formula_structural   Li9Mn2Co5O16
_chemical_formula_sum   'Li9 Mn2 Co5 O16'
_cell_volume   284.22250323
_cell_formula_units_Z   1
loop_
 _symmetry_equiv_pos_site_id
 _symmetry_equiv_pos_as_xyz
  1  'x, y, z'
loop_
 _atom_site_type_symbol
 _atom_site_label
 _atom_site_symmetry_multiplicity
 _atom_site_fract_x
 _atom_site_fract_y
 _atom_site_fract_z
 _atom_site_occupancy
  Li  Li0  1  0.61711900  0.92985300  0.25371000  1
  Li  Li1  1  0.38210600  0.56270800  0.74553000  1
  Li  Li2  1  0.12148500  0.18338100  0.25345400  1
  Li  Li3  1  0.11839100  0.69001600  0.25427300  1
  Li  Li4  1  0.87265000  0.31672400  0.74761800  1
  Li  Li5  1  0.62718200  0.44277600  0.25485600  1
  Li  Li6  1  0.37890300  0.06567000  0.74605700  1
  Li  Li7  1  0.87860700  0.80581100  0.74626400  1
  Li  Li8  1  0.74957200  0.62510100  0.49923200  1
  Mn  Mn9  1  0.99938800  0.00066200  0.99963500  1
  Mn  Mn10  1  0.75229800  0.12156100  0.50182100  1
  Co  Co11  1  0.49944000  0.25281400  0.00028400  1
  Co  Co12  1  0.25657200  0.86840900  0.49818900  1
  Co  Co13  1  0.00018300  0.50025500  0.00027700  1
  Co  Co14  1  0.49960400  0.74776200  0.99987800  1
  Co  Co15  1  0.25035400  0.38021800  0.49974200  1
  O  O16  1  0.80052100  0.20641500  0.11837600  1
  O  O17  1  0.55173600  0.86618300  0.60882700  1
  O  O18  1  0.30084100  0.47558600  0.11541600  1
  O  O19  1  0.30541200  0.97661300  0.11492900  1
  O  O20  1  0.09943300  0.60554400  0.60493500  1
  O  O21  1  0.80243200  0.69704800  0.11857600  1
  O  O22  1  0.56072800  0.33438400  0.61170500  1
  O  O23  1  0.05181900  0.07170300  0.61564800  1
  O  O24  1  0.41944100  0.68182500  0.38101200  1
  O  O25  1  0.19616700  0.30362400  0.88212800  1
  O  O26  1  0.94449300  0.91557900  0.38983000  1
  O  O27  1  0.94010100  0.37894900  0.39336900  1
  O  O28  1  0.69366700  0.02531700  0.88391600  1
  O  O29  1  0.43094100  0.14888700  0.39418100  1
  O  O30  1  0.19764600  0.79278600  0.88295100  1
  O  O31  1  0.70076800  0.52583700  0.88338000  1
