# generated using pymatgen
data_Li3Mn3CoO8
_symmetry_space_group_name_H-M   'P 1'
_cell_length_a   5.83056243
_cell_length_b   5.83056243
_cell_length_c   9.54512615
_cell_angle_alpha   89.65977298
_cell_angle_beta   89.65977298
_cell_angle_gamma   119.14643211
_symmetry_Int_Tables_number   1
_chemical_formula_structural   Li3Mn3CoO8
_chemical_formula_sum   'Li6 Mn6 Co2 O16'
_cell_volume   283.38370386
_cell_formula_units_Z   2
loop_
 _symmetry_equiv_pos_site_id
 _symmetry_equiv_pos_as_xyz
  1  'x, y, z'
loop_
 _atom_site_type_symbol
 _atom_site_label
 _atom_site_symmetry_multiplicity
 _atom_site_fract_x
 _atom_site_fract_y
 _atom_site_fract_z
 _atom_site_occupancy
  Li  Li0  1  0.16523800  0.81872200  0.44363200  1
  Li  Li1  1  0.16958100  0.34955900  0.44307900  1
  Li  Li2  1  0.64826600  0.82361600  0.44348200  1
  Li  Li3  1  0.34955900  0.16958100  0.94307900  1
  Li  Li4  1  0.82361600  0.64826600  0.94348200  1
  Li  Li5  1  0.81872200  0.16523800  0.94363200  1
  Mn  Mn6  1  0.16747800  0.83412200  0.71424400  1
  Mn  Mn7  1  0.16805700  0.33640500  0.71490800  1
  Mn  Mn8  1  0.66508900  0.83302200  0.71505900  1
  Mn  Mn9  1  0.33640500  0.16805700  0.21490800  1
  Mn  Mn10  1  0.83302200  0.66508900  0.21505900  1
  Mn  Mn11  1  0.83412200  0.16747800  0.21424400  1
  Co  Co12  1  0.33531800  0.67339900  0.99737500  1
  Co  Co13  1  0.67339900  0.33531800  0.49737500  1
  O  O14  1  0.16130400  0.85114800  0.10355100  1
  O  O15  1  0.03033700  0.51783700  0.83553300  1
  O  O16  1  0.30223700  0.65181000  0.59554200  1
  O  O17  1  0.47897600  0.96650600  0.83238500  1
  O  O18  1  0.15858200  0.32034900  0.10148500  1
  O  O19  1  0.48039900  0.51370700  0.83509300  1
  O  O20  1  0.69200800  0.85219500  0.09926200  1
  O  O21  1  0.32034900  0.15858200  0.60148500  1
  O  O22  1  0.51370700  0.48039900  0.33509300  1
  O  O23  1  0.65181000  0.30223700  0.09554200  1
  O  O24  1  0.85219500  0.69200800  0.59926200  1
  O  O25  1  0.03232100  0.01804400  0.82831500  1
  O  O26  1  0.01804400  0.03232100  0.32831500  1
  O  O27  1  0.51783700  0.03033700  0.33553300  1
  O  O28  1  0.96650600  0.47897600  0.33238500  1
  O  O29  1  0.85114800  0.16130400  0.60355100  1
