# generated using pymatgen
data_LiBeAsO5
_symmetry_space_group_name_H-M   'P 1'
_cell_length_a   4.93470800
_cell_length_b   7.84687300
_cell_length_c   10.50567100
_cell_angle_alpha   90.00000000
_cell_angle_beta   90.00000000
_cell_angle_gamma   90.00000000
_symmetry_Int_Tables_number   1
_chemical_formula_structural   LiBeAsO5
_chemical_formula_sum   'Li4 Be4 As4 O20'
_cell_volume   406.80087578
_cell_formula_units_Z   4
loop_
 _symmetry_equiv_pos_site_id
 _symmetry_equiv_pos_as_xyz
  1  'x, y, z'
loop_
 _atom_site_type_symbol
 _atom_site_label
 _atom_site_symmetry_multiplicity
 _atom_site_fract_x
 _atom_site_fract_y
 _atom_site_fract_z
 _atom_site_occupancy
  Li  Li0  1  0.16888600  0.80173400  0.68654000  1
  Li  Li1  1  0.66888600  0.19826600  0.31346000  1
  Li  Li2  1  0.66888600  0.30173400  0.81346000  1
  Li  Li3  1  0.16888600  0.69826600  0.18654000  1
  Be  Be4  1  0.67908200  0.61358500  0.64296500  1
  Be  Be5  1  0.17908200  0.38641500  0.35703500  1
  Be  Be6  1  0.17908200  0.11358500  0.85703500  1
  Be  Be7  1  0.67908200  0.88641500  0.14296500  1
  As  As8  1  0.67982200  0.89527900  0.85300100  1
  As  As9  1  0.17982200  0.10472100  0.14699900  1
  As  As10  1  0.17982200  0.39527900  0.64699900  1
  As  As11  1  0.67982200  0.60472100  0.35300100  1
  O  O12  1  0.74097100  0.69313800  0.50039800  1
  O  O13  1  0.24097100  0.30686200  0.49960200  1
  O  O14  1  0.24097100  0.19313800  0.99960200  1
  O  O15  1  0.74097100  0.80686200  0.00039800  1
  O  O16  1  0.79494700  0.76003000  0.73866600  1
  O  O17  1  0.29494700  0.23997000  0.26133400  1
  O  O18  1  0.29494700  0.26003000  0.76133400  1
  O  O19  1  0.79494700  0.73997000  0.23866600  1
  O  O20  1  0.35534000  0.58359900  0.66384900  1
  O  O21  1  0.85534000  0.41640100  0.33615100  1
  O  O22  1  0.85534000  0.08359900  0.83615100  1
  O  O23  1  0.35534000  0.91640100  0.16384900  1
  O  O24  1  0.83995100  0.43209800  0.67052800  1
  O  O25  1  0.33995100  0.56790200  0.32947200  1
  O  O26  1  0.33995100  0.93209800  0.82947200  1
  O  O27  1  0.83995100  0.06790200  0.17052800  1
  O  O28  1  0.10100200  0.62835600  0.00212700  1
  O  O29  1  0.60100200  0.37164400  0.99787300  1
  O  O30  1  0.60100200  0.12835600  0.49787300  1
  O  O31  1  0.10100200  0.87164400  0.50212700  1
