# generated using pymatgen
data_Li5Mn2CoO8
_symmetry_space_group_name_H-M   'P 1'
_cell_length_a   2.87928887
_cell_length_b   19.15102678
_cell_length_c   5.08316895
_cell_angle_alpha   94.46173043
_cell_angle_beta   90.00806187
_cell_angle_gamma   89.98118599
_symmetry_Int_Tables_number   1
_chemical_formula_structural   Li5Mn2CoO8
_chemical_formula_sum   'Li10 Mn4 Co2 O16'
_cell_volume   279.44329910
_cell_formula_units_Z   2
loop_
 _symmetry_equiv_pos_site_id
 _symmetry_equiv_pos_as_xyz
  1  'x, y, z'
loop_
 _atom_site_type_symbol
 _atom_site_label
 _atom_site_symmetry_multiplicity
 _atom_site_fract_x
 _atom_site_fract_y
 _atom_site_fract_z
 _atom_site_occupancy
  Li  Li0  1  0.00010100  0.12422600  0.37611900  1
  Li  Li1  1  0.99989500  0.62577400  0.87387200  1
  Li  Li2  1  0.99999700  0.37500100  0.12500100  1
  Li  Li3  1  0.00000000  0.87500000  0.62499300  1
  Li  Li4  1  0.50057100  0.12256300  0.87586300  1
  Li  Li5  1  0.49943200  0.62743400  0.37412500  1
  Li  Li6  1  0.50234800  0.24331300  0.24589700  1
  Li  Li7  1  0.50187100  0.74729500  0.74175500  1
  Li  Li8  1  0.49813300  0.00270500  0.50823800  1
  Li  Li9  1  0.49764800  0.50668800  0.00411300  1
  Mn  Mn10  1  0.99731500  0.50441700  0.47751800  1
  Mn  Mn11  1  0.00268500  0.24557700  0.77249400  1
  Mn  Mn12  1  0.99894200  0.00132100  0.99551500  1
  Mn  Mn13  1  0.00112700  0.74869400  0.25446100  1
  Co  Co14  1  0.50000400  0.87499800  0.12498900  1
  Co  Co15  1  0.50000100  0.37500000  0.62499700  1
  O  O16  1  0.49897000  0.05315600  0.17204400  1
  O  O17  1  0.49693600  0.55489000  0.66190400  1
  O  O18  1  0.50303600  0.19511100  0.58811400  1
  O  O19  1  0.50104600  0.69684700  0.07795100  1
  O  O20  1  0.00245600  0.19071100  0.04847100  1
  O  O21  1  0.00127000  0.69628700  0.53895100  1
  O  O22  1  0.99869800  0.05371300  0.71105700  1
  O  O23  1  0.99754000  0.55928600  0.20154000  1
  O  O24  1  0.50232200  0.30561300  0.93083000  1
  O  O25  1  0.50059300  0.81128000  0.40437800  1
  O  O26  1  0.49764000  0.44438700  0.31918800  1
  O  O27  1  0.49941600  0.93872000  0.84562400  1
  O  O28  1  0.99772800  0.43337900  0.77003200  1
  O  O29  1  0.99966200  0.93209400  0.28166400  1
  O  O30  1  0.00227700  0.31662000  0.47997500  1
  O  O31  1  0.00034100  0.81790100  0.96833100  1
