# generated using pymatgen
data_Li9Mn2Co5O16
_symmetry_space_group_name_H-M   'P 1'
_cell_length_a   5.89130960
_cell_length_b   5.89130960
_cell_length_c   9.74546164
_cell_angle_alpha   82.43340342
_cell_angle_beta   82.43340342
_cell_angle_gamma   59.19656706
_symmetry_Int_Tables_number   1
_chemical_formula_structural   Li9Mn2Co5O16
_chemical_formula_sum   'Li9 Mn2 Co5 O16'
_cell_volume   287.17420231
_cell_formula_units_Z   1
loop_
 _symmetry_equiv_pos_site_id
 _symmetry_equiv_pos_as_xyz
  1  'x, y, z'
loop_
 _atom_site_type_symbol
 _atom_site_label
 _atom_site_symmetry_multiplicity
 _atom_site_fract_x
 _atom_site_fract_y
 _atom_site_fract_z
 _atom_site_occupancy
  Li  Li0  1  0.37780100  0.37780100  0.75359200  1
  Li  Li1  1  0.62219900  0.62219900  0.24640800  1
  Li  Li2  1  0.87340200  0.87340200  0.75446100  1
  Li  Li3  1  0.87010800  0.37693300  0.75163800  1
  Li  Li4  1  0.12989200  0.62306700  0.24836200  1
  Li  Li5  1  0.37693300  0.87010800  0.75163800  1
  Li  Li6  1  0.62306700  0.12989200  0.24836200  1
  Li  Li7  1  0.12659800  0.12659800  0.24553900  1
  Li  Li8  1  0.50000000  0.50000000  0.00000000  1
  Mn  Mn9  1  0.00000000  0.50000000  0.00000000  1
  Mn  Mn10  1  0.50000000  0.00000000  0.00000000  1
  Co  Co11  1  0.24967200  0.75032800  0.50000000  1
  Co  Co12  1  0.75032800  0.24967200  0.50000000  1
  Co  Co13  1  0.75021700  0.75021700  0.49968200  1
  Co  Co14  1  0.00000000  0.00000000  0.00000000  1
  Co  Co15  1  0.24978300  0.24978300  0.50031800  1
  O  O16  1  0.20228400  0.20228400  0.88272900  1
  O  O17  1  0.43912100  0.43912100  0.38205300  1
  O  O18  1  0.69414800  0.69414800  0.88765600  1
  O  O19  1  0.69341300  0.15991500  0.89440300  1
  O  O20  1  0.93735800  0.43735300  0.38522600  1
  O  O21  1  0.15991500  0.69341300  0.89440300  1
  O  O22  1  0.43735300  0.93735800  0.38522600  1
  O  O23  1  0.93800200  0.93800200  0.38308200  1
  O  O24  1  0.56087900  0.56087900  0.61794700  1
  O  O25  1  0.79771600  0.79771600  0.11727100  1
  O  O26  1  0.06199800  0.06199800  0.61691800  1
  O  O27  1  0.06264200  0.56264700  0.61477400  1
  O  O28  1  0.30658700  0.84008500  0.10559700  1
  O  O29  1  0.56264700  0.06264200  0.61477400  1
  O  O30  1  0.84008500  0.30658700  0.10559700  1
  O  O31  1  0.30585200  0.30585200  0.11234400  1
