# generated using pymatgen
data_Li7Mn4CoO12
_symmetry_space_group_name_H-M   'P 1'
_cell_length_a   5.15363605
_cell_length_b   10.07536359
_cell_length_c   9.75010296
_cell_angle_alpha   63.43311153
_cell_angle_beta   81.76125172
_cell_angle_gamma   100.74239459
_symmetry_Int_Tables_number   1
_chemical_formula_structural   Li7Mn4CoO12
_chemical_formula_sum   'Li14 Mn8 Co2 O24'
_cell_volume   429.82612419
_cell_formula_units_Z   2
loop_
 _symmetry_equiv_pos_site_id
 _symmetry_equiv_pos_as_xyz
  1  'x, y, z'
loop_
 _atom_site_type_symbol
 _atom_site_label
 _atom_site_symmetry_multiplicity
 _atom_site_fract_x
 _atom_site_fract_y
 _atom_site_fract_z
 _atom_site_occupancy
  Li  Li0  1  0.83146900  0.16397700  0.16474400  1
  Li  Li1  1  0.33250400  0.16398500  0.67129700  1
  Li  Li2  1  0.56813300  0.66974800  0.91726100  1
  Li  Li3  1  0.10167300  0.66978200  0.41295100  1
  Li  Li4  1  0.08188400  0.16379200  0.41811700  1
  Li  Li5  1  0.58346200  0.16704300  0.91650200  1
  Li  Li6  1  0.41550500  0.32408300  0.08513700  1
  Li  Li7  1  0.90847500  0.32409300  0.59081100  1
  Li  Li8  1  0.25052900  0.00598700  0.24404700  1
  Li  Li9  1  0.75544300  0.00601200  0.74999000  1
  Li  Li10  1  0.00999800  0.49971800  0.99553500  1
  Li  Li11  1  0.48972200  0.49972000  0.50472100  1
  Li  Li12  1  0.16578900  0.83907700  0.83008900  1
  Li  Li13  1  0.67327300  0.83907900  0.33085200  1
  Mn  Mn14  1  0.66407900  0.32811700  0.33593300  1
  Mn  Mn15  1  0.74831300  0.49657000  0.75171900  1
  Mn  Mn16  1  0.91857600  0.83718100  0.58141600  1
  Mn  Mn17  1  0.00076900  0.00163500  0.99919600  1
  Mn  Mn18  1  0.49883300  0.99767100  0.50116500  1
  Mn  Mn19  1  0.16750300  0.33494300  0.83251400  1
  Mn  Mn20  1  0.24706800  0.49405000  0.25296400  1
  Mn  Mn21  1  0.41806900  0.83622200  0.08190400  1
  Co  Co22  1  0.83469400  0.66935700  0.16530200  1
  Co  Co23  1  0.33347100  0.66692700  0.66652600  1
  O  O24  1  0.47941100  0.16446000  0.30213800  1
  O  O25  1  0.98262600  0.17136300  0.79836300  1
  O  O26  1  0.18869800  0.17136500  0.03029200  1
  O  O27  1  0.68499300  0.16444300  0.53342600  1
  O  O28  1  0.21571100  0.66109800  0.05821100  1
  O  O29  1  0.69011800  0.66675300  0.56146300  1
  O  O30  1  0.97664200  0.66674700  0.77176100  1
  O  O31  1  0.44543100  0.66108400  0.28066100  1
  O  O32  1  0.01883900  0.34209600  0.22035700  1
  O  O33  1  0.52117500  0.34113400  0.72004200  1
  O  O34  1  0.34673600  0.99322300  0.89543500  1
  O  O35  1  0.84633800  0.99393200  0.39562200  1
  O  O36  1  0.82005300  0.34114700  0.93877100  1
  O  O37  1  0.32333800  0.34212400  0.43751700  1
  O  O38  1  0.14761100  0.99392200  0.61046000  1
  O  O39  1  0.64643000  0.99322500  0.11138100  1
  O  O40  1  0.59230800  0.48556700  0.14547800  1
  O  O41  1  0.14479800  0.50094700  0.63298100  1
  O  O42  1  0.81209700  0.84675700  0.95432600  1
  O  O43  1  0.31270500  0.83331900  0.46648300  1
  O  O44  1  0.35617300  0.50091900  0.86606800  1
  O  O45  1  0.89335400  0.48556900  0.36891200  1
  O  O46  1  0.52062800  0.83331000  0.70019400  1
  O  O47  1  0.03456300  0.84672200  0.19896700  1
