# generated using pymatgen
data_Li2Fe2(CO3)3
_symmetry_space_group_name_H-M   'P 1'
_cell_length_a   7.09398079
_cell_length_b   7.88177476
_cell_length_c   7.88176716
_cell_angle_alpha   103.03238203
_cell_angle_beta   116.78318947
_cell_angle_gamma   63.21642597
_symmetry_Int_Tables_number   1
_chemical_formula_structural   Li2Fe2(CO3)3
_chemical_formula_sum   'Li4 Fe4 C6 O18'
_cell_volume   351.06901617
_cell_formula_units_Z   2
loop_
 _symmetry_equiv_pos_site_id
 _symmetry_equiv_pos_as_xyz
  1  'x, y, z'
loop_
 _atom_site_type_symbol
 _atom_site_label
 _atom_site_symmetry_multiplicity
 _atom_site_fract_x
 _atom_site_fract_y
 _atom_site_fract_z
 _atom_site_occupancy
  Li  Li0  1  0.66867700  0.04858100  0.54931800  1
  Li  Li1  1  0.16826300  0.54878200  0.04881200  1
  Li  Li2  1  0.66872000  0.45067300  0.95143500  1
  Li  Li3  1  0.16828600  0.95118400  0.45121700  1
  Fe  Fe4  1  0.84569600  0.74874700  0.25126900  1
  Fe  Fe5  1  0.34302600  0.25131400  0.74869500  1
  Fe  Fe6  1  0.43010400  0.50009800  0.49990100  1
  Fe  Fe7  1  0.92628500  0.99947100  0.00051900  1
  C  C8  1  0.48354300  0.75614600  0.24385300  1
  C  C9  1  0.99591400  0.24386300  0.75613200  1
  C  C10  1  0.67700200  0.20453200  0.20435900  1
  C  C11  1  0.17551600  0.70035700  0.70029800  1
  C  C12  1  0.67698800  0.79563800  0.79545400  1
  C  C13  1  0.17550600  0.29971300  0.29964800  1
  O  O14  1  0.29920800  0.75770900  0.24228100  1
  O  O15  1  0.81436900  0.24259900  0.75739700  1
  O  O16  1  0.58883700  0.31673900  0.31617100  1
  O  O17  1  0.08332200  0.80995400  0.80969500  1
  O  O18  1  0.58881500  0.68384300  0.68322100  1
  O  O19  1  0.08330300  0.19032700  0.19003800  1
  O  O20  1  0.58347700  0.86676100  0.35619500  1
  O  O21  1  0.09422200  0.35606000  0.86683800  1
  O  O22  1  0.58350500  0.64379600  0.13325800  1
  O  O23  1  0.09422800  0.13316000  0.64394200  1
  O  O24  1  0.83856800  0.03247000  0.25228000  1
  O  O25  1  0.34019900  0.52898200  0.74876500  1
  O  O26  1  0.83854400  0.74769300  0.96751400  1
  O  O27  1  0.34017800  0.25123800  0.47102100  1
  O  O28  1  0.12026900  0.74882900  0.52893200  1
  O  O29  1  0.61906700  0.25204900  0.03239400  1
  O  O30  1  0.12027600  0.47108100  0.25118500  1
  O  O31  1  0.61907500  0.96760800  0.74796400  1
