# generated using pymatgen
data_Li5V3P8O29
_symmetry_space_group_name_H-M   'P 1'
_cell_length_a   9.78460700
_cell_length_b   9.79716897
_cell_length_c   14.14806735
_cell_angle_alpha   89.17650227
_cell_angle_beta   89.39340064
_cell_angle_gamma   60.16558869
_symmetry_Int_Tables_number   1
_chemical_formula_structural   Li5V3P8O29
_chemical_formula_sum   'Li10 V6 P16 O58'
_cell_volume   1176.37478570
_cell_formula_units_Z   2
loop_
 _symmetry_equiv_pos_site_id
 _symmetry_equiv_pos_as_xyz
  1  'x, y, z'
loop_
 _atom_site_type_symbol
 _atom_site_label
 _atom_site_symmetry_multiplicity
 _atom_site_fract_x
 _atom_site_fract_y
 _atom_site_fract_z
 _atom_site_occupancy
  Li  Li0  1  0.77933300  0.92390700  0.94689800  1
  Li  Li1  1  0.32012300  0.77064900  0.94133500  1
  Li  Li2  1  0.90694400  0.31487200  0.93707000  1
  Li  Li3  1  0.23717400  0.67947800  0.56136200  1
  Li  Li4  1  0.76746100  0.34536900  0.44329000  1
  Li  Li5  1  0.08819900  0.67674700  0.06564000  1
  Li  Li6  1  0.32244000  0.32703600  0.39064200  1
  Li  Li7  1  0.69355700  0.08784400  0.55701000  1
  Li  Li8  1  0.22645900  0.09469800  0.06233300  1
  Li  Li9  1  0.06034000  0.99038100  0.48662300  1
  V  V10  1  0.43185600  0.56465600  0.75294100  1
  V  V11  1  0.57182600  0.42861100  0.24435100  1
  V  V12  1  0.99265300  0.56826500  0.25731800  1
  V  V13  1  0.00318600  0.43106900  0.74405000  1
  V  V14  1  0.56348000  0.99996500  0.74313200  1
  V  V15  1  0.43323900  0.99565400  0.25206800  1
  P  P16  1  0.77065300  0.91611800  0.16088900  1
  P  P17  1  0.91956600  0.77920500  0.66134800  1
  P  P18  1  0.30272900  0.91777400  0.65993600  1
  P  P19  1  0.66495800  0.66871700  0.86646500  1
  P  P20  1  0.66331200  0.65753900  0.36969400  1
  P  P21  1  0.31464200  0.77016400  0.16088500  1
  P  P22  1  0.22848000  0.68101600  0.34505600  1
  P  P23  1  0.91284700  0.32159500  0.15447100  1
  P  P24  1  0.08362700  0.67804700  0.84586900  1
  P  P25  1  0.76774000  0.32102000  0.65626100  1
  P  P26  1  0.68378500  0.22394600  0.83666100  1
  P  P27  1  0.33556800  0.33386600  0.62769000  1
  P  P28  1  0.32693300  0.33842400  0.13144800  1
  P  P29  1  0.68182600  0.09169000  0.34277700  1
  P  P30  1  0.08639000  0.21681100  0.33703400  1
  P  P31  1  0.23093500  0.08757500  0.84254900  1
  O  O32  1  0.76736700  0.01268600  0.43145000  1
  O  O33  1  0.74477000  0.92089900  0.65964500  1
  O  O34  1  0.99938800  0.74741200  0.93742500  1
  O  O35  1  0.91729700  0.75102900  0.16598700  1
  O  O36  1  0.61845000  0.90716700  0.18325100  1
  O  O37  1  0.66238800  0.81563300  0.81200900  1
  O  O38  1  0.45902100  0.92420000  0.66834800  1
  O  O39  1  0.24803000  0.00110100  0.93433300  1
  O  O40  1  0.33405900  0.91708800  0.15982600  1
  O  O41  1  0.81294500  0.66242100  0.32904100  1
  O  O42  1  0.92060600  0.62281800  0.66592200  1
  O  O43  1  0.51765200  0.80533300  0.33194300  1
  O  O44  1  0.66336600  0.69458500  0.97020000  1
  O  O45  1  0.67529800  0.62208600  0.47307800  1
  O  O46  1  0.50950500  0.67167700  0.83474700  1
  O  O47  1  0.90020400  0.48051900  0.17247700  1
  O  O48  1  0.81208700  0.51758700  0.83000000  1
  O  O49  1  0.34141500  0.74353100  0.66601200  1
  O  O50  1  0.20808400  0.78859000  0.25167600  1
  O  O51  1  0.22350400  0.76921100  0.43204000  1
  O  O52  1  0.23848000  0.75830500  0.07182300  1
  O  O53  1  0.47589900  0.61922300  0.17771700  1
  O  O54  1  0.67368400  0.50754900  0.31907600  1
  O  O55  1  0.24874400  0.66356400  0.84267400  1
  O  O56  1  0.61777600  0.47735700  0.67357800  1
  O  O57  1  0.91317700  0.34291500  0.66687800  1
  O  O58  1  0.98354500  0.80031200  0.76276800  1
  O  O59  1  0.01169500  0.80239700  0.58423800  1
  O  O60  1  0.99219900  0.20132200  0.41627400  1
  O  O61  1  0.09230500  0.64675400  0.34239800  1
  O  O62  1  0.38514300  0.52278900  0.33130700  1
  O  O63  1  0.74600400  0.33682000  0.16255800  1
  O  O64  1  0.32659100  0.48790600  0.66411400  1
  O  O65  1  0.52153300  0.37677200  0.82231400  1
  O  O66  1  0.77377600  0.22653200  0.91950400  1
  O  O67  1  0.77061400  0.24155200  0.56533700  1
  O  O68  1  0.78344700  0.20165100  0.74054300  1
  O  O69  1  0.66026100  0.26166100  0.33713300  1
  O  O70  1  0.17961600  0.48473100  0.17609700  1
  O  O71  1  0.09595100  0.51932400  0.82187100  1
  O  O72  1  0.47455300  0.33937200  0.17962100  1
  O  O73  1  0.32863000  0.35306300  0.02674500  1
  O  O74  1  0.34805800  0.32614600  0.52167300  1
  O  O75  1  0.49356300  0.18610300  0.66844300  1
  O  O76  1  0.09734600  0.36934100  0.33471300  1
  O  O77  1  0.19715800  0.32019500  0.67075100  1
  O  O78  1  0.65984600  0.07803500  0.83645700  1
  O  O79  1  0.78669400  0.00709300  0.25107500  1
  O  O80  1  0.75948100  0.00018400  0.07070800  1
  O  O81  1  0.51672900  0.10892400  0.33063800  1
  O  O82  1  0.32826400  0.18559600  0.16681000  1
  O  O83  1  0.38164600  0.09705100  0.81838000  1
  O  O84  1  0.08350300  0.25171600  0.84006000  1
  O  O85  1  0.99480900  0.24569600  0.06363600  1
  O  O86  1  0.01223600  0.20214200  0.23882500  1
  O  O87  1  0.25771800  0.07777500  0.33488600  1
  O  O88  1  0.20405600  0.00075000  0.57727000  1
  O  O89  1  0.21088400  0.99073600  0.75844000  1
