# generated using pymatgen
data_Li4MnCo2O7
_symmetry_space_group_name_H-M   'P 1'
_cell_length_a   5.18592800
_cell_length_b   5.89531424
_cell_length_c   8.58792644
_cell_angle_alpha   91.83996001
_cell_angle_beta   94.37668510
_cell_angle_gamma   109.21788495
_symmetry_Int_Tables_number   1
_chemical_formula_structural   Li4MnCo2O7
_chemical_formula_sum   'Li8 Mn2 Co4 O14'
_cell_volume   246.74457712
_cell_formula_units_Z   2
loop_
 _symmetry_equiv_pos_site_id
 _symmetry_equiv_pos_as_xyz
  1  'x, y, z'
loop_
 _atom_site_type_symbol
 _atom_site_label
 _atom_site_symmetry_multiplicity
 _atom_site_fract_x
 _atom_site_fract_y
 _atom_site_fract_z
 _atom_site_occupancy
  Li  Li0  1  0.42299500  0.85286800  0.35861200  1
  Li  Li1  1  0.28543600  0.57152000  0.07120000  1
  Li  Li2  1  0.85853600  0.71574800  0.21483800  1
  Li  Li3  1  0.71456400  0.42848000  0.92880000  1
  Li  Li4  1  0.14146400  0.28425200  0.78516200  1
  Li  Li5  1  0.57700500  0.14713200  0.64138800  1
  Li  Li6  1  0.00000000  0.00000000  0.50000000  1
  Li  Li7  1  0.00000000  0.50000000  0.50000000  1
  Mn  Mn8  1  0.57156400  0.64426800  0.64396100  1
  Mn  Mn9  1  0.42843600  0.35573200  0.35603900  1
  Co  Co10  1  0.28533600  0.06996100  0.07085300  1
  Co  Co11  1  0.14260500  0.78534100  0.78556500  1
  Co  Co12  1  0.85739500  0.21465900  0.21443500  1
  Co  Co13  1  0.71466400  0.93003900  0.92914700  1
  O  O14  1  0.68611700  0.66623600  0.43374000  1
  O  O15  1  0.55017800  0.37876100  0.14699000  1
  O  O16  1  0.15120700  0.50147900  0.28732900  1
  O  O17  1  0.97868200  0.23195900  0.00631000  1
  O  O18  1  0.40659900  0.08884500  0.86521600  1
  O  O19  1  0.83752100  0.95495300  0.71941700  1
  O  O20  1  0.30189700  0.80360100  0.59075600  1
  O  O21  1  0.16247900  0.04504700  0.28058300  1
  O  O22  1  0.02131800  0.76804100  0.99369000  1
  O  O23  1  0.59340100  0.91115500  0.13478400  1
  O  O24  1  0.44982200  0.62123900  0.85301000  1
  O  O25  1  0.84879300  0.49852100  0.71267100  1
  O  O26  1  0.31388300  0.33376400  0.56626000  1
  O  O27  1  0.69810300  0.19639900  0.40924400  1
