# generated using pymatgen
data_Li6Mn(FeO3)2
_symmetry_space_group_name_H-M   'P 1'
_cell_length_a   3.22782973
_cell_length_b   14.79897173
_cell_length_c   6.15918735
_cell_angle_alpha   82.97141390
_cell_angle_beta   105.32870388
_cell_angle_gamma   94.87326260
_symmetry_Int_Tables_number   1
_chemical_formula_structural   Li6Mn(FeO3)2
_chemical_formula_sum   'Li12 Mn2 Fe4 O12'
_cell_volume   281.19091111
_cell_formula_units_Z   2
loop_
 _symmetry_equiv_pos_site_id
 _symmetry_equiv_pos_as_xyz
  1  'x, y, z'
loop_
 _atom_site_type_symbol
 _atom_site_label
 _atom_site_symmetry_multiplicity
 _atom_site_fract_x
 _atom_site_fract_y
 _atom_site_fract_z
 _atom_site_occupancy
  Li  Li0  1  0.98998900  0.29996500  0.68627200  1
  Li  Li1  1  0.99414200  0.80254600  0.18659900  1
  Li  Li2  1  0.63781600  0.31248900  0.96144300  1
  Li  Li3  1  0.63510700  0.81068600  0.46264100  1
  Li  Li4  1  0.96654900  0.14260300  0.79589700  1
  Li  Li5  1  0.97873600  0.64571900  0.29640400  1
  Li  Li6  1  0.66321700  0.46994300  0.85206700  1
  Li  Li7  1  0.65420300  0.96771300  0.35120900  1
  Li  Li8  1  0.33205900  0.13448400  0.51597500  1
  Li  Li9  1  0.33181300  0.63348000  0.01729900  1
  Li  Li10  1  0.30072800  0.47872700  0.13107300  1
  Li  Li11  1  0.29755700  0.97997800  0.62981800  1
  Mn  Mn12  1  0.31488900  0.80732700  0.82453800  1
  Mn  Mn13  1  0.31364700  0.30665400  0.32326600  1
  Fe  Fe14  1  0.98663300  0.47274000  0.49509100  1
  Fe  Fe15  1  0.65012000  0.63902400  0.65806000  1
  Fe  Fe16  1  0.97977000  0.97342200  0.98967100  1
  Fe  Fe17  1  0.64674200  0.13974900  0.15233100  1
  O  O18  1  0.48908900  0.37805400  0.63745500  1
  O  O19  1  0.50296300  0.87602100  0.14171700  1
  O  O20  1  0.13740100  0.23522600  0.00692900  1
  O  O21  1  0.12682700  0.73722100  0.50733200  1
  O  O22  1  0.84071900  0.20860200  0.47075200  1
  O  O23  1  0.83749300  0.70740800  0.96794200  1
  O  O24  1  0.79118300  0.40385200  0.17522400  1
  O  O25  1  0.79115600  0.90600800  0.67993300  1
  O  O26  1  0.15330600  0.04283400  0.29743700  1
  O  O27  1  0.17337700  0.54320900  0.80854000  1
  O  O28  1  0.45629100  0.06994300  0.84077500  1
  O  O29  1  0.48264800  0.56985400  0.35316100  1
