# generated using pymatgen
data_Li6Ca12Mo4N16O3
_symmetry_space_group_name_H-M   'P 1'
_cell_length_a   11.37071089
_cell_length_b   11.37071089
_cell_length_c   11.37071089
_cell_angle_alpha   109.47122061
_cell_angle_beta   109.47122061
_cell_angle_gamma   109.47122065
_symmetry_Int_Tables_number   1
_chemical_formula_structural   Li6Ca12Mo4N16O3
_chemical_formula_sum   'Li12 Ca24 Mo8 N32 O6'
_cell_volume   1131.72513583
_cell_formula_units_Z   2
loop_
 _symmetry_equiv_pos_site_id
 _symmetry_equiv_pos_as_xyz
  1  'x, y, z'
loop_
 _atom_site_type_symbol
 _atom_site_label
 _atom_site_symmetry_multiplicity
 _atom_site_fract_x
 _atom_site_fract_y
 _atom_site_fract_z
 _atom_site_occupancy
  Li  Li0  1  0.25000006  0.27518032  0.02518064  1
  Li  Li1  1  0.25000017  0.97481969  0.72481920  1
  Li  Li2  1  0.77518106  0.75000023  0.52518069  1
  Li  Li3  1  0.52518064  0.77518012  0.74999950  1
  Li  Li4  1  0.72481934  0.25000044  0.97481955  1
  Li  Li5  1  0.97481956  0.72481926  0.25000036  1
  Li  Li6  1  0.75000035  0.22481947  0.47481943  1
  Li  Li7  1  0.22482008  0.47481990  0.75000038  1
  Li  Li8  1  0.27518084  0.02518097  0.25000010  1
  Li  Li9  1  0.02518113  0.25000044  0.27518053  1
  Li  Li10  1  0.47481920  0.75000023  0.22481980  1
  Li  Li11  1  0.75000053  0.52518076  0.77518107  1
  N  N12  1  0.11073398  0.11073372  0.11073411  1
  N  N13  1  0.88926616  0.49999979  0.00000006  1
  N  N14  1  0.50000003  0.00000000  0.88926678  1
  N  N15  1  0.00000057  0.88926695  0.50000047  1
  N  N16  1  0.50000003  0.00000000  0.38926664  1
  N  N17  1  0.00000022  0.38926715  0.50000017  1
  N  N18  1  0.38926613  0.49999979  0.99999980  1
  N  N19  1  0.61073343  0.61073351  0.61073361  1
  N  N20  1  0.41833271  0.36711979  0.23476996  1
  N  N21  1  0.13288054  0.55121320  0.86765026  1
  N  N22  1  0.26522969  0.63234926  0.18356247  1
  N  N23  1  0.08166747  0.31643691  0.94878662  1
  N  N24  1  0.31643691  0.94878618  0.08166675  1
  N  N25  1  0.94878715  0.08166767  0.31643740  1
  N  N26  1  0.91833248  0.73477011  0.86711923  1
  N  N27  1  0.36765055  0.05121341  0.63288089  1
  N  N28  1  0.13234999  0.76523034  0.68356306  1
  N  N29  1  0.44878644  0.81643671  0.58166691  1
  N  N30  1  0.81643736  0.58166746  0.44878714  1
  N  N31  1  0.86711977  0.91833299  0.73476980  1
  N  N32  1  0.05121321  0.63288087  0.36765024  1
  N  N33  1  0.68356286  0.13234947  0.76523035  1
  N  N34  1  0.73476992  0.86711959  0.91833278  1
  N  N35  1  0.63288025  0.36765032  0.05121325  1
  N  N36  1  0.76523037  0.68356267  0.13234950  1
  N  N37  1  0.86765070  0.13288108  0.55121379  1
  N  N38  1  0.63234955  0.18356288  0.26523025  1
  N  N39  1  0.18356267  0.26523055  0.63234919  1
  N  N40  1  0.36711947  0.23476924  0.41833277  1
  N  N41  1  0.23476966  0.41833212  0.36711921  1
  N  N42  1  0.55121315  0.86765011  0.13288015  1
  N  N43  1  0.58166717  0.44878639  0.81643712  1
  O  O44  1  0.12499958  0.87499991  0.24999995  1
  O  O45  1  0.62499966  0.75000023  0.37500009  1
  O  O46  1  0.87499980  0.25000044  0.12500045  1
  O  O47  1  0.24999950  0.12499968  0.87499949  1
  O  O48  1  0.74999997  0.37500011  0.62499966  1
  O  O49  1  0.37499962  0.62499947  0.74999995  1
  Ca  Ca50  1  0.59501149  0.53844974  0.20822716  1
  Ca  Ca51  1  0.96155056  0.55656246  0.66977726  1
  Ca  Ca52  1  0.29177290  0.83022280  0.38678481  1
  Ca  Ca53  1  0.90498818  0.11321520  0.94343778  1
  Ca  Ca54  1  0.11321551  0.94343800  0.90498846  1
  Ca  Ca55  1  0.94343723  0.90498804  0.11321480  1
  Ca  Ca56  1  0.09501155  0.70822653  0.03844971  1
  Ca  Ca57  1  0.16977788  0.05656267  0.46155105  1
  Ca  Ca58  1  0.33022229  0.79177285  0.88678475  1
  Ca  Ca59  1  0.44343776  0.61321499  0.40498808  1
  Ca  Ca60  1  0.61321532  0.40498825  0.44343771  1
  Ca  Ca61  1  0.03844989  0.09501154  0.70822686  1
  Ca  Ca62  1  0.05656204  0.46155092  0.16977749  1
  Ca  Ca63  1  0.88678475  0.33022301  0.79177346  1
  Ca  Ca64  1  0.70822763  0.03844995  0.09501235  1
  Ca  Ca65  1  0.46155047  0.16977786  0.05656260  1
  Ca  Ca66  1  0.79177275  0.88678439  0.33022273  1
  Ca  Ca67  1  0.66977798  0.96155071  0.55656247  1
  Ca  Ca68  1  0.83022260  0.38678459  0.29177314  1
  Ca  Ca69  1  0.38678484  0.29177305  0.83022262  1
  Ca  Ca70  1  0.53844927  0.20822674  0.59501196  1
  Ca  Ca71  1  0.20822683  0.59501133  0.53844899  1
  Ca  Ca72  1  0.55656205  0.66977766  0.96155052  1
  Ca  Ca73  1  0.40498840  0.44343820  0.61321575  1
  Mo  Mo74  1  0.27580218  0.27580227  0.27580211  1
  Mo  Mo75  1  0.72419831  0.49999979  0.99999986  1
  Mo  Mo76  1  0.50000003  0.00000000  0.72419866  1
  Mo  Mo77  1  0.00000022  0.72419839  0.49999991  1
  Mo  Mo78  1  0.50000003  0.00000000  0.22419853  1
  Mo  Mo79  1  0.99999987  0.22419860  0.50000049  1
  Mo  Mo80  1  0.22419828  0.49999979  0.99999960  1
  Mo  Mo81  1  0.77580163  0.77580206  0.77580160  1
