# generated using pymatgen
data_Li3Fe2(P2O7)2
_symmetry_space_group_name_H-M   'P 1'
_cell_length_a   9.84059600
_cell_length_b   9.85234200
_cell_length_c   11.22640397
_cell_angle_alpha   90.01312458
_cell_angle_beta   102.24844753
_cell_angle_gamma   90.12380516
_symmetry_Int_Tables_number   1
_chemical_formula_structural   Li3Fe2(P2O7)2
_chemical_formula_sum   'Li12 Fe8 P16 O56'
_cell_volume   1063.65372028
_cell_formula_units_Z   4
loop_
 _symmetry_equiv_pos_site_id
 _symmetry_equiv_pos_as_xyz
  1  'x, y, z'
loop_
 _atom_site_type_symbol
 _atom_site_label
 _atom_site_symmetry_multiplicity
 _atom_site_fract_x
 _atom_site_fract_y
 _atom_site_fract_z
 _atom_site_occupancy
  Li  Li0  1  0.08645100  0.10418400  0.02868100  1
  Li  Li1  1  0.14796700  0.39057400  0.03898000  1
  Li  Li2  1  0.41298500  0.61492000  0.97157900  1
  Li  Li3  1  0.31280500  0.90669600  0.44284800  1
  Li  Li4  1  0.38110000  0.22292800  0.55184700  1
  Li  Li5  1  0.61807900  0.78264400  0.45441800  1
  Li  Li6  1  0.67371300  0.08182500  0.54505400  1
  Li  Li7  1  0.58868600  0.39761300  0.02912700  1
  Li  Li8  1  0.64564100  0.09321500  0.04225900  1
  Li  Li9  1  0.90745100  0.89525100  0.96869800  1
  Li  Li10  1  0.89852900  0.55303800  0.50587900  1
  Li  Li11  1  0.89702900  0.27591000  0.54794900  1
  Fe  Fe12  1  0.20530800  0.91703400  0.67697300  1
  Fe  Fe13  1  0.25236400  0.20881500  0.82263300  1
  Fe  Fe14  1  0.24553800  0.70668300  0.17507600  1
  Fe  Fe15  1  0.29412300  0.42665300  0.33713800  1
  Fe  Fe16  1  0.70388700  0.57968900  0.68215000  1
  Fe  Fe17  1  0.75310400  0.28984600  0.82375700  1
  Fe  Fe18  1  0.74374300  0.77925700  0.16674000  1
  Fe  Fe19  1  0.80091200  0.06939200  0.32426500  1
  P  P20  1  0.02013700  0.45215700  0.75561400  1
  P  P21  1  0.11746100  0.71172200  0.88302200  1
  P  P22  1  0.05902000  0.92276000  0.23820700  1
  P  P23  1  0.12653900  0.14469300  0.42336000  1
  P  P24  1  0.37694100  0.64796600  0.57306500  1
  P  P25  1  0.43795300  0.43098700  0.75849000  1
  P  P26  1  0.52054100  0.05179400  0.75419000  1
  P  P27  1  0.37903900  0.20961200  0.11867700  1
  P  P28  1  0.61820500  0.79730100  0.87940500  1
  P  P29  1  0.47389800  0.94562900  0.24287900  1
  P  P30  1  0.55862500  0.57484900  0.24360700  1
  P  P31  1  0.62455800  0.35924500  0.42954900  1
  P  P32  1  0.87915200  0.85117000  0.58111400  1
  P  P33  1  0.93743800  0.07127300  0.75725800  1
  P  P34  1  0.87875300  0.29078400  0.11228100  1
  P  P35  1  0.97536800  0.55033100  0.24494800  1
  O  O36  1  0.01634900  0.42066500  0.62325600  1
  O  O37  1  0.03059300  0.84776600  0.57071100  1
  O  O38  1  0.08519200  0.07828500  0.72895200  1
  O  O39  1  0.10067100  0.59521500  0.77997600  1
  O  O40  1  0.10213200  0.35577000  0.85158900  1
  O  O41  1  0.19316400  0.82301700  0.82592500  1
  O  O42  1  0.21796500  0.65032500  0.00096700  1
  O  O43  1  0.02034900  0.26702900  0.08517400  1
  O  O44  1  0.12195500  0.06581500  0.29648700  1
  O  O45  1  0.06031900  0.93257900  0.10422100  1
  O  O46  1  0.13012100  0.53236100  0.21916700  1
  O  O47  1  0.19998300  0.27957400  0.40854300  1
  O  O48  1  0.16996400  0.81495200  0.29616400  1
  O  O49  1  0.22270700  0.05839000  0.52130700  1
  O  O50  1  0.29457200  0.56685700  0.46624600  1
  O  O51  1  0.34576800  0.31290000  0.69955700  1
  O  O52  1  0.31443100  0.78904800  0.58656400  1
  O  O53  1  0.36668100  0.03298800  0.76862600  1
  O  O54  1  0.37075900  0.56982100  0.69684400  1
  O  O55  1  0.43791000  0.44319800  0.89242900  1
  O  O56  1  0.48156200  0.76338000  0.90799400  1
  O  O57  1  0.26929300  0.16479300  0.00516900  1
  O  O58  1  0.31709800  0.32857800  0.17997500  1
  O  O59  1  0.39326200  0.08862100  0.21819700  1
  O  O60  1  0.40390700  0.58260500  0.26223100  1
  O  O61  1  0.38439000  0.84107100  0.15780300  1
  O  O62  1  0.47222300  0.34780200  0.44282100  1
  O  O63  1  0.52687900  0.09760800  0.62632000  1
  O  O64  1  0.47954500  0.91849400  0.37724100  1
  O  O65  1  0.53255900  0.66221400  0.56847300  1
  O  O66  1  0.60208700  0.14112800  0.85665300  1
  O  O67  1  0.58630100  0.42269400  0.72980800  1
  O  O68  1  0.59293400  0.90564900  0.76679700  1
  O  O69  1  0.68983600  0.68135400  0.82369300  1
  O  O70  1  0.71894300  0.86683200  0.98823900  1
  O  O71  1  0.51998500  0.23400400  0.09112100  1
  O  O72  1  0.56539900  0.57092500  0.11054500  1
  O  O73  1  0.61622800  0.43015600  0.29853900  1
  O  O74  1  0.61812700  0.95984200  0.20889900  1
  O  O75  1  0.69250400  0.22083700  0.42245300  1
  O  O76  1  0.65032400  0.68702700  0.31158900  1
  O  O77  1  0.71811100  0.44829700  0.52587400  1
  O  O78  1  0.78028000  0.93298500  0.48201800  1
  O  O79  1  0.83734500  0.17930700  0.68694100  1
  O  O80  1  0.81748000  0.70850200  0.59147800  1
  O  O81  1  0.86829800  0.46964000  0.77665400  1
  O  O82  1  0.93399900  0.07341700  0.89076300  1
  O  O83  1  0.87284900  0.92610500  0.70763600  1
  O  O84  1  0.97956600  0.74527600  0.90735200  1
  O  O85  1  0.77229900  0.34618900  0.00104800  1
  O  O86  1  0.81436000  0.16790500  0.16425800  1
  O  O87  1  0.89765600  0.64871300  0.14992500  1
  O  O88  1  0.89931200  0.40350600  0.21893700  1
  O  O89  1  0.91648000  0.90435200  0.27004000  1
  O  O90  1  0.97847300  0.16086800  0.44030200  1
  O  O91  1  0.97824300  0.57878000  0.37535900  1
