# generated using pymatgen
data_Li9Mn2Co5O16
_symmetry_space_group_name_H-M   'P 1'
_cell_length_a   5.90180100
_cell_length_b   6.43328807
_cell_length_c   8.11388593
_cell_angle_alpha   88.95253884
_cell_angle_beta   89.22707288
_cell_angle_gamma   65.98931461
_symmetry_Int_Tables_number   1
_chemical_formula_structural   Li9Mn2Co5O16
_chemical_formula_sum   'Li9 Mn2 Co5 O16'
_cell_volume   281.35746337
_cell_formula_units_Z   1
loop_
 _symmetry_equiv_pos_site_id
 _symmetry_equiv_pos_as_xyz
  1  'x, y, z'
loop_
 _atom_site_type_symbol
 _atom_site_label
 _atom_site_symmetry_multiplicity
 _atom_site_fract_x
 _atom_site_fract_y
 _atom_site_fract_z
 _atom_site_occupancy
  Li  Li0  1  0.74935100  0.50044400  0.00173100  1
  Li  Li1  1  0.12272800  0.24986300  0.25414400  1
  Li  Li2  1  0.37543300  0.74877200  0.74599100  1
  Li  Li3  1  0.00840600  0.99839900  0.49846600  1
  Li  Li4  1  0.62686600  0.25240500  0.25305500  1
  Li  Li5  1  0.25052700  0.50279000  0.00337600  1
  Li  Li6  1  0.87541200  0.74776100  0.74661400  1
  Li  Li7  1  0.49366000  0.99593500  0.49657000  1
  Li  Li8  1  0.37440300  0.74965800  0.25365300  1
  Mn  Mn9  1  0.00980300  0.99753400  0.99996800  1
  Mn  Mn10  1  0.87589800  0.74686100  0.25167300  1
  Co  Co11  1  0.73691500  0.50668900  0.49819800  1
  Co  Co12  1  0.12548200  0.25085500  0.74924000  1
  Co  Co13  1  0.50351700  0.99778500  0.00118200  1
  Co  Co14  1  0.24941100  0.50339200  0.49944300  1
  Co  Co15  1  0.62665100  0.24938100  0.74855300  1
  O  O16  1  0.11678300  0.24213300  0.98973000  1
  O  O17  1  0.52969400  0.97969700  0.23364900  1
  O  O18  1  0.74307700  0.48711700  0.73983100  1
  O  O19  1  0.36820600  0.73233800  0.50071100  1
  O  O20  1  0.99203300  0.99218000  0.23644500  1
  O  O21  1  0.65041400  0.22228900  0.99007500  1
  O  O22  1  0.24609900  0.48477100  0.74142600  1
  O  O23  1  0.85633200  0.74733400  0.48746200  1
  O  O24  1  0.35046800  0.78334500  0.99820700  1
  O  O25  1  0.75690300  0.50842100  0.25991700  1
  O  O26  1  0.00660400  0.01109600  0.76067900  1
  O  O27  1  0.63235600  0.25959100  0.51157000  1
  O  O28  1  0.21727800  0.51956400  0.26147900  1
  O  O29  1  0.89203500  0.75374400  0.00998300  1
  O  O30  1  0.50649500  0.01325300  0.76464000  1
  O  O31  1  0.13076000  0.26460200  0.51234000  1
