# generated using pymatgen
data_Li5V3P8O29
_symmetry_space_group_name_H-M   'P 1'
_cell_length_a   9.79589800
_cell_length_b   9.79847513
_cell_length_c   14.11378824
_cell_angle_alpha   89.86929298
_cell_angle_beta   90.51409748
_cell_angle_gamma   119.90014353
_symmetry_Int_Tables_number   1
_chemical_formula_structural   Li5V3P8O29
_chemical_formula_sum   'Li10 V6 P16 O58'
_cell_volume   1174.34100190
_cell_formula_units_Z   2
loop_
 _symmetry_equiv_pos_site_id
 _symmetry_equiv_pos_as_xyz
  1  'x, y, z'
loop_
 _atom_site_type_symbol
 _atom_site_label
 _atom_site_symmetry_multiplicity
 _atom_site_fract_x
 _atom_site_fract_y
 _atom_site_fract_z
 _atom_site_occupancy
  Li  Li0  1  0.32217400  0.66440200  0.60627800  1
  Li  Li1  1  0.22992800  0.31903800  0.94238300  1
  Li  Li2  1  0.68219700  0.90907200  0.94028000  1
  Li  Li3  1  0.33102500  0.23166400  0.55778100  1
  Li  Li4  1  0.68122900  0.77064800  0.43776100  1
  Li  Li5  1  0.31515800  0.08555200  0.06574300  1
  Li  Li6  1  0.77333400  0.67952300  0.05470000  1
  Li  Li7  1  0.76767600  0.10261400  0.55413400  1
  Li  Li8  1  0.90636800  0.23073200  0.06525000  1
  Li  Li9  1  0.02998500  0.98221200  0.49694400  1
  V  V10  1  0.43125600  0.43116400  0.74780500  1
  V  V11  1  0.56743100  0.56569400  0.25207100  1
  V  V12  1  0.42834800  0.99459700  0.25064500  1
  V  V13  1  0.56802300  0.00380100  0.75228400  1
  V  V14  1  0.99489700  0.56964400  0.74847400  1
  V  V15  1  0.00261500  0.43644600  0.25603800  1
  P  P16  1  0.08135500  0.76709700  0.15900000  1
  P  P17  1  0.22074500  0.91214200  0.66312400  1
  P  P18  1  0.08401500  0.30907600  0.65944100  1
  P  P19  1  0.33109500  0.66323600  0.86882500  1
  P  P20  1  0.33751100  0.66646000  0.37041800  1
  P  P21  1  0.22913200  0.32001500  0.16066300  1
  P  P22  1  0.31574200  0.22601200  0.34183600  1
  P  P23  1  0.67924300  0.90973000  0.15837300  1
  P  P24  1  0.31883600  0.08735800  0.84630200  1
  P  P25  1  0.67858100  0.77434400  0.65608200  1
  P  P26  1  0.76870300  0.68239600  0.83725100  1
  P  P27  1  0.66722400  0.33178900  0.62687400  1
  P  P28  1  0.66292400  0.33133000  0.13067400  1
  P  P29  1  0.91937600  0.69539400  0.34469700  1
  P  P30  1  0.77211300  0.08740700  0.33969500  1
  P  P31  1  0.91781300  0.23512800  0.84430700  1
  O  O32  1  0.98868700  0.79588000  0.42968000  1
  O  O33  1  0.07892800  0.74026500  0.66360300  1
  O  O34  1  0.25683700  0.01300700  0.93908800  1
  O  O35  1  0.25013100  0.91143600  0.15933600  1
  O  O36  1  0.09025900  0.61575000  0.17948400  1
  O  O37  1  0.18459000  0.66053100  0.81765300  1
  O  O38  1  0.09562200  0.47280500  0.66671400  1
  O  O39  1  0.00118000  0.24730800  0.93636400  1
  O  O40  1  0.08193600  0.33741300  0.15998500  1
  O  O41  1  0.33065200  0.80847200  0.32839900  1
  O  O42  1  0.37190200  0.89963100  0.66876300  1
  O  O43  1  0.19618400  0.51437900  0.33106700  1
  O  O44  1  0.32316900  0.65668500  0.97395300  1
  O  O45  1  0.35741800  0.67220800  0.47647700  1
  O  O46  1  0.32892800  0.51095700  0.82883300  1
  O  O47  1  0.52044700  0.90080500  0.17474300  1
  O  O48  1  0.48437200  0.81396600  0.83260000  1
  O  O49  1  0.25594400  0.33765100  0.65766200  1
  O  O50  1  0.20729200  0.20978900  0.25105500  1
  O  O51  1  0.23577000  0.21762500  0.43302000  1
  O  O52  1  0.24501500  0.24540500  0.07154500  1
  O  O53  1  0.38042700  0.48038000  0.18029600  1
  O  O54  1  0.49438500  0.67360400  0.32939800  1
  O  O55  1  0.33372200  0.25187100  0.83662700  1
  O  O56  1  0.51401600  0.62796500  0.67110400  1
  O  O57  1  0.65801100  0.92217500  0.66337200  1
  O  O58  1  0.20205900  0.98580300  0.76102300  1
  O  O59  1  0.20842100  0.00535700  0.58292700  1
  O  O60  1  0.77902300  0.00403400  0.42831800  1
  O  O61  1  0.34622200  0.08746700  0.33159700  1
  O  O62  1  0.47241900  0.38427000  0.32777100  1
  O  O63  1  0.66005100  0.74205000  0.15838800  1
  O  O64  1  0.51453200  0.32833500  0.66372000  1
  O  O65  1  0.61834500  0.52208700  0.81981800  1
  O  O66  1  0.76009300  0.75939300  0.92674000  1
  O  O67  1  0.76053800  0.77935600  0.56684800  1
  O  O68  1  0.78759700  0.79196400  0.74741300  1
  O  O69  1  0.74349800  0.66250000  0.33401100  1
  O  O70  1  0.50912500  0.18278800  0.16493400  1
  O  O71  1  0.47930800  0.09890800  0.82059900  1
  O  O72  1  0.66310700  0.48139700  0.17850400  1
  O  O73  1  0.66476800  0.35241500  0.02562600  1
  O  O74  1  0.67683000  0.33709300  0.52171900  1
  O  O75  1  0.81394000  0.48037100  0.67614900  1
  O  O76  1  0.61919900  0.09055600  0.32789400  1
  O  O77  1  0.67529200  0.18747300  0.66791400  1
  O  O78  1  0.91521400  0.66145500  0.83298800  1
  O  O79  1  0.00181700  0.79625400  0.25112200  1
  O  O80  1  0.98827600  0.75781200  0.07334700  1
  O  O81  1  0.91875600  0.53969100  0.33685500  1
  O  O82  1  0.81058400  0.32858000  0.17011400  1
  O  O83  1  0.90723500  0.38356000  0.82109900  1
  O  O84  1  0.75247300  0.08556400  0.84122500  1
  O  O85  1  0.75836300  0.99712200  0.06905000  1
  O  O86  1  0.79102700  0.99601700  0.24876000  1
  O  O87  1  0.91519700  0.25518600  0.33331900  1
  O  O88  1  0.98887100  0.20428300  0.58004900  1
  O  O89  1  0.01574300  0.21769300  0.75916100  1
