# generated using pymatgen
data_Li4Co3O7
_symmetry_space_group_name_H-M   'P 1'
_cell_length_a   6.37055153
_cell_length_b   6.37055153
_cell_length_c   14.28671739
_cell_angle_alpha   71.88396428
_cell_angle_beta   71.88396428
_cell_angle_gamma   27.41842939
_symmetry_Int_Tables_number   1
_chemical_formula_structural   Li4Co3O7
_chemical_formula_sum   'Li8 Co6 O14'
_cell_volume   252.94980560
_cell_formula_units_Z   2
loop_
 _symmetry_equiv_pos_site_id
 _symmetry_equiv_pos_as_xyz
  1  'x, y, z'
loop_
 _atom_site_type_symbol
 _atom_site_label
 _atom_site_symmetry_multiplicity
 _atom_site_fract_x
 _atom_site_fract_y
 _atom_site_fract_z
 _atom_site_occupancy
  Li  Li0  1  0.71248100  0.71248100  0.93180900  1
  Li  Li1  1  0.28751900  0.28751900  0.06819100  1
  Li  Li2  1  0.86037400  0.86037400  0.21402000  1
  Li  Li3  1  0.13962600  0.13962600  0.78598000  1
  Li  Li4  1  0.57163200  0.57163200  0.64433200  1
  Li  Li5  1  0.42836800  0.42836800  0.35566800  1
  Li  Li6  1  0.00000000  0.00000000  0.50000000  1
  Li  Li7  1  0.00000000  0.00000000  0.00000000  1
  Co  Co8  1  0.42951400  0.42951400  0.86464500  1
  Co  Co9  1  0.57048600  0.57048600  0.13535500  1
  Co  Co10  1  0.14084100  0.14084100  0.28408200  1
  Co  Co11  1  0.71404900  0.71404900  0.42779600  1
  Co  Co12  1  0.28595100  0.28595100  0.57220400  1
  Co  Co13  1  0.85915900  0.85915900  0.71591800  1
  O  O14  1  0.86327400  0.86327400  0.95563700  1
  O  O15  1  0.44123700  0.44123700  0.11220200  1
  O  O16  1  0.00837300  0.00837300  0.24666000  1
  O  O17  1  0.29921000  0.29921000  0.82081500  1
  O  O18  1  0.72363700  0.72363700  0.67746600  1
  O  O19  1  0.57931900  0.57931900  0.38986600  1
  O  O20  1  0.15155500  0.15155500  0.53301500  1
  O  O21  1  0.55876300  0.55876300  0.88779800  1
  O  O22  1  0.13672600  0.13672600  0.04436300  1
  O  O23  1  0.70079000  0.70079000  0.17918500  1
  O  O24  1  0.99162700  0.99162700  0.75334000  1
  O  O25  1  0.42068100  0.42068100  0.61013400  1
  O  O26  1  0.27636300  0.27636300  0.32253400  1
  O  O27  1  0.84844500  0.84844500  0.46698500  1
