# generated using pymatgen
data_LiV4P7O24
_symmetry_space_group_name_H-M   'P 1'
_cell_length_a   10.28947200
_cell_length_b   10.37100047
_cell_length_c   10.79039404
_cell_angle_alpha   108.19632572
_cell_angle_beta   111.98011903
_cell_angle_gamma   104.95357162
_symmetry_Int_Tables_number   1
_chemical_formula_structural   LiV4P7O24
_chemical_formula_sum   'Li2 V8 P14 O48'
_cell_volume   917.92471478
_cell_formula_units_Z   2
loop_
 _symmetry_equiv_pos_site_id
 _symmetry_equiv_pos_as_xyz
  1  'x, y, z'
loop_
 _atom_site_type_symbol
 _atom_site_label
 _atom_site_symmetry_multiplicity
 _atom_site_fract_x
 _atom_site_fract_y
 _atom_site_fract_z
 _atom_site_occupancy
  Li  Li0  1  0.54977000  0.15244100  0.57377800  1
  Li  Li1  1  0.45023000  0.84755900  0.42622200  1
  V  V2  1  0.50037600  0.90172700  0.74707500  1
  V  V3  1  0.00204100  0.38645300  0.07615300  1
  V  V4  1  0.51128600  0.66102800  0.88767900  1
  V  V5  1  0.98256400  0.82672800  0.41273700  1
  V  V6  1  0.01743600  0.17327200  0.58726300  1
  V  V7  1  0.48871400  0.33897200  0.11232100  1
  V  V8  1  0.99795900  0.61354700  0.92384700  1
  V  V9  1  0.49962400  0.09827300  0.25292500  1
  P  P10  1  0.76454500  0.77808100  0.76776100  1
  P  P11  1  0.19566500  0.62723600  0.43224700  1
  P  P12  1  0.19870900  0.93766100  0.26602600  1
  P  P13  1  0.26296600  0.03701200  0.75647100  1
  P  P14  1  0.25680700  0.39310800  0.52346200  1
  P  P15  1  0.73276900  0.17782200  0.11862200  1
  P  P16  1  0.75283700  0.54241300  0.05309200  1
  P  P17  1  0.24716300  0.45758700  0.94690800  1
  P  P18  1  0.26723100  0.82217800  0.88137800  1
  P  P19  1  0.74319300  0.60689200  0.47653800  1
  P  P20  1  0.73703400  0.96298800  0.24352900  1
  P  P21  1  0.80129100  0.06233900  0.73397400  1
  P  P22  1  0.80433500  0.37276400  0.56775300  1
  P  P23  1  0.23545500  0.22191900  0.23223900  1
  O  O24  1  0.87398000  0.20583800  0.87546700  1
  O  O25  1  0.62034900  0.99843500  0.64999300  1
  O  O26  1  0.64319100  0.06195700  0.95436600  1
  O  O27  1  0.11870100  0.25726400  0.13553500  1
  O  O28  1  0.37094100  0.73784700  0.53053000  1
  O  O29  1  0.16182500  0.56506000  0.26967000  1
  O  O30  1  0.65968600  0.57296800  0.92511800  1
  O  O31  1  0.62884100  0.77963100  0.79643700  1
  O  O32  1  0.16672800  0.48592800  0.47046300  1
  O  O33  1  0.37665300  0.01129300  0.70080300  1
  O  O34  1  0.31840900  0.33976900  0.40654800  1
  O  O35  1  0.15269300  0.06073700  0.21620500  1
  O  O36  1  0.14479700  0.93112400  0.37614600  1
  O  O37  1  0.39843700  0.49190000  0.67359100  1
  O  O38  1  0.87602400  0.50119600  0.01416000  1
  O  O39  1  0.09231200  0.69464700  0.46476100  1
  O  O40  1  0.86803800  0.31419200  0.15928000  1
  O  O41  1  0.34061900  0.17586900  0.90196300  1
  O  O42  1  0.18969700  0.89659300  0.78143500  1
  O  O43  1  0.14610600  0.25171000  0.50374700  1
  O  O44  1  0.11955200  0.02396400  0.62658200  1
  O  O45  1  0.37934800  0.78272600  0.82543900  1
  O  O46  1  0.35894700  0.58781800  0.94664800  1
  O  O47  1  0.84233500  0.68048300  0.20697700  1
  O  O48  1  0.15766500  0.31951700  0.79302300  1
  O  O49  1  0.64105300  0.41218200  0.05335200  1
  O  O50  1  0.62065200  0.21727400  0.17456100  1
  O  O51  1  0.88044800  0.97603600  0.37341800  1
  O  O52  1  0.85389400  0.74829000  0.49625300  1
  O  O53  1  0.81030300  0.10340700  0.21856500  1
  O  O54  1  0.65938100  0.82413100  0.09803700  1
  O  O55  1  0.13196200  0.68580800  0.84072000  1
  O  O56  1  0.90768800  0.30535300  0.53523900  1
  O  O57  1  0.12397600  0.49880400  0.98584000  1
  O  O58  1  0.60156300  0.50810000  0.32640900  1
  O  O59  1  0.85520300  0.06887600  0.62385400  1
  O  O60  1  0.84730700  0.93926300  0.78379500  1
  O  O61  1  0.68159100  0.66023100  0.59345200  1
  O  O62  1  0.62334700  0.98870700  0.29919700  1
  O  O63  1  0.83327200  0.51407200  0.52953700  1
  O  O64  1  0.37115900  0.22036900  0.20356300  1
  O  O65  1  0.34031400  0.42703200  0.07488200  1
  O  O66  1  0.83817500  0.43494000  0.73033000  1
  O  O67  1  0.62905900  0.26215300  0.46947000  1
  O  O68  1  0.88129900  0.74273600  0.86446500  1
  O  O69  1  0.35680900  0.93804300  0.04563400  1
  O  O70  1  0.37965100  0.00156500  0.35000700  1
  O  O71  1  0.12602000  0.79416200  0.12453300  1
