# generated using pymatgen
data_Li2Fe3CoO8
_symmetry_space_group_name_H-M   'P 1'
_cell_length_a   8.36714300
_cell_length_b   8.39837566
_cell_length_c   8.44741419
_cell_angle_alpha   90.16054149
_cell_angle_beta   90.12760872
_cell_angle_gamma   90.08690862
_symmetry_Int_Tables_number   1
_chemical_formula_structural   Li2Fe3CoO8
_chemical_formula_sum   'Li8 Fe12 Co4 O32'
_cell_volume   593.59876882
_cell_formula_units_Z   4
loop_
 _symmetry_equiv_pos_site_id
 _symmetry_equiv_pos_as_xyz
  1  'x, y, z'
loop_
 _atom_site_type_symbol
 _atom_site_label
 _atom_site_symmetry_multiplicity
 _atom_site_fract_x
 _atom_site_fract_y
 _atom_site_fract_z
 _atom_site_occupancy
  Li  Li0  1  0.12314000  0.37417000  0.12205700  1
  Li  Li1  1  0.25010000  0.75196400  0.24891200  1
  Li  Li2  1  0.25100100  0.25027200  0.74973000  1
  Li  Li3  1  0.37613900  0.87699900  0.87612300  1
  Li  Li4  1  0.62222500  0.62480400  0.37781500  1
  Li  Li5  1  0.75187500  0.25017000  0.25112800  1
  Li  Li6  1  0.74976600  0.75210200  0.74984300  1
  Li  Li7  1  0.87963800  0.12380400  0.62480200  1
  Fe  Fe8  1  0.12119500  0.12338000  0.37846400  1
  Fe  Fe9  1  0.12424200  0.88290900  0.62600900  1
  Fe  Fe10  1  0.12471500  0.62381700  0.88022100  1
  Fe  Fe11  1  0.37537400  0.12367900  0.11818200  1
  Fe  Fe12  1  0.37752700  0.38116600  0.37490000  1
  Fe  Fe13  1  0.38074200  0.62539000  0.62369500  1
  Fe  Fe14  1  0.61710700  0.87325000  0.12095900  1
  Fe  Fe15  1  0.62301300  0.11834800  0.87614800  1
  Fe  Fe16  1  0.62452500  0.37915800  0.61913600  1
  Fe  Fe17  1  0.87602000  0.87441700  0.38130700  1
  Fe  Fe18  1  0.87651800  0.61925800  0.12503500  1
  Fe  Fe19  1  0.88110900  0.37542700  0.87547000  1
  Co  Co20  1  0.00018500  0.49850100  0.50097200  1
  Co  Co21  1  0.50500000  0.99857300  0.50076600  1
  Co  Co22  1  0.49950600  0.49814300  0.99815000  1
  Co  Co23  1  0.99937400  0.99963500  0.00168400  1
  O  O24  1  0.10712500  0.39005300  0.87225600  1
  O  O25  1  0.10952000  0.62710900  0.10600100  1
  O  O26  1  0.11728300  0.88980300  0.38482700  1
  O  O27  1  0.12741300  0.10990500  0.60857800  1
  O  O28  1  0.12054600  0.86224200  0.85948100  1
  O  O29  1  0.14132200  0.63611000  0.63587100  1
  O  O30  1  0.13510200  0.35419300  0.37845000  1
  O  O31  1  0.14265000  0.12050900  0.14091300  1
  O  O32  1  0.36163900  0.62342700  0.85884300  1
  O  O33  1  0.36443100  0.86487400  0.62139100  1
  O  O34  1  0.36436500  0.13217200  0.36830400  1
  O  O35  1  0.37911800  0.35901500  0.14107200  1
  O  O36  1  0.37060700  0.60848100  0.39431800  1
  O  O37  1  0.38749500  0.38568000  0.61425300  1
  O  O38  1  0.39014900  0.12776800  0.89334500  1
  O  O39  1  0.39021300  0.89304000  0.12128100  1
  O  O40  1  0.60336600  0.61580900  0.62594600  1
  O  O41  1  0.61311900  0.37621300  0.39663400  1
  O  O42  1  0.61235800  0.11333100  0.11656200  1
  O  O43  1  0.62912200  0.89374900  0.88979800  1
  O  O44  1  0.61556200  0.13010000  0.63639200  1
  O  O45  1  0.63639800  0.36107100  0.85711700  1
  O  O46  1  0.63526500  0.63969200  0.12367700  1
  O  O47  1  0.63179700  0.88111800  0.36709800  1
  O  O48  1  0.85843900  0.37689100  0.63939600  1
  O  O49  1  0.86221600  0.14089700  0.87644000  1
  O  O50  1  0.86023500  0.86426600  0.14199700  1
  O  O51  1  0.87884200  0.63779700  0.36083300  1
  O  O52  1  0.87265700  0.39190700  0.10402200  1
  O  O53  1  0.88359500  0.61223900  0.88380300  1
  O  O54  1  0.89153000  0.87251900  0.60419000  1
  O  O55  1  0.89648800  0.10876000  0.37532900  1
