# generated using pymatgen
data_Sr8Li2B22H2O43
_symmetry_space_group_name_H-M   'P 1'
_cell_length_a   6.54274800
_cell_length_b   8.57015260
_cell_length_c   15.03150545
_cell_angle_alpha   100.84141323
_cell_angle_beta   93.96814166
_cell_angle_gamma   90.36468327
_symmetry_Int_Tables_number   1
_chemical_formula_structural   Sr8Li2B22H2O43
_chemical_formula_sum   'Sr8 Li2 B22 H2 O43'
_cell_volume   825.66212403
_cell_formula_units_Z   1
loop_
 _symmetry_equiv_pos_site_id
 _symmetry_equiv_pos_as_xyz
  1  'x, y, z'
loop_
 _atom_site_type_symbol
 _atom_site_label
 _atom_site_symmetry_multiplicity
 _atom_site_fract_x
 _atom_site_fract_y
 _atom_site_fract_z
 _atom_site_occupancy
  Sr  Sr0  1  0.88072800  0.92449300  0.77928900  1
  Sr  Sr1  1  0.11927200  0.07550700  0.22071100  1
  Sr  Sr2  1  0.48613600  0.61318700  0.89417700  1
  Sr  Sr3  1  0.51386400  0.38681300  0.10582300  1
  Sr  Sr4  1  0.95898700  0.39598700  0.73356700  1
  Sr  Sr5  1  0.04101300  0.60401300  0.26643300  1
  Sr  Sr6  1  0.35692200  0.02614100  0.61901200  1
  Sr  Sr7  1  0.64307800  0.97385900  0.38098800  1
  Li  Li8  1  0.35062600  0.68571200  0.47437600  1
  Li  Li9  1  0.64937400  0.31428800  0.52562400  1
  B  B10  1  0.47314800  0.27000500  0.81948000  1
  B  B11  1  0.52685200  0.72999500  0.18052000  1
  B  B12  1  0.23511400  0.34474100  0.53962500  1
  B  B13  1  0.76488600  0.65525900  0.46037500  1
  B  B14  1  0.67565800  0.64521000  0.62140900  1
  B  B15  1  0.32434200  0.35479000  0.37859100  1
  B  B16  1  0.79475700  0.28917100  0.93581100  1
  B  B17  1  0.20524300  0.71082900  0.06418900  1
  B  B18  1  0.03787800  0.68209000  0.57940300  1
  B  B19  1  0.96212200  0.31791000  0.42059700  1
  B  B20  1  0.35971600  0.73212000  0.69686100  1
  B  B21  1  0.64028400  0.26788000  0.30313900  1
  B  B22  1  0.93880800  0.67850200  0.93844100  1
  B  B23  1  0.06119200  0.32149800  0.06155900  1
  B  B24  1  0.16173100  0.22864500  0.89792300  1
  B  B25  1  0.83826900  0.77135500  0.10207700  1
  B  B26  1  0.46199700  0.44571200  0.68933300  1
  B  B27  1  0.53800300  0.55428800  0.31066700  1
  B  B28  1  0.37063400  0.98690700  0.82749800  1
  B  B29  1  0.62936600  0.01309300  0.17250200  1
  B  B30  1  0.87899200  0.06542200  0.57392500  1
  B  B31  1  0.12100800  0.93457800  0.42607500  1
  H  H32  1  0.55974100  0.96430100  0.94271800  1
  H  H33  1  0.44025900  0.03569900  0.05728200  1
  O  O34  1  0.88075600  0.64772900  0.84977200  1
  O  O35  1  0.11924400  0.35227100  0.15022800  1
  O  O36  1  0.93222200  0.23983900  0.87231100  1
  O  O37  1  0.06777800  0.76016100  0.12768900  1
  O  O38  1  0.57097000  0.77081700  0.67862500  1
  O  O39  1  0.42903000  0.22918300  0.32137500  1
  O  O40  1  0.97117200  0.08763700  0.65987900  1
  O  O41  1  0.02882800  0.91236300  0.34012100  1
  O  O42  1  0.55772800  0.36253500  0.75779200  1
  O  O43  1  0.44227200  0.63746500  0.24220800  1
  O  O44  1  0.62716400  0.65501900  0.52367100  1
  O  O45  1  0.37283600  0.34498100  0.47632900  1
  O  O46  1  0.90199000  0.67501600  0.64356900  1
  O  O47  1  0.09801000  0.32498400  0.35643100  1
  O  O48  1  0.26375200  0.31925000  0.83945700  1
  O  O49  1  0.73624800  0.68075000  0.16054300  1
  O  O50  1  0.26994800  0.86506800  0.75411800  1
  O  O51  1  0.73005200  0.13493200  0.24588200  1
  O  O52  1  0.62863400  0.48483000  0.63578800  1
  O  O53  1  0.37136600  0.51517000  0.36421200  1
  O  O54  1  0.59601000  0.32161000  0.91428500  1
  O  O55  1  0.40399000  0.67839000  0.08571500  1
  O  O56  1  0.02482200  0.34022700  0.51400700  1
  O  O57  1  0.97517800  0.65977300  0.48599300  1
  O  O58  1  0.29493400  0.33754800  0.62830500  1
  O  O59  1  0.70506600  0.66245200  0.37169500  1
  O  O60  1  0.68054500  0.10039700  0.55134200  1
  O  O61  1  0.31945500  0.89960300  0.44865800  1
  O  O62  1  0.21048300  0.06129200  0.88259500  1
  O  O63  1  0.78951700  0.93870800  0.11740500  1
  O  O64  1  0.24144100  0.71045600  0.60071900  1
  O  O65  1  0.75855900  0.28954400  0.39928100  1
  O  O66  1  0.85081100  0.31080600  0.02901900  1
  O  O67  1  0.14918900  0.68919400  0.97098100  1
  O  O68  1  0.34896900  0.58497300  0.73183800  1
  O  O69  1  0.65103100  0.41502700  0.26816200  1
  O  O70  1  0.79746600  0.69678500  0.00425700  1
  O  O71  1  0.20253400  0.30321500  0.99574300  1
  O  O72  1  0.49171900  0.10040300  0.78762900  1
  O  O73  1  0.50828100  0.89959700  0.21237100  1
  O  O74  1  0.52384100  0.90144400  0.88295400  1
  O  O75  1  0.47615900  0.09855600  0.11704600  1
  O  O76  1  0.00000000  0.00000000  0.50000000  1
