# generated using pymatgen
data_Li3MnV(PO4)3
_symmetry_space_group_name_H-M   'P 1'
_cell_length_a   8.77410500
_cell_length_b   8.77748117
_cell_length_c   14.47232083
_cell_angle_alpha   73.94245944
_cell_angle_beta   73.94362678
_cell_angle_gamma   61.18883191
_symmetry_Int_Tables_number   1
_chemical_formula_structural   Li3MnV(PO4)3
_chemical_formula_sum   'Li12 Mn4 V4 P12 O48'
_cell_volume   924.81834324
_cell_formula_units_Z   4
loop_
 _symmetry_equiv_pos_site_id
 _symmetry_equiv_pos_as_xyz
  1  'x, y, z'
loop_
 _atom_site_type_symbol
 _atom_site_label
 _atom_site_symmetry_multiplicity
 _atom_site_fract_x
 _atom_site_fract_y
 _atom_site_fract_z
 _atom_site_occupancy
  Li  Li0  1  0.98613400  0.85755700  0.88830700  1
  Li  Li1  1  0.00221300  0.49882100  0.00136500  1
  Li  Li2  1  0.89259700  0.76522800  0.36126200  1
  Li  Li3  1  0.74605400  0.25237600  0.75171300  1
  Li  Li4  1  0.51339900  0.64345700  0.61357000  1
  Li  Li5  1  0.60771000  0.73547100  0.13796800  1
  Li  Li6  1  0.39489100  0.26463300  0.86294300  1
  Li  Li7  1  0.48367100  0.35781100  0.38834000  1
  Li  Li8  1  0.24763000  0.75179400  0.25116800  1
  Li  Li9  1  0.49705700  0.00213000  0.49860500  1
  Li  Li10  1  0.10657900  0.23609500  0.63634500  1
  Li  Li11  1  0.01572600  0.14466900  0.11290200  1
  Mn  Mn12  1  0.92843100  0.42436500  0.21536800  1
  Mn  Mn13  1  0.67525900  0.17624800  0.96528900  1
  Mn  Mn14  1  0.57098200  0.07792200  0.28489100  1
  Mn  Mn15  1  0.17073800  0.67891600  0.46533100  1
  V  V16  1  0.82432200  0.31872000  0.53720700  1
  V  V17  1  0.43080800  0.92361300  0.71308800  1
  V  V18  1  0.32818700  0.81613200  0.03720800  1
  V  V19  1  0.06849200  0.57676200  0.78738500  1
  P  P20  1  0.66888300  0.86809000  0.88247800  1
  P  P21  1  0.83152600  0.63331700  0.61801100  1
  P  P22  1  0.93066900  0.81693900  0.12644300  1
  P  P23  1  0.88128300  0.08410300  0.36500200  1
  P  P24  1  0.56974600  0.67923000  0.37595200  1
  P  P25  1  0.38177600  0.58204100  0.86700800  1
  P  P26  1  0.61899000  0.41630500  0.13169100  1
  P  P27  1  0.42600600  0.32350300  0.62561500  1
  P  P28  1  0.11841200  0.91721300  0.62989100  1
  P  P29  1  0.07446400  0.17350500  0.87613000  1
  P  P30  1  0.16538600  0.37070000  0.38311600  1
  P  P31  1  0.33584100  0.13065100  0.11802100  1
  O  O32  1  0.85886800  0.71914000  0.88656700  1
  O  O33  1  0.91118000  0.61791700  0.70299800  1
  O  O34  1  0.94194200  0.67073500  0.51867300  1
  O  O35  1  0.55703200  0.83351200  0.98082500  1
  O  O36  1  0.59085600  0.88539800  0.79641900  1
  O  O37  1  0.89174600  0.18537200  0.87302000  1
  O  O38  1  0.81124400  0.88759900  0.21973800  1
  O  O39  1  0.82119500  0.45347500  0.63468700  1
  O  O40  1  0.86275500  0.93280600  0.03141400  1
  O  O41  1  0.96863800  0.10780200  0.63422000  1
  O  O42  1  0.64127700  0.78206900  0.61344000  1
  O  O43  1  0.94205300  0.63390100  0.12335700  1
  O  O44  1  0.55909100  0.86073600  0.38010400  1
  O  O45  1  0.86325600  0.16059800  0.45202100  1
  O  O46  1  0.36918400  0.65862500  0.95272300  1
  O  O47  1  0.64488700  0.55618100  0.46888000  1
  O  O48  1  0.91791100  0.19913600  0.26720200  1
  O  O49  1  0.52995400  0.39453000  0.85870400  1
  O  O50  1  0.68451400  0.61168000  0.28080700  1
  O  O51  1  0.41248800  0.69848400  0.76872200  1
  O  O52  1  0.67984200  0.04880600  0.86663000  1
  O  O53  1  0.79917500  0.42750100  0.11672100  1
  O  O54  1  0.60927400  0.30752500  0.63049900  1
  O  O55  1  0.29704500  0.92976600  0.61391800  1
  O  O56  1  0.69802700  0.07671300  0.38087600  1
  O  O57  1  0.38618800  0.69147400  0.37449300  1
  O  O58  1  0.20038000  0.57308200  0.88503000  1
  O  O59  1  0.32740700  0.94962100  0.13449700  1
  O  O60  1  0.58126100  0.30645500  0.23089700  1
  O  O61  1  0.30362000  0.39674700  0.71874600  1
  O  O62  1  0.47078900  0.60624000  0.13579300  1
  O  O63  1  0.08368900  0.80615300  0.72923000  1
  O  O64  1  0.36008800  0.43968600  0.53089100  1
  O  O65  1  0.63803600  0.33649200  0.04565900  1
  O  O66  1  0.13290600  0.83867700  0.54465700  1
  O  O67  1  0.44168800  0.13952800  0.62340100  1
  O  O68  1  0.05766000  0.35762100  0.87876800  1
  O  O69  1  0.35294900  0.22292700  0.39085800  1
  O  O70  1  0.02723600  0.89671700  0.35725600  1
  O  O71  1  0.14707400  0.05322300  0.96940500  1
  O  O72  1  0.17534300  0.55235700  0.36739000  1
  O  O73  1  0.19383900  0.10363700  0.78161700  1
  O  O74  1  0.11407400  0.80231500  0.12934000  1
  O  O75  1  0.41286700  0.11725700  0.20403200  1
  O  O76  1  0.44987200  0.16635700  0.01894500  1
  O  O77  1  0.04859800  0.33927900  0.48085100  1
  O  O78  1  0.08923000  0.38799400  0.29591800  1
  O  O79  1  0.14791200  0.27783800  0.10954400  1
