# generated using pymatgen
data_Li4MnCo2O7
_symmetry_space_group_name_H-M   'P 1'
_cell_length_a   5.93275300
_cell_length_b   6.49674182
_cell_length_c   7.66962048
_cell_angle_alpha   104.02682185
_cell_angle_beta   110.96179414
_cell_angle_gamma   103.49714071
_symmetry_Int_Tables_number   1
_chemical_formula_structural   Li4MnCo2O7
_chemical_formula_sum   'Li8 Mn2 Co4 O14'
_cell_volume   250.54491217
_cell_formula_units_Z   2
loop_
 _symmetry_equiv_pos_site_id
 _symmetry_equiv_pos_as_xyz
  1  'x, y, z'
loop_
 _atom_site_type_symbol
 _atom_site_label
 _atom_site_symmetry_multiplicity
 _atom_site_fract_x
 _atom_site_fract_y
 _atom_site_fract_z
 _atom_site_occupancy
  Li  Li0  1  0.63218300  0.14081500  0.70613900  1
  Li  Li1  1  0.79766300  0.29496000  0.43321200  1
  Li  Li2  1  0.35684400  0.86187200  0.28652100  1
  Li  Li3  1  0.50147300  0.00170000  0.00166700  1
  Li  Li4  1  0.07015600  0.56997600  0.85766500  1
  Li  Li5  1  0.21030500  0.70462300  0.56493200  1
  Li  Li6  1  0.94654700  0.43286000  0.15534700  1
  Li  Li7  1  0.28365400  0.28472900  0.42820200  1
  Mn  Mn8  1  0.99757500  0.00283300  0.00042500  1
  Mn  Mn9  1  0.14010400  0.14561300  0.71176200  1
  Co  Co10  1  0.42523300  0.42660800  0.14445100  1
  Co  Co11  1  0.56640300  0.56776800  0.85057400  1
  Co  Co12  1  0.70457900  0.70354300  0.56482600  1
  Co  Co13  1  0.86976500  0.85771500  0.29102000  1
  O  O14  1  0.02133900  0.26073800  0.91630500  1
  O  O15  1  0.18428400  0.41823700  0.65505900  1
  O  O16  1  0.77864600  0.00192700  0.51261600  1
  O  O17  1  0.89126800  0.11823800  0.20203900  1
  O  O18  1  0.48319700  0.69355200  0.07405500  1
  O  O19  1  0.63226700  0.85948600  0.79807300  1
  O  O20  1  0.34932600  0.57252600  0.35075600  1
  O  O21  1  0.23809400  0.00661500  0.51519300  1
  O  O22  1  0.35925100  0.14726000  0.19039300  1
  O  O23  1  0.96558800  0.73147200  0.06788500  1
  O  O24  1  0.09268600  0.87648600  0.78926900  1
  O  O25  1  0.67503800  0.44850300  0.65104700  1
  O  O26  1  0.83200100  0.58555300  0.35960000  1
  O  O27  1  0.49453300  0.28379500  0.92096700  1
