# generated using pymatgen
data_Li4V3P8O29
_symmetry_space_group_name_H-M   'P 1'
_cell_length_a   9.76501800
_cell_length_b   9.79651210
_cell_length_c   14.26687028
_cell_angle_alpha   90.66226157
_cell_angle_beta   89.74035253
_cell_angle_gamma   119.63949537
_symmetry_Int_Tables_number   1
_chemical_formula_structural   Li4V3P8O29
_chemical_formula_sum   'Li8 V6 P16 O58'
_cell_volume   1186.15290340
_cell_formula_units_Z   2
loop_
 _symmetry_equiv_pos_site_id
 _symmetry_equiv_pos_as_xyz
  1  'x, y, z'
loop_
 _atom_site_type_symbol
 _atom_site_label
 _atom_site_symmetry_multiplicity
 _atom_site_fract_x
 _atom_site_fract_y
 _atom_site_fract_z
 _atom_site_occupancy
  Li  Li0  1  0.30700900  0.08346800  0.94466700  1
  Li  Li1  1  0.91824800  0.22346300  0.94378500  1
  Li  Li2  1  0.77664500  0.68514800  0.94280900  1
  Li  Li3  1  0.08446800  0.31682800  0.55822400  1
  Li  Li4  1  0.90491400  0.67283300  0.43798700  1
  Li  Li5  1  0.33869300  0.66935900  0.39310100  1
  Li  Li6  1  0.68079100  0.90890800  0.06068500  1
  Li  Li7  1  0.00606500  0.99535000  0.49319100  1
  V  V8  1  0.99976200  0.43424300  0.75262800  1
  V  V9  1  0.00352900  0.56817600  0.24538400  1
  V  V10  1  0.43293400  0.42654800  0.24777900  1
  V  V11  1  0.56120700  0.56440300  0.74507500  1
  V  V12  1  0.43497500  0.99913100  0.74146400  1
  V  V13  1  0.56841300  0.00573700  0.25987000  1
  P  P14  1  0.31564700  0.08156500  0.15991000  1
  P  P15  1  0.30525400  0.22325900  0.65949700  1
  P  P16  1  0.78059900  0.08307900  0.65945400  1
  P  P17  1  0.66085600  0.32987700  0.86595300  1
  P  P18  1  0.67111400  0.34215100  0.37018700  1
  P  P19  1  0.90711200  0.22723900  0.16214300  1
  P  P20  1  0.09277400  0.31790400  0.34065400  1
  P  P21  1  0.76814100  0.68217000  0.15620900  1
  P  P22  1  0.23274300  0.31806100  0.84417000  1
  P  P23  1  0.91149600  0.68290200  0.65550400  1
  P  P24  1  0.08884400  0.77555100  0.83439400  1
  P  P25  1  0.33202200  0.66318400  0.62893700  1
  P  P26  1  0.34206000  0.67035600  0.13390700  1
  P  P27  1  0.21728000  0.91450700  0.34237700  1
  P  P28  1  0.69018800  0.77749300  0.33871700  1
  P  P29  1  0.67912800  0.91139800  0.84087100  1
  O  O30  1  0.20494400  0.00431700  0.42270300  1
  O  O31  1  0.34413100  0.08731400  0.66501600  1
  O  O32  1  0.24809300  0.23940700  0.92805200  1
  O  O33  1  0.34101400  0.25168600  0.16980700  1
  O  O34  1  0.47484900  0.09095100  0.18560000  1
  O  O35  1  0.51669100  0.17967300  0.81950500  1
  O  O36  1  0.61917100  0.08129600  0.67066200  1
  O  O37  1  0.75104900  0.99591000  0.93137900  1
  O  O38  1  0.74032700  0.07630000  0.17056400  1
  O  O39  1  0.52549400  0.34139300  0.32251600  1
  O  O40  1  0.46339300  0.38231900  0.66973600  1
  O  O41  1  0.66807100  0.18927600  0.32704800  1
  O  O42  1  0.64783900  0.32726500  0.96978300  1
  O  O43  1  0.66369200  0.33870700  0.47362000  1
  O  O44  1  0.81379400  0.32936700  0.83169100  1
  O  O45  1  0.61663100  0.52461800  0.17819600  1
  O  O46  1  0.65883400  0.47650800  0.82267900  1
  O  O47  1  0.91645700  0.25676000  0.66742100  1
  O  O48  1  0.00215700  0.21153400  0.25031900  1
  O  O49  1  0.02066600  0.23356100  0.42931400  1
  O  O50  1  0.98031600  0.22613900  0.07113300  1
  O  O51  1  0.89117600  0.37396200  0.17984600  1
  O  O52  1  0.82180900  0.48894100  0.33192900  1
  O  O53  1  0.08547100  0.33904000  0.84313200  1
  O  O54  1  0.91061500  0.52833900  0.67012800  1
  O  O55  1  0.74106700  0.65521800  0.67455900  1
  O  O56  1  0.20784500  0.20731800  0.75308200  1
  O  O57  1  0.20676800  0.21065300  0.57744700  1
  O  O58  1  0.79925600  0.79374900  0.41588700  1
  O  O59  1  0.26418400  0.34659000  0.33060900  1
  O  O60  1  0.10421900  0.48077900  0.33125200  1
  O  O61  1  0.91012300  0.65829600  0.16150200  1
  O  O62  1  0.18578400  0.51170200  0.66334700  1
  O  O63  1  0.09734700  0.62157800  0.81956100  1
  O  O64  1  0.99357900  0.76926200  0.91692000  1
  O  O65  1  0.97073700  0.76235400  0.56396500  1
  O  O66  1  0.01454400  0.80017000  0.73914300  1
  O  O67  1  0.08227200  0.74241300  0.34002800  1
  O  O68  1  0.34530000  0.52595300  0.18009400  1
  O  O69  1  0.38134400  0.47789300  0.82082900  1
  O  O70  1  0.18763500  0.66198700  0.17562700  1
  O  O71  1  0.35241500  0.67236700  0.03055100  1
  O  O72  1  0.34287000  0.66989300  0.52464600  1
  O  O73  1  0.33120700  0.81247700  0.67199600  1
  O  O74  1  0.52837800  0.62478600  0.33355200  1
  O  O75  1  0.48217500  0.66804700  0.67450200  1
  O  O76  1  0.25867300  0.91863800  0.83460400  1
  O  O77  1  0.19961400  0.98533500  0.24341700  1
  O  O78  1  0.25308600  0.00852100  0.06766500  1
  O  O79  1  0.37605900  0.90783900  0.33331200  1
  O  O80  1  0.48507300  0.82052200  0.17941300  1
  O  O81  1  0.52112100  0.90506800  0.81863300  1
  O  O82  1  0.65795500  0.74389100  0.83833700  1
  O  O83  1  0.75099400  0.75193900  0.06674800  1
  O  O84  1  0.78076600  0.79873100  0.24036800  1
  O  O85  1  0.65351600  0.91620600  0.33904200  1
  O  O86  1  0.79866700  0.00348900  0.57597800  1
  O  O87  1  0.79554700  0.00516800  0.75612800  1
