# generated using pymatgen
data_Li6P8W3O29
_symmetry_space_group_name_H-M   'P 1'
_cell_length_a   9.96685200
_cell_length_b   9.98227690
_cell_length_c   14.12011724
_cell_angle_alpha   89.62781603
_cell_angle_beta   89.54836063
_cell_angle_gamma   60.25053246
_symmetry_Int_Tables_number   1
_chemical_formula_structural   Li6P8W3O29
_chemical_formula_sum   'Li12 P16 W6 O58'
_cell_volume   1219.64096474
_cell_formula_units_Z   2
loop_
 _symmetry_equiv_pos_site_id
 _symmetry_equiv_pos_as_xyz
  1  'x, y, z'
loop_
 _atom_site_type_symbol
 _atom_site_label
 _atom_site_symmetry_multiplicity
 _atom_site_fract_x
 _atom_site_fract_y
 _atom_site_fract_z
 _atom_site_occupancy
  Li  Li0  1  0.95145100  0.98747900  0.48955500  1
  Li  Li1  1  0.99503800  0.99174300  0.99419300  1
  Li  Li2  1  0.31683800  0.91242900  0.93917300  1
  Li  Li3  1  0.68413500  0.66725100  0.11035900  1
  Li  Li4  1  0.32230300  0.76799800  0.44078200  1
  Li  Li5  1  0.90465000  0.32581500  0.43812500  1
  Li  Li6  1  0.23515100  0.66687600  0.05600400  1
  Li  Li7  1  0.77113300  0.31659700  0.93908900  1
  Li  Li8  1  0.09464900  0.67022200  0.56275100  1
  Li  Li9  1  0.66786000  0.23393200  0.55958000  1
  Li  Li10  1  0.67260300  0.09948100  0.06216500  1
  Li  Li11  1  0.22929900  0.09621400  0.55578400  1
  P  P12  1  0.78359600  0.92075100  0.66226800  1
  P  P13  1  0.91986900  0.78260300  0.15917600  1
  P  P14  1  0.31305800  0.91210900  0.15323800  1
  P  P15  1  0.66161600  0.66574000  0.87607100  1
  P  P16  1  0.66742200  0.66391600  0.37447500  1
  P  P17  1  0.31165000  0.77637000  0.65680000  1
  P  P18  1  0.22315200  0.69207000  0.84313500  1
  P  P19  1  0.91838900  0.30864100  0.65226500  1
  P  P20  1  0.07895500  0.69444500  0.34995400  1
  P  P21  1  0.77678200  0.31658000  0.15682200  1
  P  P22  1  0.68900400  0.22586700  0.34351900  1
  P  P23  1  0.33844600  0.33039500  0.12380100  1
  P  P24  1  0.32856900  0.33807800  0.62253600  1
  P  P25  1  0.69459700  0.08262900  0.84955600  1
  P  P26  1  0.07826500  0.21608100  0.84094900  1
  P  P27  1  0.22542900  0.08085200  0.34246800  1
  W  W28  1  0.56766000  0.99792800  0.25084600  1
  W  W29  1  0.43482600  0.00165900  0.75039100  1
  W  W30  1  0.99559200  0.56581600  0.75358000  1
  W  W31  1  0.00547400  0.43420400  0.24988300  1
  W  W32  1  0.43518600  0.56437800  0.25163300  1
  W  W33  1  0.56422600  0.43560200  0.74830200  1
  O  O34  1  0.80508700  0.98666700  0.76248000  1
  O  O35  1  0.77667000  0.01422400  0.94099900  1
  O  O36  1  0.75426600  0.92228600  0.15385400  1
  O  O37  1  0.98524500  0.79971000  0.26076100  1
  O  O38  1  0.00419700  0.77962800  0.43984800  1
  O  O39  1  0.91974300  0.75420900  0.65731000  1
  O  O40  1  0.62748900  0.92480400  0.66763500  1
  O  O41  1  0.67885700  0.79807500  0.32436000  1
  O  O42  1  0.47747600  0.89439400  0.16376000  1
  O  O43  1  0.22011800  0.99156700  0.42825800  1
  O  O44  1  0.21343200  0.99725700  0.24681600  1
  O  O45  1  0.33318500  0.92113600  0.65562600  1
  O  O46  1  0.79593500  0.67817300  0.82819100  1
  O  O47  1  0.90509200  0.63481200  0.16211900  1
  O  O48  1  0.50671300  0.80728600  0.84212800  1
  O  O49  1  0.66762900  0.65664500  0.98224000  1
  O  O50  1  0.66537000  0.66235700  0.47946500  1
  O  O51  1  0.51123400  0.67724000  0.33486600  1
  O  O52  1  0.90903400  0.46573100  0.66648200  1
  O  O53  1  0.80791900  0.50947300  0.33285200  1
  O  O54  1  0.33469700  0.74707800  0.15650500  1
  O  O55  1  0.21096400  0.79653500  0.75068300  1
  O  O56  1  0.21644500  0.78361100  0.93002100  1
  O  O57  1  0.22170400  0.77801400  0.57077100  1
  O  O58  1  0.46975200  0.62980100  0.66510300  1
  O  O59  1  0.67417200  0.51149800  0.83659100  1
  O  O60  1  0.24436700  0.67116500  0.34339300  1
  O  O61  1  0.63208200  0.47962300  0.16487000  1
  O  O62  1  0.91855900  0.33766000  0.15840900  1
  O  O63  1  0.02060000  0.79183100  0.08309500  1
  O  O64  1  0.98939200  0.18836900  0.91739200  1
  O  O65  1  0.01090700  0.19775000  0.73957500  1
  O  O66  1  0.08389400  0.66754800  0.83879800  1
  O  O67  1  0.37337600  0.53732100  0.83519900  1
  O  O68  1  0.75413000  0.32896200  0.65385500  1
  O  O69  1  0.33237500  0.48108300  0.16509000  1
  O  O70  1  0.53338100  0.37678700  0.33861400  1
  O  O71  1  0.78252800  0.21660100  0.43023400  1
  O  O72  1  0.77370100  0.22844000  0.07122100  1
  O  O73  1  0.78803800  0.21705300  0.25007100  1
  O  O74  1  0.66845100  0.24882400  0.84019100  1
  O  O75  1  0.18812300  0.48891500  0.66675200  1
  O  O76  1  0.08369900  0.53839100  0.33974200  1
  O  O77  1  0.48304200  0.32546900  0.66429800  1
  O  O78  1  0.33870500  0.33340900  0.01883300  1
  O  O79  1  0.32858700  0.34737800  0.51715500  1
  O  O80  1  0.49178300  0.18642100  0.16344800  1
  O  O81  1  0.07609900  0.36957100  0.84072700  1
  O  O82  1  0.20310100  0.32337000  0.17554800  1
  O  O83  1  0.66591400  0.08614400  0.33939400  1
  O  O84  1  0.79533200  0.01784600  0.58429200  1
  O  O85  1  0.54041900  0.08502100  0.83548500  1
  O  O86  1  0.31791300  0.19588900  0.66038500  1
  O  O87  1  0.37329400  0.09078800  0.33649900  1
  O  O88  1  0.08024200  0.24284500  0.34287200  1
  O  O89  1  0.00235600  0.22805800  0.56235500  1
  O  O90  1  0.24913100  0.07868300  0.84027700  1
  O  O91  1  0.22938600  0.99324600  0.06524600  1
