# generated using pymatgen
data_Li6V3P8O29
_symmetry_space_group_name_H-M   'P 1'
_cell_length_a   9.79938900
_cell_length_b   9.81162547
_cell_length_c   14.01086624
_cell_angle_alpha   89.32637773
_cell_angle_beta   89.42404997
_cell_angle_gamma   60.11266327
_symmetry_Int_Tables_number   1
_chemical_formula_structural   Li6V3P8O29
_chemical_formula_sum   'Li12 V6 P16 O58'
_cell_volume   1167.86435691
_cell_formula_units_Z   2
loop_
 _symmetry_equiv_pos_site_id
 _symmetry_equiv_pos_as_xyz
  1  'x, y, z'
loop_
 _atom_site_type_symbol
 _atom_site_label
 _atom_site_symmetry_multiplicity
 _atom_site_fract_x
 _atom_site_fract_y
 _atom_site_fract_z
 _atom_site_occupancy
  Li  Li0  1  0.65536000  0.10381800  0.06216200  1
  Li  Li1  1  0.66925900  0.23405300  0.56085500  1
  Li  Li2  1  0.23392800  0.09444100  0.55656100  1
  Li  Li3  1  0.09278900  0.23354600  0.05628600  1
  Li  Li4  1  0.23335100  0.67018100  0.06106100  1
  Li  Li5  1  0.91449600  0.31422400  0.43795900  1
  Li  Li6  1  0.10238100  0.65556800  0.56199200  1
  Li  Li7  1  0.66452200  0.67668800  0.60723500  1
  Li  Li8  1  0.67654800  0.66489500  0.10713900  1
  Li  Li9  1  0.31316900  0.91518900  0.93935900  1
  Li  Li10  1  0.94905900  0.02069100  0.99724700  1
  Li  Li11  1  0.02118100  0.94830700  0.49858500  1
  V  V12  1  0.00173500  0.43973500  0.24782100  1
  V  V13  1  0.99922100  0.56626000  0.75737400  1
  V  V14  1  0.56487900  0.43405100  0.74893600  1
  V  V15  1  0.43543700  0.56319100  0.24956300  1
  V  V16  1  0.56692500  0.99813600  0.25689300  1
  V  V17  1  0.43879600  0.00144800  0.74754500  1
  P  P18  1  0.68496200  0.08729200  0.84373200  1
  P  P19  1  0.68697100  0.22722400  0.34459300  1
  P  P20  1  0.22330400  0.08584200  0.34342500  1
  P  P21  1  0.33617000  0.32982300  0.12932100  1
  P  P22  1  0.32908900  0.33554900  0.62949600  1
  P  P23  1  0.08536700  0.22238300  0.84348000  1
  P  P24  1  0.90983800  0.32050600  0.65850800  1
  P  P25  1  0.22892600  0.68683000  0.84554200  1
  P  P26  1  0.78071200  0.30750000  0.15942300  1
  P  P27  1  0.08771900  0.68589000  0.34444400  1
  P  P28  1  0.91173000  0.78626000  0.16118900  1
  P  P29  1  0.66641200  0.66273600  0.36787500  1
  P  P30  1  0.66369900  0.66695300  0.86745900  1
  P  P31  1  0.78632300  0.91180800  0.66100500  1
  P  P32  1  0.30792800  0.77966700  0.65956000  1
  P  P33  1  0.31994000  0.90924000  0.15900900  1
  O  O34  1  0.79511000  0.01013600  0.58139400  1
  O  O35  1  0.66834700  0.08264100  0.33795100  1
  O  O36  1  0.78713000  0.20053100  0.08189400  1
  O  O37  1  0.65875700  0.25449000  0.82520700  1
  O  O38  1  0.52860000  0.08929600  0.83035900  1
  O  O39  1  0.48220000  0.18280900  0.17492800  1
  O  O40  1  0.37871700  0.08840000  0.33378200  1
  O  O41  1  0.23527400  0.00422200  0.07140400  1
  O  O42  1  0.25310600  0.07913100  0.83547900  1
  O  O43  1  0.48322000  0.33009600  0.66308000  1
  O  O44  1  0.52825400  0.37582100  0.32496500  1
  O  O45  1  0.33057000  0.18368400  0.67215300  1
  O  O46  1  0.33860000  0.31732400  0.02332900  1
  O  O47  1  0.31443500  0.33793800  0.52371700  1
  O  O48  1  0.18346900  0.33272700  0.17163300  1
  O  O49  1  0.38201900  0.53166800  0.82893000  1
  O  O50  1  0.33238000  0.48251700  0.16358600  1
  O  O51  1  0.07964700  0.25308500  0.33453800  1
  O  O52  1  0.99248900  0.21211200  0.75062900  1
  O  O53  1  0.00339900  0.23635100  0.57074700  1
  O  O54  1  0.00892500  0.20642200  0.93310300  1
  O  O55  1  0.08736700  0.37798000  0.83449200  1
  O  O56  1  0.18362700  0.48184400  0.67570000  1
  O  O57  1  0.91710700  0.34340400  0.15247500  1
  O  O58  1  0.08606600  0.53112400  0.33148800  1
  O  O59  1  0.25633700  0.65707600  0.32826900  1
  O  O60  1  0.80499900  0.21722200  0.25984100  1
  O  O61  1  0.76594800  0.23235100  0.43564600  1
  O  O62  1  0.20175800  0.78462800  0.58179200  1
  O  O63  1  0.74230600  0.34238300  0.65401200  1
  O  O64  1  0.89374900  0.48421200  0.67172200  1
  O  O65  1  0.08667300  0.66390200  0.83850800  1
  O  O66  1  0.81580000  0.51355000  0.32590100  1
  O  O67  1  0.90056300  0.63240300  0.16799200  1
  O  O68  1  0.00944200  0.79289700  0.08050000  1
  O  O69  1  0.02219400  0.76356700  0.43824200  1
  O  O70  1  0.98322900  0.80385500  0.26066800  1
  O  O71  1  0.92458600  0.74207400  0.65870900  1
  O  O72  1  0.66889100  0.52221300  0.82186700  1
  O  O73  1  0.62459100  0.46859900  0.16585600  1
  O  O74  1  0.81171100  0.67162000  0.82701500  1
  O  O75  1  0.65506000  0.67314300  0.97406700  1
  O  O76  1  0.67202400  0.65503400  0.47453500  1
  O  O77  1  0.67031200  0.81078200  0.32690800  1
  O  O78  1  0.46973700  0.62461500  0.66674100  1
  O  O79  1  0.52090300  0.66713100  0.32332600  1
  O  O80  1  0.74227400  0.92512400  0.15865600  1
  O  O81  1  0.80426700  0.98082200  0.76144500  1
  O  O82  1  0.76120500  0.02451800  0.93829600  1
  O  O83  1  0.63102400  0.90301100  0.66649600  1
  O  O84  1  0.51461900  0.81707000  0.82528200  1
  O  O85  1  0.48433200  0.89248700  0.17178400  1
  O  O86  1  0.33886000  0.74340400  0.15494200  1
  O  O87  1  0.22865500  0.76984800  0.93598700  1
  O  O88  1  0.21752100  0.80394800  0.75979100  1
  O  O89  1  0.34244500  0.91693200  0.65230200  1
  O  O90  1  0.20784200  0.01039000  0.43368400  1
  O  O91  1  0.21295900  0.99170600  0.25152400  1
