# generated using pymatgen
data_Li7V8(PO4)12
_symmetry_space_group_name_H-M   'P 1'
_cell_length_a   8.53116700
_cell_length_b   8.71926414
_cell_length_c   12.07603185
_cell_angle_alpha   90.26103485
_cell_angle_beta   90.24902516
_cell_angle_gamma   90.58284667
_symmetry_Int_Tables_number   1
_chemical_formula_structural   Li7V8(PO4)12
_chemical_formula_sum   'Li7 V8 P12 O48'
_cell_volume   898.21718217
_cell_formula_units_Z   1
loop_
 _symmetry_equiv_pos_site_id
 _symmetry_equiv_pos_as_xyz
  1  'x, y, z'
loop_
 _atom_site_type_symbol
 _atom_site_label
 _atom_site_symmetry_multiplicity
 _atom_site_fract_x
 _atom_site_fract_y
 _atom_site_fract_z
 _atom_site_occupancy
  Li  Li0  1  0.69690000  0.22050900  0.67698500  1
  Li  Li1  1  0.20352400  0.28461100  0.17608900  1
  Li  Li2  1  0.79971300  0.71743300  0.82213300  1
  Li  Li3  1  0.76771700  0.77731900  0.17974400  1
  Li  Li4  1  0.73184500  0.28112000  0.32248700  1
  Li  Li5  1  0.30005500  0.78494100  0.32322500  1
  Li  Li6  1  0.26588200  0.72079300  0.68505700  1
  V  V7  1  0.75389900  0.54196100  0.61267700  1
  V  V8  1  0.74792100  0.03950500  0.88460700  1
  V  V9  1  0.24946100  0.03764100  0.61958900  1
  V  V10  1  0.74699000  0.46241000  0.11605200  1
  V  V11  1  0.24533600  0.46135500  0.38830600  1
  V  V12  1  0.25180400  0.96371400  0.11163300  1
  V  V13  1  0.75218000  0.96540300  0.38414100  1
  V  V14  1  0.25226700  0.52411800  0.88659400  1
  P  P15  1  0.96203100  0.25051000  0.50439300  1
  P  P16  1  0.53420700  0.75118200  0.99609100  1
  P  P17  1  0.03819900  0.75047900  0.49684400  1
  P  P18  1  0.89402300  0.10768100  0.14459100  1
  P  P19  1  0.46312200  0.24858600  0.00048600  1
  P  P20  1  0.10859700  0.60828700  0.14795000  1
  P  P21  1  0.39134100  0.11054800  0.35315700  1
  P  P22  1  0.10642500  0.88778100  0.85647400  1
  P  P23  1  0.60264400  0.60827400  0.35558800  1
  P  P24  1  0.39700400  0.39234500  0.64640700  1
  P  P25  1  0.60743200  0.89002400  0.64597000  1
  P  P26  1  0.89208200  0.39348400  0.85292300  1
  O  O27  1  0.66014800  0.01254400  0.73419700  1
  O  O28  1  0.55740600  0.33505800  0.08837100  1
  O  O29  1  0.42806700  0.65725500  0.91520600  1
  O  O30  1  0.81489600  0.44289600  0.95985700  1
  O  O31  1  0.38757600  0.35374200  0.91379700  1
  O  O32  1  0.88312600  0.15545300  0.41152800  1
  O  O33  1  0.11770000  0.84387000  0.58966400  1
  O  O34  1  0.31698900  0.04719300  0.45813100  1
  O  O35  1  0.85183400  0.27329400  0.17865100  1
  O  O36  1  0.35577900  0.43263500  0.52604100  1
  O  O37  1  0.07456000  0.39736300  0.86334400  1
  O  O38  1  0.61931300  0.65341500  0.08241900  1
  O  O39  1  0.34461300  0.99379000  0.25774500  1
  O  O40  1  0.18413500  0.54831900  0.04080700  1
  O  O41  1  0.32856500  0.16409400  0.06268700  1
  O  O42  1  0.57153500  0.12292900  0.35735000  1
  O  O43  1  0.15131300  0.48763100  0.23789800  1
  O  O44  1  0.92646900  0.91158900  0.84005700  1
  O  O45  1  0.80653200  0.98939400  0.21710900  1
  O  O46  1  0.92804500  0.61949000  0.13917700  1
  O  O47  1  0.17648700  0.76733400  0.18260800  1
  O  O48  1  0.93947600  0.83662100  0.41365400  1
  O  O49  1  0.37258000  0.22232400  0.67055700  1
  O  O50  1  0.57675100  0.42373200  0.66547800  1
  O  O51  1  0.69372000  0.49311700  0.28326800  1
  O  O52  1  0.63986100  0.58373600  0.47843200  1
  O  O53  1  0.83594300  0.23088400  0.81610300  1
  O  O54  1  0.93538800  0.62750300  0.55878100  1
  O  O55  1  0.84765600  0.51206500  0.76273100  1
  O  O56  1  0.05880600  0.16097500  0.58709800  1
  O  O57  1  0.20225200  0.99277200  0.78274100  1
  O  O58  1  0.82799200  0.33404300  0.56585900  1
  O  O59  1  0.67330500  0.94573600  0.53597000  1
  O  O60  1  0.14411000  0.92059200  0.98095900  1
  O  O61  1  0.56538100  0.13336200  0.93389500  1
  O  O62  1  0.42256600  0.58345300  0.33637100  1
  O  O63  1  0.30646700  0.50424300  0.72384900  1
  O  O64  1  0.13791900  0.71549600  0.83151300  1
  O  O65  1  0.07385100  0.09372100  0.16199900  1
  O  O66  1  0.43992500  0.87255600  0.05861300  1
  O  O67  1  0.63850900  0.77467900  0.32032600  1
  O  O68  1  0.66045300  0.83238400  0.92425800  1
  O  O69  1  0.32387300  0.26951800  0.31967500  1
  O  O70  1  0.67956300  0.73375600  0.68169100  1
  O  O71  1  0.16874900  0.66703000  0.43190500  1
  O  O72  1  0.42745000  0.87611500  0.64343300  1
  O  O73  1  0.06428900  0.37231900  0.44161100  1
  O  O74  1  0.85464300  0.07729500  0.02172500  1
