# generated using pymatgen
data_Li6V3P8O29
_symmetry_space_group_name_H-M   'P 1'
_cell_length_a   9.79348500
_cell_length_b   9.79581955
_cell_length_c   14.06576472
_cell_angle_alpha   89.04378735
_cell_angle_beta   89.11097688
_cell_angle_gamma   60.31136369
_symmetry_Int_Tables_number   1
_chemical_formula_structural   Li6V3P8O29
_chemical_formula_sum   'Li12 V6 P16 O58'
_cell_volume   1172.06170195
_cell_formula_units_Z   2
loop_
 _symmetry_equiv_pos_site_id
 _symmetry_equiv_pos_as_xyz
  1  'x, y, z'
loop_
 _atom_site_type_symbol
 _atom_site_label
 _atom_site_symmetry_multiplicity
 _atom_site_fract_x
 _atom_site_fract_y
 _atom_site_fract_z
 _atom_site_occupancy
  Li  Li0  1  0.23180800  0.09162700  0.55295500  1
  Li  Li1  1  0.09159400  0.66810400  0.56098200  1
  Li  Li2  1  0.31512200  0.33610400  0.89275500  1
  Li  Li3  1  0.23623400  0.67410300  0.06440900  1
  Li  Li4  1  0.67401800  0.09184000  0.06746100  1
  Li  Li5  1  0.33155400  0.76394800  0.43558900  1
  Li  Li6  1  0.66778900  0.23659700  0.55811500  1
  Li  Li7  1  0.32584600  0.90615000  0.94345000  1
  Li  Li8  1  0.76698800  0.33144800  0.94510400  1
  Li  Li9  1  0.90292900  0.33286300  0.43378000  1
  Li  Li10  1  0.00037300  0.00449200  0.01493000  1
  Li  Li11  1  0.94632000  0.98756100  0.48232900  1
  V  V12  1  0.43755100  0.56292400  0.24991400  1
  V  V13  1  0.56669400  0.43421300  0.74585300  1
  V  V14  1  0.44140400  0.00010000  0.74889900  1
  V  V15  1  0.56451600  0.99469000  0.25290200  1
  V  V16  1  0.00450600  0.43933600  0.24444700  1
  V  V17  1  0.99611900  0.56476500  0.75473300  1
  P  P18  1  0.08631800  0.21504100  0.83888200  1
  P  P19  1  0.22102300  0.08608600  0.33827800  1
  P  P20  1  0.08619200  0.68884400  0.34599600  1
  P  P21  1  0.33850800  0.33193100  0.13105700  1
  P  P22  1  0.33120300  0.33494500  0.63147600  1
  P  P23  1  0.22655300  0.68142300  0.84198800  1
  P  P24  1  0.31432700  0.77402400  0.65726600  1
  P  P25  1  0.68445500  0.09200800  0.84735500  1
  P  P26  1  0.31041000  0.91309200  0.15585300  1
  P  P27  1  0.68638900  0.22252200  0.34081100  1
  P  P28  1  0.77859800  0.31449200  0.15850500  1
  P  P29  1  0.66754600  0.66185100  0.36668900  1
  P  P30  1  0.66316700  0.66504900  0.86884000  1
  P  P31  1  0.91837200  0.31382400  0.65325300  1
  P  P32  1  0.78357000  0.91888900  0.66356600  1
  P  P33  1  0.91922300  0.78619200  0.16183800  1
  O  O34  1  0.99984800  0.23307300  0.56204500  1
  O  O35  1  0.07796800  0.25222700  0.33781200  1
  O  O36  1  0.21865800  0.98471700  0.06651600  1
  O  O37  1  0.25643800  0.07548100  0.84204900  1
  O  O38  1  0.09743800  0.36898600  0.83296000  1
  O  O39  1  0.19273900  0.32862000  0.17723300  1
  O  O40  1  0.07985800  0.53684600  0.33466800  1
  O  O41  1  0.01262300  0.80441200  0.08183100  1
  O  O42  1  0.08349400  0.65827400  0.84157500  1
  O  O43  1  0.32648000  0.18701100  0.67555900  1
  O  O44  1  0.37512300  0.09109700  0.32675000  1
  O  O45  1  0.18774500  0.48429400  0.67609000  1
  O  O46  1  0.33711700  0.33286500  0.02402100  1
  O  O47  1  0.32510600  0.33526300  0.52570100  1
  O  O48  1  0.32811800  0.48673000  0.16713800  1
  O  O49  1  0.52007400  0.10684600  0.83113800  1
  O  O50  1  0.48988700  0.18594000  0.16936600  1
  O  O51  1  0.25819800  0.65773100  0.33832900  1
  O  O52  1  0.21055000  0.79247700  0.75094300  1
  O  O53  1  0.22939100  0.76884100  0.57009500  1
  O  O54  1  0.23589700  0.76368900  0.92930800  1
  O  O55  1  0.37432400  0.51761400  0.82620700  1
  O  O56  1  0.48830000  0.32448700  0.66679600  1
  O  O57  1  0.34369200  0.74007800  0.16233000  1
  O  O58  1  0.53368100  0.38179500  0.33098400  1
  O  O59  1  0.65318400  0.08657300  0.33981700  1
  O  O60  1  0.20108100  0.99819000  0.24769600  1
  O  O61  1  0.22201400  0.99595400  0.42746800  1
  O  O62  1  0.79729600  0.01439000  0.58330800  1
  O  O63  1  0.34186100  0.91535000  0.65537200  1
  O  O64  1  0.47121100  0.61712000  0.67148500  1
  O  O65  1  0.66140600  0.26134600  0.83670200  1
  O  O66  1  0.51189900  0.67448300  0.32746900  1
  O  O67  1  0.62001200  0.46670600  0.16925900  1
  O  O68  1  0.78331400  0.22172900  0.07164700  1
  O  O69  1  0.77851200  0.21562200  0.42922000  1
  O  O70  1  0.79687200  0.20483200  0.25049000  1
  O  O71  1  0.75073000  0.33425300  0.65825900  1
  O  O72  1  0.51737300  0.81637300  0.82409200  1
  O  O73  1  0.46228500  0.92064500  0.16488900  1
  O  O74  1  0.66735000  0.51594700  0.82829100  1
  O  O75  1  0.65421200  0.66929100  0.97409700  1
  O  O76  1  0.66524100  0.65876300  0.47264400  1
  O  O77  1  0.81389800  0.51301000  0.32438100  1
  O  O78  1  0.62336100  0.92408600  0.66841100  1
  O  O79  1  0.67014600  0.80924500  0.32074900  1
  O  O80  1  0.91483600  0.34753200  0.15921400  1
  O  O81  1  0.01559400  0.19696100  0.73948500  1
  O  O82  1  0.98718600  0.20710600  0.91821300  1
  O  O83  1  0.91489700  0.46987100  0.66886100  1
  O  O84  1  0.81256000  0.66418200  0.82401600  1
  O  O85  1  0.92340800  0.62652000  0.16720300  1
  O  O86  1  0.74830400  0.92178600  0.16183900  1
  O  O87  1  0.75850500  0.02175800  0.94027900  1
  O  O88  1  0.79995600  0.99223800  0.76264600  1
  O  O89  1  0.92133700  0.74916600  0.66264300  1
  O  O90  1  0.01614500  0.77454100  0.43762200  1
  O  O91  1  0.99233000  0.80640100  0.26026500  1
