# generated using pymatgen
data_Li4MnCo2O7
_symmetry_space_group_name_H-M   'P 1'
_cell_length_a   10.24426830
_cell_length_b   10.24426830
_cell_length_c   5.18626888
_cell_angle_alpha   84.45914043
_cell_angle_beta   84.45914043
_cell_angle_gamma   150.55668283
_symmetry_Int_Tables_number   1
_chemical_formula_structural   Li4MnCo2O7
_chemical_formula_sum   'Li8 Mn2 Co4 O14'
_cell_volume   247.47964502
_cell_formula_units_Z   2
loop_
 _symmetry_equiv_pos_site_id
 _symmetry_equiv_pos_as_xyz
  1  'x, y, z'
loop_
 _atom_site_type_symbol
 _atom_site_label
 _atom_site_symmetry_multiplicity
 _atom_site_fract_x
 _atom_site_fract_y
 _atom_site_fract_z
 _atom_site_occupancy
  Li  Li0  1  0.92863400  0.07136600  0.50000000  1
  Li  Li1  1  0.35781600  0.64218400  0.50000000  1
  Li  Li2  1  0.78658500  0.21341500  0.50000000  1
  Li  Li3  1  0.21239000  0.78761000  0.50000000  1
  Li  Li4  1  0.64151400  0.35848600  0.50000000  1
  Li  Li5  1  0.07253600  0.92746400  0.50000000  1
  Li  Li6  1  0.50119600  0.49880400  0.50000000  1
  Li  Li7  1  0.57210600  0.42789400  0.00000000  1
  Mn  Mn8  1  0.00017900  0.99982100  0.00000000  1
  Mn  Mn9  1  0.28519800  0.71480200  0.00000000  1
  Co  Co10  1  0.42924500  0.57075500  0.00000000  1
  Co  Co11  1  0.85727000  0.14273000  0.00000000  1
  Co  Co12  1  0.71245700  0.28754300  0.00000000  1
  Co  Co13  1  0.14302600  0.85697400  0.00000000  1
  O  O14  1  0.70045900  0.84224000  0.23275000  1
  O  O15  1  0.12749800  0.41277400  0.22821100  1
  O  O16  1  0.56596500  0.99352600  0.22788300  1
  O  O17  1  0.98817000  0.56559600  0.23346700  1
  O  O18  1  0.39278100  0.09832600  0.20924800  1
  O  O19  1  0.85551700  0.71075300  0.23331100  1
  O  O20  1  0.24020500  0.24753300  0.21138200  1
  O  O21  1  0.15776000  0.29954100  0.76725000  1
  O  O22  1  0.58722600  0.87250200  0.77178900  1
  O  O23  1  0.00647400  0.43403500  0.77211700  1
  O  O24  1  0.43440400  0.01183000  0.76653300  1
  O  O25  1  0.90167400  0.60721900  0.79075200  1
  O  O26  1  0.28924700  0.14448300  0.76668900  1
  O  O27  1  0.75246700  0.75979500  0.78861800  1
