# generated using pymatgen
data_Li7Mn5O12
_symmetry_space_group_name_H-M   'P 1'
_cell_length_a   2.88431600
_cell_length_b   13.50492349
_cell_length_c   11.79731724
_cell_angle_alpha   78.47649530
_cell_angle_beta   97.02177013
_cell_angle_gamma   83.87253927
_symmetry_Int_Tables_number   1
_chemical_formula_structural   Li7Mn5O12
_chemical_formula_sum   'Li14 Mn10 O24'
_cell_volume   442.81131719
_cell_formula_units_Z   2
loop_
 _symmetry_equiv_pos_site_id
 _symmetry_equiv_pos_as_xyz
  1  'x, y, z'
loop_
 _atom_site_type_symbol
 _atom_site_label
 _atom_site_symmetry_multiplicity
 _atom_site_fract_x
 _atom_site_fract_y
 _atom_site_fract_z
 _atom_site_occupancy
  Li  Li0  1  0.66674500  0.33329600  0.66667400  1
  Li  Li1  1  0.66671800  0.83333500  0.16664200  1
  Li  Li2  1  0.58303600  0.53794700  0.70406300  1
  Li  Li3  1  0.58304300  0.03792100  0.20400400  1
  Li  Li4  1  0.75034000  0.62869100  0.12933100  1
  Li  Li5  1  0.75034700  0.12870700  0.62933600  1
  Li  Li6  1  0.91425800  0.21140600  0.03987800  1
  Li  Li7  1  0.91425900  0.71138600  0.53985700  1
  Li  Li8  1  0.41906900  0.45520800  0.29348200  1
  Li  Li9  1  0.41906700  0.95522000  0.79347800  1
  Li  Li10  1  0.24458700  0.37700700  0.86632000  1
  Li  Li11  1  0.24458700  0.87696400  0.36626600  1
  Li  Li12  1  0.08870600  0.78970000  0.96703600  1
  Li  Li13  1  0.08872300  0.28966700  0.46703700  1
  Mn  Mn14  1  0.16661000  0.58347700  0.91668900  1
  Mn  Mn15  1  0.00393000  0.99723800  0.00521000  1
  Mn  Mn16  1  0.32938100  0.16937900  0.82812900  1
  Mn  Mn17  1  0.50001300  0.25088100  0.25077900  1
  Mn  Mn18  1  0.83321600  0.91584300  0.58238500  1
  Mn  Mn19  1  0.16685600  0.08337800  0.41673500  1
  Mn  Mn20  1  0.00397500  0.49722700  0.50527800  1
  Mn  Mn21  1  0.32939300  0.66933500  0.32809100  1
  Mn  Mn22  1  0.49992800  0.75101300  0.75068700  1
  Mn  Mn23  1  0.83324600  0.41580000  0.08245100  1
  O  O24  1  0.45454100  0.09812000  0.00729400  1
  O  O25  1  0.45455700  0.59809000  0.50732800  1
  O  O26  1  0.87872800  0.56846300  0.32603500  1
  O  O27  1  0.87870800  0.06849100  0.82603900  1
  O  O28  1  0.63452100  0.67548200  0.94448900  1
  O  O29  1  0.63467200  0.17539600  0.44449300  1
  O  O30  1  0.69870400  0.49141100  0.88892800  1
  O  O31  1  0.69883000  0.99135100  0.38889800  1
  O  O32  1  0.79848100  0.25791400  0.85483400  1
  O  O33  1  0.79848500  0.75788100  0.35479900  1
  O  O34  1  0.53481500  0.90869100  0.97848500  1
  O  O35  1  0.53484100  0.40867200  0.47856000  1
  O  O36  1  0.10723100  0.44847100  0.66303100  1
  O  O37  1  0.10719100  0.94850000  0.16293600  1
  O  O38  1  0.22618900  0.71810500  0.17032900  1
  O  O39  1  0.22622300  0.21810200  0.67037600  1
  O  O40  1  0.30122300  0.50660300  0.10910900  1
  O  O41  1  0.30122400  0.00664100  0.60908900  1
  O  O42  1  0.03208600  0.66013400  0.72423200  1
  O  O43  1  0.03212100  0.16004000  0.22424300  1
  O  O44  1  0.96734100  0.34276800  0.27733000  1
  O  O45  1  0.96730300  0.84286700  0.77730400  1
  O  O46  1  0.36597700  0.32387000  0.05600900  1
  O  O47  1  0.36597100  0.82392000  0.55598700  1
