# generated using pymatgen
data_Li7V3P8O29
_symmetry_space_group_name_H-M   'P 1'
_cell_length_a   9.83500300
_cell_length_b   9.86047494
_cell_length_c   13.86968392
_cell_angle_alpha   90.20506338
_cell_angle_beta   89.90329305
_cell_angle_gamma   119.89070453
_symmetry_Int_Tables_number   1
_chemical_formula_structural   Li7V3P8O29
_chemical_formula_sum   'Li14 V6 P16 O58'
_cell_volume   1166.12200858
_cell_formula_units_Z   2
loop_
 _symmetry_equiv_pos_site_id
 _symmetry_equiv_pos_as_xyz
  1  'x, y, z'
loop_
 _atom_site_type_symbol
 _atom_site_label
 _atom_site_symmetry_multiplicity
 _atom_site_fract_x
 _atom_site_fract_y
 _atom_site_fract_z
 _atom_site_occupancy
  Li  Li0  1  0.33199300  0.23287000  0.06655200  1
  Li  Li1  1  0.32398200  0.09390600  0.55814500  1
  Li  Li2  1  0.77309000  0.68000000  0.55773600  1
  Li  Li3  1  0.67419200  0.33760600  0.88245100  1
  Li  Li4  1  0.90262400  0.67030600  0.06543600  1
  Li  Li5  1  0.76491500  0.09721300  0.06474800  1
  Li  Li6  1  0.09221800  0.77175600  0.43988800  1
  Li  Li7  1  0.90625700  0.22986900  0.56039300  1
  Li  Li8  1  0.23475000  0.89631000  0.93950000  1
  Li  Li9  1  0.10078700  0.33694000  0.93896900  1
  Li  Li10  1  0.22845500  0.32283300  0.43709700  1
  Li  Li11  1  0.67905200  0.90486000  0.43750200  1
  Li  Li12  1  0.66168400  0.76500300  0.94169300  1
  Li  Li13  1  0.99611800  0.99476900  0.00443700  1
  V  V14  1  0.00118400  0.56435700  0.25045800  1
  V  V15  1  0.00128400  0.43383600  0.74935500  1
  V  V16  1  0.43030000  0.99704900  0.74727700  1
  V  V17  1  0.56554400  0.99887000  0.25074400  1
  V  V18  1  0.43415500  0.43349400  0.24996900  1
  V  V19  1  0.56373800  0.56607000  0.74996100  1
  P  P20  1  0.31615400  0.22582600  0.84165300  1
  P  P21  1  0.31776400  0.08641000  0.34220700  1
  P  P22  1  0.77058000  0.68126400  0.34236000  1
  P  P23  1  0.66964500  0.33216000  0.12511500  1
  P  P24  1  0.66286400  0.33081300  0.62713800  1
  P  P25  1  0.90935800  0.68587200  0.84408700  1
  P  P26  1  0.08728400  0.76741000  0.65762400  1
  P  P27  1  0.77254300  0.08859300  0.84446800  1
  P  P28  1  0.22668700  0.91132100  0.15677500  1
  P  P29  1  0.91036400  0.23048400  0.34131100  1
  P  P30  1  0.08557400  0.31255400  0.15631000  1
  P  P31  1  0.33164900  0.66674000  0.37313800  1
  P  P32  1  0.33441000  0.66732400  0.87456100  1
  P  P33  1  0.23178900  0.31712600  0.65526800  1
  P  P34  1  0.68217800  0.91262400  0.65791800  1
  P  P35  1  0.68573400  0.77392000  0.15846400  1
  O  O36  1  0.24888100  0.24020600  0.56607100  1
  O  O37  1  0.33238200  0.24755300  0.34438400  1
  O  O38  1  0.22299600  0.99940300  0.06711700  1
  O  O39  1  0.33731700  0.07967700  0.84193300  1
  O  O40  1  0.48035100  0.37354800  0.83171000  1
  O  O41  1  0.51493300  0.32196400  0.15969200  1
  O  O42  1  0.62678600  0.52205100  0.32493300  1
  O  O43  1  0.78183800  0.78621300  0.06858200  1
  O  O44  1  0.74599400  0.67211000  0.84364900  1
  O  O45  1  0.50868200  0.18535000  0.66916900  1
  O  O46  1  0.47850300  0.09711900  0.32097300  1
  O  O47  1  0.66675800  0.48350300  0.67210300  1
  O  O48  1  0.67889900  0.33737100  0.01587200  1
  O  O49  1  0.65623800  0.33266000  0.51987100  1
  O  O50  1  0.81579300  0.48723800  0.16563300  1
  O  O51  1  0.62460000  0.10391800  0.83158400  1
  O  O52  1  0.67988900  0.18828100  0.16295500  1
  O  O53  1  0.92153900  0.66959000  0.34163500  1
  O  O54  1  0.99882500  0.78853600  0.75085800  1
  O  O55  1  0.99814200  0.76276100  0.56861300  1
  O  O56  1  0.00018900  0.77802200  0.93282300  1
  O  O57  1  0.89025400  0.52201400  0.83519600  1
  O  O58  1  0.80788500  0.32444800  0.66660200  1
  O  O59  1  0.08086300  0.74718000  0.15671300  1
  O  O60  1  0.89635300  0.37704500  0.32404400  1
  O  O61  1  0.74652800  0.08142200  0.34221600  1
  O  O62  1  0.20758100  0.99900900  0.25001400  1
  O  O63  1  0.24486800  0.99250300  0.43174300  1
  O  O64  1  0.75654300  0.00301100  0.56762200  1
  O  O65  1  0.25124600  0.91973000  0.65938900  1
  O  O66  1  0.10330200  0.62348000  0.67216900  1
  O  O67  1  0.91953200  0.25084500  0.84593900  1
  O  O68  1  0.18298300  0.67051600  0.32753600  1
  O  O69  1  0.08956000  0.46925400  0.16761200  1
  O  O70  1  0.99604700  0.22234400  0.06640500  1
  O  O71  1  0.00069700  0.24287500  0.43173100  1
  O  O72  1  0.99786900  0.20631900  0.24956700  1
  O  O73  1  0.08277000  0.32864200  0.65498000  1
  O  O74  1  0.32592000  0.81089700  0.83234500  1
  O  O75  1  0.37894700  0.90788200  0.16873600  1
  O  O76  1  0.19109500  0.51283600  0.83796800  1
  O  O77  1  0.34771900  0.67729900  0.98207600  1
  O  O78  1  0.32775500  0.67868200  0.48036000  1
  O  O79  1  0.32299800  0.51331800  0.33696900  1
  O  O80  1  0.52201200  0.90282000  0.67839200  1
  O  O81  1  0.48481800  0.81311400  0.33132400  1
  O  O82  1  0.24888500  0.32981600  0.15601300  1
  O  O83  1  0.21227500  0.20780300  0.74914500  1
  O  O84  1  0.22820800  0.22552800  0.93177100  1
  O  O85  1  0.37932900  0.47670800  0.67450400  1
  O  O86  1  0.48852200  0.67124800  0.83130400  1
  O  O87  1  0.52980800  0.62471500  0.16570300  1
  O  O88  1  0.66589600  0.92152100  0.16147400  1
  O  O89  1  0.76816400  0.99557500  0.93272100  1
  O  O90  1  0.78972600  0.00099400  0.75035300  1
  O  O91  1  0.66520700  0.74937300  0.65736800  1
  O  O92  1  0.76119600  0.76289800  0.43223200  1
  O  O93  1  0.79311000  0.79421100  0.25074200  1
