# generated using pymatgen
data_Li6MnSb3(PO4)6
_symmetry_space_group_name_H-M   'P 1'
_cell_length_a   8.50693800
_cell_length_b   8.51256938
_cell_length_c   8.54731717
_cell_angle_alpha   65.70986141
_cell_angle_beta   66.06156433
_cell_angle_gamma   66.05108407
_symmetry_Int_Tables_number   1
_chemical_formula_structural   Li6MnSb3(PO4)6
_chemical_formula_sum   'Li6 Mn1 Sb3 P6 O24'
_cell_volume   493.96107750
_cell_formula_units_Z   1
loop_
 _symmetry_equiv_pos_site_id
 _symmetry_equiv_pos_as_xyz
  1  'x, y, z'
loop_
 _atom_site_type_symbol
 _atom_site_label
 _atom_site_symmetry_multiplicity
 _atom_site_fract_x
 _atom_site_fract_y
 _atom_site_fract_z
 _atom_site_occupancy
  Li  Li0  1  0.98722700  0.01909900  0.00729700  1
  Li  Li1  1  0.24109000  0.63432100  0.85317700  1
  Li  Li2  1  0.51920800  0.48564000  0.49960300  1
  Li  Li3  1  0.79373000  0.34455100  0.12243400  1
  Li  Li4  1  0.33157600  0.11250300  0.80574400  1
  Li  Li5  1  0.12644000  0.79954800  0.33280300  1
  Mn  Mn6  1  0.16090300  0.16741900  0.16191900  1
  Sb  Sb7  1  0.84296600  0.85322500  0.84387100  1
  Sb  Sb8  1  0.65385200  0.65537300  0.64266100  1
  Sb  Sb9  1  0.34849100  0.34936400  0.34715300  1
  P  P10  1  0.92201900  0.58575800  0.25151100  1
  P  P11  1  0.58503900  0.25523200  0.92289300  1
  P  P12  1  0.25018400  0.93099700  0.57867100  1
  P  P13  1  0.74432800  0.06797500  0.41982200  1
  P  P14  1  0.41384000  0.73601800  0.06458800  1
  P  P15  1  0.07854900  0.42893400  0.74257600  1
  O  O16  1  0.92937000  0.46946000  0.66607800  1
  O  O17  1  0.67414700  0.92549600  0.42905900  1
  O  O18  1  0.89913000  0.76175500  0.08797500  1
  O  O19  1  0.39225500  0.65580200  0.94820400  1
  O  O20  1  0.73786800  0.59110000  0.40408300  1
  O  O21  1  0.97048900  0.41867900  0.19432000  1
  O  O22  1  0.75781000  0.08789800  0.90416600  1
  O  O23  1  0.59200600  0.40185400  0.73531700  1
  O  O24  1  0.39159500  0.73888600  0.59536900  1
  O  O25  1  0.78588600  0.03330300  0.59410500  1
  O  O26  1  0.91128700  0.08244900  0.25320600  1
  O  O27  1  0.60179600  0.76590600  0.99588200  1
  O  O28  1  0.41337400  0.20112700  0.97928700  1
  O  O29  1  0.09200200  0.90507300  0.76076300  1
  O  O30  1  0.18817900  0.98260500  0.41515700  1
  O  O31  1  0.60321400  0.26403600  0.39404300  1
  O  O32  1  0.39791600  0.60367600  0.26454900  1
  O  O33  1  0.26023900  0.91371900  0.07576300  1
  O  O34  1  0.06316900  0.58739000  0.79965000  1
  O  O35  1  0.27144000  0.39742900  0.59871300  1
  O  O36  1  0.60167300  0.31686000  0.05934400  1
  O  O37  1  0.08090600  0.25512300  0.90440800  1
  O  O38  1  0.31801500  0.06950300  0.58549600  1
  O  O39  1  0.06679300  0.59391000  0.30934000  1
