# generated using pymatgen
data_LiMnO2
_symmetry_space_group_name_H-M   'P 1'
_cell_length_a   5.92089435
_cell_length_b   5.95643583
_cell_length_c   10.34513921
_cell_angle_alpha   88.61848118
_cell_angle_beta   72.40188251
_cell_angle_gamma   60.46993190
_symmetry_Int_Tables_number   1
_chemical_formula_structural   LiMnO2
_chemical_formula_sum   'Li8 Mn8 O16'
_cell_volume   299.14397790
_cell_formula_units_Z   8
loop_
 _symmetry_equiv_pos_site_id
 _symmetry_equiv_pos_as_xyz
  1  'x, y, z'
loop_
 _atom_site_type_symbol
 _atom_site_label
 _atom_site_symmetry_multiplicity
 _atom_site_fract_x
 _atom_site_fract_y
 _atom_site_fract_z
 _atom_site_occupancy
  Li  Li0  1  0.49964500  0.49988200  0.50000000  1
  Li  Li1  1  0.50012100  0.00022000  0.00005000  1
  Li  Li2  1  0.99873300  0.74708000  0.24965800  1
  Li  Li3  1  0.00124500  0.25301700  0.75036200  1
  Li  Li4  1  0.49957900  0.77103200  0.76147400  1
  Li  Li5  1  0.50110000  0.22897500  0.23881300  1
  Li  Li6  1  0.99794400  0.76493500  0.75198200  1
  Li  Li7  1  0.00256600  0.23508400  0.24775500  1
  Mn  Mn8  1  0.50739200  0.73296400  0.24792000  1
  Mn  Mn9  1  0.49280800  0.26706900  0.75202800  1
  Mn  Mn10  1  0.00014800  0.50010200  0.99988700  1
  Mn  Mn11  1  0.99968200  0.99985900  0.49990400  1
  Mn  Mn12  1  0.50024600  0.50016400  0.00001900  1
  Mn  Mn13  1  0.49959800  0.99988400  0.50012700  1
  Mn  Mn14  1  0.99972800  0.49984700  0.49986100  1
  Mn  Mn15  1  0.00016100  0.99995700  0.00002800  1
  O  O16  1  0.75268400  0.61057100  0.89202200  1
  O  O17  1  0.75349000  0.10710900  0.39361900  1
  O  O18  1  0.24583700  0.89266900  0.60637200  1
  O  O19  1  0.24777100  0.38979200  0.10800800  1
  O  O20  1  0.24615500  0.64606700  0.86614700  1
  O  O21  1  0.23640900  0.10359800  0.36926100  1
  O  O22  1  0.76309000  0.89622700  0.63075400  1
  O  O23  1  0.75430500  0.35405300  0.13383800  1
  O  O24  1  0.74845400  0.64052100  0.39111700  1
  O  O25  1  0.74624200  0.14486800  0.88852900  1
  O  O26  1  0.21894400  0.64851700  0.39089400  1
  O  O27  1  0.23515900  0.14352100  0.88267900  1
  O  O28  1  0.25413300  0.85532800  0.11151100  1
  O  O29  1  0.25101900  0.35925600  0.60891000  1
  O  O30  1  0.76517700  0.85662500  0.11737000  1
  O  O31  1  0.78043500  0.35120600  0.60910100  1
