# generated using pymatgen
data_Li4V3P8O29
_symmetry_space_group_name_H-M   'P 1'
_cell_length_a   9.79950800
_cell_length_b   9.80369102
_cell_length_c   14.01585261
_cell_angle_alpha   89.75899946
_cell_angle_beta   89.76313667
_cell_angle_gamma   60.05215508
_symmetry_Int_Tables_number   1
_chemical_formula_structural   Li4V3P8O29
_chemical_formula_sum   'Li8 V6 P16 O58'
_cell_volume   1166.72097438
_cell_formula_units_Z   2
loop_
 _symmetry_equiv_pos_site_id
 _symmetry_equiv_pos_as_xyz
  1  'x, y, z'
loop_
 _atom_site_type_symbol
 _atom_site_label
 _atom_site_symmetry_multiplicity
 _atom_site_fract_x
 _atom_site_fract_y
 _atom_site_fract_z
 _atom_site_occupancy
  Li  Li0  1  0.32075500  0.77074500  0.56311800  1
  Li  Li1  1  0.77577300  0.90750200  0.56160500  1
  Li  Li2  1  0.91300100  0.76955100  0.05812600  1
  Li  Li3  1  0.77130500  0.32284800  0.05777300  1
  Li  Li4  1  0.90170600  0.32510300  0.56214400  1
  Li  Li5  1  0.09825100  0.22328500  0.93771800  1
  Li  Li6  1  0.22768900  0.09319000  0.44224700  1
  Li  Li7  1  0.67600700  0.09426100  0.93574100  1
  V  V8  1  0.00546900  0.56622500  0.25489000  1
  V  V9  1  0.99935200  0.43487500  0.74979700  1
  V  V10  1  0.42837700  0.56830600  0.75381800  1
  V  V11  1  0.56047700  0.43617600  0.25368800  1
  V  V12  1  0.43662100  0.99312900  0.24396600  1
  V  V13  1  0.56801000  0.99855600  0.74918400  1
  P  P14  1  0.31697700  0.91331200  0.84147600  1
  P  P15  1  0.31498100  0.77177100  0.34266400  1
  P  P16  1  0.76813600  0.91280100  0.34246000  1
  P  P17  1  0.67304000  0.66221900  0.12834500  1
  P  P18  1  0.66491000  0.66573700  0.62677500  1
  P  P19  1  0.91308300  0.76789900  0.84360200  1
  P  P20  1  0.08609800  0.68377000  0.65897300  1
  P  P21  1  0.76776200  0.31856100  0.84195900  1
  P  P22  1  0.22922700  0.68696700  0.15642600  1
  P  P23  1  0.90984900  0.31888600  0.34068300  1
  P  P24  1  0.08816400  0.23208000  0.15906500  1
  P  P25  1  0.33406900  0.32783200  0.37179800  1
  P  P26  1  0.33508500  0.33092000  0.87332500  1
  P  P27  1  0.23198200  0.08807200  0.65786900  1
  P  P28  1  0.68249000  0.23230200  0.65807800  1
  P  P29  1  0.68235900  0.08921300  0.15928100  1
  O  O30  1  0.24092200  0.00233600  0.56702200  1
  O  O31  1  0.33839600  0.91785200  0.33531300  1
  O  O32  1  0.23586900  0.76569500  0.06919300  1
  O  O33  1  0.34227000  0.74350800  0.83423800  1
  O  O34  1  0.47756700  0.90367200  0.82526600  1
  O  O35  1  0.52172200  0.81354300  0.17380500  1
  O  O36  1  0.61545100  0.90648300  0.32059800  1
  O  O37  1  0.75749800  0.00143400  0.06962800  1
  O  O38  1  0.74593500  0.91675800  0.83799000  1
  O  O39  1  0.51191700  0.67003800  0.66970200  1
  O  O40  1  0.47798700  0.61910800  0.32203700  1
  O  O41  1  0.67254400  0.81229100  0.66640300  1
  O  O42  1  0.67052400  0.66781800  0.02279900  1
  O  O43  1  0.65976700  0.66708100  0.52011500  1
  O  O44  1  0.81892100  0.66790400  0.17001800  1
  O  O45  1  0.61735400  0.47941300  0.82359100  1
  O  O46  1  0.66988500  0.51383700  0.16934000  1
  O  O47  1  0.91157700  0.74349900  0.33202300  1
  O  O48  1  0.00561900  0.78691700  0.75454600  1
  O  O49  1  0.99676600  0.77165300  0.57345700  1
  O  O50  1  0.99078200  0.76054800  0.93538100  1
  O  O51  1  0.90144700  0.61797700  0.82309000  1
  O  O52  1  0.81163600  0.51221100  0.66649900  1
  O  O53  1  0.08505200  0.65917700  0.16381000  1
  O  O54  1  0.90386600  0.47855100  0.32272700  1
  O  O55  1  0.74209900  0.34380900  0.33396800  1
  O  O56  1  0.20697900  0.78863500  0.25335300  1
  O  O57  1  0.24774000  0.76249300  0.43508300  1
  O  O58  1  0.76779300  0.23991800  0.57263300  1
  O  O59  1  0.25558200  0.66268400  0.66210300  1
  O  O60  1  0.09971000  0.52197300  0.67491200  1
  O  O61  1  0.91549000  0.33630000  0.84167600  1
  O  O62  1  0.18516200  0.47871500  0.32586700  1
  O  O63  1  0.09440900  0.38403500  0.17752200  1
  O  O64  1  0.00176300  0.24136000  0.06966100  1
  O  O65  1  0.99736000  0.24307900  0.43012300  1
  O  O66  1  0.99960000  0.20871900  0.24999100  1
  O  O67  1  0.08234500  0.25393800  0.66013500  1
  O  O68  1  0.33454600  0.48099300  0.82607200  1
  O  O69  1  0.38286400  0.52528300  0.17898700  1
  O  O70  1  0.18655900  0.32817200  0.83393700  1
  O  O71  1  0.33674700  0.33561600  0.97951000  1
  O  O72  1  0.32866200  0.33377400  0.47698700  1
  O  O73  1  0.33205100  0.18054400  0.33065000  1
  O  O74  1  0.52329600  0.38408500  0.67763200  1
  O  O75  1  0.48006400  0.33378400  0.32612100  1
  O  O76  1  0.25646400  0.08823900  0.16527200  1
  O  O77  1  0.21166800  0.99559300  0.74622800  1
  O  O78  1  0.22952400  0.00318700  0.92669800  1
  O  O79  1  0.37981900  0.10075000  0.67519500  1
  O  O80  1  0.48918100  0.18576100  0.83358000  1
  O  O81  1  0.52087800  0.09822700  0.17708400  1
  O  O82  1  0.66150200  0.25637200  0.16115900  1
  O  O83  1  0.75464400  0.24459300  0.93346200  1
  O  O84  1  0.78764800  0.20701500  0.75393400  1
  O  O85  1  0.66071900  0.08609600  0.65920100  1
  O  O86  1  0.76147300  0.99072200  0.43313500  1
  O  O87  1  0.78978100  0.00200200  0.25072700  1
