# generated using pymatgen
data_Sr2LiN
_symmetry_space_group_name_H-M   'P 1'
_cell_length_a   7.45359399
_cell_length_b   7.45359399
_cell_length_c   7.45359399
_cell_angle_alpha   149.48055678
_cell_angle_beta   149.48055678
_cell_angle_gamma   43.70442742
_symmetry_Int_Tables_number   1
_chemical_formula_structural   Sr2LiN
_chemical_formula_sum   'Sr2 Li1 N1'
_cell_volume   106.49492993
_cell_formula_units_Z   1
loop_
 _symmetry_equiv_pos_site_id
 _symmetry_equiv_pos_as_xyz
  1  'x, y, z'
loop_
 _atom_site_type_symbol
 _atom_site_label
 _atom_site_symmetry_multiplicity
 _atom_site_fract_x
 _atom_site_fract_y
 _atom_site_fract_z
 _atom_site_occupancy
  Sr  Sr0  1  0.66416700  0.66416700  0.00000000  1
  Sr  Sr1  1  0.35006400  0.35006400  0.00000000  1
  Li  Li2  1  0.98073800  0.98073800  0.00000000  1
  N  N3  1  0.83803100  0.83803100  0.00000000  1
