# generated using pymatgen
data_Li7SiPO8
_symmetry_space_group_name_H-M   'P 1'
_cell_length_a   5.10360700
_cell_length_b   6.59122562
_cell_length_c   10.58729886
_cell_angle_alpha   89.89848379
_cell_angle_beta   88.50928525
_cell_angle_gamma   89.75834994
_symmetry_Int_Tables_number   1
_chemical_formula_structural   Li7SiPO8
_chemical_formula_sum   'Li14 Si2 P2 O16'
_cell_volume   356.02221842
_cell_formula_units_Z   2
loop_
 _symmetry_equiv_pos_site_id
 _symmetry_equiv_pos_as_xyz
  1  'x, y, z'
loop_
 _atom_site_type_symbol
 _atom_site_label
 _atom_site_symmetry_multiplicity
 _atom_site_fract_x
 _atom_site_fract_y
 _atom_site_fract_z
 _atom_site_occupancy
  Li  Li0  1  0.87843500  0.13353300  0.94392600  1
  Li  Li1  1  0.15769100  0.78923200  0.08910200  1
  Li  Li2  1  0.55790900  0.03258200  0.50374200  1
  Li  Li3  1  0.93837800  0.46906100  0.01016900  1
  Li  Li4  1  0.63226800  0.36683800  0.45350200  1
  Li  Li5  1  0.33292700  0.71160200  0.56875300  1
  Li  Li6  1  0.61168200  0.54334300  0.18781300  1
  Li  Li7  1  0.34248000  0.47675500  0.81939900  1
  Li  Li8  1  0.15335200  0.47141800  0.33384500  1
  Li  Li9  1  0.83662300  0.51665900  0.66864400  1
  Li  Li10  1  0.36016300  0.02333200  0.81396600  1
  Li  Li11  1  0.65127000  0.99033700  0.18556300  1
  Li  Li12  1  0.87512200  0.95692800  0.66790100  1
  Li  Li13  1  0.15234800  0.03246800  0.33706200  1
  Si  Si14  1  0.85712800  0.75083800  0.41237100  1
  Si  Si15  1  0.15084100  0.24736700  0.58189700  1
  P  P16  1  0.34780700  0.25325600  0.07718700  1
  P  P17  1  0.64657300  0.74618400  0.91913600  1
  O  O18  1  0.77408700  0.54396400  0.33617600  1
  O  O19  1  0.22580600  0.45811900  0.65704500  1
  O  O20  1  0.24472800  0.45062700  0.14297200  1
  O  O21  1  0.74026500  0.54737500  0.85432900  1
  O  O22  1  0.25254100  0.03401200  0.64947200  1
  O  O23  1  0.76422100  0.96343100  0.34491200  1
  O  O24  1  0.73794200  0.93782000  0.84528900  1
  O  O25  1  0.26648700  0.05714600  0.14865700  1
  O  O26  1  0.28790100  0.25093200  0.43832000  1
  O  O27  1  0.72861300  0.74808400  0.55879500  1
  O  O28  1  0.76390000  0.74824800  0.05646600  1
  O  O29  1  0.22715600  0.25101200  0.94187400  1
  O  O30  1  0.65469400  0.26044400  0.07207000  1
  O  O31  1  0.34197600  0.75019000  0.92524400  1
  O  O32  1  0.18066600  0.75063500  0.40555900  1
  O  O33  1  0.82602200  0.23622700  0.58484400  1
