# generated using pymatgen
data_Li9Mn2Co5O16
_symmetry_space_group_name_H-M   'P 1'
_cell_length_a   5.14645200
_cell_length_b   7.68166134
_cell_length_c   7.76187569
_cell_angle_alpha   93.77260727
_cell_angle_beta   109.25723413
_cell_angle_gamma   96.48941707
_symmetry_Int_Tables_number   1
_chemical_formula_structural   Li9Mn2Co5O16
_chemical_formula_sum   'Li9 Mn2 Co5 O16'
_cell_volume   286.08430363
_cell_formula_units_Z   1
loop_
 _symmetry_equiv_pos_site_id
 _symmetry_equiv_pos_as_xyz
  1  'x, y, z'
loop_
 _atom_site_type_symbol
 _atom_site_label
 _atom_site_symmetry_multiplicity
 _atom_site_fract_x
 _atom_site_fract_y
 _atom_site_fract_z
 _atom_site_occupancy
  Li  Li0  1  0.56282900  0.19081400  0.06162600  1
  Li  Li1  1  0.93915500  0.32181100  0.44288400  1
  Li  Li2  1  0.31982100  0.43756600  0.80741700  1
  Li  Li3  1  0.68125800  0.55770700  0.19309900  1
  Li  Li4  1  0.07817000  0.68311200  0.56461800  1
  Li  Li5  1  0.43526900  0.80933200  0.93311700  1
  Li  Li6  1  0.81326400  0.93946600  0.31704300  1
  Li  Li7  1  0.17611200  0.05925100  0.68284800  1
  Li  Li8  1  0.49881500  0.50435500  0.50002100  1
  Mn  Mn9  1  0.00192400  0.99787600  0.99694300  1
  Mn  Mn10  1  0.24777600  0.74901800  0.25265900  1
  Co  Co11  1  0.37611600  0.13158800  0.37786500  1
  Co  Co12  1  0.73847600  0.25444800  0.74455800  1
  Co  Co13  1  0.12328300  0.37764400  0.13133500  1
  Co  Co14  1  0.87457500  0.61738600  0.86165000  1
  Co  Co15  1  0.62622300  0.87247000  0.62376700  1
  O  O16  1  0.13107400  0.20879800  0.91033400  1
  O  O17  1  0.49808800  0.32979000  0.27779400  1
  O  O18  1  0.91893200  0.47230900  0.67300500  1
  O  O19  1  0.27669800  0.59907400  0.05032500  1
  O  O20  1  0.61700300  0.73171000  0.40181100  1
  O  O21  1  0.03704100  0.85121900  0.79725600  1
  O  O22  1  0.37195300  0.96178200  0.15380700  1
  O  O23  1  0.75819600  0.08432100  0.53705800  1
  O  O24  1  0.97416800  0.14814300  0.20427200  1
  O  O25  1  0.36709800  0.27094000  0.60346500  1
  O  O26  1  0.73943200  0.40770000  0.97029200  1
  O  O27  1  0.09424000  0.54317100  0.33203100  1
  O  O28  1  0.50081600  0.67353900  0.71808200  1
  O  O29  1  0.87567000  0.78437800  0.08629600  1
  O  O30  1  0.21494000  0.90610300  0.44740500  1
  O  O31  1  0.63158500  0.02317600  0.84531300  1
