# generated using pymatgen
data_Li9Mn2Co5O16
_symmetry_space_group_name_H-M   'P 1'
_cell_length_a   5.06508600
_cell_length_b   5.90363749
_cell_length_c   10.39413461
_cell_angle_alpha   75.76043098
_cell_angle_beta   76.79336801
_cell_angle_gamma   75.24094348
_symmetry_Int_Tables_number   1
_chemical_formula_structural   Li9Mn2Co5O16
_chemical_formula_sum   'Li9 Mn2 Co5 O16'
_cell_volume   286.72656569
_cell_formula_units_Z   1
loop_
 _symmetry_equiv_pos_site_id
 _symmetry_equiv_pos_as_xyz
  1  'x, y, z'
loop_
 _atom_site_type_symbol
 _atom_site_label
 _atom_site_symmetry_multiplicity
 _atom_site_fract_x
 _atom_site_fract_y
 _atom_site_fract_z
 _atom_site_occupancy
  Li  Li0  1  0.48420800  0.80938600  0.13329800  1
  Li  Li1  1  0.50237900  0.29897900  0.13445700  1
  Li  Li2  1  0.51456800  0.43796300  0.37469600  1
  Li  Li3  1  0.50358500  0.93602400  0.37512900  1
  Li  Li4  1  0.49951200  0.06472600  0.62149000  1
  Li  Li5  1  0.49717900  0.56250000  0.62312900  1
  Li  Li6  1  0.49315000  0.69626600  0.86925900  1
  Li  Li7  1  0.50953400  0.18764800  0.87056300  1
  Li  Li8  1  0.99494400  0.62693300  0.25285500  1
  Mn  Mn9  1  0.00402300  0.99297500  0.00255000  1
  Mn  Mn10  1  0.00266100  0.49511500  0.00346500  1
  Co  Co11  1  0.00118500  0.12372500  0.24894100  1
  Co  Co12  1  0.99859600  0.26108500  0.49576600  1
  Co  Co13  1  0.99434500  0.75231800  0.49324400  1
  Co  Co14  1  0.99926700  0.87428700  0.74988900  1
  Co  Co15  1  0.00363400  0.37391400  0.74710400  1
  O  O16  1  0.23529900  0.13325100  0.07199700  1
  O  O17  1  0.22216800  0.67728000  0.05331400  1
  O  O18  1  0.21861200  0.82290900  0.31196700  1
  O  O19  1  0.21768200  0.27008100  0.31563000  1
  O  O20  1  0.23819700  0.41214400  0.55958100  1
  O  O21  1  0.21691300  0.90538200  0.57261600  1
  O  O22  1  0.22243000  0.02426000  0.81657900  1
  O  O23  1  0.23444300  0.50934900  0.82085200  1
  O  O24  1  0.78278400  0.43828500  0.18478900  1
  O  O25  1  0.78110900  0.97998200  0.17961900  1
  O  O26  1  0.76803100  0.10070700  0.42541200  1
  O  O27  1  0.75995900  0.60261100  0.44335100  1
  O  O28  1  0.77482000  0.71986300  0.69349100  1
  O  O29  1  0.76646200  0.23593300  0.68119900  1
  O  O30  1  0.78648000  0.31691000  0.94314600  1
  O  O31  1  0.77183900  0.85721300  0.93062300  1
