# generated using pymatgen
data_LiInN
_symmetry_space_group_name_H-M   'P 1'
_cell_length_a   8.66415863
_cell_length_b   3.36545501
_cell_length_c   5.66484367
_cell_angle_alpha   90.00000000
_cell_angle_beta   90.00000000
_cell_angle_gamma   90.00000000
_symmetry_Int_Tables_number   1
_chemical_formula_structural   LiInN
_chemical_formula_sum   'Li4 In4 N4'
_cell_volume   165.18024793
_cell_formula_units_Z   4
loop_
 _symmetry_equiv_pos_site_id
 _symmetry_equiv_pos_as_xyz
  1  'x, y, z'
loop_
 _atom_site_type_symbol
 _atom_site_label
 _atom_site_symmetry_multiplicity
 _atom_site_fract_x
 _atom_site_fract_y
 _atom_site_fract_z
 _atom_site_occupancy
  Li  Li0  1  0.58827017  0.25000000  0.09633621  1
  Li  Li1  1  0.08827017  0.25000000  0.40366379  1
  Li  Li2  1  0.41172983  0.75000000  0.90366379  1
  Li  Li3  1  0.91172983  0.75000000  0.59633621  1
  In  In4  1  0.63762859  0.25000000  0.61906513  1
  In  In5  1  0.13762859  0.25000000  0.88093487  1
  In  In6  1  0.36237141  0.75000000  0.38093487  1
  In  In7  1  0.86237141  0.75000000  0.11906513  1
  N  N8  1  0.84133075  0.25000000  0.38353759  1
  N  N9  1  0.34133075  0.25000000  0.11646241  1
  N  N10  1  0.15866925  0.75000000  0.61646241  1
  N  N11  1  0.65866925  0.75000000  0.88353759  1
