# generated using pymatgen
data_Li6V3P8O29
_symmetry_space_group_name_H-M   'P 1'
_cell_length_a   9.83939591
_cell_length_b   9.83939591
_cell_length_c   13.94091325
_cell_angle_alpha   89.87932909
_cell_angle_beta   89.87932909
_cell_angle_gamma   60.06339055
_symmetry_Int_Tables_number   1
_chemical_formula_structural   Li6V3P8O29
_chemical_formula_sum   'Li12 V6 P16 O58'
_cell_volume   1169.59230097
_cell_formula_units_Z   2
loop_
 _symmetry_equiv_pos_site_id
 _symmetry_equiv_pos_as_xyz
  1  'x, y, z'
loop_
 _atom_site_type_symbol
 _atom_site_label
 _atom_site_symmetry_multiplicity
 _atom_site_fract_x
 _atom_site_fract_y
 _atom_site_fract_z
 _atom_site_occupancy
  Li  Li0  1  0.22471300  0.68958300  0.68895500  1
  Li  Li1  1  0.67804900  0.22589000  0.19087000  1
  Li  Li2  1  0.32890700  0.33219300  0.86591400  1
  Li  Li3  1  0.68318100  0.09187600  0.68746600  1
  Li  Li4  1  0.09288400  0.22390500  0.68943200  1
  Li  Li5  1  0.77609500  0.90711600  0.31056800  1
  Li  Li6  1  0.22774300  0.09216700  0.18935200  1
  Li  Li7  1  0.90783300  0.77225700  0.81064800  1
  Li  Li8  1  0.66780700  0.67109300  0.13408600  1
  Li  Li9  1  0.31041700  0.77528700  0.31104500  1
  Li  Li10  1  0.90812400  0.31681900  0.31253400  1
  Li  Li11  1  0.77411000  0.32195100  0.80913000  1
  V  V12  1  0.56674800  0.99987700  0.50225400  1
  V  V13  1  0.43350300  0.99579900  0.99527000  1
  V  V14  1  0.00420100  0.56649700  0.00473000  1
  V  V15  1  0.00012300  0.43325200  0.49774600  1
  V  V16  1  0.43064000  0.56936000  0.50000000  1
  V  V17  1  0.56375300  0.43624700  0.00000000  1
  P  P18  1  0.22981200  0.68219200  0.90695700  1
  P  P19  1  0.08504600  0.68327900  0.40861800  1
  P  P20  1  0.67799600  0.23275500  0.40908100  1
  P  P21  1  0.33304300  0.33407100  0.62391100  1
  P  P22  1  0.33550400  0.32764700  0.12289600  1
  P  P23  1  0.67904200  0.09104300  0.90782700  1
  P  P24  1  0.76852800  0.91073700  0.09290000  1
  P  P25  1  0.08926300  0.23147200  0.90710000  1
  P  P26  1  0.91262800  0.76601200  0.59334600  1
  P  P27  1  0.23398800  0.08737200  0.40665400  1
  P  P28  1  0.31672100  0.91495400  0.59138200  1
  P  P29  1  0.66592900  0.66695700  0.37608900  1
  P  P30  1  0.67235300  0.66449600  0.87710400  1
  P  P31  1  0.31780800  0.77018800  0.09304300  1
  P  P32  1  0.90895700  0.32095800  0.09217300  1
  P  P33  1  0.76724500  0.32200400  0.59091900  1
  O  O34  1  0.24686900  0.75627400  0.18368100  1
  O  O35  1  0.25297700  0.66079700  0.41021200  1
  O  O36  1  0.99906700  0.75739800  0.68415300  1
  O  O37  1  0.08166900  0.66515500  0.90999400  1
  O  O38  1  0.37499800  0.51429100  0.92524400  1
  O  O39  1  0.32572200  0.48806000  0.58500100  1
  O  O40  1  0.51944200  0.38087700  0.42648600  1
  O  O41  1  0.75941700  0.24267500  0.68145400  1
  O  O42  1  0.66650700  0.25375800  0.90729800  1
  O  O43  1  0.18651200  0.47328500  0.07677700  1
  O  O44  1  0.09546100  0.52169200  0.42592900  1
  O  O45  1  0.48461000  0.33246300  0.08188800  1
  O  O46  1  0.33571000  0.33403000  0.73215400  1
  O  O47  1  0.33429300  0.32622700  0.22902100  1
  O  O48  1  0.48874900  0.18667800  0.58631900  1
  O  O49  1  0.10720500  0.37832000  0.92163100  1
  O  O50  1  0.18730900  0.32675800  0.58570800  1
  O  O51  1  0.66170800  0.08403000  0.41137500  1
  O  O52  1  0.78280800  0.00310700  0.00037200  1
  O  O53  1  0.75427500  0.00376600  0.18141700  1
  O  O54  1  0.75725800  0.99880900  0.81888900  1
  O  O55  1  0.51204100  0.11449600  0.92238100  1
  O  O56  1  0.33713500  0.17845300  0.07986500  1
  O  O57  1  0.74908800  0.91709500  0.59101900  1
  O  O58  1  0.37922900  0.10160400  0.42611700  1
  O  O59  1  0.08290500  0.25091200  0.40898100  1
  O  O60  1  0.00660600  0.78579300  0.50467200  1
  O  O61  1  0.99271200  0.76815200  0.32314700  1
  O  O62  1  0.00119100  0.24274200  0.18111100  1
  O  O63  1  0.91411500  0.74815900  0.09006900  1
  O  O64  1  0.62168000  0.89279500  0.07836900  1
  O  O65  1  0.25184100  0.08588500  0.90993100  1
  O  O66  1  0.67324200  0.81269100  0.41429200  1
  O  O67  1  0.47830800  0.90453900  0.57407100  1
  O  O68  1  0.23184800  0.00728800  0.67685300  1
  O  O69  1  0.24260200  0.00093300  0.31584700  1
  O  O70  1  0.21420700  0.99339400  0.49532800  1
  O  O71  1  0.33484500  0.91833100  0.09000600  1
  O  O72  1  0.82154700  0.66286500  0.92013500  1
  O  O73  1  0.89839600  0.62077100  0.57388300  1
  O  O74  1  0.52671500  0.81348800  0.92322300  1
  O  O75  1  0.67377300  0.66570700  0.77097900  1
  O  O76  1  0.66597000  0.66429000  0.26784600  1
  O  O77  1  0.51194000  0.67427800  0.41499900  1
  O  O78  1  0.88550400  0.48795900  0.07761900  1
  O  O79  1  0.81332200  0.51125100  0.41368100  1
  O  O80  1  0.33920300  0.74702300  0.58978800  1
  O  O81  1  0.21387900  0.78612100  0.00000000  1
  O  O82  1  0.24372600  0.75313100  0.81631900  1
  O  O83  1  0.48570900  0.62500200  0.07475600  1
  O  O84  1  0.66753700  0.51539000  0.91811200  1
  O  O85  1  0.61912300  0.48055800  0.57351400  1
  O  O86  1  0.91597000  0.33829200  0.58862500  1
  O  O87  1  0.99623400  0.24572500  0.81858300  1
  O  O88  1  0.99689300  0.21719200  0.99962800  1
  O  O89  1  0.74624200  0.33349300  0.09270200  1
  O  O90  1  0.75732500  0.24058300  0.31854600  1
  O  O91  1  0.78918600  0.21081400  0.50000000  1
