# generated using pymatgen
data_Li4MnCo2O7
_symmetry_space_group_name_H-M   'P 1'
_cell_length_a   2.97488937
_cell_length_b   2.97488937
_cell_length_c   34.44203864
_cell_angle_alpha   86.27741402
_cell_angle_beta   86.27741402
_cell_angle_gamma   57.21779902
_symmetry_Int_Tables_number   1
_chemical_formula_structural   Li4MnCo2O7
_chemical_formula_sum   'Li8 Mn2 Co4 O14'
_cell_volume   255.56338258
_cell_formula_units_Z   2
loop_
 _symmetry_equiv_pos_site_id
 _symmetry_equiv_pos_as_xyz
  1  'x, y, z'
loop_
 _atom_site_type_symbol
 _atom_site_label
 _atom_site_symmetry_multiplicity
 _atom_site_fract_x
 _atom_site_fract_y
 _atom_site_fract_z
 _atom_site_occupancy
  Li  Li0  1  0.72423700  0.72423700  0.92466000  1
  Li  Li1  1  0.13598400  0.13598400  0.78746700  1
  Li  Li2  1  0.57089200  0.57089200  0.64320100  1
  Li  Li3  1  0.99811700  0.99811700  0.50174800  1
  Li  Li4  1  0.43026100  0.43026100  0.35561400  1
  Li  Li5  1  0.85715400  0.85715400  0.21433900  1
  Li  Li6  1  0.28390500  0.28390500  0.07313800  1
  Li  Li7  1  0.42768000  0.42768000  0.85700400  1
  Mn  Mn8  1  0.00218300  0.00218300  0.00051000  1
  Mn  Mn9  1  0.71426400  0.71426400  0.42859900  1
  Co  Co10  1  0.85485500  0.85485500  0.71372400  1
  Co  Co11  1  0.28487100  0.28487100  0.57192200  1
  Co  Co12  1  0.14330900  0.14330900  0.28516100  1
  Co  Co13  1  0.57108000  0.57108000  0.14345400  1
  O  O14  1  0.36989800  0.36989800  0.96960900  1
  O  O15  1  0.78719800  0.78719800  0.81976000  1
  O  O16  1  0.22730800  0.22730800  0.68253400  1
  O  O17  1  0.64278400  0.64278400  0.53813500  1
  O  O18  1  0.09331700  0.09331700  0.39571100  1
  O  O19  1  0.49956800  0.49956800  0.25208600  1
  O  O20  1  0.92808200  0.92808200  0.10959200  1
  O  O21  1  0.06956500  0.06956500  0.89352600  1
  O  O22  1  0.48990300  0.48990300  0.74310400  1
  O  O23  1  0.93004700  0.93004700  0.60527700  1
  O  O24  1  0.33563600  0.33563600  0.46140000  1
  O  O25  1  0.78577500  0.78577500  0.31896900  1
  O  O26  1  0.21517000  0.21517000  0.17655600  1
  O  O27  1  0.62695500  0.62695500  0.03319800  1
