# generated using pymatgen
data_Li9Co7O16
_symmetry_space_group_name_H-M   'P 1'
_cell_length_a   4.91467300
_cell_length_b   5.74210301
_cell_length_c   9.88780023
_cell_angle_alpha   89.07118408
_cell_angle_beta   99.44120780
_cell_angle_gamma   106.69272133
_symmetry_Int_Tables_number   1
_chemical_formula_structural   Li9Co7O16
_chemical_formula_sum   'Li9 Co7 O16'
_cell_volume   263.51870195
_cell_formula_units_Z   1
loop_
 _symmetry_equiv_pos_site_id
 _symmetry_equiv_pos_as_xyz
  1  'x, y, z'
loop_
 _atom_site_type_symbol
 _atom_site_label
 _atom_site_symmetry_multiplicity
 _atom_site_fract_x
 _atom_site_fract_y
 _atom_site_fract_z
 _atom_site_occupancy
  Li  Li0  1  0.99941500  0.62485700  0.37487400  1
  Li  Li1  1  0.50277900  0.25302700  0.75593300  1
  Li  Li2  1  0.00058500  0.37514300  0.62512600  1
  Li  Li3  1  0.50000000  0.00000000  0.00000000  1
  Li  Li4  1  0.00554000  0.13163500  0.87841700  1
  Li  Li5  1  0.49722100  0.74697300  0.24406700  1
  Li  Li6  1  0.99446000  0.86836500  0.12158300  1
  Li  Li7  1  0.50000000  0.50000000  0.50000000  1
  Li  Li8  1  0.50000000  0.50000000  0.00000000  1
  Co  Co9  1  0.00072400  0.37645700  0.12334400  1
  Co  Co10  1  0.99927600  0.62354300  0.87665600  1
  Co  Co11  1  0.50000000  0.00000000  0.50000000  1
  Co  Co12  1  0.50029400  0.25453800  0.24535700  1
  Co  Co13  1  0.99908200  0.87424200  0.62548500  1
  Co  Co14  1  0.00091800  0.12575800  0.37451500  1
  Co  Co15  1  0.49970600  0.74546200  0.75464300  1
  O  O16  1  0.74725700  0.53231400  0.19163000  1
  O  O17  1  0.23899100  0.16332500  0.55389200  1
  O  O18  1  0.73834400  0.28814900  0.42847400  1
  O  O19  1  0.24144700  0.91603500  0.80362600  1
  O  O20  1  0.73492800  0.03356800  0.67861100  1
  O  O21  1  0.22229800  0.67178200  0.05646000  1
  O  O22  1  0.74466500  0.80109600  0.91890300  1
  O  O23  1  0.24348800  0.41572700  0.30490600  1
  O  O24  1  0.26165600  0.71185100  0.57152600  1
  O  O25  1  0.77770200  0.32821800  0.94354000  1
  O  O26  1  0.25274300  0.46768600  0.80837000  1
  O  O27  1  0.75855300  0.08396500  0.19637400  1
  O  O28  1  0.25533500  0.19890400  0.08109700  1
  O  O29  1  0.76100900  0.83667500  0.44610800  1
  O  O30  1  0.26507200  0.96643200  0.32138900  1
  O  O31  1  0.75651200  0.58427300  0.69509400  1
