# generated using pymatgen
data_Na5LiFe2P2(CO7)2
_symmetry_space_group_name_H-M   'P 1'
_cell_length_a   6.74265000
_cell_length_b   8.91639882
_cell_length_c   10.36584640
_cell_angle_alpha   88.89765625
_cell_angle_beta   89.94271994
_cell_angle_gamma   89.62416640
_symmetry_Int_Tables_number   1
_chemical_formula_structural   Na5LiFe2P2(CO7)2
_chemical_formula_sum   'Na10 Li2 Fe4 P4 C4 O28'
_cell_volume   623.06732843
_cell_formula_units_Z   2
loop_
 _symmetry_equiv_pos_site_id
 _symmetry_equiv_pos_as_xyz
  1  'x, y, z'
loop_
 _atom_site_type_symbol
 _atom_site_label
 _atom_site_symmetry_multiplicity
 _atom_site_fract_x
 _atom_site_fract_y
 _atom_site_fract_z
 _atom_site_occupancy
  Na  Na0  1  0.74921400  0.91720900  0.12021600  1
  Na  Na1  1  0.75533500  0.91868400  0.61806200  1
  Na  Na2  1  0.99757700  0.73502300  0.37738800  1
  Na  Na3  1  0.50101800  0.73571600  0.37722800  1
  Na  Na4  1  0.99577500  0.73784600  0.87413200  1
  Na  Na5  1  0.50544000  0.73684800  0.87462400  1
  Na  Na6  1  0.49534300  0.26264800  0.12357300  1
  Na  Na7  1  0.00259900  0.26293000  0.12521700  1
  Na  Na8  1  0.49915700  0.26133000  0.62561700  1
  Na  Na9  1  0.24168000  0.08369800  0.87708800  1
  Li  Li10  1  0.02707100  0.28152700  0.61310800  1
  Li  Li11  1  0.24338800  0.09560800  0.37621000  1
  Fe  Fe12  1  0.24793000  0.64603300  0.10924900  1
  Fe  Fe13  1  0.25155700  0.64401300  0.61558000  1
  Fe  Fe14  1  0.75412800  0.34766300  0.39294600  1
  Fe  Fe15  1  0.75256700  0.35453000  0.88444900  1
  P  P16  1  0.74824000  0.58361900  0.14681200  1
  P  P17  1  0.75781200  0.58455100  0.64788800  1
  P  P18  1  0.25171500  0.40845700  0.35794600  1
  P  P19  1  0.24602800  0.40976400  0.85095300  1
  C  C20  1  0.24880900  0.93838300  0.14476300  1
  C  C21  1  0.24068300  0.95557700  0.62404300  1
  C  C22  1  0.75073500  0.05734500  0.36426400  1
  C  C23  1  0.75015100  0.06076600  0.86415400  1
  O  O24  1  0.74802900  0.91303000  0.35469000  1
  O  O25  1  0.74815400  0.91643900  0.85387000  1
  O  O26  1  0.24762400  0.88991700  0.02650600  1
  O  O27  1  0.24922300  0.91155900  0.50553400  1
  O  O28  1  0.24686000  0.84015300  0.23917700  1
  O  O29  1  0.25231400  0.85448900  0.71849000  1
  O  O30  1  0.93335400  0.67890300  0.10682900  1
  O  O31  1  0.56223700  0.68057000  0.10861800  1
  O  O32  1  0.93657000  0.68560900  0.60934100  1
  O  O33  1  0.56814200  0.67213800  0.60463700  1
  O  O34  1  0.74967400  0.55812200  0.29661200  1
  O  O35  1  0.24991200  0.56115200  0.42641300  1
  O  O36  1  0.75353100  0.56433300  0.79851200  1
  O  O37  1  0.25204400  0.56790500  0.91107900  1
  O  O38  1  0.74635700  0.43108500  0.07936700  1
  O  O39  1  0.24394400  0.43551700  0.20889400  1
  O  O40  1  0.77324200  0.42660000  0.58776000  1
  O  O41  1  0.23000800  0.42931100  0.69994200  1
  O  O42  1  0.43923000  0.31231700  0.39270400  1
  O  O43  1  0.07270400  0.30781500  0.40191900  1
  O  O44  1  0.43439900  0.31576100  0.88467500  1
  O  O45  1  0.06720300  0.31694800  0.90101200  1
  O  O46  1  0.75662500  0.14390300  0.26121700  1
  O  O47  1  0.75351400  0.14818800  0.76215800  1
  O  O48  1  0.74828000  0.11973700  0.47684000  1
  O  O49  1  0.74928500  0.12215700  0.97744600  1
  O  O50  1  0.25172900  0.08049500  0.16921700  1
  O  O51  1  0.22186200  0.09608500  0.65103600  1
