# generated using pymatgen
data_Li4MnCo2O7
_symmetry_space_group_name_H-M   'P 1'
_cell_length_a   5.13149416
_cell_length_b   7.74670685
_cell_length_c   7.66964009
_cell_angle_alpha   119.38281067
_cell_angle_beta   108.66666095
_cell_angle_gamma   83.75339596
_symmetry_Int_Tables_number   1
_chemical_formula_structural   Li4MnCo2O7
_chemical_formula_sum   'Li8 Mn2 Co4 O14'
_cell_volume   251.26011316
_cell_formula_units_Z   2
loop_
 _symmetry_equiv_pos_site_id
 _symmetry_equiv_pos_as_xyz
  1  'x, y, z'
loop_
 _atom_site_type_symbol
 _atom_site_label
 _atom_site_symmetry_multiplicity
 _atom_site_fract_x
 _atom_site_fract_y
 _atom_site_fract_z
 _atom_site_occupancy
  Li  Li0  1  0.49873520  0.21812815  0.07461858  1
  Li  Li1  1  0.50653650  0.50690137  0.50411768  1
  Li  Li2  1  0.49346755  0.63595474  0.21016516  1
  Li  Li3  1  0.50126178  0.92472856  0.63966723  1
  Li  Li4  1  0.50000102  0.07142740  0.35714559  1
  Li  Li5  1  0.49212086  0.36821282  0.78755757  1
  Li  Li6  1  0.50787489  0.77464252  0.92672613  1
  Li  Li7  1  -0.00000083  0.57142860  0.85714121  1
  Mn  Mn8  1  0.99420803  0.99682521  0.99843308  1
  Mn  Mn9  1  0.00580939  0.14603337  0.71585750  1
  Co  Co10  1  0.99549291  0.29364770  0.43314284  1
  Co  Co11  1  0.00452066  0.84922422  0.28116313  1
  Co  Co12  1  0.99226153  0.43864971  0.13744712  1
  Co  Co13  1  0.00771503  0.70420996  0.57683750  1
  O  O14  1  0.21957576  0.97282211  0.82416098  1
  O  O15  1  0.21048310  0.24160633  0.23950125  1
  O  O16  1  0.22714145  0.37310694  0.94956343  1
  O  O17  1  0.23826696  0.67293789  0.38288153  1
  O  O18  1  0.22362166  0.83966879  0.11384457  1
  O  O19  1  0.22966986  0.10860361  0.54334777  1
  O  O20  1  0.24174477  0.53969041  0.66474825  1
  O  O21  1  0.76172157  0.46991993  0.33141711  1
  O  O22  1  0.77286085  0.76975482  0.76471655  1
  O  O23  1  0.78952846  0.90125852  0.47479524  1
  O  O24  1  0.78041837  0.17003936  0.89013056  1
  O  O25  1  0.77636816  0.30318979  0.60042268  1
  O  O26  1  0.75827325  0.60314754  0.04951752  1
  O  O27  1  0.77032128  0.03423964  0.17093225  1
