# generated using pymatgen
data_Li48P16S61
_symmetry_space_group_name_H-M   'P 1'
_cell_length_a   16.23034600
_cell_length_b   12.48874200
_cell_length_c   13.08833877
_cell_angle_alpha   89.84359180
_cell_angle_beta   90.00000000
_cell_angle_gamma   90.00000000
_symmetry_Int_Tables_number   1
_chemical_formula_structural   Li48P16S61
_chemical_formula_sum   'Li48 P16 S61'
_cell_volume   2652.95193209
_cell_formula_units_Z   1
loop_
 _symmetry_equiv_pos_site_id
 _symmetry_equiv_pos_as_xyz
  1  'x, y, z'
loop_
 _atom_site_type_symbol
 _atom_site_label
 _atom_site_symmetry_multiplicity
 _atom_site_fract_x
 _atom_site_fract_y
 _atom_site_fract_z
 _atom_site_occupancy
  Li  Li0  1  0.10729700  0.19450800  0.66758500  1
  Li  Li1  1  0.10543500  0.69263200  0.66832800  1
  Li  Li2  1  0.60722900  0.19528900  0.66816200  1
  Li  Li3  1  0.60599800  0.69295900  0.66544200  1
  Li  Li4  1  0.64136200  0.30550000  0.33279900  1
  Li  Li5  1  0.65224500  0.79255100  0.32990200  1
  Li  Li6  1  0.14042500  0.30619700  0.33165400  1
  Li  Li7  1  0.15162000  0.79245000  0.32994700  1
  Li  Li8  1  0.64085200  0.44454500  0.83310600  1
  Li  Li9  1  0.64120900  0.94321700  0.83176000  1
  Li  Li10  1  0.15284300  0.45878900  0.82835700  1
  Li  Li11  1  0.14045000  0.94345900  0.83179500  1
  Li  Li12  1  0.10774700  0.05462700  0.16749700  1
  Li  Li13  1  0.10545400  0.55758100  0.16871000  1
  Li  Li14  1  0.60878000  0.05674500  0.16655000  1
  Li  Li15  1  0.60895800  0.55431400  0.16951200  1
  Li  Li16  1  0.85957500  0.30619700  0.33165400  1
  Li  Li17  1  0.84838000  0.79245000  0.32994700  1
  Li  Li18  1  0.35863800  0.30550000  0.33279900  1
  Li  Li19  1  0.34775500  0.79255100  0.32990200  1
  Li  Li20  1  0.89270300  0.19450800  0.66758500  1
  Li  Li21  1  0.89456500  0.69263200  0.66832800  1
  Li  Li22  1  0.39277100  0.19528900  0.66816200  1
  Li  Li23  1  0.39400200  0.69295900  0.66544200  1
  Li  Li24  1  0.89225300  0.05462700  0.16749700  1
  Li  Li25  1  0.89454600  0.55758100  0.16871000  1
  Li  Li26  1  0.39122000  0.05674500  0.16655000  1
  Li  Li27  1  0.39104200  0.55431400  0.16951200  1
  Li  Li28  1  0.84715700  0.45878900  0.82835700  1
  Li  Li29  1  0.85955000  0.94345900  0.83179500  1
  Li  Li30  1  0.35914800  0.44454500  0.83310600  1
  Li  Li31  1  0.35879100  0.94321700  0.83176000  1
  Li  Li32  1  0.13804200  0.23276300  0.00705700  1
  Li  Li33  1  0.12311400  0.74361100  0.00012400  1
  Li  Li34  1  0.62454700  0.25163300  0.99871000  1
  Li  Li35  1  0.62585900  0.74787400  0.00137500  1
  Li  Li36  1  0.13856000  0.01828400  0.50740600  1
  Li  Li37  1  0.12276400  0.50542300  0.49968400  1
  Li  Li38  1  0.63844100  0.01848000  0.50768100  1
  Li  Li39  1  0.62356600  0.50450300  0.49924000  1
  Li  Li40  1  0.86195800  0.23276300  0.00705700  1
  Li  Li41  1  0.87688600  0.74361100  0.00012400  1
  Li  Li42  1  0.37545300  0.25163300  0.99871000  1
  Li  Li43  1  0.37414100  0.74787400  0.00137500  1
  Li  Li44  1  0.86144000  0.01828400  0.50740600  1
  Li  Li45  1  0.87723600  0.50542300  0.49968400  1
  Li  Li46  1  0.36155900  0.01848000  0.50768100  1
  Li  Li47  1  0.37643400  0.50450300  0.49924000  1
  P  P48  1  0.00000000  0.07820000  0.91049000  1
  P  P49  1  0.00000000  0.56284500  0.91104600  1
  P  P50  1  0.50000000  0.07603400  0.91036700  1
  P  P51  1  0.50000000  0.57687400  0.91048500  1
  P  P52  1  0.75154400  0.42415700  0.08884900  1
  P  P53  1  0.75073700  0.92348800  0.09033100  1
  P  P54  1  0.24845600  0.42415700  0.08884900  1
  P  P55  1  0.24926300  0.92348800  0.09033100  1
  P  P56  1  0.75054200  0.32653500  0.58876500  1
  P  P57  1  0.75000900  0.82472800  0.58926400  1
  P  P58  1  0.24945800  0.32653500  0.58876500  1
  P  P59  1  0.24999100  0.82472800  0.58926400  1
  P  P60  1  0.00000000  0.17126900  0.41033500  1
  P  P61  1  0.00000000  0.68751000  0.41080500  1
  P  P62  1  0.50000000  0.17134300  0.41035700  1
  P  P63  1  0.50000000  0.68739000  0.41083900  1
  S  S64  1  0.00000000  0.91544800  0.89979700  1
  S  S65  1  0.50000000  0.41342600  0.89942600  1
  S  S66  1  0.50000000  0.91326100  0.89989400  1
  S  S67  1  0.75060700  0.08726300  0.10167300  1
  S  S68  1  0.75051800  0.58659000  0.09956400  1
  S  S69  1  0.24939300  0.08726300  0.10167300  1
  S  S70  1  0.24948200  0.58659000  0.09956400  1
  S  S71  1  0.75028300  0.16161000  0.60163000  1
  S  S72  1  0.74973600  0.66262600  0.60115100  1
  S  S73  1  0.24971700  0.16161000  0.60163000  1
  S  S74  1  0.25026400  0.66262600  0.60115100  1
  S  S75  1  0.00000000  0.33397500  0.39927100  1
  S  S76  1  0.50000000  0.33412200  0.39873800  1
  S  S77  1  0.00000000  0.13895400  0.05950000  1
  S  S78  1  0.00000000  0.63696700  0.05949000  1
  S  S79  1  0.50000000  0.13697000  0.05939200  1
  S  S80  1  0.50000000  0.63585600  0.05991300  1
  S  S81  1  0.75126900  0.36328700  0.93908600  1
  S  S82  1  0.75017700  0.86364900  0.94182200  1
  S  S83  1  0.24873100  0.36328700  0.93908600  1
  S  S84  1  0.24982300  0.86364900  0.94182200  1
  S  S85  1  0.75070500  0.38620800  0.44032400  1
  S  S86  1  0.74989300  0.88651500  0.43917800  1
  S  S87  1  0.24929500  0.38620800  0.44032400  1
  S  S88  1  0.25010700  0.88651500  0.43917800  1
  S  S89  1  0.00000000  0.11016100  0.55957200  1
  S  S90  1  0.00000000  0.61312400  0.55943700  1
  S  S91  1  0.50000000  0.11069400  0.55974900  1
  S  S92  1  0.50000000  0.61202900  0.55927000  1
  S  S93  1  0.10664700  0.13706800  0.84619200  1
  S  S94  1  0.10542900  0.63613000  0.84518200  1
  S  S95  1  0.60681600  0.13456800  0.84630400  1
  S  S96  1  0.60679300  0.63516500  0.84625100  1
  S  S97  1  0.64528200  0.36349700  0.15270800  1
  S  S98  1  0.64376300  0.86568800  0.15541600  1
  S  S99  1  0.14125900  0.36476100  0.15065400  1
  S  S100  1  0.14299100  0.86408900  0.15478600  1
  S  S101  1  0.64408400  0.38393400  0.65343500  1
  S  S102  1  0.64288200  0.88511600  0.65087400  1
  S  S103  1  0.14284900  0.38393100  0.65390300  1
  S  S104  1  0.14319500  0.88552200  0.65064600  1
  S  S105  1  0.10659600  0.11244100  0.34607500  1
  S  S106  1  0.10554600  0.61463400  0.34534800  1
  S  S107  1  0.60654800  0.11228000  0.34623300  1
  S  S108  1  0.60545500  0.61481900  0.34493600  1
  S  S109  1  0.85874100  0.36476100  0.15065400  1
  S  S110  1  0.85700900  0.86408900  0.15478600  1
  S  S111  1  0.35471800  0.36349700  0.15270800  1
  S  S112  1  0.35623700  0.86568800  0.15541600  1
  S  S113  1  0.89335300  0.13706800  0.84619200  1
  S  S114  1  0.89457100  0.63613000  0.84518200  1
  S  S115  1  0.39318400  0.13456800  0.84630400  1
  S  S116  1  0.39320700  0.63516500  0.84625100  1
  S  S117  1  0.89340400  0.11244100  0.34607500  1
  S  S118  1  0.89445400  0.61463400  0.34534800  1
  S  S119  1  0.39345200  0.11228000  0.34623300  1
  S  S120  1  0.39454500  0.61481900  0.34493600  1
  S  S121  1  0.85715100  0.38393100  0.65390300  1
  S  S122  1  0.85680500  0.88552200  0.65064600  1
  S  S123  1  0.35591600  0.38393400  0.65343500  1
  S  S124  1  0.35711800  0.88511600  0.65087400  1
