# generated using pymatgen
data_Li2MnP2O7
_symmetry_space_group_name_H-M   'P 1'
_cell_length_a   6.81628301
_cell_length_b   13.07504001
_cell_length_c   7.25244801
_cell_angle_alpha   89.99700117
_cell_angle_beta   90.00549891
_cell_angle_gamma   89.99683536
_symmetry_Int_Tables_number   1
_chemical_formula_structural   Li2MnP2O7
_chemical_formula_sum   'Li8 Mn4 P8 O28'
_cell_volume   646.36117446
_cell_formula_units_Z   4
loop_
 _symmetry_equiv_pos_site_id
 _symmetry_equiv_pos_as_xyz
  1  'x, y, z'
loop_
 _atom_site_type_symbol
 _atom_site_label
 _atom_site_symmetry_multiplicity
 _atom_site_fract_x
 _atom_site_fract_y
 _atom_site_fract_z
 _atom_site_occupancy
  Li  Li0  1  0.00074600  0.23522900  0.99999100  1
  Li  Li1  1  0.49850100  0.73512800  0.49950800  1
  Li  Li2  1  0.50118600  0.26469100  0.99941200  1
  Li  Li3  1  0.99853600  0.76482500  0.49970400  1
  Li  Li4  1  0.50094300  0.73547000  0.99951000  1
  Li  Li5  1  0.99874900  0.23545300  0.49968600  1
  Li  Li6  1  0.00056200  0.76457300  0.99998400  1
  Li  Li7  1  0.49872100  0.26455400  0.49953700  1
  Mn  Mn8  1  0.50068600  0.49975000  0.49971100  1
  Mn  Mn9  1  0.00474600  0.00006100  0.50565500  1
  Mn  Mn10  1  0.99550000  0.99984600  0.00564200  1
  Mn  Mn11  1  0.49697500  0.50022600  0.99663000  1
  P  P12  1  0.82038600  0.38781000  0.74942000  1
  P  P13  1  0.32046900  0.88775600  0.25072100  1
  P  P14  1  0.17978400  0.38770200  0.24897000  1
  P  P15  1  0.67993600  0.88777100  0.75017600  1
  P  P16  1  0.82003900  0.61216800  0.74884600  1
  P  P17  1  0.32019000  0.11223500  0.25038700  1
  P  P18  1  0.18001600  0.61227900  0.24955500  1
  P  P19  1  0.68022000  0.11220800  0.75051700  1
  O  O20  1  0.92622100  0.50004600  0.74911800  1
  O  O21  1  0.42611300  0.00003600  0.25039400  1
  O  O22  1  0.07452300  0.50004500  0.24926700  1
  O  O23  1  0.57442200  0.00003800  0.75012500  1
  O  O24  1  0.01859300  0.30833800  0.24954200  1
  O  O25  1  0.51887900  0.80835100  0.74844600  1
  O  O26  1  0.98137000  0.30830900  0.75061200  1
  O  O27  1  0.48147700  0.80827100  0.24933200  1
  O  O28  1  0.01915000  0.69181800  0.25059900  1
  O  O29  1  0.51939400  0.19176900  0.74920800  1
  O  O30  1  0.98069200  0.69182800  0.74961200  1
  O  O31  1  0.48093600  0.19184800  0.24854200  1
  O  O32  1  0.18816900  0.11590600  0.07649800  1
  O  O33  1  0.69065400  0.61636800  0.57321700  1
  O  O34  1  0.80864400  0.11665600  0.92677100  1
  O  O35  1  0.31112400  0.61611400  0.42401800  1
  O  O36  1  0.68910900  0.38409200  0.92380500  1
  O  O37  1  0.19199700  0.88323300  0.42693400  1
  O  O38  1  0.30903300  0.38334300  0.07325400  1
  O  O39  1  0.81194700  0.88405200  0.57632600  1
  O  O40  1  0.68884200  0.61620900  0.92326800  1
  O  O41  1  0.19178000  0.11695100  0.42661700  1
  O  O42  1  0.30918600  0.61698300  0.07381100  1
  O  O43  1  0.81215100  0.11614900  0.57664000  1
  O  O44  1  0.80832500  0.88304700  0.92647800  1
  O  O45  1  0.31072500  0.38343600  0.42356000  1
  O  O46  1  0.18853900  0.88380900  0.07674600  1
  O  O47  1  0.69111100  0.38321800  0.57370300  1
