# generated using pymatgen
data_Li9Mn2Co5O16
_symmetry_space_group_name_H-M   'P 1'
_cell_length_a   5.90153400
_cell_length_b   5.90963006
_cell_length_c   8.64968292
_cell_angle_alpha   88.20760643
_cell_angle_beta   70.56214619
_cell_angle_gamma   87.01390403
_symmetry_Int_Tables_number   1
_chemical_formula_structural   Li9Mn2Co5O16
_chemical_formula_sum   'Li9 Mn2 Co5 O16'
_cell_volume   284.05392036
_cell_formula_units_Z   1
loop_
 _symmetry_equiv_pos_site_id
 _symmetry_equiv_pos_as_xyz
  1  'x, y, z'
loop_
 _atom_site_type_symbol
 _atom_site_label
 _atom_site_symmetry_multiplicity
 _atom_site_fract_x
 _atom_site_fract_y
 _atom_site_fract_z
 _atom_site_occupancy
  Li  Li0  1  0.12283800  0.24883000  0.25385700  1
  Li  Li1  1  0.25167000  0.00677800  0.50918400  1
  Li  Li2  1  0.62223200  0.25258600  0.25223900  1
  Li  Li3  1  0.73712700  0.00822900  0.51090700  1
  Li  Li4  1  0.87777800  0.75028000  0.74580100  1
  Li  Li5  1  0.37633900  0.74646000  0.74785300  1
  Li  Li6  1  0.50034300  0.49342900  0.99255300  1
  Li  Li7  1  0.01167100  0.49450600  0.98606400  1
  Li  Li8  1  0.37459600  0.25014100  0.74617100  1
  Mn  Mn9  1  0.00435400  0.00693200  0.99874400  1
  Mn  Mn10  1  0.12596500  0.74757300  0.25133800  1
  Co  Co11  1  0.25090800  0.49464100  0.50008800  1
  Co  Co12  1  0.50053700  0.00228100  0.99572300  1
  Co  Co13  1  0.62790800  0.75097400  0.25241700  1
  Co  Co14  1  0.74080800  0.49137400  0.50432800  1
  Co  Co15  1  0.87319900  0.25729800  0.74765500  1
  O  O16  1  0.89583700  0.98932200  0.24003500  1
  O  O17  1  0.02226300  0.73765000  0.48503700  1
  O  O18  1  0.37209200  0.96684200  0.23753600  1
  O  O19  1  0.52562200  0.74049300  0.48502100  1
  O  O20  1  0.63880600  0.49472000  0.74110000  1
  O  O21  1  0.12522600  0.49208700  0.73075200  1
  O  O22  1  0.24190300  0.21538500  0.00191500  1
  O  O23  1  0.76779600  0.24434600  0.00391600  1
  O  O24  1  0.36290800  0.51207600  0.25553600  1
  O  O25  1  0.48945300  0.26694200  0.49394600  1
  O  O26  1  0.88165100  0.53182700  0.26069100  1
  O  O27  1  0.97734600  0.25730700  0.50255500  1
  O  O28  1  0.10324600  0.00674300  0.76757200  1
  O  O29  1  0.62239200  0.00747600  0.77071000  1
  O  O30  1  0.74983600  0.78206500  0.01682200  1
  O  O31  1  0.22534500  0.75240900  0.01193400  1
