# generated using pymatgen
data_Li7Mn4CoO12
_symmetry_space_group_name_H-M   'P 1'
_cell_length_a   2.87150645
_cell_length_b   19.50269748
_cell_length_c   7.98795359
_cell_angle_alpha   82.86972792
_cell_angle_beta   100.35568471
_cell_angle_gamma   89.99898276
_symmetry_Int_Tables_number   1
_chemical_formula_structural   Li7Mn4CoO12
_chemical_formula_sum   'Li14 Mn8 Co2 O24'
_cell_volume   436.53804902
_cell_formula_units_Z   2
loop_
 _symmetry_equiv_pos_site_id
 _symmetry_equiv_pos_as_xyz
  1  'x, y, z'
loop_
 _atom_site_type_symbol
 _atom_site_label
 _atom_site_symmetry_multiplicity
 _atom_site_fract_x
 _atom_site_fract_y
 _atom_site_fract_z
 _atom_site_occupancy
  Li  Li0  1  0.66670000  0.99993500  0.33343900  1
  Li  Li1  1  0.16662900  0.49996300  0.33327400  1
  Li  Li2  1  0.54323400  0.12075700  0.08656100  1
  Li  Li3  1  0.04302200  0.62116300  0.08613700  1
  Li  Li4  1  0.29004000  0.37918500  0.58004100  1
  Li  Li5  1  0.79053900  0.87890000  0.58103700  1
  Li  Li6  1  0.62949100  0.37767100  0.25892600  1
  Li  Li7  1  0.12965400  0.87803200  0.25928400  1
  Li  Li8  1  0.20369300  0.12221100  0.40748000  1
  Li  Li9  1  0.70335600  0.62175000  0.40681000  1
  Li  Li10  1  0.87253800  0.12714200  0.74502000  1
  Li  Li11  1  0.37264500  0.62730500  0.74523000  1
  Li  Li12  1  0.96085700  0.37272800  0.92182300  1
  Li  Li13  1  0.46084700  0.87248000  0.92180100  1
  Mn  Mn14  1  0.32965200  0.99882900  0.65924800  1
  Mn  Mn15  1  0.08149400  0.24828000  0.16297600  1
  Mn  Mn16  1  0.75170500  0.25175300  0.50340500  1
  Mn  Mn17  1  0.25099100  0.75141200  0.50202700  1
  Mn  Mn18  1  0.00368800  0.00109400  0.00722400  1
  Mn  Mn19  1  0.50363300  0.50117900  0.00732900  1
  Mn  Mn20  1  0.82985600  0.49895800  0.65953200  1
  Mn  Mn21  1  0.58240000  0.74837800  0.16461200  1
  Co  Co22  1  0.41659700  0.25001600  0.83321400  1
  Co  Co23  1  0.91623800  0.74989100  0.83252500  1
  O  O24  1  0.43719400  0.05304800  0.87440700  1
  O  O25  1  0.93719500  0.55310100  0.87441100  1
  O  O26  1  0.39623500  0.44704300  0.79241700  1
  O  O27  1  0.89606400  0.94698100  0.79212400  1
  O  O28  1  0.52919000  0.30787000  0.05841100  1
  O  O29  1  0.02989900  0.80767700  0.05976700  1
  O  O30  1  0.30411800  0.19225600  0.60820200  1
  O  O31  1  0.80412900  0.69248900  0.60827700  1
  O  O32  1  0.08903700  0.05601700  0.17822200  1
  O  O33  1  0.58898200  0.55611900  0.17810200  1
  O  O34  1  0.74430800  0.44406900  0.48848800  1
  O  O35  1  0.24429900  0.94391100  0.48850100  1
  O  O36  1  0.19663300  0.31034800  0.39321800  1
  O  O37  1  0.69678500  0.81035700  0.39356000  1
  O  O38  1  0.63663000  0.18977600  0.27329600  1
  O  O39  1  0.13664600  0.68929400  0.27325800  1
  O  O40  1  0.77960800  0.05689000  0.55920300  1
  O  O41  1  0.27971000  0.55695200  0.55932700  1
  O  O42  1  0.05380900  0.44321900  0.10766600  1
  O  O43  1  0.55359900  0.94313200  0.10722300  1
  O  O44  1  0.86559000  0.30716300  0.73110200  1
  O  O45  1  0.36573600  0.80740800  0.73161700  1
  O  O46  1  0.96766700  0.19290500  0.93544300  1
  O  O47  1  0.46743700  0.69296000  0.93480100  1
