# generated using pymatgen
data_LiNiPO4
_symmetry_space_group_name_H-M   'P 1'
_cell_length_a   4.97656124
_cell_length_b   4.97614520
_cell_length_c   15.68950678
_cell_angle_alpha   90.03644765
_cell_angle_beta   89.96573639
_cell_angle_gamma   114.18872542
_symmetry_Int_Tables_number   1
_chemical_formula_structural   LiNiPO4
_chemical_formula_sum   'Li4 Ni4 P4 O16'
_cell_volume   354.42308538
_cell_formula_units_Z   4
loop_
 _symmetry_equiv_pos_site_id
 _symmetry_equiv_pos_as_xyz
  1  'x, y, z'
loop_
 _atom_site_type_symbol
 _atom_site_label
 _atom_site_symmetry_multiplicity
 _atom_site_fract_x
 _atom_site_fract_y
 _atom_site_fract_z
 _atom_site_occupancy
  Li  Li0  1  0.35899200  0.74651900  0.72678500  1
  Li  Li1  1  0.25378600  0.64128100  0.22687700  1
  Li  Li2  1  0.74654100  0.35892300  0.77323300  1
  Li  Li3  1  0.64116900  0.25392500  0.27309300  1
  Ni  Ni4  1  0.90671600  0.58033400  0.58690200  1
  Ni  Ni5  1  0.09292300  0.41942500  0.41313700  1
  Ni  Ni6  1  0.58053200  0.90657700  0.91311800  1
  Ni  Ni7  1  0.41944500  0.09304800  0.08688000  1
  P  P8  1  0.23347000  0.28120500  0.62558300  1
  P  P9  1  0.28141200  0.23351200  0.87441400  1
  P  P10  1  0.71872100  0.76644800  0.12559500  1
  P  P11  1  0.76633800  0.71882500  0.37441000  1
  O  O12  1  0.01793500  0.35401500  0.68468500  1
  O  O13  1  0.64596800  0.98206800  0.18467300  1
  O  O14  1  0.35420200  0.01794800  0.81532700  1
  O  O15  1  0.98183800  0.64590800  0.31530900  1
  O  O16  1  0.96296900  0.20503500  0.86883100  1
  O  O17  1  0.79484100  0.03718000  0.36877200  1
  O  O18  1  0.20500200  0.96277800  0.63118900  1
  O  O19  1  0.03719800  0.79495100  0.13118800  1
  O  O20  1  0.50411400  0.54547400  0.84586400  1
  O  O21  1  0.45435200  0.49596700  0.34590500  1
  O  O22  1  0.54544400  0.50407500  0.65410000  1
  O  O23  1  0.49602700  0.45444700  0.15412500  1
  O  O24  1  0.16054500  0.36233700  0.53515500  1
  O  O25  1  0.63765300  0.83926800  0.03516100  1
  O  O26  1  0.36256100  0.16076100  0.96484000  1
  O  O27  1  0.83930800  0.63776400  0.46484900  1
