# generated using pymatgen
data_Li9Mn7O16
_symmetry_space_group_name_H-M   'P 1'
_cell_length_a   7.84351246
_cell_length_b   7.84351246
_cell_length_c   5.27435390
_cell_angle_alpha   74.57981153
_cell_angle_beta   74.57981153
_cell_angle_gamma   94.54265071
_symmetry_Int_Tables_number   1
_chemical_formula_structural   Li9Mn7O16
_chemical_formula_sum   'Li9 Mn7 O16'
_cell_volume   297.59196658
_cell_formula_units_Z   1
loop_
 _symmetry_equiv_pos_site_id
 _symmetry_equiv_pos_as_xyz
  1  'x, y, z'
loop_
 _atom_site_type_symbol
 _atom_site_label
 _atom_site_symmetry_multiplicity
 _atom_site_fract_x
 _atom_site_fract_y
 _atom_site_fract_z
 _atom_site_occupancy
  Li  Li0  1  0.62034200  0.37965800  0.50000000  1
  Li  Li1  1  0.25837900  0.25837900  0.49152200  1
  Li  Li2  1  0.87384700  0.12615300  0.50000000  1
  Li  Li3  1  0.50000000  0.00000000  0.50000000  1
  Li  Li4  1  0.12615300  0.87384700  0.50000000  1
  Li  Li5  1  0.74162100  0.74162100  0.50847800  1
  Li  Li6  1  0.37965800  0.62034200  0.50000000  1
  Li  Li7  1  0.00000000  0.50000000  0.50000000  1
  Li  Li8  1  0.50000000  0.50000000  0.00000000  1
  Mn  Mn9  1  0.74662200  0.25337800  0.00000000  1
  Mn  Mn10  1  0.25337800  0.74662200  0.00000000  1
  Mn  Mn11  1  0.37903500  0.13002800  0.00486600  1
  Mn  Mn12  1  0.00000000  0.00000000  0.00000000  1
  Mn  Mn13  1  0.62096500  0.86997200  0.99513400  1
  Mn  Mn14  1  0.86997200  0.62096500  0.99513400  1
  Mn  Mn15  1  0.13002800  0.37903500  0.00486600  1
  O  O16  1  0.75669500  0.49254100  0.77338100  1
  O  O17  1  0.36082000  0.36082000  0.76765500  1
  O  O18  1  0.99355400  0.24153600  0.78072600  1
  O  O19  1  0.61377500  0.11260200  0.76830600  1
  O  O20  1  0.24153600  0.99355400  0.78072600  1
  O  O21  1  0.86141600  0.86141600  0.76428700  1
  O  O22  1  0.49254100  0.75669500  0.77338100  1
  O  O23  1  0.11260200  0.61377500  0.76830600  1
  O  O24  1  0.50745900  0.24330500  0.22661900  1
  O  O25  1  0.13858400  0.13858400  0.23571300  1
  O  O26  1  0.75846400  0.00644600  0.21927400  1
  O  O27  1  0.38622500  0.88739800  0.23169400  1
  O  O28  1  0.00644600  0.75846400  0.21927400  1
  O  O29  1  0.63918000  0.63918000  0.23234500  1
  O  O30  1  0.24330500  0.50745900  0.22661900  1
  O  O31  1  0.88739800  0.38622500  0.23169400  1
