# generated using pymatgen
data_Li9Co7O16
_symmetry_space_group_name_H-M   'P 1'
_cell_length_a   5.84149500
_cell_length_b   5.85756889
_cell_length_c   8.68490872
_cell_angle_alpha   89.10769385
_cell_angle_beta   70.38406939
_cell_angle_gamma   89.66039429
_symmetry_Int_Tables_number   1
_chemical_formula_structural   Li9Co7O16
_chemical_formula_sum   'Li9 Co7 O16'
_cell_volume   279.89056408
_cell_formula_units_Z   1
loop_
 _symmetry_equiv_pos_site_id
 _symmetry_equiv_pos_as_xyz
  1  'x, y, z'
loop_
 _atom_site_type_symbol
 _atom_site_label
 _atom_site_symmetry_multiplicity
 _atom_site_fract_x
 _atom_site_fract_y
 _atom_site_fract_z
 _atom_site_occupancy
  Li  Li0  1  0.00000000  0.00000000  0.00000000  1
  Li  Li1  1  0.12418300  0.74714900  0.24653800  1
  Li  Li2  1  0.50000000  0.00000000  0.00000000  1
  Li  Li3  1  0.63338200  0.74668600  0.24058500  1
  Li  Li4  1  0.74992800  0.49912400  0.50051300  1
  Li  Li5  1  0.25007200  0.50087600  0.49948700  1
  Li  Li6  1  0.36661800  0.25331400  0.75941500  1
  Li  Li7  1  0.87581700  0.25285100  0.75346200  1
  Li  Li8  1  0.00000000  0.50000000  0.00000000  1
  Co  Co9  1  0.87284000  0.74404200  0.76125100  1
  Co  Co10  1  0.50000000  0.50000000  0.00000000  1
  Co  Co11  1  0.12716000  0.25595800  0.23874900  1
  Co  Co12  1  0.24902200  0.00081700  0.50003200  1
  Co  Co13  1  0.36980100  0.74439200  0.75533200  1
  Co  Co14  1  0.63019900  0.25560800  0.24466800  1
  Co  Co15  1  0.75097800  0.99918300  0.49996800  1
  O  O16  1  0.74185200  0.73676200  0.98821900  1
  O  O17  1  0.85625800  0.47494300  0.25434100  1
  O  O18  1  0.27569300  0.73609100  0.98045600  1
  O  O19  1  0.39293400  0.48648300  0.23800100  1
  O  O20  1  0.51289100  0.23873300  0.48114600  1
  O  O21  1  0.00662200  0.23802000  0.49627700  1
  O  O22  1  0.13675900  0.98215500  0.74833500  1
  O  O23  1  0.61333500  0.97862200  0.74171400  1
  O  O24  1  0.25814800  0.26323800  0.01178100  1
  O  O25  1  0.38666500  0.02137800  0.25828600  1
  O  O26  1  0.72430700  0.26390900  0.01954400  1
  O  O27  1  0.86324100  0.01784500  0.25166500  1
  O  O28  1  0.99337800  0.76198000  0.50372300  1
  O  O29  1  0.48710900  0.76126700  0.51885400  1
  O  O30  1  0.60706600  0.51351700  0.76199900  1
  O  O31  1  0.14374200  0.52505700  0.74565900  1
