# generated using pymatgen
data_LiFe2F5
_symmetry_space_group_name_H-M   'P 1'
_cell_length_a   8.04673485
_cell_length_b   8.46954780
_cell_length_c   6.65439576
_cell_angle_alpha   90.25117444
_cell_angle_beta   89.86442593
_cell_angle_gamma   89.94649352
_symmetry_Int_Tables_number   1
_chemical_formula_structural   LiFe2F5
_chemical_formula_sum   'Li4 Fe8 F20'
_cell_volume   453.50591754
_cell_formula_units_Z   4
loop_
 _symmetry_equiv_pos_site_id
 _symmetry_equiv_pos_as_xyz
  1  'x, y, z'
loop_
 _atom_site_type_symbol
 _atom_site_label
 _atom_site_symmetry_multiplicity
 _atom_site_fract_x
 _atom_site_fract_y
 _atom_site_fract_z
 _atom_site_occupancy
  Li  Li0  1  0.17043811  0.31801198  0.75328290  1
  Li  Li1  1  0.32928275  0.81528877  0.75117515  1
  Li  Li2  1  0.66888734  0.18426365  0.24929484  1
  Li  Li3  1  0.82961994  0.68325838  0.24772186  1
  Fe  Fe4  1  0.99997818  0.00058700  0.00110718  1
  Fe  Fe5  1  0.99961985  0.99969490  0.50010163  1
  Fe  Fe6  1  0.10431195  0.33150957  0.25472764  1
  Fe  Fe7  1  0.39802376  0.82961401  0.25261926  1
  Fe  Fe8  1  0.50190077  0.50096024  0.00047507  1
  Fe  Fe9  1  0.50182772  0.50001102  0.50084756  1
  Fe  Fe10  1  0.60217035  0.16899999  0.75068559  1
  Fe  Fe11  1  0.89855144  0.67187490  0.74826486  1
  F  F12  1  0.03952893  0.49309079  0.75019184  1
  F  F13  1  0.13601638  0.20316377  0.99346519  1
  F  F14  1  0.13907739  0.20125319  0.50838605  1
  F  F15  1  0.10586102  0.87956759  0.74951083  1
  F  F16  1  0.15069922  0.91706893  0.25027424  1
  F  F17  1  0.35174009  0.41571532  0.25106584  1
  F  F18  1  0.39631141  0.37760719  0.75144145  1
  F  F19  1  0.35935716  0.69877347  0.50769118  1
  F  F20  1  0.36086048  0.70031933  0.99385729  1
  F  F21  1  0.46358268  0.98837074  0.74338083  1
  F  F22  1  0.53311240  0.01257467  0.24470635  1
  F  F23  1  0.64078875  0.29984539  0.00609363  1
  F  F24  1  0.64019809  0.29899733  0.49400171  1
  F  F25  1  0.60341811  0.62708760  0.25103326  1
  F  F26  1  0.65130275  0.58459046  0.74940223  1
  F  F27  1  0.85009481  0.08315924  0.75133868  1
  F  F28  1  0.88991004  0.11510737  0.25214824  1
  F  F29  1  0.86376987  0.79785278  0.00828171  1
  F  F30  1  0.86315570  0.79746188  0.48953172  1
  F  F31  1  0.95660256  0.50431956  0.24389619  1
