# generated using pymatgen
data_Li7Co5O12
_symmetry_space_group_name_H-M   'P 1'
_cell_length_a   5.03173092
_cell_length_b   6.57717225
_cell_length_c   6.47385974
_cell_angle_alpha   83.44524396
_cell_angle_beta   96.67498191
_cell_angle_gamma   98.04566534
_symmetry_Int_Tables_number   1
_chemical_formula_structural   Li7Co5O12
_chemical_formula_sum   'Li7 Co5 O12'
_cell_volume   209.65639081
_cell_formula_units_Z   1
loop_
 _symmetry_equiv_pos_site_id
 _symmetry_equiv_pos_as_xyz
  1  'x, y, z'
loop_
 _atom_site_type_symbol
 _atom_site_label
 _atom_site_symmetry_multiplicity
 _atom_site_fract_x
 _atom_site_fract_y
 _atom_site_fract_z
 _atom_site_occupancy
  Li  Li0  1  0.24320700  0.74843600  0.74815300  1
  Li  Li1  1  0.26461900  0.40767100  0.07440600  1
  Li  Li2  1  0.24295900  0.08441700  0.41565400  1
  Li  Li3  1  0.75658000  0.24938700  0.25117700  1
  Li  Li4  1  0.73501100  0.92550700  0.59227900  1
  Li  Li5  1  0.75680100  0.58508900  0.91843400  1
  Li  Li6  1  0.50036500  0.16631600  0.83326600  1
  Co  Co7  1  0.00566400  0.00561800  0.99546800  1
  Co  Co8  1  0.99450600  0.32740700  0.67100300  1
  Co  Co9  1  0.00059700  0.66692800  0.33368800  1
  Co  Co10  1  0.50110000  0.49241300  0.50912600  1
  Co  Co11  1  0.49898000  0.84123300  0.15732600  1
  O  O12  1  0.34400000  0.10986600  0.11598900  1
  O  O13  1  0.36811000  0.78929200  0.44312500  1
  O  O14  1  0.35392200  0.45262800  0.76939200  1
  O  O15  1  0.87818500  0.59941300  0.62489300  1
  O  O16  1  0.89802300  0.27900100  0.94147600  1
  O  O17  1  0.88091600  0.95554000  0.26916200  1
  O  O18  1  0.11861300  0.37807200  0.39699200  1
  O  O19  1  0.10236200  0.05384900  0.72498700  1
  O  O20  1  0.12197600  0.73344900  0.04212500  1
  O  O21  1  0.64645500  0.88003200  0.89699600  1
  O  O22  1  0.63087100  0.54513800  0.22422200  1
  O  O23  1  0.65618100  0.22329600  0.55066300  1
