# generated using pymatgen
data_Li2CaTa2O7
_symmetry_space_group_name_H-M   'P 1'
_cell_length_a   9.61812261
_cell_length_b   9.61812261
_cell_length_c   5.58126600
_cell_angle_alpha   90.00000000
_cell_angle_beta   90.00000000
_cell_angle_gamma   146.34421932
_symmetry_Int_Tables_number   1
_chemical_formula_structural   Li2CaTa2O7
_chemical_formula_sum   'Li4 Ca2 Ta4 O14'
_cell_volume   286.14197579
_cell_formula_units_Z   2
loop_
 _symmetry_equiv_pos_site_id
 _symmetry_equiv_pos_as_xyz
  1  'x, y, z'
loop_
 _atom_site_type_symbol
 _atom_site_label
 _atom_site_symmetry_multiplicity
 _atom_site_fract_x
 _atom_site_fract_y
 _atom_site_fract_z
 _atom_site_occupancy
  Li  Li0  1  0.26115000  0.73885000  0.50000000  1
  Li  Li1  1  0.26115000  0.73885000  0.00000000  1
  Li  Li2  1  0.73885000  0.26115000  0.50000000  1
  Li  Li3  1  0.73885000  0.26115000  0.00000000  1
  Ca  Ca4  1  0.25432200  0.25432200  0.25000000  1
  Ca  Ca5  1  0.74567800  0.74567800  0.75000000  1
  Ta  Ta6  1  0.86424200  0.64088700  0.25000000  1
  Ta  Ta7  1  0.35911300  0.13575800  0.75000000  1
  Ta  Ta8  1  0.13575800  0.35911300  0.75000000  1
  Ta  Ta9  1  0.64088700  0.86424200  0.25000000  1
  O  O10  1  0.67601000  0.67601000  0.25000000  1
  O  O11  1  0.32399000  0.32399000  0.75000000  1
  O  O12  1  0.00534700  0.57753900  0.25000000  1
  O  O13  1  0.42246100  0.99465300  0.75000000  1
  O  O14  1  0.99465300  0.42246100  0.75000000  1
  O  O15  1  0.57753900  0.00534700  0.25000000  1
  O  O16  1  0.61594500  0.38405500  0.50000000  1
  O  O17  1  0.61594500  0.38405500  0.00000000  1
  O  O18  1  0.38405500  0.61594500  0.50000000  1
  O  O19  1  0.38405500  0.61594500  0.00000000  1
  O  O20  1  0.08579800  0.91420200  0.50000000  1
  O  O21  1  0.08579800  0.91420200  0.00000000  1
  O  O22  1  0.91420200  0.08579800  0.50000000  1
  O  O23  1  0.91420200  0.08579800  0.00000000  1
