# generated using pymatgen
data_Li3Cr5O8
_symmetry_space_group_name_H-M   'P 1'
_cell_length_a   6.06033809
_cell_length_b   10.57926906
_cell_length_c   6.09511001
_cell_angle_alpha   71.93596525
_cell_angle_beta   59.95335372
_cell_angle_gamma   89.72243039
_symmetry_Int_Tables_number   1
_chemical_formula_structural   Li3Cr5O8
_chemical_formula_sum   'Li6 Cr10 O16'
_cell_volume   316.17730271
_cell_formula_units_Z   2
loop_
 _symmetry_equiv_pos_site_id
 _symmetry_equiv_pos_as_xyz
  1  'x, y, z'
loop_
 _atom_site_type_symbol
 _atom_site_label
 _atom_site_symmetry_multiplicity
 _atom_site_fract_x
 _atom_site_fract_y
 _atom_site_fract_z
 _atom_site_occupancy
  Li  Li0  1  0.25007800  0.24999400  0.99990700  1
  Li  Li1  1  0.74978900  0.75000200  0.00020300  1
  Li  Li2  1  0.00270200  0.50054400  0.99865100  1
  Li  Li3  1  0.49735400  0.99942000  0.00132200  1
  Li  Li4  1  0.49918100  0.50052700  0.50141400  1
  Li  Li5  1  0.00078800  0.99950500  0.49860600  1
  Cr  Cr6  1  0.24997900  0.75000000  0.50004900  1
  Cr  Cr7  1  0.75007700  0.25000700  0.99992600  1
  Cr  Cr8  1  0.49981800  0.99948600  0.50338700  1
  Cr  Cr9  1  0.00015500  0.50049200  0.49660800  1
  Cr  Cr10  1  0.25008000  0.25000200  0.49996900  1
  Cr  Cr11  1  0.74999300  0.24999900  0.49999600  1
  Cr  Cr12  1  0.99534600  0.00190400  0.99852300  1
  Cr  Cr13  1  0.50465300  0.49810000  0.00154500  1
  Cr  Cr14  1  0.24995900  0.75000400  0.00007000  1
  Cr  Cr15  1  0.74989600  0.74998800  0.49999400  1
  O  O16  1  0.88555000  0.63138600  0.26041200  1
  O  O17  1  0.38791000  0.13092000  0.26295300  1
  O  O18  1  0.11218800  0.36910600  0.73694900  1
  O  O19  1  0.61441300  0.86860400  0.73958900  1
  O  O20  1  0.63089200  0.87991000  0.26710300  1
  O  O21  1  0.13814800  0.38144500  0.26334100  1
  O  O22  1  0.39036000  0.63135900  0.76662800  1
  O  O23  1  0.88502300  0.13429500  0.75813000  1
  O  O24  1  0.15422100  0.86686300  0.73277300  1
  O  O25  1  0.65310300  0.36733800  0.73385600  1
  O  O26  1  0.84700300  0.13267500  0.26598300  1
  O  O27  1  0.34563000  0.63323200  0.26729400  1
  O  O28  1  0.61513200  0.36570800  0.24181700  1
  O  O29  1  0.10960600  0.86863100  0.23337700  1
  O  O30  1  0.36200800  0.11855100  0.73659600  1
  O  O31  1  0.86896700  0.62000500  0.73302600  1
