# generated using pymatgen
data_LiNiAsO4
_symmetry_space_group_name_H-M   'P 1'
_cell_length_a   5.75346130
_cell_length_b   5.95937716
_cell_length_c   8.20935000
_cell_angle_alpha   90.00100333
_cell_angle_beta   90.00044611
_cell_angle_gamma   89.99984580
_symmetry_Int_Tables_number   1
_chemical_formula_structural   LiNiAsO4
_chemical_formula_sum   'Li4 Ni4 As4 O16'
_cell_volume   281.47435979
_cell_formula_units_Z   4
loop_
 _symmetry_equiv_pos_site_id
 _symmetry_equiv_pos_as_xyz
  1  'x, y, z'
loop_
 _atom_site_type_symbol
 _atom_site_label
 _atom_site_symmetry_multiplicity
 _atom_site_fract_x
 _atom_site_fract_y
 _atom_site_fract_z
 _atom_site_occupancy
  Li  Li0  1  0.74999800  0.75001200  0.25000100  1
  Li  Li1  1  0.24999800  0.24998700  0.75000100  1
  Li  Li2  1  0.24999800  0.75001200  0.25000100  1
  Li  Li3  1  0.74999700  0.24998700  0.75000100  1
  Ni  Ni4  1  0.00000500  0.49995900  0.49999800  1
  Ni  Ni5  1  0.50005500  0.50004000  0.00003500  1
  Ni  Ni6  1  0.50003000  0.99996500  0.99996100  1
  Ni  Ni7  1  0.99995800  0.00005400  0.49998800  1
  As  As8  1  0.00000000  0.24998000  0.13118300  1
  As  As9  1  0.49999900  0.75001100  0.63118300  1
  As  As10  1  0.49999600  0.24998600  0.36881700  1
  As  As11  1  0.99999800  0.75001800  0.86881700  1
  O  O12  1  0.75484000  0.24992100  0.00402600  1
  O  O13  1  0.25484000  0.75007700  0.50402500  1
  O  O14  1  0.24515600  0.24991800  0.00402800  1
  O  O15  1  0.74515500  0.75007300  0.50402600  1
  O  O16  1  0.74515400  0.24992200  0.49597700  1
  O  O17  1  0.24515600  0.75007700  0.99597500  1
  O  O18  1  0.25484100  0.24992500  0.49597600  1
  O  O19  1  0.75484100  0.75008100  0.99597400  1
  O  O20  1  0.99999800  0.00925000  0.24713000  1
  O  O21  1  0.49999700  0.50915700  0.74706400  1
  O  O22  1  0.99999700  0.49084600  0.24706400  1
  O  O23  1  0.49999700  0.99074900  0.74713400  1
  O  O24  1  0.49999900  0.49084200  0.25293900  1
  O  O25  1  0.99999800  0.99074900  0.75287100  1
  O  O26  1  0.50000000  0.00925000  0.25286700  1
  O  O27  1  0.99999800  0.50915300  0.75293700  1
