# generated using pymatgen
data_Li5Mo15S19
_symmetry_space_group_name_H-M   'P 1'
_cell_length_a   9.46065339
_cell_length_b   9.46065339
_cell_length_c   18.97695400
_cell_angle_alpha   90.00000000
_cell_angle_beta   90.00000000
_cell_angle_gamma   119.99999576
_symmetry_Int_Tables_number   1
_chemical_formula_structural   Li5Mo15S19
_chemical_formula_sum   'Li10 Mo30 S38'
_cell_volume   1470.95510724
_cell_formula_units_Z   2
loop_
 _symmetry_equiv_pos_site_id
 _symmetry_equiv_pos_as_xyz
  1  'x, y, z'
loop_
 _atom_site_type_symbol
 _atom_site_label
 _atom_site_symmetry_multiplicity
 _atom_site_fract_x
 _atom_site_fract_y
 _atom_site_fract_z
 _atom_site_occupancy
  Li  Li0  1  0.66666700  0.33333300  0.59339400  1
  Li  Li1  1  0.33333300  0.66666700  0.09339400  1
  Li  Li2  1  0.33333300  0.66666700  0.40660600  1
  Li  Li3  1  0.66666700  0.33333300  0.90660600  1
  Li  Li4  1  0.84074300  0.78426800  0.75000000  1
  Li  Li5  1  0.21573200  0.05647500  0.75000000  1
  Li  Li6  1  0.94352500  0.15925700  0.75000000  1
  Li  Li7  1  0.15925700  0.21573200  0.25000000  1
  Li  Li8  1  0.78426800  0.94352500  0.25000000  1
  Li  Li9  1  0.05647500  0.84074300  0.25000000  1
  Mo  Mo10  1  0.15762500  0.98604700  0.55849700  1
  Mo  Mo11  1  0.01395300  0.17157800  0.55849700  1
  Mo  Mo12  1  0.82842200  0.84237500  0.55849700  1
  Mo  Mo13  1  0.84237500  0.01395300  0.05849700  1
  Mo  Mo14  1  0.98604700  0.82842200  0.05849700  1
  Mo  Mo15  1  0.17157800  0.15762500  0.05849700  1
  Mo  Mo16  1  0.84237500  0.01395300  0.44150300  1
  Mo  Mo17  1  0.98604700  0.82842200  0.44150300  1
  Mo  Mo18  1  0.17157800  0.15762500  0.44150300  1
  Mo  Mo19  1  0.15762500  0.98604700  0.94150300  1
  Mo  Mo20  1  0.01395300  0.17157800  0.94150300  1
  Mo  Mo21  1  0.82842200  0.84237500  0.94150300  1
  Mo  Mo22  1  0.18430400  0.68945400  0.63095100  1
  Mo  Mo23  1  0.31054600  0.49485000  0.63095100  1
  Mo  Mo24  1  0.50515000  0.81569600  0.63095100  1
  Mo  Mo25  1  0.81569600  0.31054600  0.13095100  1
  Mo  Mo26  1  0.68945400  0.50515000  0.13095100  1
  Mo  Mo27  1  0.49485000  0.18430400  0.13095100  1
  Mo  Mo28  1  0.81569600  0.31054600  0.36904900  1
  Mo  Mo29  1  0.68945400  0.50515000  0.36904900  1
  Mo  Mo30  1  0.49485000  0.18430400  0.36904900  1
  Mo  Mo31  1  0.18430400  0.68945400  0.86904900  1
  Mo  Mo32  1  0.31054600  0.49485000  0.86904900  1
  Mo  Mo33  1  0.50515000  0.81569600  0.86904900  1
  Mo  Mo34  1  0.35481200  0.84142700  0.75000000  1
  Mo  Mo35  1  0.15857300  0.51338500  0.75000000  1
  Mo  Mo36  1  0.48661500  0.64518800  0.75000000  1
  Mo  Mo37  1  0.64518800  0.15857300  0.25000000  1
  Mo  Mo38  1  0.84142700  0.48661500  0.25000000  1
  Mo  Mo39  1  0.51338500  0.35481200  0.25000000  1
  S  S40  1  0.00000000  0.00000000  0.65870200  1
  S  S41  1  0.00000000  0.00000000  0.15870200  1
  S  S42  1  0.00000000  0.00000000  0.34129800  1
  S  S43  1  0.00000000  0.00000000  0.84129800  1
  S  S44  1  0.66666700  0.33333300  0.03259300  1
  S  S45  1  0.33333300  0.66666700  0.53259300  1
  S  S46  1  0.33333300  0.66666700  0.96740700  1
  S  S47  1  0.66666700  0.33333300  0.46740700  1
  S  S48  1  0.05531500  0.70683800  0.75000000  1
  S  S49  1  0.29316200  0.34847800  0.75000000  1
  S  S50  1  0.65152200  0.94468500  0.75000000  1
  S  S51  1  0.94468500  0.29316200  0.25000000  1
  S  S52  1  0.70683800  0.65152200  0.25000000  1
  S  S53  1  0.34847800  0.05531500  0.25000000  1
  S  S54  1  0.96830500  0.68425700  0.55091100  1
  S  S55  1  0.31574300  0.28404900  0.55091100  1
  S  S56  1  0.71595100  0.03169500  0.55091100  1
  S  S57  1  0.03169500  0.31574300  0.05091100  1
  S  S58  1  0.68425700  0.71595100  0.05091100  1
  S  S59  1  0.28404900  0.96830500  0.05091100  1
  S  S60  1  0.03169500  0.31574300  0.44908900  1
  S  S61  1  0.68425700  0.71595100  0.44908900  1
  S  S62  1  0.28404900  0.96830500  0.44908900  1
  S  S63  1  0.96830500  0.68425700  0.94908900  1
  S  S64  1  0.31574300  0.28404900  0.94908900  1
  S  S65  1  0.71595100  0.03169500  0.94908900  1
  S  S66  1  0.38072100  0.99405600  0.64022000  1
  S  S67  1  0.00594400  0.38666600  0.64022000  1
  S  S68  1  0.61333400  0.61927900  0.64022000  1
  S  S69  1  0.61927900  0.00594400  0.14022000  1
  S  S70  1  0.99405600  0.61333400  0.14022000  1
  S  S71  1  0.38666600  0.38072100  0.14022000  1
  S  S72  1  0.61927900  0.00594400  0.35978000  1
  S  S73  1  0.99405600  0.61333400  0.35978000  1
  S  S74  1  0.38666600  0.38072100  0.35978000  1
  S  S75  1  0.38072100  0.99405600  0.85978000  1
  S  S76  1  0.00594400  0.38666600  0.85978000  1
  S  S77  1  0.61333400  0.61927900  0.85978000  1
