# generated using pymatgen
data_Li9Mn7O16
_symmetry_space_group_name_H-M   'P 1'
_cell_length_a   7.80884182
_cell_length_b   7.80884182
_cell_length_c   13.56370363
_cell_angle_alpha   84.90210829
_cell_angle_beta   84.90210829
_cell_angle_gamma   21.23950436
_symmetry_Int_Tables_number   1
_chemical_formula_structural   Li9Mn7O16
_chemical_formula_sum   'Li9 Mn7 O16'
_cell_volume   298.39983995
_cell_formula_units_Z   1
loop_
 _symmetry_equiv_pos_site_id
 _symmetry_equiv_pos_as_xyz
  1  'x, y, z'
loop_
 _atom_site_type_symbol
 _atom_site_label
 _atom_site_symmetry_multiplicity
 _atom_site_fract_x
 _atom_site_fract_y
 _atom_site_fract_z
 _atom_site_occupancy
  Li  Li0  1  0.56175500  0.56175500  0.80654900  1
  Li  Li1  1  0.43824500  0.43824500  0.19345100  1
  Li  Li2  1  0.31802200  0.31802200  0.55533000  1
  Li  Li3  1  0.18796800  0.18796800  0.93907500  1
  Li  Li4  1  0.06121800  0.06121800  0.32053900  1
  Li  Li5  1  0.93878200  0.93878200  0.67946100  1
  Li  Li6  1  0.81203200  0.81203200  0.06092500  1
  Li  Li7  1  0.68197800  0.68197800  0.44467000  1
  Li  Li8  1  0.50000000  0.50000000  0.50000000  1
  Mn  Mn9  1  0.11967000  0.11967000  0.61478000  1
  Mn  Mn10  1  0.88033000  0.88033000  0.38522000  1
  Mn  Mn11  1  0.00000000  0.00000000  0.00000000  1
  Mn  Mn12  1  0.74816200  0.74816200  0.74145300  1
  Mn  Mn13  1  0.62619900  0.62619900  0.12790300  1
  Mn  Mn14  1  0.37380100  0.37380100  0.87209700  1
  Mn  Mn15  1  0.25183800  0.25183800  0.25854700  1
  O  O16  1  0.53884500  0.53884500  0.65375200  1
  O  O17  1  0.41517300  0.41517300  0.03369200  1
  O  O18  1  0.29443500  0.29443500  0.40614400  1
  O  O19  1  0.16085500  0.16085500  0.76631700  1
  O  O20  1  0.04167500  0.04167500  0.15810100  1
  O  O21  1  0.90267300  0.90267300  0.51418300  1
  O  O22  1  0.78862400  0.78862400  0.90481100  1
  O  O23  1  0.66628400  0.66628400  0.28559500  1
  O  O24  1  0.58482700  0.58482700  0.96630800  1
  O  O25  1  0.46115500  0.46115500  0.34624800  1
  O  O26  1  0.33371600  0.33371600  0.71440500  1
  O  O27  1  0.21137600  0.21137600  0.09518900  1
  O  O28  1  0.09732700  0.09732700  0.48581700  1
  O  O29  1  0.95832500  0.95832500  0.84189900  1
  O  O30  1  0.83914500  0.83914500  0.23368300  1
  O  O31  1  0.70556500  0.70556500  0.59385600  1
