# generated using pymatgen
data_Li5B(SO4)4
_symmetry_space_group_name_H-M   'P 1'
_cell_length_a   10.29776300
_cell_length_b   8.14016300
_cell_length_c   15.44908989
_cell_angle_alpha   73.63195177
_cell_angle_beta   90.00000000
_cell_angle_gamma   90.00000000
_symmetry_Int_Tables_number   1
_chemical_formula_structural   Li5B(SO4)4
_chemical_formula_sum   'Li20 B4 S16 O64'
_cell_volume   1242.54141158
_cell_formula_units_Z   4
loop_
 _symmetry_equiv_pos_site_id
 _symmetry_equiv_pos_as_xyz
  1  'x, y, z'
loop_
 _atom_site_type_symbol
 _atom_site_label
 _atom_site_symmetry_multiplicity
 _atom_site_fract_x
 _atom_site_fract_y
 _atom_site_fract_z
 _atom_site_occupancy
  Li  Li0  1  0.66676300  0.99982500  0.90630400  1
  Li  Li1  1  0.16676300  0.00017500  0.59369600  1
  Li  Li2  1  0.33323700  0.00017500  0.09369600  1
  Li  Li3  1  0.83323700  0.99982500  0.40630400  1
  Li  Li4  1  0.31603000  0.89680000  0.79663700  1
  Li  Li5  1  0.81603000  0.10320000  0.70336300  1
  Li  Li6  1  0.68397000  0.10320000  0.20336300  1
  Li  Li7  1  0.18397000  0.89680000  0.29663700  1
  Li  Li8  1  0.61958900  0.89522000  0.68433300  1
  Li  Li9  1  0.11958900  0.10478000  0.81566700  1
  Li  Li10  1  0.38041100  0.10478000  0.31566700  1
  Li  Li11  1  0.88041100  0.89522000  0.18433300  1
  Li  Li12  1  0.63342700  0.69384800  0.51984300  1
  Li  Li13  1  0.13342700  0.30615200  0.98015700  1
  Li  Li14  1  0.36657300  0.30615200  0.48015700  1
  Li  Li15  1  0.86657300  0.69384800  0.01984300  1
  Li  Li16  1  0.79505500  0.37497900  0.51511400  1
  Li  Li17  1  0.29505500  0.62502100  0.98488600  1
  Li  Li18  1  0.20494500  0.62502100  0.48488600  1
  Li  Li19  1  0.70494500  0.37497900  0.01511400  1
  B  B20  1  0.95977800  0.51650200  0.74353100  1
  B  B21  1  0.45977800  0.48349800  0.75646900  1
  B  B22  1  0.04022200  0.48349800  0.25646900  1
  B  B23  1  0.54022200  0.51650200  0.24353100  1
  S  S24  1  0.88064800  0.80174300  0.61256900  1
  S  S25  1  0.38064800  0.19825700  0.88743100  1
  S  S26  1  0.11935200  0.19825700  0.38743100  1
  S  S27  1  0.61935200  0.80174300  0.11256900  1
  S  S28  1  0.12116800  0.76277500  0.12289500  1
  S  S29  1  0.62116800  0.23722500  0.37710500  1
  S  S30  1  0.87883200  0.23722500  0.87710500  1
  S  S31  1  0.37883200  0.76277500  0.62289500  1
  S  S32  1  0.55136100  0.68334200  0.86221400  1
  S  S33  1  0.05136100  0.31665800  0.63778600  1
  S  S34  1  0.44863900  0.31665800  0.13778600  1
  S  S35  1  0.94863900  0.68334200  0.36221400  1
  S  S36  1  0.55812900  0.31071600  0.63770600  1
  S  S37  1  0.05812900  0.68928400  0.86229400  1
  S  S38  1  0.44187100  0.68928400  0.36229400  1
  S  S39  1  0.94187100  0.31071600  0.13770600  1
  O  O40  1  0.81401000  0.88577000  0.67337500  1
  O  O41  1  0.31401000  0.11423000  0.82662500  1
  O  O42  1  0.18599000  0.11423000  0.32662500  1
  O  O43  1  0.68599000  0.88577000  0.17337500  1
  O  O44  1  0.80083200  0.81348200  0.53150900  1
  O  O45  1  0.30083200  0.18651800  0.96849100  1
  O  O46  1  0.19916800  0.18651800  0.46849100  1
  O  O47  1  0.69916800  0.81348200  0.03150900  1
  O  O48  1  0.01238500  0.86142900  0.59035300  1
  O  O49  1  0.51238500  0.13857100  0.90964700  1
  O  O50  1  0.98761500  0.13857100  0.40964700  1
  O  O51  1  0.48761500  0.86142900  0.09035300  1
  O  O52  1  0.33560000  0.88182400  0.67388700  1
  O  O53  1  0.83560000  0.11817600  0.82611300  1
  O  O54  1  0.66440000  0.11817600  0.32611300  1
  O  O55  1  0.16440000  0.88182400  0.17388700  1
  O  O56  1  0.51628200  0.79622800  0.59567300  1
  O  O57  1  0.01628200  0.20377200  0.90432700  1
  O  O58  1  0.48371800  0.20377200  0.40432700  1
  O  O59  1  0.98371800  0.79622800  0.09567300  1
  O  O60  1  0.29119900  0.77393000  0.54751900  1
  O  O61  1  0.79119900  0.22607000  0.95248100  1
  O  O62  1  0.70880100  0.22607000  0.45248100  1
  O  O63  1  0.20880100  0.77393000  0.04751900  1
  O  O64  1  0.61603200  0.56149900  0.93552700  1
  O  O65  1  0.11603200  0.43850100  0.56447300  1
  O  O66  1  0.38396800  0.43850100  0.06447300  1
  O  O67  1  0.88396800  0.56149900  0.43552700  1
  O  O68  1  0.62226800  0.84580900  0.82596600  1
  O  O69  1  0.12226800  0.15419100  0.67403400  1
  O  O70  1  0.37773200  0.15419100  0.17403400  1
  O  O71  1  0.87773200  0.84580900  0.32596600  1
  O  O72  1  0.91575400  0.28185300  0.61665600  1
  O  O73  1  0.41575400  0.71814700  0.88334400  1
  O  O74  1  0.08424600  0.71814700  0.38334400  1
  O  O75  1  0.58424600  0.28185300  0.11665600  1
  O  O76  1  0.13240400  0.85045500  0.83415000  1
  O  O77  1  0.63240400  0.14954500  0.66585000  1
  O  O78  1  0.86759600  0.14954500  0.16585000  1
  O  O79  1  0.36759600  0.85045500  0.33415000  1
  O  O80  1  0.93121500  0.71119700  0.89871200  1
  O  O81  1  0.43121500  0.28880300  0.60128800  1
  O  O82  1  0.06878500  0.28880300  0.10128800  1
  O  O83  1  0.56878500  0.71119700  0.39871200  1
  O  O84  1  0.63736200  0.44577900  0.57659200  1
  O  O85  1  0.13736200  0.55422100  0.92340800  1
  O  O86  1  0.36263800  0.55422100  0.42340800  1
  O  O87  1  0.86263800  0.44577900  0.07659200  1
  O  O88  1  0.88275200  0.60529900  0.66298400  1
  O  O89  1  0.38275200  0.39470100  0.83701600  1
  O  O90  1  0.11724800  0.39470100  0.33701600  1
  O  O91  1  0.61724800  0.60529900  0.16298400  1
  O  O92  1  0.86708400  0.42467800  0.81498000  1
  O  O93  1  0.36708400  0.57532200  0.68502000  1
  O  O94  1  0.13291600  0.57532200  0.18502000  1
  O  O95  1  0.63291600  0.42467800  0.31498000  1
  O  O96  1  0.54929100  0.61116600  0.77780800  1
  O  O97  1  0.04929100  0.38883400  0.72219200  1
  O  O98  1  0.45070900  0.38883400  0.22219200  1
  O  O99  1  0.95070900  0.61116600  0.27780800  1
  O  O100  1  0.54150100  0.36073400  0.72731700  1
  O  O101  1  0.04150100  0.63926600  0.77268300  1
  O  O102  1  0.45849900  0.63926600  0.27268300  1
  O  O103  1  0.95849900  0.36073400  0.22731700  1
