# generated using pymatgen
data_Li4TiCo5O12
_symmetry_space_group_name_H-M   'P 1'
_cell_length_a   4.97557682
_cell_length_b   20.04366395
_cell_length_c   4.94926560
_cell_angle_alpha   94.37538204
_cell_angle_beta   119.69150014
_cell_angle_gamma   93.75498306
_symmetry_Int_Tables_number   1
_chemical_formula_structural   Li4TiCo5O12
_chemical_formula_sum   'Li8 Ti2 Co10 O24'
_cell_volume   424.47948694
_cell_formula_units_Z   2
loop_
 _symmetry_equiv_pos_site_id
 _symmetry_equiv_pos_as_xyz
  1  'x, y, z'
loop_
 _atom_site_type_symbol
 _atom_site_label
 _atom_site_symmetry_multiplicity
 _atom_site_fract_x
 _atom_site_fract_y
 _atom_site_fract_z
 _atom_site_occupancy
  Li  Li0  1  0.58199661  0.37303289  0.23858128  1
  Li  Li1  1  0.57228980  0.87417825  0.22903731  1
  Li  Li2  1  0.76316895  0.12726800  0.41630262  1
  Li  Li3  1  0.77251374  0.62605315  0.43472111  1
  Li  Li4  1  0.22285129  0.36975306  0.57957111  1
  Li  Li5  1  0.22446647  0.87092842  0.57632637  1
  Li  Li6  1  0.41817462  0.12978991  0.76670338  1
  Li  Li7  1  0.41774953  0.62868206  0.77478064  1
  Ti  Ti8  1  0.99461721  0.00047444  0.00372822  1
  Ti  Ti9  1  0.99207584  0.49963228  0.00613792  1
  Co  Co10  1  0.83407872  0.74992200  0.16863502  1
  Co  Co11  1  0.15822683  0.24982639  0.83730906  1
  Co  Co12  1  0.16199076  0.75005306  0.83441484  1
  Co  Co13  1  0.67857987  0.00055283  0.32654856  1
  Co  Co14  1  0.67609971  0.49972934  0.32776861  1
  Co  Co15  1  0.49119082  0.24987049  0.50282607  1
  Co  Co16  1  0.49435105  0.75012769  0.50346279  1
  Co  Co17  1  0.82354847  0.24985247  0.16926023  1
  Co  Co18  1  0.34475418  0.00036503  0.66040706  1
  Co  Co19  1  0.34289453  0.49964727  0.66234857  1
  O  O20  1  0.20286461  0.29962292  0.21853763  1
  O  O21  1  0.20026149  0.79958031  0.20471848  1
  O  O22  1  0.77856544  0.20002946  0.78846454  1
  O  O23  1  0.79452637  0.70081032  0.79826778  1
  O  O24  1  0.38492510  0.05262390  0.36912401  1
  O  O25  1  0.38409741  0.55189026  0.37115797  1
  O  O26  1  0.63577937  0.44707804  0.61864261  1
  O  O27  1  0.63802865  0.94766888  0.61682553  1
  O  O28  1  0.72562331  0.05845201  0.05151174  1
  O  O29  1  0.72489786  0.55810321  0.05442575  1
  O  O30  1  0.95189706  0.44196880  0.27900416  1
  O  O31  1  0.95450707  0.94280318  0.27863465  1
  O  O32  1  0.04016095  0.05137446  0.68329078  1
  O  O33  1  0.03817204  0.55015063  0.68552856  1
  O  O34  1  0.31965403  0.44897592  0.96320964  1
  O  O35  1  0.32185345  0.94983391  0.96231089  1
  O  O36  1  0.47516213  0.19801217  0.12969728  1
  O  O37  1  0.46982196  0.70023958  0.13154806  1
  O  O38  1  0.11981277  0.19829234  0.48512210  1
  O  O39  1  0.13526026  0.69388724  0.50627059  1
  O  O40  1  0.86242225  0.30144130  0.52173014  1
  O  O41  1  0.87632883  0.80155250  0.52941924  1
  O  O42  1  0.50547593  0.30178165  0.87605479  1
  O  O43  1  0.49428667  0.80408797  0.85763232  1
