# generated using pymatgen
data_Li9Mn2Co5O16
_symmetry_space_group_name_H-M   'P 1'
_cell_length_a   6.51303889
_cell_length_b   6.51303889
_cell_length_c   10.28132655
_cell_angle_alpha   59.50734038
_cell_angle_beta   59.50734038
_cell_angle_gamma   52.23864020
_symmetry_Int_Tables_number   1
_chemical_formula_structural   Li9Mn2Co5O16
_chemical_formula_sum   'Li9 Mn2 Co5 O16'
_cell_volume   284.45065342
_cell_formula_units_Z   1
loop_
 _symmetry_equiv_pos_site_id
 _symmetry_equiv_pos_as_xyz
  1  'x, y, z'
loop_
 _atom_site_type_symbol
 _atom_site_label
 _atom_site_symmetry_multiplicity
 _atom_site_fract_x
 _atom_site_fract_y
 _atom_site_fract_z
 _atom_site_occupancy
  Li  Li0  1  0.49664800  0.49664800  0.25722100  1
  Li  Li1  1  0.00289500  0.00289500  0.74560900  1
  Li  Li2  1  0.24743000  0.74018200  0.50820400  1
  Li  Li3  1  0.75352800  0.25850800  0.99006700  1
  Li  Li4  1  0.25850800  0.75352800  0.99006700  1
  Li  Li5  1  0.74018200  0.24743000  0.50820400  1
  Li  Li6  1  0.99289900  0.99289900  0.25521400  1
  Li  Li7  1  0.50583800  0.50583800  0.74567200  1
  Li  Li8  1  0.75017000  0.75017000  0.74692700  1
  Mn  Mn9  1  0.99906700  0.50235400  0.99596300  1
  Mn  Mn10  1  0.50235400  0.99906700  0.99596300  1
  Co  Co11  1  0.50235100  0.99470700  0.50828000  1
  Co  Co12  1  0.74816500  0.74816500  0.25466100  1
  Co  Co13  1  0.24852200  0.24852200  0.75118100  1
  Co  Co14  1  0.25205400  0.25205400  0.25360400  1
  Co  Co15  1  0.99470700  0.50235100  0.50828000  1
  O  O16  1  0.63451600  0.63451600  0.00557100  1
  O  O17  1  0.13592300  0.13592300  0.49074800  1
  O  O18  1  0.40166500  0.89019700  0.23044200  1
  O  O19  1  0.90388700  0.37000600  0.74183800  1
  O  O20  1  0.37000600  0.90388700  0.74183800  1
  O  O21  1  0.89019700  0.40166500  0.23044200  1
  O  O22  1  0.13151700  0.13151700  0.01298500  1
  O  O23  1  0.62830400  0.62830400  0.49857700  1
  O  O24  1  0.37281300  0.37281300  0.49909700  1
  O  O25  1  0.86540000  0.86540000  0.99076100  1
  O  O26  1  0.11772400  0.59141400  0.77284000  1
  O  O27  1  0.62110800  0.10847700  0.25027600  1
  O  O28  1  0.10847700  0.62110800  0.25027600  1
  O  O29  1  0.59141400  0.11772400  0.77284000  1
  O  O30  1  0.86957200  0.86957200  0.49381700  1
  O  O31  1  0.36216000  0.36216000  0.00253300  1
