# generated using pymatgen
data_SrLiAlSb2
_symmetry_space_group_name_H-M   'P 1'
_cell_length_a   4.60020578
_cell_length_b   4.60020578
_cell_length_c   7.83127800
_cell_angle_alpha   90.00000000
_cell_angle_beta   90.00000000
_cell_angle_gamma   119.99999678
_symmetry_Int_Tables_number   1
_chemical_formula_structural   SrLiAlSb2
_chemical_formula_sum   'Sr1 Li1 Al1 Sb2'
_cell_volume   143.52177762
_cell_formula_units_Z   1
loop_
 _symmetry_equiv_pos_site_id
 _symmetry_equiv_pos_as_xyz
  1  'x, y, z'
loop_
 _atom_site_type_symbol
 _atom_site_label
 _atom_site_symmetry_multiplicity
 _atom_site_fract_x
 _atom_site_fract_y
 _atom_site_fract_z
 _atom_site_occupancy
  Sr  Sr0  1  0.33333300  0.66666700  0.02622900  1
  Li  Li1  1  0.66666700  0.33333300  0.36666100  1
  Al  Al2  1  0.00000000  0.00000000  0.60331700  1
  Sb  Sb3  1  0.00000000  0.00000000  0.26691300  1
  Sb  Sb4  1  0.66666700  0.33333300  0.73688000  1
