# generated using pymatgen
data_Li3Mn(PO4)2
_symmetry_space_group_name_H-M   'P 1'
_cell_length_a   10.49217500
_cell_length_b   8.01466700
_cell_length_c   8.47442091
_cell_angle_alpha   72.31961591
_cell_angle_beta   90.00000000
_cell_angle_gamma   90.00000000
_symmetry_Int_Tables_number   1
_chemical_formula_structural   Li3Mn(PO4)2
_chemical_formula_sum   'Li12 Mn4 P8 O32'
_cell_volume   678.96450163
_cell_formula_units_Z   4
loop_
 _symmetry_equiv_pos_site_id
 _symmetry_equiv_pos_as_xyz
  1  'x, y, z'
loop_
 _atom_site_type_symbol
 _atom_site_label
 _atom_site_symmetry_multiplicity
 _atom_site_fract_x
 _atom_site_fract_y
 _atom_site_fract_z
 _atom_site_occupancy
  Li  Li0  1  0.33146500  0.62302800  0.63988100  1
  Li  Li1  1  0.64409400  0.64863700  0.08047600  1
  Li  Li2  1  0.85009600  0.65040500  0.59423200  1
  Li  Li3  1  0.83146500  0.37697200  0.36011900  1
  Li  Li4  1  0.35009600  0.34959500  0.40576800  1
  Li  Li5  1  0.66391500  0.38525100  0.85309400  1
  Li  Li6  1  0.84667300  0.19029100  0.09384700  1
  Li  Li7  1  0.34667300  0.80970900  0.90615300  1
  Li  Li8  1  0.16391500  0.61474900  0.14690600  1
  Li  Li9  1  0.07378100  0.53296300  0.48405200  1
  Li  Li10  1  0.57378100  0.46703700  0.51594800  1
  Li  Li11  1  0.14409400  0.35136300  0.91952400  1
  Mn  Mn12  1  0.34776200  0.11956500  0.11780700  1
  Mn  Mn13  1  0.84776200  0.88043500  0.88219300  1
  Mn  Mn14  1  0.65441500  0.88701900  0.38168500  1
  Mn  Mn15  1  0.15441500  0.11298100  0.61831500  1
  P  P16  1  0.41184600  0.72553200  0.27482800  1
  P  P17  1  0.59295800  0.28996100  0.22454500  1
  P  P18  1  0.91184600  0.27446800  0.72517200  1
  P  P19  1  0.91080800  0.78579800  0.20213100  1
  P  P20  1  0.08364500  0.20547600  0.30421400  1
  P  P21  1  0.41080800  0.21420200  0.79786900  1
  P  P22  1  0.58364500  0.79452400  0.69578600  1
  P  P23  1  0.09295800  0.71003900  0.77545500  1
  O  O24  1  0.03761500  0.70051700  0.26376100  1
  O  O25  1  0.66904800  0.80068100  0.84193400  1
  O  O26  1  0.45145500  0.72768000  0.75505900  1
  O  O27  1  0.83488600  0.68526600  0.09679900  1
  O  O28  1  0.39610800  0.57821100  0.44286500  1
  O  O29  1  0.83015500  0.79937900  0.35033700  1
  O  O30  1  0.33015500  0.20062100  0.64966300  1
  O  O31  1  0.66649300  0.11515300  0.22120800  1
  O  O32  1  0.16904800  0.19931900  0.15806600  1
  O  O33  1  0.91967800  0.96900600  0.06294500  1
  O  O34  1  0.61769200  0.41915000  0.05282400  1
  O  O35  1  0.64773200  0.36110100  0.35901300  1
  O  O36  1  0.34154100  0.67394900  0.13848200  1
  O  O37  1  0.11769200  0.58085000  0.94717600  1
  O  O38  1  0.35782700  0.90227100  0.29361600  1
  O  O39  1  0.08298300  0.02725200  0.44698000  1
  O  O40  1  0.16649300  0.88484700  0.77879200  1
  O  O41  1  0.89610800  0.42178900  0.55713500  1
  O  O42  1  0.85782700  0.09772900  0.70638400  1
  O  O43  1  0.05843100  0.24762200  0.76044700  1
  O  O44  1  0.15174600  0.32359200  0.40363200  1
  O  O45  1  0.53761500  0.29948300  0.73623900  1
  O  O46  1  0.44795800  0.24845800  0.25507100  1
  O  O47  1  0.84154100  0.32605100  0.86151800  1
  O  O48  1  0.58298300  0.97274800  0.55302000  1
  O  O49  1  0.55843100  0.75237800  0.23955300  1
  O  O50  1  0.33488600  0.31473400  0.90320100  1
  O  O51  1  0.94795800  0.75154200  0.74492900  1
  O  O52  1  0.14773200  0.63889900  0.64098700  1
  O  O53  1  0.65174600  0.67640800  0.59636800  1
  O  O54  1  0.95145500  0.27232000  0.24494100  1
  O  O55  1  0.41967800  0.03099400  0.93705500  1
