# generated using pymatgen
data_Li9Mn7O16
_symmetry_space_group_name_H-M   'P 1'
_cell_length_a   2.87089500
_cell_length_b   5.84511600
_cell_length_c   17.74477654
_cell_angle_alpha   89.25736231
_cell_angle_beta   90.00000000
_cell_angle_gamma   90.00000000
_symmetry_Int_Tables_number   1
_chemical_formula_structural   Li9Mn7O16
_chemical_formula_sum   'Li9 Mn7 O16'
_cell_volume   297.74501309
_cell_formula_units_Z   1
loop_
 _symmetry_equiv_pos_site_id
 _symmetry_equiv_pos_as_xyz
  1  'x, y, z'
loop_
 _atom_site_type_symbol
 _atom_site_label
 _atom_site_symmetry_multiplicity
 _atom_site_fract_x
 _atom_site_fract_y
 _atom_site_fract_z
 _atom_site_occupancy
  Li  Li0  1  0.50000000  0.50066900  0.75672700  1
  Li  Li1  1  0.50000000  0.00000000  0.50000000  1
  Li  Li2  1  0.50000000  0.49933100  0.24327300  1
  Li  Li3  1  0.00000000  0.24981500  0.62407300  1
  Li  Li4  1  0.00000000  0.75018500  0.37592700  1
  Li  Li5  1  0.00000000  0.25557400  0.11434200  1
  Li  Li6  1  0.50000000  0.00000000  0.00000000  1
  Li  Li7  1  0.00000000  0.74442600  0.88565800  1
  Li  Li8  1  0.50000000  0.50000000  0.00000000  1
  Mn  Mn9  1  0.00000000  0.25474100  0.88611600  1
  Mn  Mn10  1  0.00000000  0.74525900  0.11388400  1
  Mn  Mn11  1  0.00000000  0.75180100  0.62816000  1
  Mn  Mn12  1  0.00000000  0.24819900  0.37184000  1
  Mn  Mn13  1  0.50000000  0.50000000  0.50000000  1
  Mn  Mn14  1  0.50000000  0.99758400  0.24294900  1
  Mn  Mn15  1  0.50000000  0.00241600  0.75705100  1
  O  O16  1  0.50000000  0.47524000  0.87589400  1
  O  O17  1  0.50000000  0.98120900  0.62521200  1
  O  O18  1  0.50000000  0.47771900  0.37066900  1
  O  O19  1  0.00000000  0.23137800  0.76112600  1
  O  O20  1  0.00000000  0.72819400  0.49764000  1
  O  O21  1  0.00000000  0.22527800  0.24517500  1
  O  O22  1  0.50000000  0.97359000  0.11979400  1
  O  O23  1  0.00000000  0.74725100  0.01240400  1
  O  O24  1  0.50000000  0.52228100  0.62933100  1
  O  O25  1  0.50000000  0.01879100  0.37478800  1
  O  O26  1  0.50000000  0.52476000  0.12410600  1
  O  O27  1  0.00000000  0.27180600  0.50236000  1
  O  O28  1  0.00000000  0.76862200  0.23887400  1
  O  O29  1  0.00000000  0.25274900  0.98759600  1
  O  O30  1  0.50000000  0.02641000  0.88020600  1
  O  O31  1  0.00000000  0.77472200  0.75482500  1
