# generated using pymatgen
data_Li9Mn2Co5O16
_symmetry_space_group_name_H-M   'P 1'
_cell_length_a   10.66570666
_cell_length_b   10.66570666
_cell_length_c   9.79257609
_cell_angle_alpha   72.62232100
_cell_angle_beta   72.62232100
_cell_angle_gamma   15.77609158
_symmetry_Int_Tables_number   1
_chemical_formula_structural   Li9Mn2Co5O16
_chemical_formula_sum   'Li9 Mn2 Co5 O16'
_cell_volume   288.77098028
_cell_formula_units_Z   1
loop_
 _symmetry_equiv_pos_site_id
 _symmetry_equiv_pos_as_xyz
  1  'x, y, z'
loop_
 _atom_site_type_symbol
 _atom_site_label
 _atom_site_symmetry_multiplicity
 _atom_site_fract_x
 _atom_site_fract_y
 _atom_site_fract_z
 _atom_site_occupancy
  Li  Li0  1  0.56102500  0.56102500  0.69407500  1
  Li  Li1  1  0.43897500  0.43897500  0.30592500  1
  Li  Li2  1  0.31397300  0.31397300  0.93745100  1
  Li  Li3  1  0.94109300  0.94109300  0.81444600  1
  Li  Li4  1  0.81303500  0.81303500  0.43975700  1
  Li  Li5  1  0.68602700  0.68602700  0.06254900  1
  Li  Li6  1  0.18696500  0.18696500  0.56024300  1
  Li  Li7  1  0.05890700  0.05890700  0.18555400  1
  Li  Li8  1  0.50000000  0.50000000  0.00000000  1
  Mn  Mn9  1  0.12025600  0.12025600  0.87680600  1
  Mn  Mn10  1  0.87974400  0.87974400  0.12319400  1
  Co  Co11  1  0.00000000  0.00000000  0.50000000  1
  Co  Co12  1  0.74953800  0.74953800  0.75125600  1
  Co  Co13  1  0.62514200  0.62514200  0.37328500  1
  Co  Co14  1  0.37485800  0.37485800  0.62671500  1
  Co  Co15  1  0.25046200  0.25046200  0.24874400  1
  O  O16  1  0.65433600  0.65433600  0.73579200  1
  O  O17  1  0.53038900  0.53038900  0.35334700  1
  O  O18  1  0.40212500  0.40212500  0.98601400  1
  O  O19  1  0.04016600  0.04016600  0.84387700  1
  O  O20  1  0.90485500  0.90485500  0.48333100  1
  O  O21  1  0.78442400  0.78442400  0.10546200  1
  O  O22  1  0.27987800  0.27987800  0.60501400  1
  O  O23  1  0.15684600  0.15684600  0.22661200  1
  O  O24  1  0.46961100  0.46961100  0.64665300  1
  O  O25  1  0.34566400  0.34566400  0.26420800  1
  O  O26  1  0.21557600  0.21557600  0.89453800  1
  O  O27  1  0.84315400  0.84315400  0.77338800  1
  O  O28  1  0.72012200  0.72012200  0.39498600  1
  O  O29  1  0.59787500  0.59787500  0.01398600  1
  O  O30  1  0.09514500  0.09514500  0.51666900  1
  O  O31  1  0.95983400  0.95983400  0.15612300  1
