# generated using pymatgen
data_Li3Cr3FeO8
_symmetry_space_group_name_H-M   'P 1'
_cell_length_a   5.91986756
_cell_length_b   8.40508480
_cell_length_c   5.94568790
_cell_angle_alpha   89.99992219
_cell_angle_beta   89.98265758
_cell_angle_gamma   90.35109240
_symmetry_Int_Tables_number   1
_chemical_formula_structural   Li3Cr3FeO8
_chemical_formula_sum   'Li6 Cr6 Fe2 O16'
_cell_volume   295.83395884
_cell_formula_units_Z   2
loop_
 _symmetry_equiv_pos_site_id
 _symmetry_equiv_pos_as_xyz
  1  'x, y, z'
loop_
 _atom_site_type_symbol
 _atom_site_label
 _atom_site_symmetry_multiplicity
 _atom_site_fract_x
 _atom_site_fract_y
 _atom_site_fract_z
 _atom_site_occupancy
  Li  Li0  1  0.50000800  0.00000000  0.99999000  1
  Li  Li1  1  0.00000900  0.49999800  0.49999100  1
  Li  Li2  1  0.74852000  0.75113900  0.74767800  1
  Li  Li3  1  0.25147800  0.24884600  0.25231700  1
  Li  Li4  1  0.74861300  0.75131200  0.25223400  1
  Li  Li5  1  0.25140100  0.24869000  0.74774700  1
  Cr  Cr6  1  0.25296500  0.75057400  0.74786900  1
  Cr  Cr7  1  0.74705200  0.24942100  0.25211100  1
  Cr  Cr8  1  0.25305500  0.75045200  0.25225300  1
  Cr  Cr9  1  0.74693200  0.24955400  0.74775200  1
  Cr  Cr10  1  0.49999700  0.50000200  0.99999900  1
  Cr  Cr11  1  0.99998500  0.99998800  0.50003900  1
  Fe  Fe12  1  0.49999600  0.00000200  0.50000000  1
  Fe  Fe13  1  0.00000000  0.50000300  0.99999500  1
  O  O14  1  0.51549800  0.25936100  0.00002800  1
  O  O15  1  0.01752500  0.75748000  0.50008500  1
  O  O16  1  0.48450400  0.74064900  0.99996400  1
  O  O17  1  0.98247100  0.24250100  0.49993000  1
  O  O18  1  0.98354500  0.27204800  0.99983500  1
  O  O19  1  0.48115400  0.75804800  0.50003000  1
  O  O20  1  0.75769000  0.49229900  0.22384800  1
  O  O21  1  0.25459500  0.99114900  0.72914200  1
  O  O22  1  0.75724000  0.49227400  0.77577900  1
  O  O23  1  0.25480000  0.99111000  0.27103800  1
  O  O24  1  0.24275300  0.50773600  0.22421000  1
  O  O25  1  0.74514800  0.00889400  0.72901100  1
  O  O26  1  0.24231100  0.50770200  0.77613700  1
  O  O27  1  0.74541200  0.00884200  0.27088200  1
  O  O28  1  0.01646200  0.72795900  0.00015000  1
  O  O29  1  0.51885500  0.24195600  0.49995200  1
