# generated using pymatgen
data_Li2CdIn
_symmetry_space_group_name_H-M   'P 1'
_cell_length_a   11.37259390
_cell_length_b   11.37259390
_cell_length_c   11.37259390
_cell_angle_alpha   120.30419369
_cell_angle_beta   119.10397735
_cell_angle_gamma   90.51642232
_symmetry_Int_Tables_number   1
_chemical_formula_structural   Li2CdIn
_chemical_formula_sum   'Li2 Cd1 In1'
_cell_volume   1044.53680735
_cell_formula_units_Z   1
loop_
 _symmetry_equiv_pos_site_id
 _symmetry_equiv_pos_as_xyz
  1  'x, y, z'
loop_
 _atom_site_type_symbol
 _atom_site_label
 _atom_site_symmetry_multiplicity
 _atom_site_fract_x
 _atom_site_fract_y
 _atom_site_fract_z
 _atom_site_occupancy
  Li  Li0  1  0.74854900  0.00000000  0.74854900  1
  Li  Li1  1  0.25145100  0.00000000  0.25145100  1
  Cd  Cd2  1  0.00000000  0.00000000  0.00000000  1
  In  In3  1  0.50000000  0.00000000  0.50000000  1
