# generated using pymatgen
data_Li2V2Cr(PO4)3
_symmetry_space_group_name_H-M   'P 1'
_cell_length_a   8.67976406
_cell_length_b   8.67976406
_cell_length_c   8.45217341
_cell_angle_alpha   63.20413696
_cell_angle_beta   63.20413696
_cell_angle_gamma   62.42015519
_symmetry_Int_Tables_number   1
_chemical_formula_structural   Li2V2Cr(PO4)3
_chemical_formula_sum   'Li4 V4 Cr2 P6 O24'
_cell_volume   479.64119724
_cell_formula_units_Z   2
loop_
 _symmetry_equiv_pos_site_id
 _symmetry_equiv_pos_as_xyz
  1  'x, y, z'
loop_
 _atom_site_type_symbol
 _atom_site_label
 _atom_site_symmetry_multiplicity
 _atom_site_fract_x
 _atom_site_fract_y
 _atom_site_fract_z
 _atom_site_occupancy
  Li  Li0  1  0.85831200  0.14168800  0.00000000  1
  Li  Li1  1  0.16035000  0.83965000  0.50000000  1
  Li  Li2  1  0.74607800  0.65538700  0.10331100  1
  Li  Li3  1  0.34461300  0.25392200  0.89668900  1
  V  V4  1  0.64456800  0.14478200  0.39601500  1
  V  V5  1  0.15103100  0.64882400  0.89852800  1
  V  V6  1  0.85521800  0.35543200  0.60398500  1
  V  V7  1  0.35117600  0.84896900  0.10147200  1
  Cr  Cr8  1  0.99594500  0.50542800  0.74546900  1
  Cr  Cr9  1  0.49457200  0.00405500  0.25453100  1
  P  P10  1  0.25271500  0.05637000  0.68385800  1
  P  P11  1  0.94363000  0.74728500  0.31614200  1
  P  P12  1  0.55889200  0.44110800  0.00000000  1
  P  P13  1  0.45988600  0.54011400  0.50000000  1
  P  P14  1  0.03813300  0.24922700  0.19474200  1
  P  P15  1  0.75077300  0.96186700  0.80525800  1
  O  O16  1  0.09959000  0.80237700  0.29187300  1
  O  O17  1  0.53483600  0.59625600  0.05738400  1
  O  O18  1  0.31095000  0.03156700  0.84256800  1
  O  O19  1  0.08825300  0.24272100  0.67377300  1
  O  O20  1  0.19762300  0.90041000  0.70812700  1
  O  O21  1  0.40747200  0.07978600  0.49140500  1
  O  O22  1  0.92021400  0.59252800  0.50859500  1
  O  O23  1  0.75727900  0.91174700  0.32622700  1
  O  O24  1  0.61147100  0.49850200  0.57337700  1
  O  O25  1  0.58833700  0.24533600  0.15061000  1
  O  O26  1  0.26732200  0.55936400  0.65221000  1
  O  O27  1  0.98073100  0.31920700  0.35481300  1
  O  O28  1  0.96843300  0.68905000  0.15743200  1
  O  O29  1  0.75466400  0.41166300  0.84939000  1
  O  O30  1  0.44063600  0.73267800  0.34779000  1
  O  O31  1  0.40374400  0.46516400  0.94261600  1
  O  O32  1  0.23203700  0.09890800  0.18310500  1
  O  O33  1  0.06372600  0.40354700  0.99838300  1
  O  O34  1  0.59645300  0.93627400  0.00161700  1
  O  O35  1  0.81723600  0.10728000  0.78639200  1
  O  O36  1  0.90109200  0.76796300  0.81689500  1
  O  O37  1  0.68079300  0.01926900  0.64518700  1
  O  O38  1  0.50149800  0.38852900  0.42662300  1
  O  O39  1  0.89272000  0.18276400  0.21360800  1
