# generated using pymatgen
data_Li3Cr2(GeO4)3
_symmetry_space_group_name_H-M   'P 1'
_cell_length_a   10.43739879
_cell_length_b   10.43739879
_cell_length_c   10.43739879
_cell_angle_alpha   109.47122063
_cell_angle_beta   109.47122063
_cell_angle_gamma   109.47122063
_symmetry_Int_Tables_number   1
_chemical_formula_structural   Li3Cr2(GeO4)3
_chemical_formula_sum   'Li12 Cr8 Ge12 O48'
_cell_volume   875.29599372
_cell_formula_units_Z   4
loop_
 _symmetry_equiv_pos_site_id
 _symmetry_equiv_pos_as_xyz
  1  'x, y, z'
loop_
 _atom_site_type_symbol
 _atom_site_label
 _atom_site_symmetry_multiplicity
 _atom_site_fract_x
 _atom_site_fract_y
 _atom_site_fract_z
 _atom_site_occupancy
  Li  Li0  1  0.75000000  0.62500000  0.87500000  1
  Li  Li1  1  0.25000000  0.87500000  0.62500000  1
  Li  Li2  1  0.62500000  0.25000000  0.87500000  1
  Li  Li3  1  0.87500000  0.75000000  0.62500000  1
  Li  Li4  1  0.87500000  0.62500000  0.25000000  1
  Li  Li5  1  0.62500000  0.87500000  0.75000000  1
  Li  Li6  1  0.25000000  0.37500000  0.12500000  1
  Li  Li7  1  0.75000000  0.12500000  0.37500000  1
  Li  Li8  1  0.37500000  0.75000000  0.12500000  1
  Li  Li9  1  0.12500000  0.25000000  0.37500000  1
  Li  Li10  1  0.12500000  0.37500000  0.75000000  1
  Li  Li11  1  0.37500000  0.12500000  0.25000000  1
  Cr  Cr12  1  0.50000000  0.00000000  0.50000000  1
  Cr  Cr13  1  0.00000000  0.50000000  0.00000000  1
  Cr  Cr14  1  0.50000000  0.50000000  0.50000000  1
  Cr  Cr15  1  0.00000000  0.00000000  0.50000000  1
  Cr  Cr16  1  0.00000000  0.00000000  0.00000000  1
  Cr  Cr17  1  0.00000000  0.50000000  0.50000000  1
  Cr  Cr18  1  0.50000000  0.50000000  0.00000000  1
  Cr  Cr19  1  0.50000000  0.00000000  0.00000000  1
  Ge  Ge20  1  0.37500000  0.62500000  0.75000000  1
  Ge  Ge21  1  0.62500000  0.37500000  0.25000000  1
  Ge  Ge22  1  0.62500000  0.75000000  0.37500000  1
  Ge  Ge23  1  0.25000000  0.12500000  0.87500000  1
  Ge  Ge24  1  0.87500000  0.25000000  0.12500000  1
  Ge  Ge25  1  0.75000000  0.37500000  0.62500000  1
  Ge  Ge26  1  0.25000000  0.62500000  0.37500000  1
  Ge  Ge27  1  0.75000000  0.87500000  0.12500000  1
  Ge  Ge28  1  0.12500000  0.75000000  0.87500000  1
  Ge  Ge29  1  0.37500000  0.25000000  0.62500000  1
  Ge  Ge30  1  0.87500000  0.12500000  0.75000000  1
  Ge  Ge31  1  0.12500000  0.87500000  0.25000000  1
  O  O32  1  0.51893200  0.40191900  0.82033500  1
  O  O33  1  0.82033500  0.51893200  0.40191900  1
  O  O34  1  0.80140200  0.88298700  0.98106800  1
  O  O35  1  0.41841500  0.09808100  0.61701300  1
  O  O36  1  0.88298700  0.40191900  0.08158500  1
  O  O37  1  0.67966500  0.08158500  0.69859800  1
  O  O38  1  0.82033500  0.80140200  0.41841500  1
  O  O39  1  0.40191900  0.82033500  0.51893200  1
  O  O40  1  0.61701300  0.69859800  0.51893200  1
  O  O41  1  0.41841500  0.82033500  0.80140200  1
  O  O42  1  0.40191900  0.08158500  0.88298700  1
  O  O43  1  0.09808100  0.98106800  0.67966500  1
  O  O44  1  0.98106800  0.67966500  0.09808100  1
  O  O45  1  0.80140200  0.41841500  0.82033500  1
  O  O46  1  0.51893200  0.61701300  0.69859800  1
  O  O47  1  0.69859800  0.51893200  0.61701300  1
  O  O48  1  0.08158500  0.88298700  0.40191900  1
  O  O49  1  0.98106800  0.80140200  0.88298700  1
  O  O50  1  0.08158500  0.69859800  0.67966500  1
  O  O51  1  0.38298700  0.30140200  0.48106800  1
  O  O52  1  0.61701300  0.41841500  0.09808100  1
  O  O53  1  0.09808100  0.61701300  0.41841500  1
  O  O54  1  0.69859800  0.67966500  0.08158500  1
  O  O55  1  0.67966500  0.09808100  0.98106800  1
  O  O56  1  0.48106800  0.59808100  0.17966500  1
  O  O57  1  0.17966500  0.48106800  0.59808100  1
  O  O58  1  0.19859800  0.11701300  0.01893200  1
  O  O59  1  0.58158500  0.90191900  0.38298700  1
  O  O60  1  0.11701300  0.59808100  0.91841500  1
  O  O61  1  0.32033500  0.91841500  0.30140200  1
  O  O62  1  0.17966500  0.19859800  0.58158500  1
  O  O63  1  0.59808100  0.17966500  0.48106800  1
  O  O64  1  0.32033500  0.90191900  0.01893200  1
  O  O65  1  0.30140200  0.32033500  0.91841500  1
  O  O66  1  0.90191900  0.38298700  0.58158500  1
  O  O67  1  0.11701300  0.01893200  0.19859800  1
  O  O68  1  0.38298700  0.58158500  0.90191900  1
  O  O69  1  0.91841500  0.30140200  0.32033500  1
  O  O70  1  0.01893200  0.19859800  0.11701300  1
  O  O71  1  0.91841500  0.11701300  0.59808100  1
  O  O72  1  0.30140200  0.48106800  0.38298700  1
  O  O73  1  0.48106800  0.38298700  0.30140200  1
  O  O74  1  0.19859800  0.58158500  0.17966500  1
  O  O75  1  0.01893200  0.32033500  0.90191900  1
  O  O76  1  0.90191900  0.01893200  0.32033500  1
  O  O77  1  0.59808100  0.91841500  0.11701300  1
  O  O78  1  0.58158500  0.17966500  0.19859800  1
  O  O79  1  0.88298700  0.98106800  0.80140200  1
