# generated using pymatgen
data_Li(CeGe)4
_symmetry_space_group_name_H-M   'P 1'
_cell_length_a   7.38649500
_cell_length_b   7.99648900
_cell_length_c   15.02967300
_cell_angle_alpha   90.00000000
_cell_angle_beta   90.00000000
_cell_angle_gamma   90.00000000
_symmetry_Int_Tables_number   1
_chemical_formula_structural   Li(CeGe)4
_chemical_formula_sum   'Li4 Ce16 Ge16'
_cell_volume   887.74305643
_cell_formula_units_Z   4
loop_
 _symmetry_equiv_pos_site_id
 _symmetry_equiv_pos_as_xyz
  1  'x, y, z'
loop_
 _atom_site_type_symbol
 _atom_site_label
 _atom_site_symmetry_multiplicity
 _atom_site_fract_x
 _atom_site_fract_y
 _atom_site_fract_z
 _atom_site_occupancy
  Li  Li0  1  0.65761200  0.97054700  0.75000000  1
  Li  Li1  1  0.15761200  0.52945300  0.75000000  1
  Li  Li2  1  0.34238800  0.02945300  0.25000000  1
  Li  Li3  1  0.84238800  0.47054700  0.25000000  1
  Ce  Ce4  1  0.51988100  0.31402100  0.09749800  1
  Ce  Ce5  1  0.01988100  0.18597900  0.40250200  1
  Ce  Ce6  1  0.48011900  0.68597900  0.59749800  1
  Ce  Ce7  1  0.98011900  0.81402100  0.90250200  1
  Ce  Ce8  1  0.48011900  0.68597900  0.90250200  1
  Ce  Ce9  1  0.98011900  0.81402100  0.59749800  1
  Ce  Ce10  1  0.51988100  0.31402100  0.40250200  1
  Ce  Ce11  1  0.01988100  0.18597900  0.09749800  1
  Ce  Ce12  1  0.82487900  0.31973300  0.62810800  1
  Ce  Ce13  1  0.32487900  0.18026700  0.87189200  1
  Ce  Ce14  1  0.17512100  0.68026700  0.12810800  1
  Ce  Ce15  1  0.67512100  0.81973300  0.37189200  1
  Ce  Ce16  1  0.17512100  0.68026700  0.37189200  1
  Ce  Ce17  1  0.67512100  0.81973300  0.12810800  1
  Ce  Ce18  1  0.82487900  0.31973300  0.87189200  1
  Ce  Ce19  1  0.32487900  0.18026700  0.62810800  1
  Ge  Ge20  1  0.66211700  0.03076700  0.53581500  1
  Ge  Ge21  1  0.16211700  0.46923300  0.96418500  1
  Ge  Ge22  1  0.33788300  0.96923300  0.03581500  1
  Ge  Ge23  1  0.83788300  0.53076700  0.46418500  1
  Ge  Ge24  1  0.33788300  0.96923300  0.46418500  1
  Ge  Ge25  1  0.83788300  0.53076700  0.03581500  1
  Ge  Ge26  1  0.66211700  0.03076700  0.96418500  1
  Ge  Ge27  1  0.16211700  0.46923300  0.53581500  1
  Ge  Ge28  1  0.51246400  0.42215600  0.75000000  1
  Ge  Ge29  1  0.01246400  0.07784400  0.75000000  1
  Ge  Ge30  1  0.48753600  0.57784400  0.25000000  1
  Ge  Ge31  1  0.98753600  0.92215600  0.25000000  1
  Ge  Ge32  1  0.77553500  0.63557400  0.75000000  1
  Ge  Ge33  1  0.27553500  0.86442600  0.75000000  1
  Ge  Ge34  1  0.22446500  0.36442600  0.25000000  1
  Ge  Ge35  1  0.72446500  0.13557400  0.25000000  1
