# generated using pymatgen
data_Li2MnOF3
_symmetry_space_group_name_H-M   'P 1'
_cell_length_a   5.31736201
_cell_length_b   6.12435920
_cell_length_c   10.59741893
_cell_angle_alpha   99.93659203
_cell_angle_beta   101.28606344
_cell_angle_gamma   110.00404193
_symmetry_Int_Tables_number   1
_chemical_formula_structural   Li2MnOF3
_chemical_formula_sum   'Li8 Mn4 O4 F12'
_cell_volume   307.08815174
_cell_formula_units_Z   4
loop_
 _symmetry_equiv_pos_site_id
 _symmetry_equiv_pos_as_xyz
  1  'x, y, z'
loop_
 _atom_site_type_symbol
 _atom_site_label
 _atom_site_symmetry_multiplicity
 _atom_site_fract_x
 _atom_site_fract_y
 _atom_site_fract_z
 _atom_site_occupancy
  Li  Li0  1  0.25017400  0.37497800  0.25005900  1
  Li  Li1  1  0.24982700  0.87501800  0.24993800  1
  Li  Li2  1  0.74999500  0.62499900  0.74999700  1
  Li  Li3  1  0.74999300  0.12499900  0.74999600  1
  Li  Li4  1  0.31770900  0.80182000  0.86235900  1
  Li  Li5  1  0.31769800  0.30177900  0.86235400  1
  Li  Li6  1  0.18228500  0.44817800  0.63763900  1
  Li  Li7  1  0.18229200  0.94822200  0.63764500  1
  Mn  Mn8  1  0.85961800  0.55285900  0.37581000  1
  Mn  Mn9  1  0.64037400  0.69714100  0.12419100  1
  Mn  Mn10  1  0.85987200  0.05289100  0.37583500  1
  Mn  Mn11  1  0.64014200  0.19710000  0.12417000  1
  O  O12  1  0.92020500  0.51668300  0.20087100  1
  O  O13  1  0.91980900  0.01645000  0.20080100  1
  O  O14  1  0.58020400  0.23355400  0.29920100  1
  O  O15  1  0.57980600  0.73332500  0.29913200  1
  F  F16  1  0.44569300  0.78977100  0.70133500  1
  F  F17  1  0.44569800  0.28980200  0.70133600  1
  F  F18  1  0.05429500  0.46022400  0.79865800  1
  F  F19  1  0.05429900  0.96020000  0.79866300  1
  F  F20  1  0.86079300  0.59304000  0.55690500  1
  F  F21  1  0.86057400  0.09295000  0.55682000  1
  F  F22  1  0.63920000  0.65695900  0.94309600  1
  F  F23  1  0.63942900  0.15704800  0.94318100  1
  F  F24  1  0.34115000  0.37428100  0.07201100  1
  F  F25  1  0.34133400  0.87453000  0.07201400  1
  F  F26  1  0.15867700  0.37547600  0.42798900  1
  F  F27  1  0.15885600  0.87572400  0.42799400  1
