# generated using pymatgen
data_Li2SeO4
_symmetry_space_group_name_H-M   'P 1'
_cell_length_a   8.58722806
_cell_length_b   8.58722806
_cell_length_c   8.58722728
_cell_angle_alpha   100.85301685
_cell_angle_beta   100.85301685
_cell_angle_gamma   100.85302324
_symmetry_Int_Tables_number   1
_chemical_formula_structural   Li2SeO4
_chemical_formula_sum   'Li12 Se6 O24'
_cell_volume   594.11660923
_cell_formula_units_Z   6
loop_
 _symmetry_equiv_pos_site_id
 _symmetry_equiv_pos_as_xyz
  1  'x, y, z'
loop_
 _atom_site_type_symbol
 _atom_site_label
 _atom_site_symmetry_multiplicity
 _atom_site_fract_x
 _atom_site_fract_y
 _atom_site_fract_z
 _atom_site_occupancy
  Li  Li0  1  0.54219900  0.80942400  0.42420000  1
  Li  Li1  1  0.45780100  0.19057600  0.57580000  1
  Li  Li2  1  0.10682500  0.68208000  0.87801000  1
  Li  Li3  1  0.42420000  0.54219900  0.80942400  1
  Li  Li4  1  0.80942400  0.42420000  0.54219900  1
  Li  Li5  1  0.57580000  0.45780100  0.19057600  1
  Li  Li6  1  0.68208000  0.87801000  0.10682500  1
  Li  Li7  1  0.87801000  0.10682500  0.68208000  1
  Li  Li8  1  0.19057600  0.57580000  0.45780100  1
  Li  Li9  1  0.89317500  0.31792000  0.12199000  1
  Li  Li10  1  0.31792000  0.12199000  0.89317500  1
  Li  Li11  1  0.12199000  0.89317500  0.31792000  1
  Se  Se12  1  0.13631700  0.24790300  0.58029000  1
  Se  Se13  1  0.86368300  0.75209700  0.41971000  1
  Se  Se14  1  0.75209700  0.41971000  0.86368300  1
  Se  Se15  1  0.41971000  0.86368300  0.75209700  1
  Se  Se16  1  0.24790300  0.58029000  0.13631700  1
  Se  Se17  1  0.58029000  0.13631700  0.24790300  1
  O  O18  1  0.39085300  0.75375000  0.56064400  1
  O  O19  1  0.56064400  0.39085300  0.75375000  1
  O  O20  1  0.12878400  0.45060900  0.21377000  1
  O  O21  1  0.17550900  0.74850500  0.14275100  1
  O  O22  1  0.60914700  0.24625000  0.43935600  1
  O  O23  1  0.93996400  0.24559600  0.51519900  1
  O  O24  1  0.75375000  0.56064400  0.39085300  1
  O  O25  1  0.45060900  0.21377000  0.12878400  1
  O  O26  1  0.25149500  0.85724900  0.82449100  1
  O  O27  1  0.24559600  0.51519900  0.93996400  1
  O  O28  1  0.54939100  0.78623000  0.87121600  1
  O  O29  1  0.85724900  0.82449100  0.25149500  1
  O  O30  1  0.43935600  0.60914700  0.24625000  1
  O  O31  1  0.24625000  0.43935600  0.60914700  1
  O  O32  1  0.48480100  0.06003600  0.75440400  1
  O  O33  1  0.21377000  0.12878400  0.45060900  1
  O  O34  1  0.78623000  0.87121600  0.54939100  1
  O  O35  1  0.51519900  0.93996400  0.24559600  1
  O  O36  1  0.06003600  0.75440400  0.48480100  1
  O  O37  1  0.75440400  0.48480100  0.06003600  1
  O  O38  1  0.82449100  0.25149500  0.85724900  1
  O  O39  1  0.87121600  0.54939100  0.78623000  1
  O  O40  1  0.14275100  0.17550900  0.74850500  1
  O  O41  1  0.74850500  0.14275100  0.17550900  1
