# generated using pymatgen
data_NaLi3Ga4(SiO3)8
_symmetry_space_group_name_H-M   'P 1'
_cell_length_a   7.30960016
_cell_length_b   7.30960016
_cell_length_c   9.70942721
_cell_angle_alpha   65.38042870
_cell_angle_beta   65.38042870
_cell_angle_gamma   73.06281449
_symmetry_Int_Tables_number   1
_chemical_formula_structural   NaLi3Ga4(SiO3)8
_chemical_formula_sum   'Na1 Li3 Ga4 Si8 O24'
_cell_volume   424.36842112
_cell_formula_units_Z   1
loop_
 _symmetry_equiv_pos_site_id
 _symmetry_equiv_pos_as_xyz
  1  'x, y, z'
loop_
 _atom_site_type_symbol
 _atom_site_label
 _atom_site_symmetry_multiplicity
 _atom_site_fract_x
 _atom_site_fract_y
 _atom_site_fract_z
 _atom_site_occupancy
  Na  Na0  1  0.41830300  0.58169700  0.50000000  1
  Li  Li1  1  0.89629700  0.10370300  0.00000000  1
  Li  Li2  1  0.10339000  0.39627600  0.25035700  1
  Li  Li3  1  0.60372400  0.89661000  0.74964300  1
  Ga  Ga4  1  0.02440600  0.97559400  0.50000000  1
  Ga  Ga5  1  0.52450300  0.47549700  0.00000000  1
  Ga  Ga6  1  0.47441200  0.02679600  0.24922600  1
  Ga  Ga7  1  0.97320400  0.52558800  0.75077400  1
  Si  Si8  1  0.71520400  0.28170400  0.70772200  1
  Si  Si9  1  0.21350100  0.78356700  0.20515300  1
  Si  Si10  1  0.71829600  0.28479600  0.29227800  1
  Si  Si11  1  0.21643300  0.78649900  0.79484700  1
  Si  Si12  1  0.78560900  0.71859700  0.04353200  1
  Si  Si13  1  0.28385100  0.21528300  0.54352500  1
  Si  Si14  1  0.78471700  0.71614900  0.45647500  1
  Si  Si15  1  0.28140300  0.21439100  0.95646800  1
  O  O16  1  0.76228700  0.34290800  0.83508500  1
  O  O17  1  0.25987400  0.85232600  0.32871300  1
  O  O18  1  0.65709200  0.23771300  0.16491500  1
  O  O19  1  0.14767400  0.74012600  0.67128700  1
  O  O20  1  0.73527100  0.65720700  0.91757400  1
  O  O21  1  0.23597500  0.15557100  0.41608800  1
  O  O22  1  0.84442900  0.76402500  0.58391200  1
  O  O23  1  0.34279300  0.26472900  0.08242600  1
  O  O24  1  0.84642900  0.07805900  0.67163400  1
  O  O25  1  0.34827500  0.57880500  0.17164200  1
  O  O26  1  0.92194100  0.15357100  0.32836600  1
  O  O27  1  0.42119500  0.65172500  0.82835800  1
  O  O28  1  0.65133900  0.92210300  0.07911000  1
  O  O29  1  0.14114600  0.41396300  0.58192900  1
  O  O30  1  0.58603700  0.85885400  0.41807100  1
  O  O31  1  0.07789700  0.34866100  0.92089000  1
  O  O32  1  0.73572900  0.47924100  0.54054300  1
  O  O33  1  0.23115300  0.97874100  0.03747500  1
  O  O34  1  0.52075900  0.26427100  0.45945700  1
  O  O35  1  0.02125900  0.76884700  0.96252500  1
  O  O36  1  0.76633300  0.52179400  0.21074800  1
  O  O37  1  0.27014800  0.02049600  0.71031700  1
  O  O38  1  0.97950400  0.72985200  0.28968300  1
  O  O39  1  0.47820600  0.23366700  0.78925200  1
