# generated using pymatgen
data_Li5Cr(SiO3)4
_symmetry_space_group_name_H-M   'P 1'
_cell_length_a   12.77505357
_cell_length_b   12.77505357
_cell_length_c   12.77505418
_cell_angle_alpha   111.02703240
_cell_angle_beta   111.02703240
_cell_angle_gamma   111.02703437
_symmetry_Int_Tables_number   1
_chemical_formula_structural   Li5Cr(SiO3)4
_chemical_formula_sum   'Li30 Cr6 Si24 O72'
_cell_volume   1505.44840681
_cell_formula_units_Z   6
loop_
 _symmetry_equiv_pos_site_id
 _symmetry_equiv_pos_as_xyz
  1  'x, y, z'
loop_
 _atom_site_type_symbol
 _atom_site_label
 _atom_site_symmetry_multiplicity
 _atom_site_fract_x
 _atom_site_fract_y
 _atom_site_fract_z
 _atom_site_occupancy
  Li  Li0  1  0.81674500  0.01923300  0.82955000  1
  Li  Li1  1  0.98076700  0.18325500  0.17045000  1
  Li  Li2  1  0.66543200  0.18091700  0.23263900  1
  Li  Li3  1  0.81908300  0.33456800  0.76736100  1
  Li  Li4  1  0.57949400  0.18422300  0.72336100  1
  Li  Li5  1  0.81577700  0.42050600  0.27663900  1
  Li  Li6  1  0.63854900  0.47084300  0.62793500  1
  Li  Li7  1  0.52915700  0.36145100  0.37206500  1
  Li  Li8  1  0.42050600  0.27663900  0.81577700  1
  Li  Li9  1  0.72336100  0.57949400  0.18422300  1
  Li  Li10  1  0.76618100  0.76618100  0.76618100  1
  Li  Li11  1  0.00000000  0.00000000  0.00000000  1
  Li  Li12  1  0.23381900  0.23381900  0.23381900  1
  Li  Li13  1  0.18325500  0.17045000  0.98076700  1
  Li  Li14  1  0.82955000  0.81674500  0.01923300  1
  Li  Li15  1  0.36145100  0.37206500  0.52915700  1
  Li  Li16  1  0.62793500  0.63854900  0.47084300  1
  Li  Li17  1  0.76736100  0.81908300  0.33456800  1
  Li  Li18  1  0.18091700  0.23263900  0.66543200  1
  Li  Li19  1  0.37206500  0.52915700  0.36145100  1
  Li  Li20  1  0.47084300  0.62793500  0.63854900  1
  Li  Li21  1  0.70544600  0.00000000  0.29455400  1
  Li  Li22  1  0.00000000  0.29455400  0.70544600  1
  Li  Li23  1  0.29455400  0.70544600  0.00000000  1
  Li  Li24  1  0.33456800  0.76736100  0.81908300  1
  Li  Li25  1  0.23263900  0.66543200  0.18091700  1
  Li  Li26  1  0.18422300  0.72336100  0.57949400  1
  Li  Li27  1  0.27663900  0.81577700  0.42050600  1
  Li  Li28  1  0.01923300  0.82955000  0.81674500  1
  Li  Li29  1  0.17045000  0.98076700  0.18325500  1
  Cr  Cr30  1  0.75794400  0.24205600  0.00000000  1
  Cr  Cr31  1  0.74538900  0.25461100  0.50000000  1
  Cr  Cr32  1  0.24205600  0.00000000  0.75794400  1
  Cr  Cr33  1  0.50000000  0.74538900  0.25461100  1
  Cr  Cr34  1  0.25461100  0.50000000  0.74538900  1
  Cr  Cr35  1  0.00000000  0.75794400  0.24205600  1
  Si  Si36  1  0.75596800  0.02288800  0.56530900  1
  Si  Si37  1  0.97711200  0.24403200  0.43469100  1
  Si  Si38  1  0.46656300  0.19394100  0.47853000  1
  Si  Si39  1  0.80605900  0.53343700  0.52147000  1
  Si  Si40  1  0.97289700  0.70038000  0.96166200  1
  Si  Si41  1  0.29962000  0.02710300  0.03833800  1
  Si  Si42  1  0.74912600  0.47996300  0.93902100  1
  Si  Si43  1  0.52003700  0.25087400  0.06097900  1
  Si  Si44  1  0.93902100  0.74912600  0.47996300  1
  Si  Si45  1  0.25087400  0.06097900  0.52003700  1
  Si  Si46  1  0.47853000  0.46656300  0.19394100  1
  Si  Si47  1  0.53343700  0.52147000  0.80605900  1
  Si  Si48  1  0.96166200  0.97289700  0.70038000  1
  Si  Si49  1  0.02710300  0.03833800  0.29962000  1
  Si  Si50  1  0.24403200  0.43469100  0.97711200  1
  Si  Si51  1  0.56530900  0.75596800  0.02288800  1
  Si  Si52  1  0.03833800  0.29962000  0.02710300  1
  Si  Si53  1  0.70038000  0.96166200  0.97289700  1
  Si  Si54  1  0.52147000  0.80605900  0.53343700  1
  Si  Si55  1  0.19394100  0.47853000  0.46656300  1
  Si  Si56  1  0.06097900  0.52003700  0.25087400  1
  Si  Si57  1  0.47996300  0.93902100  0.74912600  1
  Si  Si58  1  0.02288800  0.56530900  0.75596800  1
  Si  Si59  1  0.43469100  0.97711200  0.24403200  1
  O  O60  1  0.91085400  0.06400000  0.66017400  1
  O  O61  1  0.93600000  0.08914600  0.33982600  1
  O  O62  1  0.87484300  0.21837300  0.93538500  1
  O  O63  1  0.78162700  0.12515700  0.06461500  1
  O  O64  1  0.83392300  0.22155300  0.40118000  1
  O  O65  1  0.77844700  0.16607700  0.59882000  1
  O  O66  1  0.59255200  0.08519500  0.31077500  1
  O  O67  1  0.91480500  0.40744800  0.68922500  1
  O  O68  1  0.90548900  0.41204600  0.18576200  1
  O  O69  1  0.58795400  0.09451100  0.81423800  1
  O  O70  1  0.65795100  0.25657800  0.10098300  1
  O  O71  1  0.74342200  0.34204900  0.89901700  1
  O  O72  1  0.63063000  0.27159200  0.57402000  1
  O  O73  1  0.72840800  0.36937000  0.42598000  1
  O  O74  1  0.95405800  0.61699600  0.66712800  1
  O  O75  1  0.38300400  0.04594200  0.33287200  1
  O  O76  1  0.44963000  0.17037900  0.11835600  1
  O  O77  1  0.82962100  0.55037000  0.88164400  1
  O  O78  1  0.41271600  0.15244900  0.56883500  1
  O  O79  1  0.84755100  0.58728400  0.43116500  1
  O  O80  1  0.41204600  0.18576200  0.90548900  1
  O  O81  1  0.81423800  0.58795400  0.09451100  1
  O  O82  1  0.89901700  0.74342200  0.34204900  1
  O  O83  1  0.25657800  0.10098300  0.65795100  1
  O  O84  1  0.56883500  0.41271600  0.15244900  1
  O  O85  1  0.58728400  0.43116500  0.84755100  1
  O  O86  1  0.93216900  0.78870600  0.91346900  1
  O  O87  1  0.21129400  0.06783100  0.08653100  1
  O  O88  1  0.43111800  0.29115200  0.44463100  1
  O  O89  1  0.70884800  0.56888200  0.55536900  1
  O  O90  1  0.17037900  0.11835600  0.44963000  1
  O  O91  1  0.88164400  0.82962100  0.55037000  1
  O  O92  1  0.12515700  0.06461500  0.78162700  1
  O  O93  1  0.93538500  0.87484300  0.21837300  1
  O  O94  1  0.44463100  0.43111800  0.29115200  1
  O  O95  1  0.56888200  0.55536900  0.70884800  1
  O  O96  1  0.91346900  0.93216900  0.78870600  1
  O  O97  1  0.06783100  0.08653100  0.21129400  1
  O  O98  1  0.57402000  0.63063000  0.27159200  1
  O  O99  1  0.36937000  0.42598000  0.72840800  1
  O  O100  1  0.61699600  0.66712800  0.95405800  1
  O  O101  1  0.33287200  0.38300400  0.04594200  1
  O  O102  1  0.08653100  0.21129400  0.06783100  1
  O  O103  1  0.78870600  0.91346900  0.93216900  1
  O  O104  1  0.55536900  0.70884800  0.56888200  1
  O  O105  1  0.29115200  0.44463100  0.43111800  1
  O  O106  1  0.22155300  0.40118000  0.83392300  1
  O  O107  1  0.59882000  0.77844700  0.16607700  1
  O  O108  1  0.68922500  0.91480500  0.40744800  1
  O  O109  1  0.08519500  0.31077500  0.59255200  1
  O  O110  1  0.08914600  0.33982600  0.93600000  1
  O  O111  1  0.66017400  0.91085400  0.06400000  1
  O  O112  1  0.40744800  0.68922500  0.91480500  1
  O  O113  1  0.31077500  0.59255200  0.08519500  1
  O  O114  1  0.66712800  0.95405800  0.61699600  1
  O  O115  1  0.04594200  0.33287200  0.38300400  1
  O  O116  1  0.42598000  0.72840800  0.36937000  1
  O  O117  1  0.27159200  0.57402000  0.63063000  1
  O  O118  1  0.11835600  0.44963000  0.17037900  1
  O  O119  1  0.55037000  0.88164400  0.82962100  1
  O  O120  1  0.43116500  0.84755100  0.58728400  1
  O  O121  1  0.15244900  0.56883500  0.41271600  1
  O  O122  1  0.16607700  0.59882000  0.77844700  1
  O  O123  1  0.40118000  0.83392300  0.22155300  1
  O  O124  1  0.34204900  0.89901700  0.74342200  1
  O  O125  1  0.10098300  0.65795100  0.25657800  1
  O  O126  1  0.06400000  0.66017400  0.91085400  1
  O  O127  1  0.33982600  0.93600000  0.08914600  1
  O  O128  1  0.06461500  0.78162700  0.12515700  1
  O  O129  1  0.21837300  0.93538500  0.87484300  1
  O  O130  1  0.09451100  0.81423800  0.58795400  1
  O  O131  1  0.18576200  0.90548900  0.41204600  1
