# generated using pymatgen
data_LiFe2(PO3)5
_symmetry_space_group_name_H-M   'P 1'
_cell_length_a   7.29070514
_cell_length_b   7.29070514
_cell_length_c   13.21028905
_cell_angle_alpha   85.75316697
_cell_angle_beta   85.75316697
_cell_angle_gamma   116.04697889
_symmetry_Int_Tables_number   1
_chemical_formula_structural   LiFe2(PO3)5
_chemical_formula_sum   'Li2 Fe4 P10 O30'
_cell_volume   624.66835985
_cell_formula_units_Z   2
loop_
 _symmetry_equiv_pos_site_id
 _symmetry_equiv_pos_as_xyz
  1  'x, y, z'
loop_
 _atom_site_type_symbol
 _atom_site_label
 _atom_site_symmetry_multiplicity
 _atom_site_fract_x
 _atom_site_fract_y
 _atom_site_fract_z
 _atom_site_occupancy
  Li  Li0  1  0.11999000  0.95216700  0.78824800  1
  Li  Li1  1  0.95216700  0.11999000  0.28824800  1
  Fe  Fe2  1  0.78907500  0.30916600  0.74446800  1
  Fe  Fe3  1  0.30916600  0.78907500  0.24446800  1
  Fe  Fe4  1  0.21587000  0.27410200  0.60461900  1
  Fe  Fe5  1  0.27410200  0.21587000  0.10461900  1
  P  P6  1  0.35197400  0.97531400  0.51001200  1
  P  P7  1  0.69274000  0.59986300  0.55838500  1
  P  P8  1  0.62493000  0.84439300  0.83868100  1
  P  P9  1  0.97531400  0.35197400  0.01001200  1
  P  P10  1  0.59986300  0.69274000  0.05838500  1
  P  P11  1  0.84439300  0.62493000  0.33868100  1
  P  P12  1  0.80373500  0.07029300  0.52796600  1
  P  P13  1  0.07029300  0.80373500  0.02796600  1
  P  P14  1  0.22988700  0.44902800  0.81097600  1
  P  P15  1  0.44902800  0.22988700  0.31097600  1
  O  O16  1  0.82767200  0.84977600  0.81182600  1
  O  O17  1  0.84977600  0.82767200  0.31182600  1
  O  O18  1  0.75141200  0.51846600  0.65135300  1
  O  O19  1  0.51846600  0.75141200  0.15135300  1
  O  O20  1  0.77752800  0.84210600  0.55651000  1
  O  O21  1  0.84210600  0.77752800  0.05651000  1
  O  O22  1  0.56561900  0.81544400  0.96139000  1
  O  O23  1  0.81544400  0.56561900  0.46139000  1
  O  O24  1  0.58472200  0.02027100  0.79586300  1
  O  O25  1  0.02027100  0.58472200  0.29586300  1
  O  O26  1  0.78863000  0.29216200  0.95763400  1
  O  O27  1  0.29216200  0.78863000  0.45763400  1
  O  O28  1  0.16126800  0.91333700  0.92490400  1
  O  O29  1  0.46825200  0.51257500  0.54479000  1
  O  O30  1  0.91333700  0.16126800  0.42490400  1
  O  O31  1  0.45156100  0.63583300  0.80387200  1
  O  O32  1  0.51257500  0.46825200  0.04479000  1
  O  O33  1  0.63583300  0.45156100  0.30387200  1
  O  O34  1  0.91110800  0.18915800  0.61537400  1
  O  O35  1  0.18915800  0.91110800  0.11537400  1
  O  O36  1  0.58107800  0.05798200  0.54522400  1
  O  O37  1  0.05798200  0.58107800  0.04522400  1
  O  O38  1  0.07926400  0.51783200  0.76996500  1
  O  O39  1  0.51783200  0.07926400  0.26996500  1
  O  O40  1  0.17172100  0.37558300  0.93098700  1
  O  O41  1  0.37558300  0.17172100  0.43098700  1
  O  O42  1  0.25082200  0.27817700  0.76000100  1
  O  O43  1  0.27817700  0.25082200  0.26000100  1
  O  O44  1  0.22841700  0.99447600  0.60275200  1
  O  O45  1  0.99447600  0.22841700  0.10275200  1
