# generated using pymatgen
data_Li5Mn2CoO8
_symmetry_space_group_name_H-M   'P 1'
_cell_length_a   2.89724310
_cell_length_b   9.77655575
_cell_length_c   10.17201841
_cell_angle_alpha   79.31287341
_cell_angle_beta   90.09618547
_cell_angle_gamma   90.85800988
_symmetry_Int_Tables_number   1
_chemical_formula_structural   Li5Mn2CoO8
_chemical_formula_sum   'Li10 Mn4 Co2 O16'
_cell_volume   283.09345481
_cell_formula_units_Z   2
loop_
 _symmetry_equiv_pos_site_id
 _symmetry_equiv_pos_as_xyz
  1  'x, y, z'
loop_
 _atom_site_type_symbol
 _atom_site_label
 _atom_site_symmetry_multiplicity
 _atom_site_fract_x
 _atom_site_fract_y
 _atom_site_fract_z
 _atom_site_occupancy
  Li  Li0  1  0.00000100  0.24999900  0.12499800  1
  Li  Li1  1  0.00000200  0.25000100  0.62500300  1
  Li  Li2  1  0.99965000  0.75007700  0.37475800  1
  Li  Li3  1  0.00035300  0.74992200  0.87523900  1
  Li  Li4  1  0.50003000  0.24984100  0.37487700  1
  Li  Li5  1  0.49997100  0.25015900  0.87511800  1
  Li  Li6  1  0.50632900  0.49089300  0.49997300  1
  Li  Li7  1  0.50710600  0.49080400  0.99958400  1
  Li  Li8  1  0.49289300  0.00919000  0.25041600  1
  Li  Li9  1  0.49367300  0.00910500  0.75002700  1
  Mn  Mn10  1  0.99160900  0.00835500  0.49145200  1
  Mn  Mn11  1  0.99061800  0.00827800  0.99109000  1
  Mn  Mn12  1  0.00939800  0.49172200  0.25890500  1
  Mn  Mn13  1  0.00837700  0.49164900  0.75855900  1
  Co  Co14  1  0.49999000  0.74999800  0.62499600  1
  Co  Co15  1  0.50001100  0.75000000  0.12499800  1
  O  O16  1  0.49482500  0.10972400  0.05498400  1
  O  O17  1  0.49476300  0.11022600  0.55513900  1
  O  O18  1  0.50518200  0.39027500  0.19501100  1
  O  O19  1  0.50522200  0.38978500  0.69487100  1
  O  O20  1  0.00299600  0.38609700  0.42534200  1
  O  O21  1  0.00375000  0.38541200  0.92519700  1
  O  O22  1  0.99624200  0.11458200  0.32481100  1
  O  O23  1  0.99701000  0.11390500  0.82465400  1
  O  O24  1  0.51458400  0.61405100  0.30591200  1
  O  O25  1  0.51607600  0.61383900  0.80561100  1
  O  O26  1  0.48391000  0.88616500  0.44439600  1
  O  O27  1  0.48542500  0.88595100  0.94408200  1
  O  O28  1  0.97350400  0.87103800  0.17466500  1
  O  O29  1  0.97512400  0.87141300  0.67397800  1
  O  O30  1  0.02651200  0.62896400  0.07532900  1
  O  O31  1  0.02486400  0.62858200  0.57602400  1
