# generated using pymatgen
data_Li2MnCo3O8
_symmetry_space_group_name_H-M   'P 1'
_cell_length_a   5.74903785
_cell_length_b   5.73527298
_cell_length_c   10.28710670
_cell_angle_alpha   104.60606144
_cell_angle_beta   75.24561182
_cell_angle_gamma   118.71404976
_symmetry_Int_Tables_number   1
_chemical_formula_structural   Li2MnCo3O8
_chemical_formula_sum   'Li4 Mn2 Co6 O16'
_cell_volume   284.28010197
_cell_formula_units_Z   2
loop_
 _symmetry_equiv_pos_site_id
 _symmetry_equiv_pos_as_xyz
  1  'x, y, z'
loop_
 _atom_site_type_symbol
 _atom_site_label
 _atom_site_symmetry_multiplicity
 _atom_site_fract_x
 _atom_site_fract_y
 _atom_site_fract_z
 _atom_site_occupancy
  Li  Li0  1  0.25715100  0.75552300  0.25190400  1
  Li  Li1  1  0.74291500  0.24452500  0.74806900  1
  Li  Li2  1  0.74590600  0.24264500  0.25095000  1
  Li  Li3  1  0.25413200  0.75740200  0.74905200  1
  Mn  Mn4  1  0.49990200  0.50005400  0.50013900  1
  Mn  Mn5  1  0.99997800  0.99990300  0.99997900  1
  Co  Co6  1  0.49997300  0.49997200  0.00000400  1
  Co  Co7  1  0.00003400  0.00003800  0.49998500  1
  Co  Co8  1  0.49989500  0.99998700  0.00001600  1
  Co  Co9  1  0.00006700  0.49993000  0.50001800  1
  Co  Co10  1  0.99999900  0.50006100  0.00000400  1
  Co  Co11  1  0.50009900  0.00003600  0.50004000  1
  O  O12  1  0.64912000  0.35073100  0.09790500  1
  O  O13  1  0.14544700  0.87235600  0.60134800  1
  O  O14  1  0.85467600  0.12764100  0.39860000  1
  O  O15  1  0.35088200  0.64924900  0.90208500  1
  O  O16  1  0.37345600  0.64539000  0.39763500  1
  O  O17  1  0.86149700  0.13878300  0.89822700  1
  O  O18  1  0.13842300  0.86118500  0.10169100  1
  O  O19  1  0.62662600  0.35459600  0.60237200  1
  O  O20  1  0.86068900  0.61060500  0.39303900  1
  O  O21  1  0.35985700  0.11047700  0.89420600  1
  O  O22  1  0.38152900  0.14270200  0.39300200  1
  O  O23  1  0.89112300  0.64115200  0.89396800  1
  O  O24  1  0.10878400  0.35877800  0.10604600  1
  O  O25  1  0.61855400  0.85733700  0.60700000  1
  O  O26  1  0.64001800  0.88951500  0.10581400  1
  O  O27  1  0.13926800  0.38942700  0.60690200  1
