# generated using pymatgen
data_Li9Mn2Co5O16
_symmetry_space_group_name_H-M   'P 1'
_cell_length_a   5.17697510
_cell_length_b   10.27689286
_cell_length_c   5.88875292
_cell_angle_alpha   104.20076950
_cell_angle_beta   70.82023015
_cell_angle_gamma   84.70416564
_symmetry_Int_Tables_number   1
_chemical_formula_structural   Li9Mn2Co5O16
_chemical_formula_sum   'Li9 Mn2 Co5 O16'
_cell_volume   281.70710856
_cell_formula_units_Z   1
loop_
 _symmetry_equiv_pos_site_id
 _symmetry_equiv_pos_as_xyz
  1  'x, y, z'
loop_
 _atom_site_type_symbol
 _atom_site_label
 _atom_site_symmetry_multiplicity
 _atom_site_fract_x
 _atom_site_fract_y
 _atom_site_fract_z
 _atom_site_occupancy
  Li  Li0  1  0.50045174  0.12613783  0.93525903  1
  Li  Li1  1  0.49954826  0.37386217  0.31474097  1
  Li  Li2  1  0.49431394  0.63110005  0.70008715  1
  Li  Li3  1  0.49979784  0.86945984  0.06452128  1
  Li  Li4  1  0.50165521  0.12362422  0.44109829  1
  Li  Li5  1  0.49834479  0.37637578  0.80890171  1
  Li  Li6  1  0.50020216  0.63054016  0.18547872  1
  Li  Li7  1  0.50568606  0.86889995  0.54991285  1
  Li  Li8  1  -0.00000000  0.75000000  0.12500000  1
  Mn  Mn9  1  0.00006338  0.99536978  -0.00000836  1
  Mn  Mn10  1  0.99993662  0.50463022  0.25000836  1
  Co  Co11  1  0.99775416  0.24964001  0.37300671  1
  Co  Co12  1  0.00577654  0.50272178  0.75327737  1
  Co  Co13  1  0.99422346  0.99727822  0.49672263  1
  Co  Co14  1  0.00224584  0.25035999  0.87699329  1
  Co  Co15  1  -0.00000000  0.75000000  0.62500000  1
  O  O16  1  0.22748777  0.07106593  0.73877470  1
  O  O17  1  0.22978545  0.31717430  0.11791622  1
  O  O18  1  0.21502675  0.56038782  0.46348439  1
  O  O19  1  0.23875482  0.82504353  0.85229582  1
  O  O20  1  0.20995956  0.06255198  0.21817529  1
  O  O21  1  0.22253918  0.31864352  0.61648360  1
  O  O22  1  0.24097628  0.55684842  0.98272979  1
  O  O23  1  0.21745003  0.82222605  0.37634556  1
  O  O24  1  0.77021455  0.18282570  0.13208378  1
  O  O25  1  0.77251223  0.42893407  0.51122530  1
  O  O26  1  0.78254997  0.67777395  0.87365444  1
  O  O27  1  0.75902372  0.94315158  0.26727021  1
  O  O28  1  0.77746082  0.18135648  0.63351640  1
  O  O29  1  0.79004044  0.43744802  0.03182471  1
  O  O30  1  0.76124518  0.67495647  0.39770418  1
  O  O31  1  0.78497325  0.93961218  0.78651561  1
