# generated using pymatgen
data_Li4MnCo2O7
_symmetry_space_group_name_H-M   'P 1'
_cell_length_a   6.46245612
_cell_length_b   6.46245612
_cell_length_c   14.34840058
_cell_angle_alpha   71.04738946
_cell_angle_beta   71.04738946
_cell_angle_gamma   26.25938814
_symmetry_Int_Tables_number   1
_chemical_formula_structural   Li4MnCo2O7
_chemical_formula_sum   'Li8 Mn2 Co4 O14'
_cell_volume   249.94513626
_cell_formula_units_Z   2
loop_
 _symmetry_equiv_pos_site_id
 _symmetry_equiv_pos_as_xyz
  1  'x, y, z'
loop_
 _atom_site_type_symbol
 _atom_site_label
 _atom_site_symmetry_multiplicity
 _atom_site_fract_x
 _atom_site_fract_y
 _atom_site_fract_z
 _atom_site_occupancy
  Li  Li0  1  0.27429100  0.27429100  0.08335600  1
  Li  Li1  1  0.85997900  0.85997900  0.21949000  1
  Li  Li2  1  0.43409100  0.43409100  0.35009400  1
  Li  Li3  1  0.71207100  0.71207100  0.94320900  1
  Li  Li4  1  0.14061400  0.14061400  0.78554600  1
  Li  Li5  1  0.00401900  0.00401900  0.48830600  1
  Li  Li6  1  0.57415000  0.57415000  0.63866000  1
  Li  Li7  1  0.57365700  0.57365700  0.14322900  1
  Mn  Mn8  1  0.00395100  0.00395100  0.00044900  1
  Mn  Mn9  1  0.85576000  0.85576000  0.71731800  1
  Co  Co10  1  0.13982800  0.13982800  0.27350000  1
  Co  Co11  1  0.71421800  0.71421800  0.41936000  1
  Co  Co12  1  0.27792900  0.27792900  0.56746600  1
  Co  Co13  1  0.42924300  0.42924300  0.85722600  1
  O  O14  1  0.43914500  0.43914500  0.08694300  1
  O  O15  1  0.00628700  0.00628700  0.25294500  1
  O  O16  1  0.57875300  0.57875300  0.39614400  1
  O  O17  1  0.87229500  0.87229500  0.94811700  1
  O  O18  1  0.29952700  0.29952700  0.81171400  1
  O  O19  1  0.14572100  0.14572100  0.54052000  1
  O  O20  1  0.72398200  0.72398200  0.68149700  1
  O  O21  1  0.13563000  0.13563000  0.02715700  1
  O  O22  1  0.71658400  0.71658400  0.18271700  1
  O  O23  1  0.28078400  0.28078400  0.32683900  1
  O  O24  1  0.55832700  0.55832700  0.89881300  1
  O  O25  1  0.98699900  0.98699900  0.76073800  1
  O  O26  1  0.84741800  0.84741800  0.47400200  1
  O  O27  1  0.41474900  0.41474900  0.62464300  1
