# generated using pymatgen
data_Ba2LiB10O19
_symmetry_space_group_name_H-M   'P 1'
_cell_length_a   6.83416900
_cell_length_b   11.58795425
_cell_length_c   11.59967115
_cell_angle_alpha   61.00799498
_cell_angle_beta   73.60616858
_cell_angle_gamma   73.98496480
_symmetry_Int_Tables_number   1
_chemical_formula_structural   Ba2LiB10O19
_chemical_formula_sum   'Ba4 Li2 B20 O38'
_cell_volume   760.17876621
_cell_formula_units_Z   2
loop_
 _symmetry_equiv_pos_site_id
 _symmetry_equiv_pos_as_xyz
  1  'x, y, z'
loop_
 _atom_site_type_symbol
 _atom_site_label
 _atom_site_symmetry_multiplicity
 _atom_site_fract_x
 _atom_site_fract_y
 _atom_site_fract_z
 _atom_site_occupancy
  Ba  Ba0  1  0.82421700  0.48113500  0.87593100  1
  Ba  Ba1  1  0.17578300  0.51886500  0.12406900  1
  Ba  Ba2  1  0.33213400  0.96470900  0.38900100  1
  Ba  Ba3  1  0.66786600  0.03529100  0.61099900  1
  Li  Li4  1  0.68538100  0.36082700  0.59975400  1
  Li  Li5  1  0.31461900  0.63917300  0.40024600  1
  B  B6  1  0.01403600  0.78127700  0.85532100  1
  B  B7  1  0.98596400  0.21872300  0.14467900  1
  B  B8  1  0.18089600  0.63088700  0.63775600  1
  B  B9  1  0.81910400  0.36911300  0.36224400  1
  B  B10  1  0.51221000  0.79441000  0.14213000  1
  B  B11  1  0.48779000  0.20559000  0.85787000  1
  B  B12  1  0.98206600  0.81229800  0.25395400  1
  B  B13  1  0.01793400  0.18770200  0.74604600  1
  B  B14  1  0.37769200  0.80699800  0.80442500  1
  B  B15  1  0.62230800  0.19300200  0.19557500  1
  B  B16  1  0.87575900  0.00148200  0.30972200  1
  B  B17  1  0.12424100  0.99851800  0.69027800  1
  B  B18  1  0.56545500  0.64041600  0.56712400  1
  B  B19  1  0.43454500  0.35958400  0.43287600  1
  B  B20  1  0.35760300  0.27776600  0.03569200  1
  B  B21  1  0.64239700  0.72223400  0.96430800  1
  B  B22  1  0.10909900  0.23780000  0.50643700  1
  B  B23  1  0.89090100  0.76220000  0.49356300  1
  B  B24  1  0.41958400  0.45399900  0.79459600  1
  B  B25  1  0.58041600  0.54600100  0.20540400  1
  O  O26  1  0.42330200  0.40751000  0.93607900  1
  O  O27  1  0.57669800  0.59249000  0.06392100  1
  O  O28  1  0.08938900  0.09612600  0.55389000  1
  O  O29  1  0.91061100  0.90387400  0.44611000  1
  O  O30  1  0.02720800  0.72545800  0.38273500  1
  O  O31  1  0.97279200  0.27454200  0.61726500  1
  O  O32  1  0.49092100  0.33821500  0.76133500  1
  O  O33  1  0.50907900  0.66178500  0.23866500  1
  O  O34  1  0.87893200  0.69351100  0.93311800  1
  O  O35  1  0.12106800  0.30648900  0.06688200  1
  O  O36  1  0.02471300  0.09837500  0.25182400  1
  O  O37  1  0.97528700  0.90162500  0.74817600  1
  O  O38  1  0.42554900  0.17377800  0.99122500  1
  O  O39  1  0.57445100  0.82622200  0.00877500  1
  O  O40  1  0.56973700  0.54888500  0.70963100  1
  O  O41  1  0.43026300  0.45111500  0.29036900  1
  O  O42  1  0.34205800  0.69446500  0.54359300  1
  O  O43  1  0.65794200  0.30553500  0.45640700  1
  O  O44  1  0.89774100  0.94217200  0.21977900  1
  O  O45  1  0.10225900  0.05782800  0.78022100  1
  O  O46  1  0.57081100  0.76936200  0.83496100  1
  O  O47  1  0.42918900  0.23063800  0.16503900  1
  O  O48  1  0.21305000  0.52484700  0.75902500  1
  O  O49  1  0.78695000  0.47515300  0.24097500  1
  O  O50  1  0.97282200  0.25497300  0.82218400  1
  O  O51  1  0.02717800  0.74502700  0.17781600  1
  O  O52  1  0.98011100  0.67165400  0.61569100  1
  O  O53  1  0.01988900  0.32834600  0.38430900  1
  O  O54  1  0.67272200  0.75273000  0.51316200  1
  O  O55  1  0.32727800  0.24727000  0.48683800  1
  O  O56  1  0.66112300  0.08336100  0.31550000  1
  O  O57  1  0.33887700  0.91663900  0.68450000  1
  O  O58  1  0.78549600  0.26184700  0.11193500  1
  O  O59  1  0.21450400  0.73815300  0.88806500  1
  O  O60  1  0.44326300  0.88217000  0.19717600  1
  O  O61  1  0.55673700  0.11783000  0.80282400  1
  O  O62  1  0.65612000  0.55321100  0.50226600  1
  O  O63  1  0.34388000  0.44678900  0.49773400  1
