# generated using pymatgen
data_Li4MnCo2O7
_symmetry_space_group_name_H-M   'P 1'
_cell_length_a   3.01246000
_cell_length_b   7.74270366
_cell_length_c   11.11638026
_cell_angle_alpha   79.80317940
_cell_angle_beta   83.32609934
_cell_angle_gamma   84.02054284
_symmetry_Int_Tables_number   1
_chemical_formula_structural   Li4MnCo2O7
_chemical_formula_sum   'Li8 Mn2 Co4 O14'
_cell_volume   252.53188155
_cell_formula_units_Z   2
loop_
 _symmetry_equiv_pos_site_id
 _symmetry_equiv_pos_as_xyz
  1  'x, y, z'
loop_
 _atom_site_type_symbol
 _atom_site_label
 _atom_site_symmetry_multiplicity
 _atom_site_fract_x
 _atom_site_fract_y
 _atom_site_fract_z
 _atom_site_occupancy
  Li  Li0  1  0.50000000  0.00000000  0.00000000  1
  Li  Li1  1  0.63890000  0.43255200  0.29137300  1
  Li  Li2  1  0.78998800  0.85820200  0.57022800  1
  Li  Li3  1  0.92951500  0.28566700  0.85413900  1
  Li  Li4  1  0.07048500  0.71433300  0.14586100  1
  Li  Li5  1  0.21001200  0.14179800  0.42977200  1
  Li  Li6  1  0.36110000  0.56744800  0.70862700  1
  Li  Li7  1  0.00000000  0.50000000  0.50000000  1
  Mn  Mn8  1  0.71379200  0.64641600  0.92637400  1
  Mn  Mn9  1  0.28620800  0.35358400  0.07362600  1
  Co  Co10  1  0.85720200  0.06693500  0.21776000  1
  Co  Co11  1  0.14279800  0.93306500  0.78224000  1
  Co  Co12  1  0.43280100  0.77343000  0.36314700  1
  Co  Co13  1  0.56719900  0.22657000  0.63685300  1
  O  O14  1  0.08737200  0.82631800  0.95332600  1
  O  O15  1  0.22646500  0.24217700  0.24538500  1
  O  O16  1  0.38983700  0.69410000  0.51948800  1
  O  O17  1  0.51795100  0.10577600  0.80525800  1
  O  O18  1  0.65613900  0.53470300  0.09985300  1
  O  O19  1  0.81320700  0.95668400  0.38245200  1
  O  O20  1  0.94977000  0.37879500  0.67549200  1
  O  O21  1  0.91262800  0.17368200  0.04667400  1
  O  O22  1  0.05023000  0.62120500  0.32450800  1
  O  O23  1  0.18679300  0.04331600  0.61754800  1
  O  O24  1  0.34386100  0.46529700  0.90014700  1
  O  O25  1  0.48204900  0.89422400  0.19474200  1
  O  O26  1  0.61016300  0.30590000  0.48051200  1
  O  O27  1  0.77353500  0.75782300  0.75461500  1
