# generated using pymatgen
data_Li4TiCo5O12
_symmetry_space_group_name_H-M   'P 1'
_cell_length_a   4.91550817
_cell_length_b   10.79635615
_cell_length_c   8.52407929
_cell_angle_alpha   113.49901514
_cell_angle_beta   89.70972636
_cell_angle_gamma   85.70497462
_symmetry_Int_Tables_number   1
_chemical_formula_structural   Li4TiCo5O12
_chemical_formula_sum   'Li8 Ti2 Co10 O24'
_cell_volume   413.38599820
_cell_formula_units_Z   2
loop_
 _symmetry_equiv_pos_site_id
 _symmetry_equiv_pos_as_xyz
  1  'x, y, z'
loop_
 _atom_site_type_symbol
 _atom_site_label
 _atom_site_symmetry_multiplicity
 _atom_site_fract_x
 _atom_site_fract_y
 _atom_site_fract_z
 _atom_site_occupancy
  Li  Li0  1  0.03824100  0.74075500  0.20359300  1
  Li  Li1  1  0.53531700  0.74465800  0.70624800  1
  Li  Li2  1  0.46169100  0.25609700  0.96041300  1
  Li  Li3  1  0.96341200  0.25882200  0.46202100  1
  Li  Li4  1  0.53674700  0.74510300  0.03691400  1
  Li  Li5  1  0.04421200  0.74407900  0.54034800  1
  Li  Li6  1  0.96388200  0.25510300  0.79240300  1
  Li  Li7  1  0.46262100  0.25584300  0.29378300  1
  Ti  Ti8  1  0.98726500  0.00693400  0.00214200  1
  Ti  Ti9  1  0.49718300  0.99307900  0.50107000  1
  Co  Co10  1  0.25017800  0.49983000  0.91484100  1
  Co  Co11  1  0.75016300  0.50000100  0.41499400  1
  Co  Co12  1  0.74981900  0.50008300  0.08463800  1
  Co  Co13  1  0.25006000  0.49994900  0.58471600  1
  Co  Co14  1  0.00391200  0.99879600  0.66723500  1
  Co  Co15  1  0.49766700  0.00105300  0.16583500  1
  Co  Co16  1  0.49898600  0.00004600  0.83342300  1
  Co  Co17  1  0.00213000  0.00002300  0.33346500  1
  Co  Co18  1  0.75006300  0.50006800  0.75042400  1
  Co  Co19  1  0.25014600  0.50010500  0.25042000  1
  O  O20  1  0.40306800  0.60170800  0.80336700  1
  O  O21  1  0.90309700  0.60165300  0.30329100  1
  O  O22  1  0.59650800  0.39866300  0.20083200  1
  O  O23  1  0.09656800  0.39808000  0.70076700  1
  O  O24  1  0.82681500  0.10460700  0.55328500  1
  O  O25  1  0.32062200  0.10700400  0.05299300  1
  O  O26  1  0.19168100  0.88384700  0.45304800  1
  O  O27  1  0.67390400  0.89234400  0.94482300  1
  O  O28  1  0.31189000  0.10754200  0.72560300  1
  O  O29  1  0.79895800  0.11452700  0.21824100  1
  O  O30  1  0.18680500  0.89439400  0.11838300  1
  O  O31  1  0.69516900  0.89157500  0.61815300  1
  O  O32  1  0.80949400  0.10918800  0.88049700  1
  O  O33  1  0.31187600  0.10703100  0.38423600  1
  O  O34  1  0.68854800  0.89356600  0.27378900  1
  O  O35  1  0.18985500  0.89392300  0.77789600  1
  O  O36  1  0.10568100  0.39905100  0.02743600  1
  O  O37  1  0.60591000  0.39911300  0.52760300  1
  O  O38  1  0.60039100  0.39911700  0.86894400  1
  O  O39  1  0.10088400  0.39900100  0.36891100  1
  O  O40  1  0.39411500  0.60124200  0.12891800  1
  O  O41  1  0.89448200  0.60086300  0.62902800  1
  O  O42  1  0.89990500  0.60090500  0.97038800  1
  O  O43  1  0.40007900  0.60062900  0.47063800  1
