# generated using pymatgen
data_Li5OsO6
_symmetry_space_group_name_H-M   'P 1'
_cell_length_a   5.11046988
_cell_length_b   5.11046988
_cell_length_c   5.04572718
_cell_angle_alpha   80.45166828
_cell_angle_beta   80.45166828
_cell_angle_gamma   120.32229648
_symmetry_Int_Tables_number   1
_chemical_formula_structural   Li5OsO6
_chemical_formula_sum   'Li5 Os1 O6'
_cell_volume   107.24371440
_cell_formula_units_Z   1
loop_
 _symmetry_equiv_pos_site_id
 _symmetry_equiv_pos_as_xyz
  1  'x, y, z'
loop_
 _atom_site_type_symbol
 _atom_site_label
 _atom_site_symmetry_multiplicity
 _atom_site_fract_x
 _atom_site_fract_y
 _atom_site_fract_z
 _atom_site_occupancy
  Li  Li0  1  0.83036000  0.16964000  0.00000000  1
  Li  Li1  1  0.16964000  0.83036000  0.00000000  1
  Li  Li2  1  0.68231700  0.31768300  0.50000000  1
  Li  Li3  1  0.31768300  0.68231700  0.50000000  1
  Li  Li4  1  0.00000000  0.00000000  0.50000000  1
  Os  Os5  1  0.50000000  0.50000000  0.00000000  1
  O  O6  1  0.42213800  0.11432900  0.23504400  1
  O  O7  1  0.57786200  0.88567100  0.76495600  1
  O  O8  1  0.88567100  0.57786200  0.76495600  1
  O  O9  1  0.11432900  0.42213800  0.23504400  1
  O  O10  1  0.72938700  0.72938700  0.22828100  1
  O  O11  1  0.27061300  0.27061300  0.77171900  1
