# generated using pymatgen
data_Li2NbV(PO5)2
_symmetry_space_group_name_H-M   'P 1'
_cell_length_a   6.43196624
_cell_length_b   10.95804020
_cell_length_c   12.77963846
_cell_angle_alpha   90.00000000
_cell_angle_beta   90.00000000
_cell_angle_gamma   90.00000000
_symmetry_Int_Tables_number   1
_chemical_formula_structural   Li2NbV(PO5)2
_chemical_formula_sum   'Li8 Nb4 V4 P8 O40'
_cell_volume   900.73121431
_cell_formula_units_Z   4
loop_
 _symmetry_equiv_pos_site_id
 _symmetry_equiv_pos_as_xyz
  1  'x, y, z'
loop_
 _atom_site_type_symbol
 _atom_site_label
 _atom_site_symmetry_multiplicity
 _atom_site_fract_x
 _atom_site_fract_y
 _atom_site_fract_z
 _atom_site_occupancy
  Li  Li0  1  0.75352273  0.31310893  0.81813455  1
  Li  Li1  1  0.24647727  0.81310893  0.18186545  1
  Li  Li2  1  0.25352273  0.81310893  0.68186545  1
  Li  Li3  1  0.74647727  0.31310893  0.31813455  1
  Li  Li4  1  0.67559350  0.10444436  0.61295767  1
  Li  Li5  1  0.32440650  0.60444436  0.38704233  1
  Li  Li6  1  0.17559350  0.60444436  0.88704233  1
  Li  Li7  1  0.82440650  0.10444436  0.11295767  1
  Nb  Nb8  1  0.99756682  0.99958632  0.86384061  1
  Nb  Nb9  1  0.00243318  0.49958632  0.13615939  1
  Nb  Nb10  1  0.49756682  0.49958632  0.63615939  1
  Nb  Nb11  1  0.50243318  0.99958632  0.36384061  1
  V  V12  1  0.24703762  0.24691515  0.74578764  1
  V  V13  1  0.75296238  0.74691515  0.25421236  1
  V  V14  1  0.74703762  0.74691515  0.75421236  1
  V  V15  1  0.25296238  0.24691515  0.24578764  1
  P  P16  1  0.99799248  0.49986805  0.68760478  1
  P  P17  1  0.00200752  -0.00013195  0.31239522  1
  P  P18  1  0.49799248  -0.00013195  0.81239522  1
  P  P19  1  0.50200752  0.49986805  0.18760478  1
  P  P20  1  0.14514640  0.25518823  0.99642466  1
  P  P21  1  0.85485360  0.75518823  0.00357534  1
  P  P22  1  0.64514640  0.75518823  0.50357534  1
  P  P23  1  0.35485360  0.25518823  0.49642466  1
  O  O24  1  0.48873721  0.37034855  0.73182936  1
  O  O25  1  0.51126279  0.87034855  0.26817064  1
  O  O26  1  0.98873721  0.87034855  0.76817064  1
  O  O27  1  0.01126279  0.37034855  0.23182936  1
  O  O28  1  0.01435957  0.37503871  0.00488271  1
  O  O29  1  0.98564043  0.87503871  0.99511729  1
  O  O30  1  0.51435957  0.87503871  0.49511729  1
  O  O31  1  0.48564043  0.37503871  0.50488271  1
  O  O32  1  0.28603626  0.23796576  0.09272223  1
  O  O33  1  0.71396374  0.73796576  0.90727777  1
  O  O34  1  0.78603626  0.73796576  0.40727777  1
  O  O35  1  0.21396374  0.23796576  0.59272223  1
  O  O36  1  0.01248518  0.38267329  0.75458918  1
  O  O37  1  0.98751482  0.88267329  0.24541082  1
  O  O38  1  0.51248518  0.88267329  0.74541082  1
  O  O39  1  0.48751482  0.38267329  0.25458918  1
  O  O40  1  0.50954587  0.62705942  0.73321588  1
  O  O41  1  0.49045413  0.12705942  0.26678412  1
  O  O42  1  0.00954587  0.12705942  0.76678412  1
  O  O43  1  0.99045413  0.62705942  0.23321588  1
  O  O44  1  0.98737439  0.61199272  0.76175997  1
  O  O45  1  0.01262561  0.11199272  0.23824003  1
  O  O46  1  0.48737439  0.11199272  0.73824003  1
  O  O47  1  0.51262561  0.61199272  0.26175997  1
  O  O48  1  0.80626288  0.49293519  0.61509213  1
  O  O49  1  0.19373712  0.99293519  0.38490787  1
  O  O50  1  0.30626288  0.99293519  0.88490787  1
  O  O51  1  0.69373712  0.49293519  0.11509213  1
  O  O52  1  0.28628935  0.25972525  0.89940297  1
  O  O53  1  0.71371065  0.75972525  0.10059703  1
  O  O54  1  0.78628935  0.75972525  0.60059703  1
  O  O55  1  0.21371065  0.25972525  0.39940297  1
  O  O56  1  0.18659639  0.51267004  0.61381705  1
  O  O57  1  0.81340361  0.01267004  0.38618295  1
  O  O58  1  0.68659639  0.01267004  0.88618295  1
  O  O59  1  0.31340361  0.51267004  0.11381705  1
  O  O60  1  0.98675525  0.14588203  0.98877945  1
  O  O61  1  0.01324475  0.64588203  0.01122055  1
  O  O62  1  0.48675525  0.64588203  0.51122055  1
  O  O63  1  0.51324475  0.14588203  0.48877945  1
