# generated using pymatgen
data_Li4Mn3CoO8
_symmetry_space_group_name_H-M   'P 1'
_cell_length_a   5.92878323
_cell_length_b   10.43519846
_cell_length_c   5.91920910
_cell_angle_alpha   108.75836753
_cell_angle_beta   61.28122811
_cell_angle_gamma   91.10788021
_symmetry_Int_Tables_number   1
_chemical_formula_structural   Li4Mn3CoO8
_chemical_formula_sum   'Li8 Mn6 Co2 O16'
_cell_volume   300.04598989
_cell_formula_units_Z   2
loop_
 _symmetry_equiv_pos_site_id
 _symmetry_equiv_pos_as_xyz
  1  'x, y, z'
loop_
 _atom_site_type_symbol
 _atom_site_label
 _atom_site_symmetry_multiplicity
 _atom_site_fract_x
 _atom_site_fract_y
 _atom_site_fract_z
 _atom_site_occupancy
  Li  Li0  1  0.24825000  0.24997100  0.50173100  1
  Li  Li1  1  0.75056100  0.75042600  0.49879000  1
  Li  Li2  1  0.49985300  0.99880400  0.50028100  1
  Li  Li3  1  0.99992500  0.49883700  0.50071900  1
  Li  Li4  1  0.75119900  0.24910700  0.50021000  1
  Li  Li5  1  0.25338800  0.75027100  0.49790400  1
  Li  Li6  1  0.00013900  0.00093700  0.49929200  1
  Li  Li7  1  0.49996100  0.50085200  0.49943800  1
  Mn  Mn8  1  0.25231300  0.75028000  0.99820700  1
  Mn  Mn9  1  0.99913900  0.49965200  0.00093100  1
  Mn  Mn10  1  0.24993100  0.24927900  0.00067100  1
  Mn  Mn11  1  0.74878300  0.25049200  0.00164300  1
  Mn  Mn12  1  0.49853000  0.99980300  0.00171700  1
  Mn  Mn13  1  0.75333900  0.74903200  0.99751000  1
  Co  Co14  1  0.00014700  0.00013800  0.99955400  1
  Co  Co15  1  0.49946100  0.49983800  0.99997900  1
  O  O16  1  0.84878300  0.36885200  0.25591700  1
  O  O17  1  0.35143000  0.86887000  0.25405100  1
  O  O18  1  0.64953000  0.13200400  0.74665500  1
  O  O19  1  0.15244300  0.63154600  0.74331100  1
  O  O20  1  0.15959500  0.12404300  0.21323800  1
  O  O21  1  0.66245500  0.62416700  0.21123000  1
  O  O22  1  0.39569900  0.36141900  0.22238400  1
  O  O23  1  0.89977600  0.86115900  0.21880700  1
  O  O24  1  0.62949900  0.13027000  0.21980600  1
  O  O25  1  0.13343800  0.62975800  0.21604100  1
  O  O26  1  0.33424400  0.37553500  0.79265200  1
  O  O27  1  0.83540600  0.87603000  0.79097000  1
  O  O28  1  0.10161200  0.13886600  0.78030100  1
  O  O29  1  0.60434900  0.63849000  0.77820000  1
  O  O30  1  0.86762000  0.37043700  0.77981100  1
  O  O31  1  0.36920000  0.87083300  0.77804800  1
