# generated using pymatgen
data_LiV(CO3)2
_symmetry_space_group_name_H-M   'P 1'
_cell_length_a   8.03348021
_cell_length_b   8.03348021
_cell_length_c   5.36848200
_cell_angle_alpha   90.00000000
_cell_angle_beta   90.00000000
_cell_angle_gamma   120.00000171
_symmetry_Int_Tables_number   1
_chemical_formula_structural   LiV(CO3)2
_chemical_formula_sum   'Li3 V3 C6 O18'
_cell_volume   300.04720222
_cell_formula_units_Z   3
loop_
 _symmetry_equiv_pos_site_id
 _symmetry_equiv_pos_as_xyz
  1  'x, y, z'
loop_
 _atom_site_type_symbol
 _atom_site_label
 _atom_site_symmetry_multiplicity
 _atom_site_fract_x
 _atom_site_fract_y
 _atom_site_fract_z
 _atom_site_occupancy
  Li  Li0  1  0.00000000  0.33707200  0.00000000  1
  Li  Li1  1  0.66292800  0.66292800  0.00000000  1
  Li  Li2  1  0.33707200  0.00000000  0.00000000  1
  V  V3  1  0.00000000  0.67003300  0.50000000  1
  V  V4  1  0.32996700  0.32996700  0.50000000  1
  V  V5  1  0.67003300  0.00000000  0.50000000  1
  C  C6  1  0.33333300  0.66666700  0.74917600  1
  C  C7  1  0.33333300  0.66666700  0.27745200  1
  C  C8  1  0.00000000  0.00000000  0.73867300  1
  C  C9  1  0.00000000  0.00000000  0.26132700  1
  C  C10  1  0.66666700  0.33333300  0.25082400  1
  C  C11  1  0.66666700  0.33333300  0.72254800  1
  O  O12  1  0.09532600  0.90601900  0.26235700  1
  O  O13  1  0.22872400  0.74501200  0.75064800  1
  O  O14  1  0.15281400  0.57753100  0.28153800  1
  O  O15  1  0.09398100  0.18930700  0.26235700  1
  O  O16  1  0.42471700  0.84718600  0.28153800  1
  O  O17  1  0.25498800  0.48371200  0.75064800  1
  O  O18  1  0.51628800  0.77127600  0.75064800  1
  O  O19  1  0.18930700  0.09398100  0.73764300  1
  O  O20  1  0.42246900  0.57528300  0.28153800  1
  O  O21  1  0.48371200  0.25498800  0.24935200  1
  O  O22  1  0.57528300  0.42246900  0.71846200  1
  O  O23  1  0.81069300  0.90467400  0.26235700  1
  O  O24  1  0.90467400  0.81069300  0.73764300  1
  O  O25  1  0.57753100  0.15281400  0.71846200  1
  O  O26  1  0.77127600  0.51628800  0.24935200  1
  O  O27  1  0.74501200  0.22872400  0.24935200  1
  O  O28  1  0.84718600  0.42471700  0.71846200  1
  O  O29  1  0.90601900  0.09532600  0.73764300  1
