# generated using pymatgen
data_Li9Mn2Co5O16
_symmetry_space_group_name_H-M   'P 1'
_cell_length_a   5.91570800
_cell_length_b   6.45579061
_cell_length_c   7.88787138
_cell_angle_alpha   88.95871517
_cell_angle_beta   103.98593548
_cell_angle_gamma   104.77316655
_symmetry_Int_Tables_number   1
_chemical_formula_structural   Li9Mn2Co5O16
_chemical_formula_sum   'Li9 Mn2 Co5 O16'
_cell_volume   282.34574095
_cell_formula_units_Z   1
loop_
 _symmetry_equiv_pos_site_id
 _symmetry_equiv_pos_as_xyz
  1  'x, y, z'
loop_
 _atom_site_type_symbol
 _atom_site_label
 _atom_site_symmetry_multiplicity
 _atom_site_fract_x
 _atom_site_fract_y
 _atom_site_fract_z
 _atom_site_occupancy
  Li  Li0  1  0.12855000  0.61842300  0.87122200  1
  Li  Li1  1  0.74225300  0.25531800  0.75497600  1
  Li  Li2  1  0.00629800  0.49881000  0.50784100  1
  Li  Li3  1  0.62214400  0.12680000  0.37834000  1
  Li  Li4  1  0.87299800  0.38054100  0.12015100  1
  Li  Li5  1  0.49826900  0.00597800  0.99044900  1
  Li  Li6  1  0.37949800  0.87404600  0.62657800  1
  Li  Li7  1  0.25135900  0.74297800  0.25045400  1
  Li  Li8  1  0.25426900  0.25523600  0.75196800  1
  Mn  Mn9  1  0.99879000  0.99949400  0.99567600  1
  Mn  Mn10  1  0.12753500  0.12536300  0.37896100  1
  Co  Co11  1  0.62085900  0.62068400  0.87399600  1
  Co  Co12  1  0.87472900  0.87323700  0.62394100  1
  Co  Co13  1  0.49428300  0.50114100  0.50626200  1
  Co  Co14  1  0.74844900  0.74778300  0.24894000  1
  Co  Co15  1  0.38003900  0.37367600  0.11847600  1
  O  O16  1  0.92355600  0.69974900  0.05225900  1
  O  O17  1  0.56393600  0.33034100  0.93694000  1
  O  O18  1  0.80135700  0.57261900  0.67285700  1
  O  O19  1  0.42886800  0.19470200  0.54743700  1
  O  O20  1  0.66986200  0.44995300  0.29865300  1
  O  O21  1  0.29168100  0.07321000  0.18928400  1
  O  O22  1  0.15321400  0.93992100  0.82214000  1
  O  O23  1  0.05621800  0.82221900  0.42322800  1
  O  O24  1  0.33366000  0.56928800  0.69774100  1
  O  O25  1  0.95089200  0.16270200  0.54510000  1
  O  O26  1  0.19388600  0.42449600  0.32949900  1
  O  O27  1  0.83342800  0.04728700  0.18341000  1
  O  O28  1  0.07327800  0.30135000  0.95515100  1
  O  O29  1  0.69848700  0.93193000  0.82346800  1
  O  O30  1  0.57935100  0.80198100  0.44618600  1
  O  O31  1  0.44800700  0.67874400  0.07840900  1
