# generated using pymatgen
data_LiMnO2
_symmetry_space_group_name_H-M   'P 1'
_cell_length_a   5.94136711
_cell_length_b   5.94731121
_cell_length_c   8.52085236
_cell_angle_alpha   89.55408579
_cell_angle_beta   89.68026330
_cell_angle_gamma   88.87693758
_symmetry_Int_Tables_number   1
_chemical_formula_structural   LiMnO2
_chemical_formula_sum   'Li8 Mn8 O16'
_cell_volume   301.01428440
_cell_formula_units_Z   8
loop_
 _symmetry_equiv_pos_site_id
 _symmetry_equiv_pos_as_xyz
  1  'x, y, z'
loop_
 _atom_site_type_symbol
 _atom_site_label
 _atom_site_symmetry_multiplicity
 _atom_site_fract_x
 _atom_site_fract_y
 _atom_site_fract_z
 _atom_site_occupancy
  Li  Li0  1  0.99734100  0.49858100  0.00017000  1
  Li  Li1  1  0.50132200  0.00041600  0.50067500  1
  Li  Li2  1  0.99848100  0.49898800  0.50065400  1
  Li  Li3  1  0.50203700  0.00274500  0.00024700  1
  Li  Li4  1  0.24813700  0.74968600  0.24657700  1
  Li  Li5  1  0.75005800  0.25223200  0.75146500  1
  Li  Li6  1  0.24702300  0.25086700  0.24447200  1
  Li  Li7  1  0.75392200  0.75016700  0.75477000  1
  Mn  Mn8  1  0.50040600  0.50035300  0.00009800  1
  Mn  Mn9  1  0.00008400  0.00002500  0.49726700  1
  Mn  Mn10  1  0.25645400  0.74587700  0.75272800  1
  Mn  Mn11  1  0.74468500  0.25262000  0.25029600  1
  Mn  Mn12  1  0.25247800  0.24825100  0.74980800  1
  Mn  Mn13  1  0.74629100  0.75001500  0.25009400  1
  Mn  Mn14  1  0.50244900  0.49783400  0.49928000  1
  Mn  Mn15  1  0.99869500  0.00095400  0.00154100  1
  O  O16  1  0.04034000  0.50468000  0.75158600  1
  O  O17  1  0.53506400  0.00683700  0.25120900  1
  O  O18  1  0.95873000  0.49456800  0.24951300  1
  O  O19  1  0.46660800  0.99239900  0.75017900  1
  O  O20  1  0.47701500  0.49774900  0.22978100  1
  O  O21  1  0.00703600  0.97018700  0.75677700  1
  O  O22  1  0.50364600  0.52399500  0.76652700  1
  O  O23  1  0.01392900  0.00705700  0.24154200  1
  O  O24  1  0.26575200  0.26497900  0.51666300  1
  O  O25  1  0.76807600  0.76979100  0.01525700  1
  O  O26  1  0.26363000  0.73812600  0.52101000  1
  O  O27  1  0.73378800  0.26602000  0.00038800  1
  O  O28  1  0.73449300  0.73412600  0.48501400  1
  O  O29  1  0.23116600  0.23113700  0.98248200  1
  O  O30  1  0.73750500  0.26173700  0.49934700  1
  O  O31  1  0.26335900  0.73699900  0.98258200  1
