# generated using pymatgen
data_LiCr2O3
_symmetry_space_group_name_H-M   'P 1'
_cell_length_a   5.23818012
_cell_length_b   5.23812262
_cell_length_c   5.29741058
_cell_angle_alpha   79.31634827
_cell_angle_beta   100.68545516
_cell_angle_gamma   60.85421825
_symmetry_Int_Tables_number   1
_chemical_formula_structural   LiCr2O3
_chemical_formula_sum   'Li2 Cr4 O6'
_cell_volume   118.13501911
_cell_formula_units_Z   2
loop_
 _symmetry_equiv_pos_site_id
 _symmetry_equiv_pos_as_xyz
  1  'x, y, z'
loop_
 _atom_site_type_symbol
 _atom_site_label
 _atom_site_symmetry_multiplicity
 _atom_site_fract_x
 _atom_site_fract_y
 _atom_site_fract_z
 _atom_site_occupancy
  Li  Li0  1  0.91482600  0.91483600  0.74999900  1
  Li  Li1  1  0.08347400  0.08352100  0.24999100  1
  Cr  Cr2  1  0.75303900  0.75303800  0.25000200  1
  Cr  Cr3  1  0.41398800  0.41402500  0.24998800  1
  Cr  Cr4  1  0.24397200  0.24387300  0.75007700  1
  Cr  Cr5  1  0.58560700  0.58565000  0.74991900  1
  O  O6  1  0.00103000  0.52003400  0.03072300  1
  O  O7  1  0.52000300  0.00108800  0.46926300  1
  O  O8  1  0.16790200  0.64487700  0.48144800  1
  O  O9  1  0.35845600  0.81272500  0.00244100  1
  O  O10  1  0.64491900  0.16789900  0.01859200  1
  O  O11  1  0.81278200  0.35843400  0.49755700  1
