# generated using pymatgen
data_Li9Mn2Co5O16
_symmetry_space_group_name_H-M   'P 1'
_cell_length_a   5.08561300
_cell_length_b   5.84436159
_cell_length_c   9.88854553
_cell_angle_alpha   98.85718157
_cell_angle_beta   95.04644163
_cell_angle_gamma   90.48175455
_symmetry_Int_Tables_number   1
_chemical_formula_structural   Li9Mn2Co5O16
_chemical_formula_sum   'Li9 Mn2 Co5 O16'
_cell_volume   289.20649802
_cell_formula_units_Z   1
loop_
 _symmetry_equiv_pos_site_id
 _symmetry_equiv_pos_as_xyz
  1  'x, y, z'
loop_
 _atom_site_type_symbol
 _atom_site_label
 _atom_site_symmetry_multiplicity
 _atom_site_fract_x
 _atom_site_fract_y
 _atom_site_fract_z
 _atom_site_occupancy
  Li  Li0  1  0.87556600  0.80757200  0.25820400  1
  Li  Li1  1  0.11690600  0.68716600  0.74238900  1
  Li  Li2  1  0.38457800  0.56270700  0.25889400  1
  Li  Li3  1  0.87389500  0.32003400  0.26071500  1
  Li  Li4  1  0.12684300  0.18694300  0.74422400  1
  Li  Li5  1  0.37222100  0.06257400  0.25667700  1
  Li  Li6  1  0.62797100  0.93142600  0.73971700  1
  Li  Li7  1  0.62048800  0.43978800  0.73846400  1
  Li  Li8  1  0.74993500  0.62543400  0.50017000  1
  Mn  Mn9  1  0.99966100  0.00054800  0.00027200  1
  Mn  Mn10  1  0.24909200  0.87298900  0.50127800  1
  Co  Co11  1  0.49991500  0.74883200  0.99923600  1
  Co  Co12  1  0.00024100  0.49987700  0.00009600  1
  Co  Co13  1  0.25673400  0.38126100  0.49682000  1
  Co  Co14  1  0.50024900  0.25168800  0.00076100  1
  Co  Co15  1  0.75345000  0.12577200  0.50093500  1
  O  O16  1  0.70148900  0.02415500  0.11225200  1
  O  O17  1  0.95035700  0.91165100  0.61008500  1
  O  O18  1  0.17853300  0.79058300  0.11133500  1
  O  O19  1  0.69331100  0.52646100  0.11632100  1
  O  O20  1  0.93444000  0.38290800  0.60944900  1
  O  O21  1  0.17622300  0.26899900  0.11422400  1
  O  O22  1  0.43018700  0.14540300  0.61636900  1
  O  O23  1  0.41281500  0.66681000  0.61702200  1
  O  O24  1  0.08693800  0.60628100  0.38343100  1
  O  O25  1  0.30640000  0.47466800  0.88519900  1
  O  O26  1  0.55388600  0.33480000  0.38717200  1
  O  O27  1  0.07034400  0.08170600  0.38532100  1
  O  O28  1  0.29723300  0.97650300  0.88888700  1
  O  O29  1  0.55612800  0.86425500  0.39166300  1
  O  O30  1  0.82255900  0.73066200  0.88450300  1
  O  O31  1  0.82141100  0.20954400  0.88791500  1
