# generated using pymatgen
data_Li6V3P8O29
_symmetry_space_group_name_H-M   'P 1'
_cell_length_a   9.86989147
_cell_length_b   9.86989147
_cell_length_c   13.93941127
_cell_angle_alpha   89.72556546
_cell_angle_beta   89.72556546
_cell_angle_gamma   59.56676746
_symmetry_Int_Tables_number   1
_chemical_formula_structural   Li6V3P8O29
_chemical_formula_sum   'Li12 V6 P16 O58'
_cell_volume   1170.79449814
_cell_formula_units_Z   2
loop_
 _symmetry_equiv_pos_site_id
 _symmetry_equiv_pos_as_xyz
  1  'x, y, z'
loop_
 _atom_site_type_symbol
 _atom_site_label
 _atom_site_symmetry_multiplicity
 _atom_site_fract_x
 _atom_site_fract_y
 _atom_site_fract_z
 _atom_site_occupancy
  Li  Li0  1  0.90293600  0.77602200  0.94115300  1
  Li  Li1  1  0.77602200  0.90293600  0.44115300  1
  Li  Li2  1  0.90459200  0.32120200  0.44047900  1
  Li  Li3  1  0.77158100  0.31817700  0.93981400  1
  Li  Li4  1  0.32120200  0.90459200  0.94047900  1
  Li  Li5  1  0.68439700  0.22361200  0.56091200  1
  Li  Li6  1  0.31817700  0.77158100  0.43981400  1
  Li  Li7  1  0.22361200  0.68439700  0.06091200  1
  Li  Li8  1  0.33273500  0.33433100  0.38399800  1
  Li  Li9  1  0.33433100  0.33273500  0.88399800  1
  Li  Li10  1  0.22750500  0.08714600  0.56147200  1
  Li  Li11  1  0.08714600  0.22750500  0.06147200  1
  V  V12  1  0.56884000  0.43207500  0.74751000  1
  V  V13  1  0.43207500  0.56884000  0.24751000  1
  V  V14  1  0.56843700  0.00011200  0.24619000  1
  V  V15  1  0.43877400  0.99636700  0.75128800  1
  V  V16  1  0.00011200  0.56843700  0.74619000  1
  V  V17  1  0.99636700  0.43877400  0.25128800  1
  P  P18  1  0.91298400  0.76941800  0.15623900  1
  P  P19  1  0.76941800  0.91298400  0.65623900  1
  P  P20  1  0.91317300  0.32066900  0.65884800  1
  P  P21  1  0.67013800  0.66327600  0.87306300  1
  P  P22  1  0.66327600  0.67013800  0.37306300  1
  P  P23  1  0.76969100  0.31767100  0.15722600  1
  P  P24  1  0.68022600  0.22910400  0.34204700  1
  P  P25  1  0.32066900  0.91317300  0.15884800  1
  P  P26  1  0.68301200  0.08790500  0.84068300  1
  P  P27  1  0.31767100  0.76969100  0.65722600  1
  P  P28  1  0.22910400  0.68022600  0.84204700  1
  P  P29  1  0.33480100  0.33020400  0.62687100  1
  P  P30  1  0.33020400  0.33480100  0.12687100  1
  P  P31  1  0.08790500  0.68301200  0.34068300  1
  P  P32  1  0.23109100  0.08941000  0.34255400  1
  P  P33  1  0.08941000  0.23109100  0.84255400  1
  O  O34  1  0.99492800  0.76709300  0.42616400  1
  O  O35  1  0.91415100  0.74919800  0.66137500  1
  O  O36  1  0.76709300  0.99492800  0.92616400  1
  O  O37  1  0.74919800  0.91415100  0.16137500  1
  O  O38  1  0.90572400  0.61797500  0.17403500  1
  O  O39  1  0.81905000  0.66564600  0.83138800  1
  O  O40  1  0.89655600  0.48160600  0.67548700  1
  O  O41  1  0.99686300  0.24463100  0.93178400  1
  O  O42  1  0.91465300  0.33758200  0.16166600  1
  O  O43  1  0.66564600  0.81905000  0.33138800  1
  O  O44  1  0.61797500  0.90572400  0.67403500  1
  O  O45  1  0.81582500  0.51666100  0.33186000  1
  O  O46  1  0.66546300  0.66985800  0.97968100  1
  O  O47  1  0.66985800  0.66546300  0.47968100  1
  O  O48  1  0.67213500  0.51445800  0.83293500  1
  O  O49  1  0.48160600  0.89655600  0.17548700  1
  O  O50  1  0.51666100  0.81582500  0.83186000  1
  O  O51  1  0.75059800  0.33174200  0.65895000  1
  O  O52  1  0.78764000  0.21096500  0.24994600  1
  O  O53  1  0.75785100  0.24409100  0.43092800  1
  O  O54  1  0.75722600  0.24880200  0.06597000  1
  O  O55  1  0.61591200  0.47745500  0.17963200  1
  O  O56  1  0.51445800  0.67213500  0.33293500  1
  O  O57  1  0.66115700  0.25666500  0.83885700  1
  O  O58  1  0.47745500  0.61591200  0.67963200  1
  O  O59  1  0.33758200  0.91465300  0.66166600  1
  O  O60  1  0.78421200  0.00939900  0.74506800  1
  O  O61  1  0.75513500  0.00215700  0.56591500  1
  O  O62  1  0.24463100  0.99686300  0.43178400  1
  O  O63  1  0.66773500  0.07986600  0.34271700  1
  O  O64  1  0.51346800  0.37306700  0.32590800  1
  O  O65  1  0.33174200  0.75059800  0.15895000  1
  O  O66  1  0.48709400  0.32702500  0.66295500  1
  O  O67  1  0.37306700  0.51346800  0.82590800  1
  O  O68  1  0.24409100  0.75785100  0.93092800  1
  O  O69  1  0.24880200  0.75722600  0.56597000  1
  O  O70  1  0.21096500  0.78764000  0.74994600  1
  O  O71  1  0.25666500  0.66115700  0.33885600  1
  O  O72  1  0.47737900  0.18659900  0.17181400  1
  O  O73  1  0.51500300  0.11218200  0.82615200  1
  O  O74  1  0.32702500  0.48709400  0.16295500  1
  O  O75  1  0.32844600  0.33276200  0.01938200  1
  O  O76  1  0.33276200  0.32844600  0.51938200  1
  O  O77  1  0.18659900  0.47737900  0.67181400  1
  O  O78  1  0.37522300  0.10959200  0.32740400  1
  O  O79  1  0.33261800  0.18128300  0.66757200  1
  O  O80  1  0.07986600  0.66773500  0.84271700  1
  O  O81  1  0.00939900  0.78421200  0.24506800  1
  O  O82  1  0.00215700  0.75513500  0.06591500  1
  O  O83  1  0.11218200  0.51500300  0.32615200  1
  O  O84  1  0.18128300  0.33261800  0.16757200  1
  O  O85  1  0.10959200  0.37522300  0.82740400  1
  O  O86  1  0.25350700  0.08114400  0.84365400  1
  O  O87  1  0.24202200  0.00324700  0.06876900  1
  O  O88  1  0.21086400  0.00236700  0.25059000  1
  O  O89  1  0.08114400  0.25350700  0.34365400  1
  O  O90  1  0.00324700  0.24202200  0.56876900  1
  O  O91  1  0.00236700  0.21086400  0.75059000  1
