# generated using pymatgen
data_Li4TiCo5O12
_symmetry_space_group_name_H-M   'P 1'
_cell_length_a   4.96007699
_cell_length_b   10.81193697
_cell_length_c   8.53754555
_cell_angle_alpha   113.24798495
_cell_angle_beta   90.02200098
_cell_angle_gamma   85.43653401
_symmetry_Int_Tables_number   1
_chemical_formula_structural   Li4TiCo5O12
_chemical_formula_sum   'Li8 Ti2 Co10 O24'
_cell_volume   419.10238364
_cell_formula_units_Z   2
loop_
 _symmetry_equiv_pos_site_id
 _symmetry_equiv_pos_as_xyz
  1  'x, y, z'
loop_
 _atom_site_type_symbol
 _atom_site_label
 _atom_site_symmetry_multiplicity
 _atom_site_fract_x
 _atom_site_fract_y
 _atom_site_fract_z
 _atom_site_occupancy
  Li  Li0  1  0.03986537  0.74539100  0.20130751  1
  Li  Li1  1  0.53216835  0.74674562  0.70552190  1
  Li  Li2  1  0.46062421  0.25480822  0.95611450  1
  Li  Li3  1  0.96781524  0.25327572  0.45867149  1
  Li  Li4  1  0.53217327  0.74672427  0.04134992  1
  Li  Li5  1  0.03938562  0.74518387  0.54385997  1
  Li  Li6  1  0.96781559  0.25324882  0.79446587  1
  Li  Li7  1  0.46018359  0.25461168  0.29872301  1
  Ti  Ti8  1  -0.00311524  0.00098712  0.00047134  1
  Ti  Ti9  1  0.50311181  -0.00098673  0.49952601  1
  Co  Co10  1  0.75002696  0.49999059  0.74999466  1
  Co  Co11  1  0.24996822  0.49998015  0.24999331  1
  Co  Co12  1  0.25025215  0.50003631  0.91454723  1
  Co  Co13  1  0.74959021  0.49993867  0.41585714  1
  Co  Co14  1  0.75041865  0.50010237  0.08414520  1
  Co  Co15  1  0.24980629  0.49995934  0.58544516  1
  Co  Co16  1  0.00039857  -0.00009936  0.66640324  1
  Co  Co17  1  0.49959933  0.00007509  0.16650356  1
  Co  Co18  1  0.49959380  0.00009866  0.83359588  1
  Co  Co19  1  0.00039480  -0.00007994  0.33349089  1
  O  O20  1  0.40350691  0.60132062  0.80064554  1
  O  O21  1  0.90993526  0.59877160  0.29965901  1
  O  O22  1  0.58996671  0.40130017  0.20037981  1
  O  O23  1  0.09652858  0.39866805  0.69935854  1
  O  O24  1  0.82420928  0.10661161  0.55325469  1
  O  O25  1  0.32287274  0.10583447  0.05288767  1
  O  O26  1  0.17712155  0.89416752  0.44711317  1
  O  O27  1  0.67578697  0.89338696  0.94674155  1
  O  O28  1  0.31068670  0.10527385  0.72314528  1
  O  O29  1  0.80877121  0.10706259  0.22511968  1
  O  O30  1  0.18927516  0.89471254  0.11794012  1
  O  O31  1  0.69118966  0.89293731  0.61814413  1
  O  O32  1  0.80879982  0.10706663  0.88185751  1
  O  O33  1  0.31071884  0.10528389  0.38205602  1
  O  O34  1  0.69122117  0.89293411  0.27487692  1
  O  O35  1  0.18930500  0.89472748  0.77685358  1
  O  O36  1  0.12533787  0.38859965  0.01055418  1
  O  O37  1  0.59950977  0.40009473  0.53121665  1
  O  O38  1  0.60001597  0.40000772  0.86858462  1
  O  O39  1  0.12543994  0.38847941  0.37778197  1
  O  O40  1  0.37455482  0.61150650  0.12223789  1
  O  O41  1  0.90003037  0.59996894  0.63136519  1
  O  O42  1  0.90055751  0.59988294  0.96878906  1
  O  O43  1  0.37458342  0.61140921  0.48944544  1
