# generated using pymatgen
data_Li3MnV(PO4)3
_symmetry_space_group_name_H-M   'P 1'
_cell_length_a   8.68138100
_cell_length_b   8.69823512
_cell_length_c   15.16792388
_cell_angle_alpha   73.45821033
_cell_angle_beta   74.63314054
_cell_angle_gamma   61.31770543
_symmetry_Int_Tables_number   1
_chemical_formula_structural   Li3MnV(PO4)3
_chemical_formula_sum   'Li12 Mn4 V4 P12 O48'
_cell_volume   951.95602099
_cell_formula_units_Z   4
loop_
 _symmetry_equiv_pos_site_id
 _symmetry_equiv_pos_as_xyz
  1  'x, y, z'
loop_
 _atom_site_type_symbol
 _atom_site_label
 _atom_site_symmetry_multiplicity
 _atom_site_fract_x
 _atom_site_fract_y
 _atom_site_fract_z
 _atom_site_occupancy
  Li  Li0  1  0.30168400  0.43020200  0.31816600  1
  Li  Li1  1  0.18356500  0.15287600  0.55508900  1
  Li  Li2  1  0.68371200  0.65078800  0.05549100  1
  Li  Li3  1  0.17302700  0.06040400  0.18782700  1
  Li  Li4  1  0.21320600  0.85200200  0.82469400  1
  Li  Li5  1  0.71150800  0.35082800  0.32580600  1
  Li  Li6  1  0.26081400  0.57669000  0.63073700  1
  Li  Li7  1  0.75969600  0.07917300  0.13068800  1
  Li  Li8  1  0.79860100  0.93204700  0.81881900  1
  Li  Li9  1  0.67193600  0.55914900  0.68934900  1
  Li  Li10  1  0.36863800  0.19438300  0.98032900  1
  Li  Li11  1  0.86592100  0.69553700  0.48154400  1
  Mn  Mn12  1  0.28404400  0.78343100  0.07382200  1
  Mn  Mn13  1  0.78365700  0.28315500  0.57375700  1
  Mn  Mn14  1  0.47880800  0.96210500  0.67538200  1
  Mn  Mn15  1  0.72502000  0.21563600  0.92342600  1
  V  V16  1  0.03145500  0.53532200  0.82144500  1
  V  V17  1  0.53186800  0.03848800  0.32079100  1
  V  V18  1  0.21773600  0.71944900  0.42383300  1
  V  V19  1  0.97385700  0.46343400  0.17924900  1
  P  P20  1  0.01555000  0.21760600  0.73437200  1
  P  P21  1  0.51348500  0.72006100  0.23524200  1
  P  P22  1  0.02238800  0.23185100  0.02450900  1
  P  P23  1  0.09832200  0.16601600  0.37512700  1
  P  P24  1  0.40521200  0.32992500  0.12440800  1
  P  P25  1  0.47551000  0.27903300  0.47679200  1
  P  P26  1  0.52167800  0.73574000  0.52434800  1
  P  P27  1  0.59909900  0.65844100  0.87655400  1
  P  P28  1  0.90638700  0.82858900  0.62521100  1
  P  P29  1  0.97566400  0.78053400  0.97726300  1
  P  P30  1  0.48447900  0.27438000  0.76263800  1
  P  P31  1  0.98622900  0.77961400  0.26354700  1
  O  O32  1  0.02430000  0.60282600  0.23922400  1
  O  O33  1  0.45615900  0.78100000  0.13647500  1
  O  O34  1  0.40342300  0.63290000  0.30971600  1
  O  O35  1  0.00940900  0.20957300  0.47257200  1
  O  O36  1  0.29902500  0.45284700  0.46867000  1
  O  O37  1  0.35958900  0.52164000  0.12542600  1
  O  O38  1  0.23493000  0.30000700  0.14450900  1
  O  O39  1  0.26666800  0.19975100  0.35207300  1
  O  O40  1  0.20818000  0.06885500  0.72352800  1
  O  O41  1  0.70611100  0.56990700  0.22456900  1
  O  O42  1  0.20700200  0.06885200  0.03732600  1
  O  O43  1  0.15250200  0.97254300  0.36831800  1
  O  O44  1  0.10118800  0.86513900  0.19283500  1
  O  O45  1  0.01557200  0.75946200  0.53372300  1
  O  O46  1  0.12516200  0.81174200  0.99515600  1
  O  O47  1  0.42383900  0.14440900  0.55153100  1
  O  O48  1  0.51209900  0.25936600  0.03391900  1
  O  O49  1  0.02660800  0.71136800  0.70207300  1
  O  O50  1  0.04639500  0.72314400  0.88010400  1
  O  O51  1  0.62455300  0.31089700  0.49561800  1
  O  O52  1  0.92387400  0.64661000  0.05449200  1
  O  O53  1  0.03134800  0.72361400  0.36416000  1
  O  O54  1  0.52580400  0.21393800  0.20150800  1
  O  O55  1  0.55000200  0.22390100  0.37857600  1
  O  O56  1  0.52298100  0.09695000  0.73726600  1
  O  O57  1  0.49281600  0.88763300  0.25926700  1
  O  O58  1  0.43864400  0.81113300  0.61747500  1
  O  O59  1  0.94182300  0.30726000  0.11635000  1
  O  O60  1  0.95533700  0.28313000  0.63569100  1
  O  O61  1  0.47159100  0.77207500  0.80439600  1
  O  O62  1  0.06404100  0.36628500  0.94214500  1
  O  O63  1  0.38036900  0.68789700  0.51110200  1
  O  O64  1  0.97026200  0.28465900  0.30211700  1
  O  O65  1  0.56490800  0.86863700  0.44237800  1
  O  O66  1  0.88358500  0.18109500  0.01190400  1
  O  O67  1  0.90651600  0.12795100  0.80737400  1
  O  O68  1  0.51442500  0.70200600  0.97432900  1
  O  O69  1  0.79626200  0.95523400  0.96910700  1
  O  O70  1  0.86013000  0.01961600  0.62537100  1
  O  O71  1  0.29142500  0.41933400  0.75911600  1
  O  O72  1  0.79270500  0.92197100  0.26107500  1
  O  O73  1  0.73881300  0.79515400  0.64275300  1
  O  O74  1  0.76779400  0.69339000  0.85189600  1
  O  O75  1  0.70352200  0.57160800  0.53834100  1
  O  O76  1  0.65501800  0.46242500  0.86997500  1
  O  O77  1  0.60015200  0.36058700  0.69156200  1
  O  O78  1  0.53059700  0.21565800  0.86225300  1
  O  O79  1  0.99278400  0.38596100  0.75940300  1
