# generated using pymatgen
data_Li4Mn3Nb3(SbO8)2
_symmetry_space_group_name_H-M   'P 1'
_cell_length_a   6.32497439
_cell_length_b   6.15658884
_cell_length_c   10.55276115
_cell_angle_alpha   89.66085806
_cell_angle_beta   90.25811393
_cell_angle_gamma   118.49914436
_symmetry_Int_Tables_number   1
_chemical_formula_structural   Li4Mn3Nb3(SbO8)2
_chemical_formula_sum   'Li4 Mn3 Nb3 Sb2 O16'
_cell_volume   361.12591443
_cell_formula_units_Z   1
loop_
 _symmetry_equiv_pos_site_id
 _symmetry_equiv_pos_as_xyz
  1  'x, y, z'
loop_
 _atom_site_type_symbol
 _atom_site_label
 _atom_site_symmetry_multiplicity
 _atom_site_fract_x
 _atom_site_fract_y
 _atom_site_fract_z
 _atom_site_occupancy
  Li  Li0  1  0.33732343  0.67411556  0.88911552  1
  Li  Li1  1  0.98864417  0.98973129  0.00307238  1
  Li  Li2  1  0.99970661  0.99643107  0.48641674  1
  Li  Li3  1  0.69385882  0.35114596  0.39378161  1
  Mn  Mn4  1  0.16721324  0.83126728  0.21692704  1
  Mn  Mn5  1  0.16195270  0.33570698  0.21686288  1
  Mn  Mn6  1  0.32832726  0.16634031  0.70557864  1
  Nb  Nb7  1  0.64821448  0.81950447  0.23310499  1
  Nb  Nb8  1  0.82142372  0.65894430  0.71845191  1
  Nb  Nb9  1  0.82167053  0.16144157  0.71691602  1
  Sb  Sb10  1  0.28859213  0.64722330  0.49788473  1
  Sb  Sb11  1  0.64548191  0.31606254  0.02393484  1
  O  O12  1  0.12954128  0.82414294  0.59600696  1
  O  O13  1  0.05331569  0.54640748  0.34547280  1
  O  O14  1  0.34756365  0.69766942  0.11924106  1
  O  O15  1  0.99293796  0.97453209  0.30547259  1
  O  O16  1  0.98847013  0.99318988  0.81709967  1
  O  O17  1  0.12388800  0.30543744  0.59114556  1
  O  O18  1  0.53869100  0.99573799  0.33611555  1
  O  O19  1  0.51415560  0.52441403  0.33039349  1
  O  O20  1  0.30775244  0.13673527  0.10829759  1
  O  O21  1  0.72441721  0.86454947  0.60716346  1
  O  O22  1  0.52840781  0.52101849  0.80777068  1
  O  O23  1  0.52981148  0.01361757  0.80843625  1
  O  O24  1  0.69674220  0.35219785  0.60668942  1
  O  O25  1  0.81649275  0.66421776  0.10513943  1
  O  O26  1  0.98039354  0.48769272  0.81590673  1
  O  O27  1  0.82500728  0.15082398  0.10543649  1
