# generated using pymatgen
data_Li9Mn2Co5O16
_symmetry_space_group_name_H-M   'P 1'
_cell_length_a   4.97799900
_cell_length_b   5.96084785
_cell_length_c   9.83118796
_cell_angle_alpha   87.96527047
_cell_angle_beta   78.98252142
_cell_angle_gamma   88.36600452
_symmetry_Int_Tables_number   1
_chemical_formula_structural   Li9Mn2Co5O16
_chemical_formula_sum   'Li9 Mn2 Co5 O16'
_cell_volume   286.09426602
_cell_formula_units_Z   1
loop_
 _symmetry_equiv_pos_site_id
 _symmetry_equiv_pos_as_xyz
  1  'x, y, z'
loop_
 _atom_site_type_symbol
 _atom_site_label
 _atom_site_symmetry_multiplicity
 _atom_site_fract_x
 _atom_site_fract_y
 _atom_site_fract_z
 _atom_site_occupancy
  Li  Li0  1  0.25220400  0.99543000  0.24653100  1
  Li  Li1  1  0.25579500  0.25641400  0.75366700  1
  Li  Li2  1  0.24358000  0.50326200  0.24620300  1
  Li  Li3  1  0.74350100  0.25881400  0.24433000  1
  Li  Li4  1  0.75413000  0.49570900  0.75419100  1
  Li  Li5  1  0.75598600  0.74591400  0.24841000  1
  Li  Li6  1  0.24443900  0.74380900  0.75446900  1
  Li  Li7  1  0.75202800  0.00361200  0.75348500  1
  Li  Li8  1  0.00059900  0.50013400  0.99930600  1
  Mn  Mn9  1  0.99745300  0.00314500  0.00149200  1
  Mn  Mn10  1  0.00041700  0.24953800  0.49890900  1
  Co  Co11  1  0.99982100  0.74972700  0.50097100  1
  Co  Co12  1  0.50141900  0.50191800  0.50010200  1
  Co  Co13  1  0.49921400  0.74554400  0.99938400  1
  Co  Co14  1  0.49885600  0.99731700  0.50032800  1
  Co  Co15  1  0.49442400  0.25744000  0.99803800  1
  O  O16  1  0.13492100  0.76247700  0.11097400  1
  O  O17  1  0.14123600  0.01546200  0.61899100  1
  O  O18  1  0.14438300  0.22948300  0.10827700  1
  O  O19  1  0.64160100  0.02532600  0.11582100  1
  O  O20  1  0.63866600  0.24587800  0.61388800  1
  O  O21  1  0.59575100  0.49388500  0.10468400  1
  O  O22  1  0.13715300  0.52262700  0.61740100  1
  O  O23  1  0.64160900  0.74356400  0.61446300  1
  O  O24  1  0.36323100  0.25429200  0.38449000  1
  O  O25  1  0.39103500  0.47293200  0.88146300  1
  O  O26  1  0.35881100  0.75424600  0.38647600  1
  O  O27  1  0.86010300  0.48428800  0.37897100  1
  O  O28  1  0.86327900  0.77308400  0.89448700  1
  O  O29  1  0.86222600  0.97532000  0.38484100  1
  O  O30  1  0.37213100  0.00256100  0.89455600  1
  O  O31  1  0.85999700  0.23684800  0.89040100  1
