# generated using pymatgen
data_Li4TiCr2Ni3(PO4)6
_symmetry_space_group_name_H-M   'P 1'
_cell_length_a   8.52796400
_cell_length_b   8.55232856
_cell_length_c   8.73023463
_cell_angle_alpha   61.20762804
_cell_angle_beta   61.17218564
_cell_angle_gamma   61.75016964
_symmetry_Int_Tables_number   1
_chemical_formula_structural   Li4TiCr2Ni3(PO4)6
_chemical_formula_sum   'Li4 Ti1 Cr2 Ni3 P6 O24'
_cell_volume   464.13328176
_cell_formula_units_Z   1
loop_
 _symmetry_equiv_pos_site_id
 _symmetry_equiv_pos_as_xyz
  1  'x, y, z'
loop_
 _atom_site_type_symbol
 _atom_site_label
 _atom_site_symmetry_multiplicity
 _atom_site_fract_x
 _atom_site_fract_y
 _atom_site_fract_z
 _atom_site_occupancy
  Li  Li0  1  0.63909200  0.85011600  0.25484500  1
  Li  Li1  1  0.35672400  0.14361100  0.69750600  1
  Li  Li2  1  0.14981800  0.69999700  0.36097800  1
  Li  Li3  1  0.70395400  0.36526800  0.15354800  1
  Ti  Ti4  1  0.15030900  0.15288600  0.14979500  1
  Cr  Cr5  1  0.00821200  0.99533500  0.98795800  1
  Cr  Cr6  1  0.49926800  0.49246100  0.51263600  1
  Ni  Ni7  1  0.85316400  0.85177000  0.85663100  1
  Ni  Ni8  1  0.64625800  0.64673200  0.64385400  1
  Ni  Ni9  1  0.35097400  0.35224400  0.35144800  1
  P  P10  1  0.03970400  0.45411800  0.75636800  1
  P  P11  1  0.75079100  0.04294000  0.45238900  1
  P  P12  1  0.45417200  0.76021500  0.04556100  1
  P  P13  1  0.55979200  0.25554300  0.95506300  1
  P  P14  1  0.24969700  0.94962500  0.54763300  1
  P  P15  1  0.95462600  0.55272000  0.25183300  1
  O  O16  1  0.49130000  0.74055000  0.86657600  1
  O  O17  1  0.88886600  0.47689100  0.69652500  1
  O  O18  1  0.74759000  0.09096000  0.93720800  1
  O  O19  1  0.70674400  0.89273200  0.44454300  1
  O  O20  1  0.38811400  0.18624500  0.01717100  1
  O  O21  1  0.55388800  0.41587200  0.77237600  1
  O  O22  1  0.09882400  0.91219200  0.73563300  1
  O  O23  1  0.42074100  0.76923300  0.52350800  1
  O  O24  1  0.98861300  0.59076600  0.84660300  1
  O  O25  1  0.75655500  0.55426300  0.40049200  1
  O  O26  1  0.09289100  0.24027700  0.89692000  1
  O  O27  1  0.81616300  0.97839500  0.61056000  1
  O  O28  1  0.17999400  0.01471400  0.38114400  1
  O  O29  1  0.92731400  0.75045400  0.10088000  1
  O  O30  1  0.23478300  0.45640800  0.58901900  1
  O  O31  1  0.01908400  0.39017900  0.17881300  1
  O  O32  1  0.57877000  0.23345700  0.45741700  1
  O  O33  1  0.89759800  0.10984900  0.25296200  1
  O  O34  1  0.44193800  0.58369600  0.22551100  1
  O  O35  1  0.59510900  0.82678700  0.03947500  1
  O  O36  1  0.30989200  0.10576900  0.52182300  1
  O  O37  1  0.24066500  0.90350500  0.09488600  1
  O  O38  1  0.10255100  0.52375000  0.32061200  1
  O  O39  1  0.53245800  0.31047500  0.11129800  1
