# generated using pymatgen
data_LiGe2Ir
_symmetry_space_group_name_H-M   'P 1'
_cell_length_a   10.12683335
_cell_length_b   10.12683335
_cell_length_c   10.12683335
_cell_angle_alpha   121.92812114
_cell_angle_beta   118.63387145
_cell_angle_gamma   89.53786087
_symmetry_Int_Tables_number   1
_chemical_formula_structural   LiGe2Ir
_chemical_formula_sum   'Li1 Ge2 Ir1'
_cell_volume   730.44701033
_cell_formula_units_Z   1
loop_
 _symmetry_equiv_pos_site_id
 _symmetry_equiv_pos_as_xyz
  1  'x, y, z'
loop_
 _atom_site_type_symbol
 _atom_site_label
 _atom_site_symmetry_multiplicity
 _atom_site_fract_x
 _atom_site_fract_y
 _atom_site_fract_z
 _atom_site_occupancy
  Li  Li0  1  0.00000000  0.00000000  0.00000000  1
  Ge  Ge1  1  0.00000000  0.26486400  0.26486400  1
  Ge  Ge2  1  0.00000000  0.73513600  0.73513600  1
  Ir  Ir3  1  0.00000000  0.50000000  0.50000000  1
