# generated using pymatgen
data_Li2Fe3TeO8
_symmetry_space_group_name_H-M   'P 1'
_cell_length_a   6.08184792
_cell_length_b   6.13526915
_cell_length_c   8.69467153
_cell_angle_alpha   88.17243798
_cell_angle_beta   89.92847298
_cell_angle_gamma   90.01561219
_symmetry_Int_Tables_number   1
_chemical_formula_structural   Li2Fe3TeO8
_chemical_formula_sum   'Li4 Fe6 Te2 O16'
_cell_volume   324.26571247
_cell_formula_units_Z   2
loop_
 _symmetry_equiv_pos_site_id
 _symmetry_equiv_pos_as_xyz
  1  'x, y, z'
loop_
 _atom_site_type_symbol
 _atom_site_label
 _atom_site_symmetry_multiplicity
 _atom_site_fract_x
 _atom_site_fract_y
 _atom_site_fract_z
 _atom_site_occupancy
  Li  Li0  1  0.99955000  0.27675100  0.14181300  1
  Li  Li1  1  0.49987500  0.77615100  0.64167300  1
  Li  Li2  1  0.00010800  0.72382700  0.85838400  1
  Li  Li3  1  0.50040300  0.22323000  0.35821600  1
  Fe  Fe4  1  0.75000200  0.25000600  0.75000400  1
  Fe  Fe5  1  0.75010300  0.75006000  0.24992600  1
  Fe  Fe6  1  0.25002600  0.24998300  0.74992900  1
  Fe  Fe7  1  0.00277800  0.50104800  0.50038800  1
  Fe  Fe8  1  0.49715000  0.99914100  0.99954400  1
  Fe  Fe9  1  0.24994000  0.75001300  0.25001200  1
  Te  Te10  1  0.99452700  0.00077500  0.49966500  1
  Te  Te11  1  0.50546300  0.49915300  0.00028700  1
  O  O12  1  0.99023000  0.53727100  0.27363400  1
  O  O13  1  0.50857100  0.03569300  0.77421100  1
  O  O14  1  0.99155500  0.46429300  0.72581200  1
  O  O15  1  0.50980700  0.96276000  0.22638100  1
  O  O16  1  0.21548600  0.76725700  0.50281400  1
  O  O17  1  0.72979600  0.26424300  0.99302700  1
  O  O18  1  0.77037100  0.76518500  0.49362700  1
  O  O19  1  0.28428000  0.26641800  0.00361500  1
  O  O20  1  0.98787300  0.99503100  0.27463000  1
  O  O21  1  0.51233400  0.49361200  0.77470900  1
  O  O22  1  0.98768700  0.00638000  0.72532200  1
  O  O23  1  0.51213700  0.50496600  0.22539100  1
  O  O24  1  0.21566700  0.23352500  0.49638800  1
  O  O25  1  0.72959000  0.73477800  0.00637800  1
  O  O26  1  0.77019900  0.23574900  0.50700500  1
  O  O27  1  0.28449400  0.73270300  0.99721400  1
