# generated using pymatgen
data_LiSbF4
_symmetry_space_group_name_H-M   'P 1'
_cell_length_a   7.02012000
_cell_length_b   7.02012000
_cell_length_c   7.02012000
_cell_angle_alpha   90.00000000
_cell_angle_beta   90.00000000
_cell_angle_gamma   90.00000000
_symmetry_Int_Tables_number   1
_chemical_formula_structural   LiSbF4
_chemical_formula_sum   'Li4 Sb4 F16'
_cell_volume   345.96614925
_cell_formula_units_Z   4
loop_
 _symmetry_equiv_pos_site_id
 _symmetry_equiv_pos_as_xyz
  1  'x, y, z'
loop_
 _atom_site_type_symbol
 _atom_site_label
 _atom_site_symmetry_multiplicity
 _atom_site_fract_x
 _atom_site_fract_y
 _atom_site_fract_z
 _atom_site_occupancy
  Li  Li0  1  0.16851900  0.83148100  0.33148100  1
  Li  Li1  1  0.66851900  0.66851900  0.66851900  1
  Li  Li2  1  0.33148100  0.16851900  0.83148100  1
  Li  Li3  1  0.83148100  0.33148100  0.16851900  1
  Sb  Sb4  1  0.65509300  0.84490700  0.15509300  1
  Sb  Sb5  1  0.84490700  0.15509300  0.65509300  1
  Sb  Sb6  1  0.34490700  0.34490700  0.34490700  1
  Sb  Sb7  1  0.15509300  0.65509300  0.84490700  1
  F  F8  1  0.93195400  0.87167300  0.21343100  1
  F  F9  1  0.78656900  0.43195400  0.62832700  1
  F  F10  1  0.37167300  0.28656900  0.06804600  1
  F  F11  1  0.43195400  0.62832700  0.78656900  1
  F  F12  1  0.28656900  0.06804600  0.37167300  1
  F  F13  1  0.87167300  0.21343100  0.93195400  1
  F  F14  1  0.06804600  0.37167300  0.28656900  1
  F  F15  1  0.21343100  0.93195400  0.87167300  1
  F  F16  1  0.62832700  0.78656900  0.43195400  1
  F  F17  1  0.56804600  0.12832700  0.71343100  1
  F  F18  1  0.71343100  0.56804600  0.12832700  1
  F  F19  1  0.12832700  0.71343100  0.56804600  1
  F  F20  1  0.32387800  0.67612200  0.17612200  1
  F  F21  1  0.82387800  0.82387800  0.82387800  1
  F  F22  1  0.17612200  0.32387800  0.67612200  1
  F  F23  1  0.67612200  0.17612200  0.32387800  1
