# generated using pymatgen
data_Li2Fe2P4H3O16
_symmetry_space_group_name_H-M   'P 1'
_cell_length_a   7.90750495
_cell_length_b   8.24604081
_cell_length_c   9.97419033
_cell_angle_alpha   92.02663913
_cell_angle_beta   113.87098932
_cell_angle_gamma   89.10293615
_symmetry_Int_Tables_number   1
_chemical_formula_structural   Li2Fe2P4H3O16
_chemical_formula_sum   'Li4 Fe4 P8 H6 O32'
_cell_volume   594.36690567
_cell_formula_units_Z   2
loop_
 _symmetry_equiv_pos_site_id
 _symmetry_equiv_pos_as_xyz
  1  'x, y, z'
loop_
 _atom_site_type_symbol
 _atom_site_label
 _atom_site_symmetry_multiplicity
 _atom_site_fract_x
 _atom_site_fract_y
 _atom_site_fract_z
 _atom_site_occupancy
  Li  Li0  1  0.83295069  0.84824755  0.74018987  1
  Li  Li1  1  0.83413386  0.84350247  0.24398926  1
  Li  Li2  1  0.17207079  0.15715911  0.26406945  1
  Li  Li3  1  0.16828136  0.14569670  0.77014934  1
  Fe  Fe4  1  0.00042967  0.49944756  0.75210901  1
  Fe  Fe5  1  0.49948042  0.99841840  0.24633679  1
  Fe  Fe6  1  0.00097291  0.49767413  0.25274319  1
  Fe  Fe7  1  0.50042720  1.00014478  0.75209883  1
  P  P8  1  0.26087160  0.34216921  0.57253589  1
  P  P9  1  0.26060830  0.34038355  0.06893838  1
  P  P10  1  0.23396217  0.84684381  0.42121294  1
  P  P11  1  0.23576849  0.84382470  0.92221998  1
  P  P12  1  0.75491128  0.15684571  0.57550275  1
  P  P13  1  0.76149793  0.15350436  0.07935202  1
  P  P14  1  0.74059611  0.65951038  0.43484004  1
  P  P15  1  0.74236382  0.65719335  0.93518408  1
  H  H16  1  0.55417791  0.40408014  0.61432870  1
  H  H17  1  0.51536182  0.43489101  0.05494697  1
  H  H18  1  0.44524822  0.60093169  0.38901062  1
  H  H19  1  0.44219653  0.60340636  0.87411688  1
  H  H20  1  0.97612994  0.01820584  0.51180863  1
  H  H21  1  0.97841664  0.01210643  0.01251651  1
  O  O22  1  0.67951648  0.82712713  0.36766399  1
  O  O23  1  0.67874392  0.82135346  0.86198138  1
  O  O24  1  0.85844783  0.56576872  0.86652866  1
  O  O25  1  0.85865441  0.57342046  0.36493209  1
  O  O26  1  0.38768389  0.84542183  0.57876626  1
  O  O27  1  0.38229907  0.83880803  0.08183102  1
  O  O28  1  0.43567970  0.45261394  0.60797276  1
  O  O29  1  0.43497185  0.45102297  0.10822527  1
  O  O30  1  0.68891837  0.04848567  0.66853453  1
  O  O31  1  0.69377290  0.04521181  0.17141429  1
  O  O32  1  0.79257951  0.32979629  0.64289907  1
  O  O33  1  0.80695227  0.32488146  0.14726595  1
  O  O34  1  0.05108880  0.92084150  0.41023787  1
  O  O35  1  0.05131563  0.91976397  0.90638153  1
  O  O36  1  0.15465793  0.32327544  0.40369388  1
  O  O37  1  0.15194922  0.32494052  0.89986292  1
  O  O38  1  0.85218620  0.67567612  0.60398663  1
  O  O39  1  0.85363281  0.67553196  0.10325563  1
  O  O40  1  0.94803167  0.08165224  0.59154268  1
  O  O41  1  0.95228123  0.07368937  0.09369512  1
  O  O42  1  0.21142538  0.66994261  0.35779298  1
  O  O43  1  0.21138198  0.66638414  0.85770122  1
  O  O44  1  0.31210142  0.95349132  0.33213070  1
  O  O45  1  0.31447283  0.94689380  0.83200646  1
  O  O46  1  0.56704849  0.55024094  0.40576160  1
  O  O47  1  0.56569130  0.54964683  0.90893280  1
  O  O48  1  0.61261311  0.15720464  0.41666567  1
  O  O49  1  0.61987438  0.15604534  0.92010640  1
  O  O50  1  0.14568711  0.42266225  0.14300675  1
  O  O51  1  0.13938559  0.43309207  0.63606324  1
  O  O52  1  0.32009931  0.17623508  0.64350183  1
  O  O53  1  0.31997176  0.17074485  0.13327870  1
