# generated using pymatgen
data_Li7Mn4CoO12
_symmetry_space_group_name_H-M   'P 1'
_cell_length_a   2.93061857
_cell_length_b   5.95035265
_cell_length_c   24.69205135
_cell_angle_alpha   89.67064291
_cell_angle_beta   89.56797981
_cell_angle_gamma   91.75833446
_symmetry_Int_Tables_number   1
_chemical_formula_structural   Li7Mn4CoO12
_chemical_formula_sum   'Li14 Mn8 Co2 O24'
_cell_volume   430.36259133
_cell_formula_units_Z   2
loop_
 _symmetry_equiv_pos_site_id
 _symmetry_equiv_pos_as_xyz
  1  'x, y, z'
loop_
 _atom_site_type_symbol
 _atom_site_label
 _atom_site_symmetry_multiplicity
 _atom_site_fract_x
 _atom_site_fract_y
 _atom_site_fract_z
 _atom_site_occupancy
  Li  Li0  1  0.50243700  0.24845800  0.41635700  1
  Li  Li1  1  0.49758200  0.75167000  0.91703300  1
  Li  Li2  1  0.00005700  0.00002300  0.16665900  1
  Li  Li3  1  0.99993500  0.49977800  0.66648700  1
  Li  Li4  1  0.50233800  0.75206100  0.41652500  1
  Li  Li5  1  0.49765800  0.24782300  0.91685300  1
  Li  Li6  1  0.00771300  0.98920700  0.49289600  1
  Li  Li7  1  0.00842900  0.48756100  0.99114800  1
  Li  Li8  1  0.99164900  0.51241600  0.34224000  1
  Li  Li9  1  0.99249800  0.01090500  0.84063600  1
  Li  Li10  1  0.50049800  0.25087900  0.08377200  1
  Li  Li11  1  0.50227500  0.75341000  0.58320100  1
  Li  Li12  1  0.49956700  0.74913200  0.24955000  1
  Li  Li13  1  0.49778200  0.24684000  0.74994300  1
  Mn  Mn14  1  0.98396000  0.00472100  0.99659000  1
  Mn  Mn15  1  0.01601400  0.99526100  0.33675200  1
  Mn  Mn16  1  0.49811900  0.24916200  0.58273400  1
  Mn  Mn17  1  0.50201700  0.75082200  0.75064800  1
  Mn  Mn18  1  0.99527400  0.50668100  0.49571700  1
  Mn  Mn19  1  0.00398500  0.49342200  0.83763700  1
  Mn  Mn20  1  0.49672800  0.74544500  0.08375100  1
  Mn  Mn21  1  0.50333200  0.25446900  0.24956000  1
  Co  Co22  1  0.00001600  0.49995300  0.16663200  1
  Co  Co23  1  0.00012300  0.00019400  0.66661400  1
  O  O24  1  0.49766500  0.21983400  0.00021100  1
  O  O25  1  0.50794500  0.72004700  0.49962300  1
  O  O26  1  0.50238400  0.78017100  0.33309200  1
  O  O27  1  0.49161100  0.28007900  0.83362600  1
  O  O28  1  0.95528200  0.98653800  0.07993800  1
  O  O29  1  0.98184500  0.48620200  0.57872400  1
  O  O30  1  0.04474000  0.01347300  0.25331400  1
  O  O31  1  0.01510500  0.51463900  0.75464500  1
  O  O32  1  0.00474600  0.00127000  0.41021100  1
  O  O33  1  0.99817100  0.50186000  0.91078800  1
  O  O34  1  0.00176200  0.49811100  0.42253700  1
  O  O35  1  0.99527700  0.99874000  0.92309600  1
  O  O36  1  0.52518800  0.22412900  0.33182300  1
  O  O37  1  0.51264500  0.72093200  0.83167700  1
  O  O38  1  0.47486800  0.77585400  0.00148400  1
  O  O39  1  0.48691700  0.27911100  0.50162600  1
  O  O40  1  0.96245800  0.49315700  0.24597400  1
  O  O41  1  0.98695000  0.98039900  0.75379900  1
  O  O42  1  0.03760600  0.50675900  0.08726200  1
  O  O43  1  0.01666000  0.01852300  0.57969000  1
  O  O44  1  0.51464000  0.72193400  0.16484500  1
  O  O45  1  0.50597100  0.24417800  0.66075200  1
  O  O46  1  0.48542900  0.27804000  0.16841800  1
  O  O47  1  0.49414800  0.75571900  0.67291200  1
