# generated using pymatgen
data_K2LiP3O10
_symmetry_space_group_name_H-M   'P 1'
_cell_length_a   14.56871900
_cell_length_b   7.88099800
_cell_length_c   8.70030708
_cell_angle_alpha   82.53551471
_cell_angle_beta   90.00000000
_cell_angle_gamma   90.00000000
_symmetry_Int_Tables_number   1
_chemical_formula_structural   K2LiP3O10
_chemical_formula_sum   'K8 Li4 P12 O40'
_cell_volume   990.46945563
_cell_formula_units_Z   4
loop_
 _symmetry_equiv_pos_site_id
 _symmetry_equiv_pos_as_xyz
  1  'x, y, z'
loop_
 _atom_site_type_symbol
 _atom_site_label
 _atom_site_symmetry_multiplicity
 _atom_site_fract_x
 _atom_site_fract_y
 _atom_site_fract_z
 _atom_site_occupancy
  K  K0  1  0.71537800  0.55078800  0.82115200  1
  K  K1  1  0.21537800  0.94921200  0.17884800  1
  K  K2  1  0.28462200  0.44921200  0.17884800  1
  K  K3  1  0.78462200  0.05078800  0.82115200  1
  K  K4  1  0.59346400  0.83148300  0.46398100  1
  K  K5  1  0.09346400  0.66851700  0.53601900  1
  K  K6  1  0.40653600  0.16851700  0.53601900  1
  K  K7  1  0.90653600  0.33148300  0.46398100  1
  Li  Li8  1  0.61534800  0.84785400  0.08059300  1
  Li  Li9  1  0.11534800  0.65214600  0.91940700  1
  Li  Li10  1  0.38465200  0.15214600  0.91940700  1
  Li  Li11  1  0.88465200  0.34785400  0.08059300  1
  P  P12  1  0.65649300  0.28755300  0.48663000  1
  P  P13  1  0.15649300  0.21244700  0.51337000  1
  P  P14  1  0.34350700  0.71244700  0.51337000  1
  P  P15  1  0.84350700  0.78755300  0.48663000  1
  P  P16  1  0.67939300  0.22477000  0.16466300  1
  P  P17  1  0.17939300  0.27523000  0.83533700  1
  P  P18  1  0.32060700  0.77523000  0.83533700  1
  P  P19  1  0.82060700  0.72477000  0.16466300  1
  P  P20  1  0.54451600  0.48025600  0.24286300  1
  P  P21  1  0.04451600  0.01974400  0.75713700  1
  P  P22  1  0.45548400  0.51974400  0.75713700  1
  P  P23  1  0.95548400  0.98025600  0.24286300  1
  O  O24  1  0.61289300  0.39103400  0.12921300  1
  O  O25  1  0.11289300  0.10896600  0.87078700  1
  O  O26  1  0.38710700  0.60896600  0.87078700  1
  O  O27  1  0.88710700  0.89103400  0.12921300  1
  O  O28  1  0.60247800  0.45949200  0.40547600  1
  O  O29  1  0.10247800  0.04050800  0.59452400  1
  O  O30  1  0.39752200  0.54050800  0.59452400  1
  O  O31  1  0.89752200  0.95949200  0.40547600  1
  O  O32  1  0.71811300  0.24456800  0.33632800  1
  O  O33  1  0.21811300  0.25543200  0.66367200  1
  O  O34  1  0.28188700  0.75543200  0.66367200  1
  O  O35  1  0.78188700  0.74456800  0.33632800  1
  O  O36  1  0.58956500  0.14782200  0.53228700  1
  O  O37  1  0.08956500  0.35217800  0.46771300  1
  O  O38  1  0.41043500  0.85217800  0.46771300  1
  O  O39  1  0.91043500  0.64782200  0.53228700  1
  O  O40  1  0.72457400  0.34015700  0.60003100  1
  O  O41  1  0.22457400  0.15984300  0.39996900  1
  O  O42  1  0.27542600  0.65984300  0.39996900  1
  O  O43  1  0.77542600  0.84015700  0.60003100  1
  O  O44  1  0.62548100  0.06203300  0.16815400  1
  O  O45  1  0.12548100  0.43796700  0.83184600  1
  O  O46  1  0.37451900  0.93796700  0.83184600  1
  O  O47  1  0.87451900  0.56203300  0.16815400  1
  O  O48  1  0.74218600  0.75779000  0.05237000  1
  O  O49  1  0.24218600  0.74221000  0.94763000  1
  O  O50  1  0.25781400  0.24221000  0.94763000  1
  O  O51  1  0.75781400  0.25779000  0.05237000  1
  O  O52  1  0.54368300  0.61964100  0.73796400  1
  O  O53  1  0.04368300  0.88035900  0.26203600  1
  O  O54  1  0.45631700  0.38035900  0.26203600  1
  O  O55  1  0.95631700  0.11964100  0.73796400  1
  O  O56  1  0.54152100  0.66824300  0.18851000  1
  O  O57  1  0.04152100  0.83175700  0.81149000  1
  O  O58  1  0.45847900  0.33175700  0.81149000  1
  O  O59  1  0.95847900  0.16824300  0.18851000  1
  O  O60  1  0.58129200  0.90012700  0.84527700  1
  O  O61  1  0.08129200  0.59987300  0.15472300  1
  O  O62  1  0.41870800  0.09987300  0.15472300  1
  O  O63  1  0.91870800  0.40012700  0.84527700  1
