# generated using pymatgen
data_Li9Mn2Co5O16
_symmetry_space_group_name_H-M   'P 1'
_cell_length_a   5.89663100
_cell_length_b   6.48806139
_cell_length_c   7.75901668
_cell_angle_alpha   89.05295058
_cell_angle_beta   98.52500822
_cell_angle_gamma   103.11946202
_symmetry_Int_Tables_number   1
_chemical_formula_structural   Li9Mn2Co5O16
_chemical_formula_sum   'Li9 Mn2 Co5 O16'
_cell_volume   285.85496530
_cell_formula_units_Z   1
loop_
 _symmetry_equiv_pos_site_id
 _symmetry_equiv_pos_as_xyz
  1  'x, y, z'
loop_
 _atom_site_type_symbol
 _atom_site_label
 _atom_site_symmetry_multiplicity
 _atom_site_fract_x
 _atom_site_fract_y
 _atom_site_fract_z
 _atom_site_occupancy
  Li  Li0  1  0.12139400  0.13571200  0.38414000  1
  Li  Li1  1  0.61256800  0.61660100  0.86617300  1
  Li  Li2  1  0.35342400  0.87055600  0.61571900  1
  Li  Li3  1  0.87907600  0.37697100  0.13438700  1
  Li  Li4  1  0.63993100  0.13663600  0.38766100  1
  Li  Li5  1  0.11915600  0.61850000  0.86048900  1
  Li  Li6  1  0.88696300  0.86254100  0.62449500  1
  Li  Li7  1  0.37791900  0.38041900  0.12588100  1
  Li  Li8  1  0.99713000  0.50152100  0.50099300  1
  Mn  Mn9  1  0.00407300  0.00027300  0.00195800  1
  Mn  Mn10  1  0.24803500  0.74757500  0.25312900  1
  Co  Co11  1  0.50034200  0.50262400  0.49996000  1
  Co  Co12  1  0.75462300  0.25587200  0.74161600  1
  Co  Co13  1  0.50268000  0.99767400  0.99908200  1
  Co  Co14  1  0.75628900  0.75279100  0.25655800  1
  Co  Co15  1  0.24379900  0.25149300  0.74115600  1
  O  O16  1  0.82771700  0.04312900  0.18606300  1
  O  O17  1  0.31747800  0.54618000  0.68385600  1
  O  O18  1  0.07424800  0.81134000  0.42314900  1
  O  O19  1  0.56329300  0.28358400  0.93182000  1
  O  O20  1  0.29875600  0.04538900  0.16565800  1
  O  O21  1  0.79437900  0.55361900  0.68443400  1
  O  O22  1  0.54202700  0.81018600  0.41271500  1
  O  O23  1  0.06086200  0.29097300  0.93630400  1
  O  O24  1  0.44138600  0.19226100  0.56680700  1
  O  O25  1  0.95770400  0.70592700  0.08268200  1
  O  O26  1  0.71043500  0.94142800  0.84483700  1
  O  O27  1  0.19555900  0.46071200  0.30950600  1
  O  O28  1  0.92950400  0.18199000  0.57689900  1
  O  O29  1  0.43562200  0.71242400  0.06802600  1
  O  O30  1  0.17510600  0.94762600  0.81966900  1
  O  O31  1  0.67852100  0.46547400  0.31417900  1
