# generated using pymatgen
data_Li9Mn7O16
_symmetry_space_group_name_H-M   'P 1'
_cell_length_a   5.10149900
_cell_length_b   5.74585566
_cell_length_c   11.15606167
_cell_angle_alpha   75.37550636
_cell_angle_beta   80.93844159
_cell_angle_gamma   73.62577953
_symmetry_Int_Tables_number   1
_chemical_formula_structural   Li9Mn7O16
_chemical_formula_sum   'Li9 Mn7 O16'
_cell_volume   302.26834748
_cell_formula_units_Z   1
loop_
 _symmetry_equiv_pos_site_id
 _symmetry_equiv_pos_as_xyz
  1  'x, y, z'
loop_
 _atom_site_type_symbol
 _atom_site_label
 _atom_site_symmetry_multiplicity
 _atom_site_fract_x
 _atom_site_fract_y
 _atom_site_fract_z
 _atom_site_occupancy
  Li  Li0  1  0.51563300  0.69208600  0.86637300  1
  Li  Li1  1  0.50152600  0.82961300  0.10547600  1
  Li  Li2  1  0.48436700  0.30791400  0.13362700  1
  Li  Li3  1  0.52040000  0.44013200  0.35530700  1
  Li  Li4  1  0.50907300  0.93870300  0.37081400  1
  Li  Li5  1  0.49092700  0.06129700  0.62918600  1
  Li  Li6  1  0.47960000  0.55986800  0.64469300  1
  Li  Li7  1  0.49847400  0.17038700  0.89452400  1
  Li  Li8  1  0.00000000  0.00000000  0.00000000  1
  Mn  Mn9  1  0.98227000  0.87941600  0.75967700  1
  Mn  Mn10  1  0.00000000  0.50000000  0.00000000  1
  Mn  Mn11  1  0.01773000  0.12058400  0.24032300  1
  Mn  Mn12  1  0.00085100  0.24722400  0.49988100  1
  Mn  Mn13  1  0.99324500  0.37368900  0.75530400  1
  Mn  Mn14  1  0.00675500  0.62631100  0.24469600  1
  Mn  Mn15  1  0.99914900  0.75277600  0.50011900  1
  O  O16  1  0.76550100  0.71045400  0.69260100  1
  O  O17  1  0.75771100  0.82428000  0.94201600  1
  O  O18  1  0.79211300  0.35314500  0.91393300  1
  O  O19  1  0.77187600  0.45689600  0.19576500  1
  O  O20  1  0.77121100  0.95550200  0.19910600  1
  O  O21  1  0.76458200  0.08719100  0.44743600  1
  O  O22  1  0.79630300  0.58847300  0.42265000  1
  O  O23  1  0.76582600  0.21858900  0.69346200  1
  O  O24  1  0.20788700  0.64685500  0.08606700  1
  O  O25  1  0.23417400  0.78141100  0.30653800  1
  O  O26  1  0.23449900  0.28954600  0.30739900  1
  O  O27  1  0.20369700  0.41152700  0.57735000  1
  O  O28  1  0.23541800  0.91280900  0.55256400  1
  O  O29  1  0.22878900  0.04449800  0.80089400  1
  O  O30  1  0.22812400  0.54310400  0.80423500  1
  O  O31  1  0.24228900  0.17572000  0.05798400  1
