# generated using pymatgen
data_Li6V3P8O29
_symmetry_space_group_name_H-M   'P 1'
_cell_length_a   9.79265794
_cell_length_b   9.79265794
_cell_length_c   13.99975129
_cell_angle_alpha   89.58541526
_cell_angle_beta   89.58541526
_cell_angle_gamma   60.12610799
_symmetry_Int_Tables_number   1
_chemical_formula_structural   Li6V3P8O29
_chemical_formula_sum   'Li12 V6 P16 O58'
_cell_volume   1164.09230863
_cell_formula_units_Z   2
loop_
 _symmetry_equiv_pos_site_id
 _symmetry_equiv_pos_as_xyz
  1  'x, y, z'
loop_
 _atom_site_type_symbol
 _atom_site_label
 _atom_site_symmetry_multiplicity
 _atom_site_fract_x
 _atom_site_fract_y
 _atom_site_fract_z
 _atom_site_occupancy
  Li  Li0  1  0.76111400  0.90228200  0.06036700  1
  Li  Li1  1  0.90228200  0.76111400  0.56036700  1
  Li  Li2  1  0.33601100  0.89720600  0.55757900  1
  Li  Li3  1  0.33363300  0.76307000  0.06119000  1
  Li  Li4  1  0.89720600  0.33601100  0.05757900  1
  Li  Li5  1  0.76307000  0.33363300  0.56119000  1
  Li  Li6  1  0.09817300  0.66571800  0.94014700  1
  Li  Li7  1  0.66571800  0.09817300  0.44014700  1
  Li  Li8  1  0.10105500  0.23252300  0.43997100  1
  Li  Li9  1  0.23252300  0.10105500  0.93997100  1
  Li  Li10  1  0.94909200  0.03357600  0.99467200  1
  Li  Li11  1  0.03357600  0.94909200  0.49467200  1
  V  V12  1  0.43682100  0.55954300  0.25234900  1
  V  V13  1  0.55954300  0.43682100  0.75234900  1
  V  V14  1  0.00143800  0.56255900  0.74866300  1
  V  V15  1  0.99870300  0.43497800  0.24977400  1
  V  V16  1  0.56255900  0.00143800  0.24866300  1
  V  V17  1  0.43497800  0.99870300  0.74977400  1
  P  P18  1  0.77692900  0.91001600  0.84364800  1
  P  P19  1  0.91001600  0.77692900  0.34364800  1
  P  P20  1  0.31171900  0.91124800  0.34016700  1
  P  P21  1  0.66607900  0.66475800  0.13064000  1
  P  P22  1  0.66475800  0.66607900  0.63064000  1
  P  P23  1  0.31098200  0.77309600  0.84462300  1
  P  P24  1  0.22203700  0.69409900  0.65945500  1
  P  P25  1  0.91124800  0.31171900  0.84016700  1
  P  P26  1  0.08595600  0.68942800  0.15880400  1
  P  P27  1  0.77309600  0.31098200  0.34462300  1
  P  P28  1  0.69409900  0.22203700  0.15945500  1
  P  P29  1  0.33447500  0.32921900  0.36832500  1
  P  P30  1  0.32921900  0.33447500  0.86832500  1
  P  P31  1  0.68942800  0.08595600  0.65880400  1
  P  P32  1  0.09017300  0.22302100  0.65673800  1
  P  P33  1  0.22302100  0.09017300  0.15673800  1
  O  O34  1  0.77735800  0.99515900  0.57079400  1
  O  O35  1  0.74127200  0.91838900  0.33880200  1
  O  O36  1  0.99515900  0.77735800  0.07079400  1
  O  O37  1  0.91838900  0.74127200  0.83880200  1
  O  O38  1  0.61883500  0.91366200  0.83342900  1
  O  O39  1  0.67667400  0.80937300  0.16963300  1
  O  O40  1  0.46571800  0.91650300  0.32769100  1
  O  O41  1  0.22444200  0.00223600  0.06838300  1
  O  O42  1  0.33037300  0.91966500  0.84132500  1
  O  O43  1  0.80937300  0.67667400  0.66963300  1
  O  O44  1  0.91366200  0.61883500  0.33342900  1
  O  O45  1  0.51211000  0.81274800  0.67379100  1
  O  O46  1  0.66632200  0.66265600  0.02396100  1
  O  O47  1  0.66265600  0.66632200  0.52396100  1
  O  O48  1  0.51278000  0.67275300  0.17330800  1
  O  O49  1  0.91650300  0.46571800  0.82769100  1
  O  O50  1  0.81274800  0.51211000  0.17379100  1
  O  O51  1  0.34005400  0.74466000  0.33763400  1
  O  O52  1  0.19646600  0.79073800  0.75790800  1
  O  O53  1  0.20344100  0.80458300  0.57903800  1
  O  O54  1  0.22823800  0.76938200  0.93578200  1
  O  O55  1  0.47025900  0.62228800  0.82963700  1
  O  O56  1  0.67275300  0.51278000  0.67330800  1
  O  O57  1  0.25336000  0.66425200  0.15767200  1
  O  O58  1  0.62228800  0.47025900  0.32963700  1
  O  O59  1  0.91966500  0.33037300  0.34132500  1
  O  O60  1  0.00056900  0.79486200  0.25217600  1
  O  O61  1  0.98662600  0.78479400  0.43395300  1
  O  O62  1  0.00223600  0.22444200  0.56838300  1
  O  O63  1  0.08282800  0.65992000  0.65858500  1
  O  O64  1  0.38145800  0.54290100  0.66484500  1
  O  O65  1  0.74466000  0.34005400  0.83763400  1
  O  O66  1  0.33212000  0.47675700  0.31961000  1
  O  O67  1  0.54290100  0.38145800  0.16484500  1
  O  O68  1  0.80458300  0.20344100  0.07903800  1
  O  O69  1  0.76938200  0.22823800  0.43578200  1
  O  O70  1  0.79073800  0.19646600  0.25790800  1
  O  O71  1  0.66425200  0.25336000  0.65767200  1
  O  O72  1  0.18674700  0.48797500  0.82814400  1
  O  O73  1  0.08575600  0.53280100  0.17168300  1
  O  O74  1  0.47675700  0.33212000  0.81961000  1
  O  O75  1  0.32723200  0.33125500  0.97392500  1
  O  O76  1  0.33125500  0.32723200  0.47392500  1
  O  O77  1  0.48797500  0.18674700  0.32814400  1
  O  O78  1  0.09202600  0.37748100  0.66982800  1
  O  O79  1  0.18932300  0.32114200  0.32809200  1
  O  O80  1  0.65992000  0.08282800  0.15858500  1
  O  O81  1  0.79486200  0.00056900  0.75217600  1
  O  O82  1  0.78479400  0.98662600  0.93395300  1
  O  O83  1  0.53280100  0.08575600  0.67168300  1
  O  O84  1  0.32114200  0.18932300  0.82809200  1
  O  O85  1  0.37748100  0.09202600  0.16982800  1
  O  O86  1  0.08118800  0.25809200  0.15778100  1
  O  O87  1  0.99828400  0.22238800  0.93010000  1
  O  O88  1  0.00404900  0.20091300  0.74982800  1
  O  O89  1  0.25809200  0.08118800  0.65778100  1
  O  O90  1  0.22238800  0.99828400  0.43010000  1
  O  O91  1  0.20091300  0.00404900  0.24982800  1
