# generated using pymatgen
data_Li9Mn7O16
_symmetry_space_group_name_H-M   'P 1'
_cell_length_a   9.28540721
_cell_length_b   9.28540721
_cell_length_c   5.85229330
_cell_angle_alpha   89.46397037
_cell_angle_beta   89.46397037
_cell_angle_gamma   36.09301705
_symmetry_Int_Tables_number   1
_chemical_formula_structural   Li9Mn7O16
_chemical_formula_sum   'Li9 Mn7 O16'
_cell_volume   297.23122249
_cell_formula_units_Z   1
loop_
 _symmetry_equiv_pos_site_id
 _symmetry_equiv_pos_as_xyz
  1  'x, y, z'
loop_
 _atom_site_type_symbol
 _atom_site_label
 _atom_site_symmetry_multiplicity
 _atom_site_fract_x
 _atom_site_fract_y
 _atom_site_fract_z
 _atom_site_occupancy
  Li  Li0  1  0.13361800  0.62511800  0.24799000  1
  Li  Li1  1  0.86638200  0.37488200  0.75201000  1
  Li  Li2  1  0.25038000  0.25038000  0.99922800  1
  Li  Li3  1  0.00000000  0.00000000  0.50000000  1
  Li  Li4  1  0.37488200  0.86638200  0.75201000  1
  Li  Li5  1  0.50000000  0.50000000  0.50000000  1
  Li  Li6  1  0.62511800  0.13361800  0.24799000  1
  Li  Li7  1  0.74962000  0.74962000  0.00077200  1
  Li  Li8  1  0.50000000  0.50000000  0.00000000  1
  Mn  Mn9  1  0.00000000  0.00000000  0.00000000  1
  Mn  Mn10  1  0.13110100  0.62845900  0.75334800  1
  Mn  Mn11  1  0.75034500  0.75034500  0.50027400  1
  Mn  Mn12  1  0.24965500  0.24965500  0.49972600  1
  Mn  Mn13  1  0.86889900  0.37154100  0.24665200  1
  Mn  Mn14  1  0.62845900  0.13110100  0.75334800  1
  Mn  Mn15  1  0.37154100  0.86889900  0.24665200  1
  O  O16  1  0.24482900  0.76768300  0.23556300  1
  O  O17  1  0.00276400  0.50252100  0.72783800  1
  O  O18  1  0.37225400  0.37225400  0.97563500  1
  O  O19  1  0.12483900  0.12483900  0.47356500  1
  O  O20  1  0.50252100  0.00276400  0.72783800  1
  O  O21  1  0.62254400  0.62254400  0.48055000  1
  O  O22  1  0.76768300  0.24482900  0.23556300  1
  O  O23  1  0.87141900  0.87141900  0.98379000  1
  O  O24  1  0.99723600  0.49747900  0.27216200  1
  O  O25  1  0.75517100  0.23231700  0.76443700  1
  O  O26  1  0.12858100  0.12858100  0.01621000  1
  O  O27  1  0.87516100  0.87516100  0.52643500  1
  O  O28  1  0.23231700  0.75517100  0.76443700  1
  O  O29  1  0.37745600  0.37745600  0.51945000  1
  O  O30  1  0.49747900  0.99723600  0.27216200  1
  O  O31  1  0.62774600  0.62774600  0.02436500  1
