# generated using pymatgen
data_Li2CrO2
_symmetry_space_group_name_H-M   'P 1'
_cell_length_a   4.73515477
_cell_length_b   6.86261829
_cell_length_c   6.86263876
_cell_angle_alpha   90.71755155
_cell_angle_beta   101.51015258
_cell_angle_gamma   101.50999527
_symmetry_Int_Tables_number   1
_chemical_formula_structural   Li2CrO2
_chemical_formula_sum   'Li8 Cr4 O8'
_cell_volume   213.80768456
_cell_formula_units_Z   4
loop_
 _symmetry_equiv_pos_site_id
 _symmetry_equiv_pos_as_xyz
  1  'x, y, z'
loop_
 _atom_site_type_symbol
 _atom_site_label
 _atom_site_symmetry_multiplicity
 _atom_site_fract_x
 _atom_site_fract_y
 _atom_site_fract_z
 _atom_site_occupancy
  Li  Li0  1  0.74923100  0.96619200  0.53313000  1
  Li  Li1  1  0.00078700  0.71687200  0.28380800  1
  Li  Li2  1  0.50081300  0.21688300  0.78379900  1
  Li  Li3  1  0.24920600  0.46620500  0.03311800  1
  Li  Li4  1  0.00078700  0.28380600  0.71687300  1
  Li  Li5  1  0.24920700  0.03311400  0.46620500  1
  Li  Li6  1  0.74923200  0.53313000  0.96619700  1
  Li  Li7  1  0.50081400  0.78379500  0.21688700  1
  Cr  Cr8  1  0.25980600  0.75469700  0.75467600  1
  Cr  Cr9  1  0.49019400  0.49533800  0.49530700  1
  Cr  Cr10  1  0.99023600  0.99535200  0.99535800  1
  Cr  Cr11  1  0.75972800  0.25463900  0.25463700  1
  O  O12  1  0.62493700  0.22930700  0.52067400  1
  O  O13  1  0.87501100  0.98136500  0.26864300  1
  O  O14  1  0.37500900  0.48136600  0.76864400  1
  O  O15  1  0.12501900  0.72931400  0.02067700  1
  O  O16  1  0.12502200  0.02068100  0.72931500  1
  O  O17  1  0.37501100  0.76863700  0.48137000  1
  O  O18  1  0.87501600  0.26864000  0.98137000  1
  O  O19  1  0.62493400  0.52066600  0.22931100  1
