# generated using pymatgen
data_Li2TiCr3O8
_symmetry_space_group_name_H-M   'P 1'
_cell_length_a   5.96105903
_cell_length_b   10.25923922
_cell_length_c   5.98159425
_cell_angle_alpha   106.49025142
_cell_angle_beta   59.19733115
_cell_angle_gamma   90.28326933
_symmetry_Int_Tables_number   1
_chemical_formula_structural   Li2TiCr3O8
_chemical_formula_sum   'Li4 Ti2 Cr6 O16'
_cell_volume   296.87273291
_cell_formula_units_Z   2
loop_
 _symmetry_equiv_pos_site_id
 _symmetry_equiv_pos_as_xyz
  1  'x, y, z'
loop_
 _atom_site_type_symbol
 _atom_site_label
 _atom_site_symmetry_multiplicity
 _atom_site_fract_x
 _atom_site_fract_y
 _atom_site_fract_z
 _atom_site_occupancy
  Li  Li0  1  0.93227100  0.18719900  0.12648000  1
  Li  Li1  1  0.43252000  0.68713100  0.12637200  1
  Li  Li2  1  0.56775100  0.31297100  0.87356500  1
  Li  Li3  1  0.06767200  0.81288700  0.87364300  1
  Ti  Ti4  1  0.75002500  0.74990300  0.50018500  1
  Ti  Ti5  1  0.24993600  0.24995000  0.49992600  1
  Cr  Cr6  1  0.99966500  0.99998000  0.50012900  1
  Cr  Cr7  1  0.49960500  0.00009600  0.50046400  1
  Cr  Cr8  1  0.00021600  0.49996800  0.99971400  1
  Cr  Cr9  1  0.50016000  0.49994300  0.49980000  1
  Cr  Cr10  1  0.00043900  0.49990800  0.49953200  1
  Cr  Cr11  1  0.49980900  0.99998800  0.00024700  1
  O  O12  1  0.85326500  0.39639700  0.27553700  1
  O  O13  1  0.35257600  0.89649600  0.27626100  1
  O  O14  1  0.64676400  0.10362100  0.72450400  1
  O  O15  1  0.14728100  0.60356400  0.72382900  1
  O  O16  1  0.63865500  0.62099400  0.71430500  1
  O  O17  1  0.13797100  0.12118100  0.71458500  1
  O  O18  1  0.63560400  0.61944500  0.27168100  1
  O  O19  1  0.13519000  0.11952000  0.27193900  1
  O  O20  1  0.08984800  0.62217600  0.26298300  1
  O  O21  1  0.58951000  0.12219800  0.26347200  1
  O  O22  1  0.41029500  0.87779400  0.73696200  1
  O  O23  1  0.91055000  0.37781800  0.73644300  1
  O  O24  1  0.86432400  0.88045900  0.72833700  1
  O  O25  1  0.36483500  0.38052700  0.72788700  1
  O  O26  1  0.86134700  0.87898500  0.28586900  1
  O  O27  1  0.36191600  0.37890100  0.28535100  1
