# generated using pymatgen
data_Li9Mn7O16
_symmetry_space_group_name_H-M   'P 1'
_cell_length_a   3.01347700
_cell_length_b   10.19856582
_cell_length_c   10.78974339
_cell_angle_alpha   114.92774330
_cell_angle_beta   93.56030523
_cell_angle_gamma   93.64934492
_symmetry_Int_Tables_number   1
_chemical_formula_structural   Li9Mn7O16
_chemical_formula_sum   'Li9 Mn7 O16'
_cell_volume   298.64860488
_cell_formula_units_Z   1
loop_
 _symmetry_equiv_pos_site_id
 _symmetry_equiv_pos_as_xyz
  1  'x, y, z'
loop_
 _atom_site_type_symbol
 _atom_site_label
 _atom_site_symmetry_multiplicity
 _atom_site_fract_x
 _atom_site_fract_y
 _atom_site_fract_z
 _atom_site_occupancy
  Li  Li0  1  0.13544800  0.68893300  0.25574900  1
  Li  Li1  1  0.86775300  0.82709400  0.75814300  1
  Li  Li2  1  0.60732100  0.94023900  0.24123500  1
  Li  Li3  1  0.61965300  0.43725900  0.24774200  1
  Li  Li4  1  0.38034700  0.56274100  0.75225800  1
  Li  Li5  1  0.13224700  0.17290600  0.24185700  1
  Li  Li6  1  0.86455200  0.31106700  0.74425100  1
  Li  Li7  1  0.39267900  0.05976100  0.75876500  1
  Li  Li8  1  0.50000000  0.00000000  0.00000000  1
  Mn  Mn9  1  0.99643400  0.75923500  0.00143700  1
  Mn  Mn10  1  0.00356600  0.24076500  0.99856300  1
  Mn  Mn11  1  0.75040900  0.87639900  0.50186100  1
  Mn  Mn12  1  0.24959100  0.12360100  0.49813900  1
  Mn  Mn13  1  0.74867200  0.37472400  0.49876100  1
  Mn  Mn14  1  0.50000000  0.50000000  0.00000000  1
  Mn  Mn15  1  0.25132800  0.62527600  0.50123900  1
  O  O16  1  0.52117800  0.71654500  0.10506800  1
  O  O17  1  0.34387400  0.83474500  0.61924300  1
  O  O18  1  0.06535100  0.95129300  0.11774300  1
  O  O19  1  0.08645300  0.46183800  0.11290500  1
  O  O20  1  0.84415700  0.58457900  0.61717800  1
  O  O21  1  0.52776700  0.22402100  0.10691400  1
  O  O22  1  0.34219300  0.33412100  0.61760000  1
  O  O23  1  0.84265900  0.08678000  0.61583000  1
  O  O24  1  0.65780700  0.66587900  0.38240000  1
  O  O25  1  0.47223300  0.77597900  0.89308600  1
  O  O26  1  0.15734100  0.91322000  0.38417000  1
  O  O27  1  0.15584300  0.41542100  0.38282200  1
  O  O28  1  0.91354700  0.53816200  0.88709500  1
  O  O29  1  0.65612600  0.16525500  0.38075700  1
  O  O30  1  0.47882200  0.28345500  0.89493200  1
  O  O31  1  0.93464900  0.04870700  0.88225700  1
