# generated using pymatgen
data_Li7Mn(BO3)3
_symmetry_space_group_name_H-M   'P 1'
_cell_length_a   8.46431600
_cell_length_b   9.28140967
_cell_length_c   11.40943462
_cell_angle_alpha   71.60967961
_cell_angle_beta   79.11812413
_cell_angle_gamma   71.51020999
_symmetry_Int_Tables_number   1
_chemical_formula_structural   Li7Mn(BO3)3
_chemical_formula_sum   'Li28 Mn4 B12 O36'
_cell_volume   802.72163902
_cell_formula_units_Z   4
loop_
 _symmetry_equiv_pos_site_id
 _symmetry_equiv_pos_as_xyz
  1  'x, y, z'
loop_
 _atom_site_type_symbol
 _atom_site_label
 _atom_site_symmetry_multiplicity
 _atom_site_fract_x
 _atom_site_fract_y
 _atom_site_fract_z
 _atom_site_occupancy
  Li  Li0  1  0.58154700  0.83617400  0.24331600  1
  Li  Li1  1  0.41845300  0.16382600  0.75668400  1
  Li  Li2  1  0.65186100  0.99023900  0.95866900  1
  Li  Li3  1  0.34813900  0.00976100  0.04133100  1
  Li  Li4  1  0.94371600  0.15461100  0.48620400  1
  Li  Li5  1  0.05628400  0.84538900  0.51379600  1
  Li  Li6  1  0.16840400  0.57849300  0.95767900  1
  Li  Li7  1  0.83159600  0.42150700  0.04232100  1
  Li  Li8  1  0.79664200  0.95535800  0.40745600  1
  Li  Li9  1  0.20335800  0.04464200  0.59254400  1
  Li  Li10  1  0.98994200  0.34721900  0.61466800  1
  Li  Li11  1  0.01005800  0.65278100  0.38533200  1
  Li  Li12  1  0.67473000  0.34589300  0.69437000  1
  Li  Li13  1  0.32527000  0.65410700  0.30563000  1
  Li  Li14  1  0.49499200  0.91878500  0.62032900  1
  Li  Li15  1  0.50500800  0.08121500  0.37967100  1
  Li  Li16  1  0.78730600  0.89228600  0.65017900  1
  Li  Li17  1  0.21269400  0.10771400  0.34982100  1
  Li  Li18  1  0.88980200  0.83592900  0.19189000  1
  Li  Li19  1  0.11019800  0.16407100  0.80811000  1
  Li  Li20  1  0.96257700  0.88931100  0.96638500  1
  Li  Li21  1  0.03742300  0.11068900  0.03361500  1
  Li  Li22  1  0.15486500  0.73391100  0.72698800  1
  Li  Li23  1  0.84513500  0.26608900  0.27301200  1
  Li  Li24  1  0.80029900  0.23953200  0.89931900  1
  Li  Li25  1  0.19970100  0.76046800  0.10068100  1
  Li  Li26  1  0.83085400  0.70534000  0.87447600  1
  Li  Li27  1  0.16914600  0.29466000  0.12552400  1
  Mn  Mn28  1  0.53870100  0.60639000  0.84364500  1
  Mn  Mn29  1  0.46129900  0.39361000  0.15635500  1
  Mn  Mn30  1  0.70334600  0.52899200  0.41934900  1
  Mn  Mn31  1  0.29665400  0.47100800  0.58065100  1
  B  B32  1  0.77926200  0.66069800  0.60089400  1
  B  B33  1  0.22073800  0.33930200  0.39910600  1
  B  B34  1  0.90657400  0.02515600  0.73688200  1
  B  B35  1  0.09342600  0.97484400  0.26311800  1
  B  B36  1  0.45270400  0.30308800  0.93090400  1
  B  B37  1  0.54729600  0.69691200  0.06909600  1
  B  B38  1  0.37777600  0.78170400  0.47958800  1
  B  B39  1  0.62222400  0.21829600  0.52041200  1
  B  B40  1  0.94388300  0.57504200  0.17440700  1
  B  B41  1  0.05611700  0.42495800  0.82559300  1
  B  B42  1  0.26724600  0.89919100  0.84563600  1
  B  B43  1  0.73275400  0.10080900  0.15436400  1
  O  O44  1  0.29025300  0.74279600  0.84798800  1
  O  O45  1  0.70974700  0.25720400  0.15201200  1
  O  O46  1  0.88290300  0.74699500  0.52173700  1
  O  O47  1  0.11709700  0.25300500  0.47826300  1
  O  O48  1  0.27307100  0.70305800  0.56817700  1
  O  O49  1  0.72692900  0.29694200  0.43182300  1
  O  O50  1  0.82572200  0.92670100  0.82910700  1
  O  O51  1  0.17427800  0.07329900  0.17089300  1
  O  O52  1  0.67296100  0.72580600  0.69253300  1
  O  O53  1  0.32703900  0.27419400  0.30746700  1
  O  O54  1  0.47744900  0.70797200  0.39067100  1
  O  O55  1  0.52255100  0.29202800  0.60932900  1
  O  O56  1  0.17905900  0.95277100  0.94746600  1
  O  O57  1  0.82094100  0.04722900  0.05253400  1
  O  O58  1  0.37129500  0.93376000  0.47626800  1
  O  O59  1  0.62870500  0.06624000  0.52373200  1
  O  O60  1  0.99492800  0.96746300  0.63619900  1
  O  O61  1  0.00507200  0.03253700  0.36380100  1
  O  O62  1  0.68179800  0.99361200  0.25907600  1
  O  O63  1  0.31820200  0.00638800  0.74092400  1
  O  O64  1  0.65624500  0.62166300  0.98408100  1
  O  O65  1  0.34375500  0.37833700  0.01591900  1
  O  O66  1  0.95502600  0.42684200  0.16850200  1
  O  O67  1  0.04497400  0.57315800  0.83149800  1
  O  O68  1  0.98190700  0.31938300  0.91798500  1
  O  O69  1  0.01809300  0.68061700  0.08201500  1
  O  O70  1  0.85597300  0.63116800  0.27722100  1
  O  O71  1  0.14402700  0.36883200  0.72277900  1
  O  O72  1  0.77713200  0.51658700  0.58862400  1
  O  O73  1  0.22286800  0.48341300  0.41137600  1
  O  O74  1  0.44696200  0.16170100  0.92053800  1
  O  O75  1  0.55303800  0.83829900  0.07946200  1
  O  O76  1  0.90090700  0.17436600  0.74081000  1
  O  O77  1  0.09909300  0.82563400  0.25919000  1
  O  O78  1  0.57530600  0.37366000  0.85595100  1
  O  O79  1  0.42469400  0.62634000  0.14404900  1
