# generated using pymatgen
data_LiMnPO4
_symmetry_space_group_name_H-M   'P 1'
_cell_length_a   5.53385681
_cell_length_b   7.64220414
_cell_length_c   8.34623912
_cell_angle_alpha   68.20158545
_cell_angle_beta   94.99205151
_cell_angle_gamma   103.33845352
_symmetry_Int_Tables_number   1
_chemical_formula_structural   LiMnPO4
_chemical_formula_sum   'Li4 Mn4 P4 O16'
_cell_volume   318.88981240
_cell_formula_units_Z   4
loop_
 _symmetry_equiv_pos_site_id
 _symmetry_equiv_pos_as_xyz
  1  'x, y, z'
loop_
 _atom_site_type_symbol
 _atom_site_label
 _atom_site_symmetry_multiplicity
 _atom_site_fract_x
 _atom_site_fract_y
 _atom_site_fract_z
 _atom_site_occupancy
  Li  Li0  1  0.78191800  0.78072700  0.72040200  1
  Li  Li1  1  0.28188700  0.28080300  0.22043000  1
  Li  Li2  1  0.01706400  0.01634700  0.98479900  1
  Li  Li3  1  0.51706600  0.51633700  0.48486200  1
  Mn  Mn4  1  0.89444800  0.18539900  0.54203300  1
  Mn  Mn5  1  0.60701300  0.31288100  0.96285100  1
  Mn  Mn6  1  0.39459900  0.68551000  0.04198700  1
  Mn  Mn7  1  0.10698600  0.81290800  0.46277300  1
  P  P8  1  0.09995500  0.44831200  0.78217900  1
  P  P9  1  0.60001200  0.94833000  0.28216600  1
  P  P10  1  0.39559600  0.04444900  0.72823600  1
  P  P11  1  0.89562000  0.54444700  0.22824900  1
  O  O12  1  0.54394900  0.87874300  0.79434000  1
  O  O13  1  0.04382200  0.37865600  0.29442900  1
  O  O14  1  0.26094300  0.42439600  0.95151200  1
  O  O15  1  0.76099000  0.92441400  0.45150700  1
  O  O16  1  0.98114900  0.24980800  0.77065700  1
  O  O17  1  0.48109100  0.74981700  0.27070900  1
  O  O18  1  0.27144200  0.57968600  0.62674800  1
  O  O19  1  0.77154300  0.07961900  0.12672500  1
  O  O20  1  0.53119400  0.21985000  0.57691100  1
  O  O21  1  0.03130600  0.71978600  0.07692100  1
  O  O22  1  0.36704500  0.09580500  0.88674100  1
  O  O23  1  0.86705100  0.59589000  0.38670000  1
  O  O24  1  0.13345900  0.96727700  0.65990500  1
  O  O25  1  0.63344800  0.46734800  0.15989400  1
  O  O26  1  0.87663500  0.53901400  0.79119900  1
  O  O27  1  0.37677100  0.03913500  0.29114100  1
