# generated using pymatgen
data_Li5V3P8O29
_symmetry_space_group_name_H-M   'P 1'
_cell_length_a   9.79819900
_cell_length_b   9.83199276
_cell_length_c   14.10967111
_cell_angle_alpha   89.43901764
_cell_angle_beta   89.29405813
_cell_angle_gamma   60.20982017
_symmetry_Int_Tables_number   1
_chemical_formula_structural   Li5V3P8O29
_chemical_formula_sum   'Li10 V6 P16 O58'
_cell_volume   1179.54041356
_cell_formula_units_Z   2
loop_
 _symmetry_equiv_pos_site_id
 _symmetry_equiv_pos_as_xyz
  1  'x, y, z'
loop_
 _atom_site_type_symbol
 _atom_site_label
 _atom_site_symmetry_multiplicity
 _atom_site_fract_x
 _atom_site_fract_y
 _atom_site_fract_z
 _atom_site_occupancy
  Li  Li0  1  0.68333100  0.09427900  0.44692700  1
  Li  Li1  1  0.23242900  0.67668400  0.44055300  1
  Li  Li2  1  0.34588300  0.33357200  0.10984000  1
  Li  Li3  1  0.09093200  0.67402000  0.93747900  1
  Li  Li4  1  0.22990500  0.09265700  0.93708800  1
  Li  Li5  1  0.90754600  0.77590900  0.56367300  1
  Li  Li6  1  0.08548700  0.22809200  0.43967900  1
  Li  Li7  1  0.76654100  0.90311000  0.05832900  1
  Li  Li8  1  0.31983500  0.90945300  0.56183100  1
  Li  Li9  1  0.97319800  0.05513600  0.99881400  1
  V  V10  1  0.00130200  0.56305800  0.74913600  1
  V  V11  1  0.99274600  0.43366600  0.24866800  1
  V  V12  1  0.56855200  0.00098800  0.25290300  1
  V  V13  1  0.43312400  0.99937300  0.75239000  1
  V  V14  1  0.56815300  0.43105500  0.75431200  1
  V  V15  1  0.43976900  0.56402900  0.24413600  1
  P  P16  1  0.69399000  0.22129000  0.15620300  1
  P  P17  1  0.68119200  0.09095200  0.66379000  1
  P  P18  1  0.23587400  0.67963600  0.65652400  1
  P  P19  1  0.33072600  0.33562600  0.87299000  1
  P  P20  1  0.32887200  0.33658200  0.36921800  1
  P  P21  1  0.08982400  0.68261600  0.15878000  1
  P  P22  1  0.91391200  0.76682500  0.34240200  1
  P  P23  1  0.22542000  0.09360200  0.15760900  1
  P  P24  1  0.77385000  0.90820600  0.84319800  1
  P  P25  1  0.08962400  0.23139900  0.65571700  1
  P  P26  1  0.91414900  0.30770200  0.83790900  1
  P  P27  1  0.66322700  0.66861500  0.63193800  1
  P  P28  1  0.67058100  0.66895300  0.12780700  1
  P  P29  1  0.76712600  0.31418700  0.34184000  1
  P  P30  1  0.31700400  0.91152700  0.33924600  1
  P  P31  1  0.30793100  0.77282600  0.84054100  1
  O  O32  1  0.76940300  0.22513400  0.42744400  1
  O  O33  1  0.65774200  0.25765800  0.66766800  1
  O  O34  1  0.78843700  0.97885000  0.93315600  1
  O  O35  1  0.66286100  0.07875300  0.16485400  1
  O  O36  1  0.52852800  0.37079800  0.16539900  1
  O  O37  1  0.48080800  0.33146200  0.82690700  1
  O  O38  1  0.38397600  0.52174700  0.67817100  1
  O  O39  1  0.20431400  0.78423400  0.92176500  1
  O  O40  1  0.25680600  0.65512900  0.15865800  1
  O  O41  1  0.48301200  0.18631700  0.33275400  1
  O  O42  1  0.52100200  0.09823700  0.68132200  1
  O  O43  1  0.33188400  0.48326000  0.32479700  1
  O  O44  1  0.33505600  0.33794900  0.97946300  1
  O  O45  1  0.31898900  0.34151800  0.47453600  1
  O  O46  1  0.18643200  0.48950200  0.83592200  1
  O  O47  1  0.37471200  0.10768300  0.16946400  1
  O  O48  1  0.32358800  0.18888700  0.83816300  1
  O  O49  1  0.08665000  0.66357700  0.65799000  1
  O  O50  1  0.00229300  0.78840800  0.25118400  1
  O  O51  1  0.00312800  0.75141900  0.43136500  1
  O  O52  1  0.99751800  0.76523300  0.07182000  1
  O  O53  1  0.09941700  0.51982700  0.17341500  1
  O  O54  1  0.18091500  0.33442200  0.32605200  1
  O  O55  1  0.91816900  0.73931800  0.83340600  1
  O  O56  1  0.10082400  0.38049300  0.67941000  1
  O  O57  1  0.25529400  0.08353200  0.66281900  1
  O  O58  1  0.79279900  0.99953000  0.75195800  1
  O  O59  1  0.75710500  0.00434100  0.57385900  1
  O  O60  1  0.24455200  0.00206500  0.42841700  1
  O  O61  1  0.74859200  0.91481100  0.34363400  1
  O  O62  1  0.90437100  0.61784000  0.32183400  1
  O  O63  1  0.08041600  0.26178800  0.16915600  1
  O  O64  1  0.81404800  0.67058100  0.66814000  1
  O  O65  1  0.91682100  0.46143700  0.83169100  1
  O  O66  1  0.00265600  0.20084500  0.91834800  1
  O  O67  1  0.01329300  0.24344000  0.56393800  1
  O  O68  1  0.99111900  0.21179100  0.74111900  1
  O  O69  1  0.91482700  0.33807000  0.33762600  1
  O  O70  1  0.67259600  0.81598000  0.16598900  1
  O  O71  1  0.62032900  0.90627400  0.83026000  1
  O  O72  1  0.81669500  0.52103400  0.17753500  1
  O  O73  1  0.68447100  0.65690400  0.02348600  1
  O  O74  1  0.65890100  0.66640300  0.52666200  1
  O  O75  1  0.65988000  0.52499500  0.68220100  1
  O  O76  1  0.47745600  0.90276400  0.31772200  1
  O  O77  1  0.51055100  0.81806700  0.67080700  1
  O  O78  1  0.74144900  0.34048500  0.83460500  1
  O  O79  1  0.79218200  0.20813000  0.24907700  1
  O  O80  1  0.79018100  0.20296600  0.07083100  1
  O  O81  1  0.61810900  0.47280000  0.32621000  1
  O  O82  1  0.52445800  0.66360500  0.17225600  1
  O  O83  1  0.46389500  0.61576900  0.83075300  1
  O  O84  1  0.34023600  0.91291400  0.84043600  1
  O  O85  1  0.21218900  0.02329500  0.06760300  1
  O  O86  1  0.20970800  0.00086800  0.24840500  1
  O  O87  1  0.33478400  0.74784800  0.33898500  1
  O  O88  1  0.24956500  0.75327000  0.56545900  1
  O  O89  1  0.21487900  0.79580200  0.74199600  1
