# generated using pymatgen
data_Li9Mn2Co5O16
_symmetry_space_group_name_H-M   'P 1'
_cell_length_a   5.06421200
_cell_length_b   5.12082590
_cell_length_c   11.73275864
_cell_angle_alpha   91.20790982
_cell_angle_beta   92.12980520
_cell_angle_gamma   108.70006724
_symmetry_Int_Tables_number   1
_chemical_formula_structural   Li9Mn2Co5O16
_chemical_formula_sum   'Li9 Mn2 Co5 O16'
_cell_volume   287.82871466
_cell_formula_units_Z   1
loop_
 _symmetry_equiv_pos_site_id
 _symmetry_equiv_pos_as_xyz
  1  'x, y, z'
loop_
 _atom_site_type_symbol
 _atom_site_label
 _atom_site_symmetry_multiplicity
 _atom_site_fract_x
 _atom_site_fract_y
 _atom_site_fract_z
 _atom_site_occupancy
  Li  Li0  1  0.99569600  0.49768300  0.12905700  1
  Li  Li1  1  0.48988400  0.49246600  0.25891500  1
  Li  Li2  1  0.00727200  0.51360400  0.38457400  1
  Li  Li3  1  0.48985400  0.49356100  0.50669100  1
  Li  Li4  1  0.00707800  0.50140300  0.61534300  1
  Li  Li5  1  0.51146800  0.50755500  0.74235900  1
  Li  Li6  1  0.99628800  0.49606200  0.86903600  1
  Li  Li7  1  0.50066900  0.50019200  0.99653100  1
  Li  Li8  1  0.00875600  0.00141700  0.49873600  1
  Mn  Mn9  1  0.99432000  0.99733500  0.99962800  1
  Mn  Mn10  1  0.99957000  0.99923100  0.25412300  1
  Co  Co11  1  0.49424000  0.99516100  0.12624300  1
  Co  Co12  1  0.51369800  0.00971700  0.38671800  1
  Co  Co13  1  0.50347400  0.00398600  0.62371300  1
  Co  Co14  1  0.00153700  0.99957900  0.74056800  1
  Co  Co15  1  0.49558100  0.99541200  0.86747600  1
  O  O16  1  0.24790200  0.77840900  0.00861700  1
  O  O17  1  0.76307500  0.78049400  0.11843100  1
  O  O18  1  0.24187600  0.77755900  0.25412900  1
  O  O19  1  0.76407400  0.77660900  0.35891600  1
  O  O20  1  0.28202900  0.77002200  0.50582900  1
  O  O21  1  0.74984200  0.77704400  0.63139500  1
  O  O22  1  0.25513700  0.75346300  0.76020500  1
  O  O23  1  0.76279100  0.76667600  0.88114500  1
  O  O24  1  0.74269300  0.21768200  0.23942300  1
  O  O25  1  0.23557400  0.23479000  0.36461200  1
  O  O26  1  0.74053900  0.25584900  0.49144000  1
  O  O27  1  0.26269900  0.22345900  0.63249600  1
  O  O28  1  0.73726500  0.22800000  0.74810900  1
  O  O29  1  0.22403500  0.21637600  0.88438200  1
  O  O30  1  0.75055100  0.22070300  0.99444400  1
  O  O31  1  0.23053100  0.21850000  0.12671100  1
