# generated using pymatgen
data_Li4MnCo2O7
_symmetry_space_group_name_H-M   'P 1'
_cell_length_a   2.99187800
_cell_length_b   5.11833474
_cell_length_c   17.21049497
_cell_angle_alpha   85.26358563
_cell_angle_beta   88.62385640
_cell_angle_gamma   75.36879208
_symmetry_Int_Tables_number   1
_chemical_formula_structural   Li4MnCo2O7
_chemical_formula_sum   'Li8 Mn2 Co4 O14'
_cell_volume   254.13305742
_cell_formula_units_Z   2
loop_
 _symmetry_equiv_pos_site_id
 _symmetry_equiv_pos_as_xyz
  1  'x, y, z'
loop_
 _atom_site_type_symbol
 _atom_site_label
 _atom_site_symmetry_multiplicity
 _atom_site_fract_x
 _atom_site_fract_y
 _atom_site_fract_z
 _atom_site_occupancy
  Li  Li0  1  0.71556900  0.56635800  0.92598700  1
  Li  Li1  1  0.14426900  0.71668500  0.78395000  1
  Li  Li2  1  0.57078900  0.85705200  0.64167300  1
  Li  Li3  1  0.99427900  0.99788700  0.49910800  1
  Li  Li4  1  0.43156000  0.13191800  0.35698900  1
  Li  Li5  1  0.88618900  0.27366500  0.22276600  1
  Li  Li6  1  0.27087800  0.44373000  0.07059100  1
  Li  Li7  1  0.12385000  0.73045700  0.28770700  1
  Mn  Mn8  1  0.00973100  0.99654700  0.99833400  1
  Mn  Mn9  1  0.57801900  0.85709300  0.14876100  1
  Co  Co10  1  0.42063900  0.14307900  0.85540400  1
  Co  Co11  1  0.85337400  0.28366300  0.71275300  1
  Co  Co12  1  0.28320600  0.43009300  0.56958800  1
  Co  Co13  1  0.70877300  0.57542700  0.42358900  1
  O  O14  1  0.33642900  0.27051400  0.96010700  1
  O  O15  1  0.75553000  0.40711200  0.81786300  1
  O  O16  1  0.22646900  0.55616200  0.67393100  1
  O  O17  1  0.66235500  0.69094800  0.52956100  1
  O  O18  1  0.05518900  0.82977200  0.39738900  1
  O  O19  1  0.49707500  0.00354100  0.24271800  1
  O  O20  1  0.97017800  0.10623600  0.10749100  1
  O  O21  1  0.09143500  0.87664800  0.89306300  1
  O  O22  1  0.47770400  0.01971100  0.75328800  1
  O  O23  1  0.91818300  0.15579200  0.61037000  1
  O  O24  1  0.37885000  0.30492600  0.46824600  1
  O  O25  1  0.78366000  0.43289200  0.33458900  1
  O  O26  1  0.18015600  0.61387800  0.17529300  1
  O  O27  1  0.67566000  0.72821300  0.03888900  1
