# generated using pymatgen
data_Li4CrTe(WO6)2
_symmetry_space_group_name_H-M   'P 1'
_cell_length_a   5.18287235
_cell_length_b   15.14995783
_cell_length_c   5.49163916
_cell_angle_alpha   85.49529350
_cell_angle_beta   89.98411543
_cell_angle_gamma   89.79131840
_symmetry_Int_Tables_number   1
_chemical_formula_structural   Li4CrTe(WO6)2
_chemical_formula_sum   'Li8 Cr2 Te2 W4 O24'
_cell_volume   429.87024749
_cell_formula_units_Z   2
loop_
 _symmetry_equiv_pos_site_id
 _symmetry_equiv_pos_as_xyz
  1  'x, y, z'
loop_
 _atom_site_type_symbol
 _atom_site_label
 _atom_site_symmetry_multiplicity
 _atom_site_fract_x
 _atom_site_fract_y
 _atom_site_fract_z
 _atom_site_occupancy
  Li  Li0  1  0.00945400  0.63535600  0.59939500  1
  Li  Li1  1  0.00390000  0.13155900  0.56966600  1
  Li  Li2  1  0.49314800  0.89796300  0.03703400  1
  Li  Li3  1  0.49744100  0.40500900  0.06579200  1
  Li  Li4  1  0.99727000  0.40421800  0.58421300  1
  Li  Li5  1  0.99194600  0.90176200  0.60152600  1
  Li  Li6  1  0.50528500  0.09969000  0.93425200  1
  Li  Li7  1  0.50326600  0.61243500  0.98430400  1
  Cr  Cr8  1  0.00533000  0.99975000  0.01076500  1
  Cr  Cr9  1  0.00053600  0.50032200  0.00257100  1
  Te  Te10  1  0.50450100  0.75359300  0.51758500  1
  Te  Te11  1  0.49576700  0.25198300  0.50175000  1
  W  W12  1  0.99443600  0.25009200  0.00693200  1
  W  W13  1  0.99226700  0.75007700  0.01560900  1
  W  W14  1  0.49768000  0.00049600  0.49780400  1
  W  W15  1  0.51271900  0.50293900  0.49746900  1
  O  O16  1  0.31154300  0.71229900  0.81829500  1
  O  O17  1  0.29883500  0.21418400  0.79916200  1
  O  O18  1  0.12488100  0.87109700  0.98988400  1
  O  O19  1  0.11604600  0.36680000  0.98901700  1
  O  O20  1  0.32327100  0.03033200  0.19686400  1
  O  O21  1  0.32021700  0.52064900  0.19361000  1
  O  O22  1  0.13873600  0.70919100  0.30745500  1
  O  O23  1  0.18939800  0.21590300  0.30952900  1
  O  O24  1  0.80288200  0.97390900  0.32110500  1
  O  O25  1  0.79686400  0.46372100  0.30561500  1
  O  O26  1  0.36224500  0.88442400  0.51011000  1
  O  O27  1  0.36629800  0.36945200  0.48795600  1
  O  O28  1  0.62652500  0.13263300  0.50945800  1
  O  O29  1  0.63895400  0.61812400  0.49632100  1
  O  O30  1  0.20833600  0.03303600  0.69866800  1
  O  O31  1  0.20448500  0.52144500  0.68487300  1
  O  O32  1  0.80517700  0.28210900  0.69000800  1
  O  O33  1  0.83410500  0.78190400  0.66842400  1
  O  O34  1  0.69667300  0.97817600  0.80059200  1
  O  O35  1  0.69620600  0.46507900  0.79352700  1
  O  O36  1  0.88809800  0.13064200  0.99732300  1
  O  O37  1  0.87890100  0.62778000  0.96412700  1
  O  O38  1  0.68484400  0.28211300  0.19062000  1
  O  O39  1  0.68154200  0.78895700  0.13559000  1
