# generated using pymatgen
data_Sr2LiCd
_symmetry_space_group_name_H-M   'P 1'
_cell_length_a   13.68875638
_cell_length_b   13.68875638
_cell_length_c   13.68875638
_cell_angle_alpha   121.29816641
_cell_angle_beta   116.17694122
_cell_angle_gamma   92.25594635
_symmetry_Int_Tables_number   1
_chemical_formula_structural   Sr2LiCd
_chemical_formula_sum   'Sr2 Li1 Cd1'
_cell_volume   1842.41142124
_cell_formula_units_Z   1
loop_
 _symmetry_equiv_pos_site_id
 _symmetry_equiv_pos_as_xyz
  1  'x, y, z'
loop_
 _atom_site_type_symbol
 _atom_site_label
 _atom_site_symmetry_multiplicity
 _atom_site_fract_x
 _atom_site_fract_y
 _atom_site_fract_z
 _atom_site_occupancy
  Sr  Sr0  1  0.25048900  0.00000000  0.25048900  1
  Sr  Sr1  1  0.74951200  0.00000000  0.74951100  1
  Li  Li2  1  0.00000000  0.00000000  0.00000000  1
  Cd  Cd3  1  0.50000000  0.00000000  0.50000000  1
