# generated using pymatgen
data_Li5Ti2Fe3O10
_symmetry_space_group_name_H-M   'P 1'
_cell_length_a   5.19425100
_cell_length_b   5.21593041
_cell_length_c   7.91681169
_cell_angle_alpha   70.94871254
_cell_angle_beta   71.29648280
_cell_angle_gamma   80.23419747
_symmetry_Int_Tables_number   1
_chemical_formula_structural   Li5Ti2Fe3O10
_chemical_formula_sum   'Li5 Ti2 Fe3 O10'
_cell_volume   191.52815783
_cell_formula_units_Z   1
loop_
 _symmetry_equiv_pos_site_id
 _symmetry_equiv_pos_as_xyz
  1  'x, y, z'
loop_
 _atom_site_type_symbol
 _atom_site_label
 _atom_site_symmetry_multiplicity
 _atom_site_fract_x
 _atom_site_fract_y
 _atom_site_fract_z
 _atom_site_occupancy
  Li  Li0  1  0.49121300  0.77486900  0.40749900  1
  Li  Li1  1  0.50921700  0.60161700  0.79389300  1
  Li  Li2  1  0.99883300  0.50560300  0.49694000  1
  Li  Li3  1  0.50198100  0.21580700  0.59632100  1
  Li  Li4  1  0.48808700  0.40386100  0.20999900  1
  Ti  Ti5  1  0.01639200  0.90258000  0.69077700  1
  Ti  Ti6  1  0.97573800  0.11034900  0.31082800  1
  Fe  Fe7  1  0.49554900  0.99455200  0.00557800  1
  Fe  Fe8  1  0.99747100  0.69824800  0.10765500  1
  Fe  Fe9  1  0.00105900  0.30769100  0.89559100  1
  O  O10  1  0.23355300  0.96941400  0.83622900  1
  O  O11  1  0.77883400  0.86896000  0.54405200  1
  O  O12  1  0.77024800  0.65241400  0.93089900  1
  O  O13  1  0.23823400  0.77698800  0.24890400  1
  O  O14  1  0.23042300  0.56798700  0.66619100  1
  O  O15  1  0.75630400  0.42343800  0.35172500  1
  O  O16  1  0.76485200  0.22191900  0.76255600  1
  O  O17  1  0.22476300  0.33742000  0.06196600  1
  O  O18  1  0.21812000  0.13259500  0.45873900  1
  O  O19  1  0.76929200  0.06361000  0.15232600  1
