# generated using pymatgen
data_Li9Mn2Co5O16
_symmetry_space_group_name_H-M   'P 1'
_cell_length_a   5.00191200
_cell_length_b   5.22455129
_cell_length_c   11.33778574
_cell_angle_alpha   83.44664868
_cell_angle_beta   87.27019039
_cell_angle_gamma   78.07580576
_symmetry_Int_Tables_number   1
_chemical_formula_structural   Li9Mn2Co5O16
_chemical_formula_sum   'Li9 Mn2 Co5 O16'
_cell_volume   287.91183414
_cell_formula_units_Z   1
loop_
 _symmetry_equiv_pos_site_id
 _symmetry_equiv_pos_as_xyz
  1  'x, y, z'
loop_
 _atom_site_type_symbol
 _atom_site_label
 _atom_site_symmetry_multiplicity
 _atom_site_fract_x
 _atom_site_fract_y
 _atom_site_fract_z
 _atom_site_occupancy
  Li  Li0  1  0.24864800  0.43352000  0.06172500  1
  Li  Li1  1  0.75336300  0.57681200  0.92829700  1
  Li  Li2  1  0.25382900  0.68983500  0.80453300  1
  Li  Li3  1  0.23818100  0.18314700  0.32510700  1
  Li  Li4  1  0.75413800  0.30893800  0.19226900  1
  Li  Li5  1  0.23297800  0.92606500  0.56676800  1
  Li  Li6  1  0.75103400  0.06785800  0.44133700  1
  Li  Li7  1  0.76288200  0.81336300  0.68152300  1
  Li  Li8  1  0.00284100  0.50007300  0.50053600  1
  Mn  Mn9  1  0.00202000  0.99873600  0.00147000  1
  Mn  Mn10  1  0.49837900  0.86762800  0.12996700  1
  Co  Co11  1  0.50475600  0.13443400  0.86820400  1
  Co  Co12  1  0.00174600  0.25603400  0.74519200  1
  Co  Co13  1  0.48673200  0.38951600  0.61637700  1
  Co  Co14  1  0.50736500  0.62229700  0.37714000  1
  Co  Co15  1  0.99700500  0.73280900  0.25742400  1
  O  O16  1  0.14026300  0.08315600  0.14684500  1
  O  O17  1  0.62589500  0.17295000  0.04207900  1
  O  O18  1  0.14016600  0.33082100  0.89572100  1
  O  O19  1  0.13802100  0.82944200  0.38926300  1
  O  O20  1  0.62455000  0.93290400  0.28090900  1
  O  O21  1  0.14927600  0.59013200  0.65270700  1
  O  O22  1  0.60307000  0.71163000  0.51670000  1
  O  O23  1  0.64683100  0.44448200  0.78185000  1
  O  O24  1  0.37073300  0.78594600  0.98156700  1
  O  O25  1  0.86126500  0.91112800  0.85806000  1
  O  O26  1  0.36160100  0.05606100  0.71778300  1
  O  O27  1  0.37295900  0.56860300  0.22170700  1
  O  O28  1  0.85948600  0.66128800  0.10971400  1
  O  O29  1  0.39820600  0.32248200  0.45736100  1
  O  O30  1  0.84669900  0.42622000  0.34415200  1
  O  O31  1  0.86508500  0.17169000  0.60571300  1
