# generated using pymatgen
data_LiZn2Cu
_symmetry_space_group_name_H-M   'P 1'
_cell_length_a   9.48625971
_cell_length_b   9.48625971
_cell_length_c   9.48625971
_cell_angle_alpha   121.12077837
_cell_angle_beta   115.56524677
_cell_angle_gamma   92.95878113
_symmetry_Int_Tables_number   1
_chemical_formula_structural   LiZn2Cu
_chemical_formula_sum   'Li1 Zn2 Cu1'
_cell_volume   616.14939626
_cell_formula_units_Z   1
loop_
 _symmetry_equiv_pos_site_id
 _symmetry_equiv_pos_as_xyz
  1  'x, y, z'
loop_
 _atom_site_type_symbol
 _atom_site_label
 _atom_site_symmetry_multiplicity
 _atom_site_fract_x
 _atom_site_fract_y
 _atom_site_fract_z
 _atom_site_occupancy
  Li  Li0  1  0.00000000  0.00000000  0.00000000  1
  Zn  Zn1  1  0.74126200  0.00000000  0.74126200  1
  Zn  Zn2  1  0.25873800  0.00000000  0.25873800  1
  Cu  Cu3  1  0.50000000  0.00000000  0.50000000  1
