# generated using pymatgen
data_Li4V3CoCu2(PO4)6
_symmetry_space_group_name_H-M   'P 1'
_cell_length_a   8.60370523
_cell_length_b   8.85682734
_cell_length_c   8.86563870
_cell_angle_alpha   59.84062324
_cell_angle_beta   58.82557821
_cell_angle_gamma   59.15760712
_symmetry_Int_Tables_number   1
_chemical_formula_structural   Li4V3CoCu2(PO4)6
_chemical_formula_sum   'Li4 V3 Co1 Cu2 P6 O24'
_cell_volume   469.73359105
_cell_formula_units_Z   1
loop_
 _symmetry_equiv_pos_site_id
 _symmetry_equiv_pos_as_xyz
  1  'x, y, z'
loop_
 _atom_site_type_symbol
 _atom_site_label
 _atom_site_symmetry_multiplicity
 _atom_site_fract_x
 _atom_site_fract_y
 _atom_site_fract_z
 _atom_site_occupancy
  Li  Li0  1  0.24984200  0.85452800  0.64770100  1
  Li  Li1  1  0.72306800  0.15540100  0.34314100  1
  Li  Li2  1  0.72430200  0.77823800  0.15346600  1
  Li  Li3  1  0.72454900  0.34329700  0.78136000  1
  V  V4  1  0.07244100  0.64163400  0.64323000  1
  V  V5  1  0.42677100  0.85630800  0.85954800  1
  V  V6  1  0.93980700  0.35563000  0.35010600  1
  Co  Co7  1  0.55241400  0.15367300  0.14771600  1
  Cu  Cu8  1  0.00149300  0.00241900  0.01213400  1
  Cu  Cu9  1  0.49234000  0.48626500  0.50070900  1
  P  P10  1  0.25288600  0.24940600  0.54957200  1
  P  P11  1  0.25516500  0.94900500  0.24678100  1
  P  P12  1  0.25538000  0.54783500  0.94730700  1
  P  P13  1  0.75137700  0.46035600  0.04051100  1
  P  P14  1  0.76004400  0.04061700  0.74590600  1
  P  P15  1  0.74554400  0.75018300  0.45886200  1
  O  O16  1  0.07356400  0.11324700  0.30139700  1
  O  O17  1  0.07341400  0.50757200  0.10821000  1
  O  O18  1  0.07358700  0.30667700  0.50855700  1
  O  O19  1  0.23432900  0.08195300  0.73686400  1
  O  O20  1  0.44490000  0.19243100  0.39487400  1
  O  O21  1  0.25838500  0.40708900  0.57629700  1
  O  O22  1  0.23827700  0.92972100  0.09079900  1
  O  O23  1  0.26020000  0.76351000  0.41549900  1
  O  O24  1  0.56848000  0.61440100  0.00408500  1
  O  O25  1  0.26782500  0.57696500  0.75209200  1
  O  O26  1  0.77103600  0.26836000  0.05352800  1
  O  O27  1  0.58843100  0.99531400  0.79454100  1
  O  O28  1  0.44564700  0.97132900  0.18902800  1
  O  O29  1  0.23052400  0.74421600  0.92796100  1
  O  O30  1  0.73287600  0.43426900  0.23847900  1
  O  O31  1  0.44532400  0.39610500  0.96954200  1
  O  O32  1  0.74292100  0.23739700  0.58721400  1
  O  O33  1  0.76348100  0.06432300  0.90711100  1
  O  O34  1  0.74280700  0.59294700  0.42545800  1
  O  O35  1  0.54993900  0.80445900  0.61312200  1
  O  O36  1  0.76589800  0.91143200  0.26701800  1
  O  O37  1  0.91413700  0.69116300  0.51244700  1
  O  O38  1  0.93299100  0.50360300  0.88992600  1
  O  O39  1  0.95360600  0.88972400  0.68489900  1
