# generated using pymatgen
data_Li2MnV3O8
_symmetry_space_group_name_H-M   'P 1'
_cell_length_a   8.20664900
_cell_length_b   8.53248112
_cell_length_c   8.66907492
_cell_angle_alpha   89.99576294
_cell_angle_beta   89.86545609
_cell_angle_gamma   89.92095748
_symmetry_Int_Tables_number   1
_chemical_formula_structural   Li2MnV3O8
_chemical_formula_sum   'Li8 Mn4 V12 O32'
_cell_volume   607.03305365
_cell_formula_units_Z   4
loop_
 _symmetry_equiv_pos_site_id
 _symmetry_equiv_pos_as_xyz
  1  'x, y, z'
loop_
 _atom_site_type_symbol
 _atom_site_label
 _atom_site_symmetry_multiplicity
 _atom_site_fract_x
 _atom_site_fract_y
 _atom_site_fract_z
 _atom_site_occupancy
  Li  Li0  1  0.00416700  0.00209700  0.99838300  1
  Li  Li1  1  0.24613800  0.24858100  0.74944200  1
  Li  Li2  1  0.25369400  0.74935200  0.25140600  1
  Li  Li3  1  0.49685100  0.50017300  0.99960900  1
  Li  Li4  1  0.50342800  0.99889400  0.50082600  1
  Li  Li5  1  0.74759700  0.75160600  0.75072800  1
  Li  Li6  1  0.75355400  0.25068400  0.25002900  1
  Li  Li7  1  0.99643600  0.50006200  0.50065800  1
  Mn  Mn8  1  0.12354800  0.37536600  0.12432000  1
  Mn  Mn9  1  0.37647700  0.87525300  0.87276400  1
  Mn  Mn10  1  0.62463900  0.62434000  0.37345700  1
  Mn  Mn11  1  0.87725100  0.12129500  0.62861100  1
  V  V12  1  0.12547200  0.62530700  0.87136800  1
  V  V13  1  0.12749700  0.87406800  0.61992800  1
  V  V14  1  0.12629700  0.12329600  0.37506800  1
  V  V15  1  0.37433900  0.62197000  0.62848100  1
  V  V16  1  0.37020400  0.37607200  0.38169900  1
  V  V17  1  0.37669300  0.12781600  0.12983600  1
  V  V18  1  0.61824400  0.37275100  0.63172100  1
  V  V19  1  0.62516300  0.12679900  0.87948600  1
  V  V20  1  0.62587500  0.87636300  0.12561800  1
  V  V21  1  0.87725800  0.37761300  0.86709500  1
  V  V22  1  0.87304600  0.62440700  0.11623300  1
  V  V23  1  0.87624900  0.87270900  0.37094900  1
  O  O24  1  0.11337400  0.39070200  0.88122700  1
  O  O25  1  0.10329200  0.61838300  0.11406400  1
  O  O26  1  0.12056600  0.89032800  0.38882700  1
  O  O27  1  0.13988900  0.86294700  0.85518100  1
  O  O28  1  0.11448300  0.10803900  0.60953700  1
  O  O29  1  0.14055800  0.63870100  0.62868400  1
  O  O30  1  0.14058800  0.35982300  0.37393200  1
  O  O31  1  0.13389800  0.13525900  0.14678600  1
  O  O32  1  0.36686500  0.63467500  0.85522900  1
  O  O33  1  0.35807600  0.85916800  0.62665900  1
  O  O34  1  0.35834000  0.13869700  0.37162800  1
  O  O35  1  0.38680100  0.60804300  0.39094000  1
  O  O36  1  0.36166600  0.36370000  0.14707700  1
  O  O37  1  0.37081600  0.39031400  0.61105800  1
  O  O38  1  0.39503100  0.11746900  0.88654200  1
  O  O39  1  0.39750100  0.88920900  0.12093600  1
  O  O40  1  0.60266700  0.61230200  0.62161800  1
  O  O41  1  0.60434100  0.38072100  0.39250400  1
  O  O42  1  0.62165800  0.11142000  0.10981900  1
  O  O43  1  0.64134900  0.13849200  0.64144200  1
  O  O44  1  0.61400500  0.89178900  0.89060200  1
  O  O45  1  0.63245800  0.36153600  0.86411300  1
  O  O46  1  0.64230900  0.64065800  0.12594700  1
  O  O47  1  0.63403400  0.86378500  0.35458300  1
  O  O48  1  0.87079400  0.37093200  0.65265100  1
  O  O49  1  0.85727100  0.13898600  0.87156600  1
  O  O50  1  0.85892700  0.86152200  0.12881400  1
  O  O51  1  0.88544700  0.38877000  0.10138200  1
  O  O52  1  0.86047400  0.63647000  0.35343800  1
  O  O53  1  0.88035200  0.61002100  0.88654000  1
  O  O54  1  0.89702200  0.87793600  0.61326400  1
  O  O55  1  0.89503300  0.11247000  0.38555000  1
