# generated using pymatgen
data_Li5Mn2Fe3O10
_symmetry_space_group_name_H-M   'P 1'
_cell_length_a   6.62126470
_cell_length_b   7.96585050
_cell_length_c   7.89587405
_cell_angle_alpha   92.99795945
_cell_angle_beta   64.89889239
_cell_angle_gamma   89.24606141
_symmetry_Int_Tables_number   1
_chemical_formula_structural   Li5Mn2Fe3O10
_chemical_formula_sum   'Li10 Mn4 Fe6 O20'
_cell_volume   376.32587418
_cell_formula_units_Z   2
loop_
 _symmetry_equiv_pos_site_id
 _symmetry_equiv_pos_as_xyz
  1  'x, y, z'
loop_
 _atom_site_type_symbol
 _atom_site_label
 _atom_site_symmetry_multiplicity
 _atom_site_fract_x
 _atom_site_fract_y
 _atom_site_fract_z
 _atom_site_occupancy
  Li  Li0  1  0.99645500  0.99760400  0.50093400  1
  Li  Li1  1  0.49855200  0.49889200  0.49416100  1
  Li  Li2  1  0.14636400  0.34743400  0.41252200  1
  Li  Li3  1  0.64525500  0.84316200  0.41146700  1
  Li  Li4  1  0.85128200  0.65739400  0.59480000  1
  Li  Li5  1  0.35483200  0.16150300  0.59180300  1
  Li  Li6  1  0.56259600  0.95508900  0.77160200  1
  Li  Li7  1  0.05455800  0.45629500  0.77397800  1
  Li  Li8  1  0.44262400  0.04390100  0.22612700  1
  Li  Li9  1  0.93790400  0.54499600  0.22470900  1
  Mn  Mn10  1  0.70605300  0.29879800  0.69193100  1
  Mn  Mn11  1  0.20763700  0.80010700  0.69274000  1
  Mn  Mn12  1  0.28999200  0.69410200  0.30957600  1
  Mn  Mn13  1  0.79079400  0.19468000  0.30855100  1
  Fe  Fe14  1  0.74868700  0.75181900  0.00473500  1
  Fe  Fe15  1  0.25426000  0.25257900  0.00338400  1
  Fe  Fe16  1  0.90322700  0.10542100  0.89101600  1
  Fe  Fe17  1  0.40873200  0.60424300  0.89072600  1
  Fe  Fe18  1  0.09873300  0.90004900  0.11149300  1
  Fe  Fe19  1  0.60252600  0.40159400  0.10659400  1
  O  O20  1  0.21981500  0.03790500  0.86344500  1
  O  O21  1  0.71542700  0.53102400  0.85281400  1
  O  O22  1  0.78883600  0.98966600  0.15029400  1
  O  O23  1  0.27362400  0.48613400  0.14642400  1
  O  O24  1  0.58450600  0.17858100  0.92928800  1
  O  O25  1  0.09602300  0.69423400  0.93658300  1
  O  O26  1  0.40387300  0.81471800  0.06990200  1
  O  O27  1  0.92904400  0.30887400  0.06340100  1
  O  O28  1  0.68225100  0.07659700  0.52651200  1
  O  O29  1  0.17862400  0.57743400  0.52862200  1
  O  O30  1  0.31108800  0.89381400  0.44898600  1
  O  O31  1  0.81416700  0.39397300  0.44852600  1
  O  O32  1  0.11486000  0.12544400  0.24149300  1
  O  O33  1  0.60165000  0.63434000  0.25064300  1
  O  O34  1  0.89284000  0.88168800  0.76345700  1
  O  O35  1  0.38451600  0.37653000  0.76537700  1
  O  O36  1  0.00625700  0.22897300  0.66220500  1
  O  O37  1  0.50612700  0.72961200  0.66161900  1
  O  O38  1  0.99471600  0.76766600  0.33813100  1
  O  O39  1  0.50069400  0.26312900  0.33943000  1
