# generated using pymatgen
data_Li9Mn2Co5O16
_symmetry_space_group_name_H-M   'P 1'
_cell_length_a   8.95948265
_cell_length_b   8.95948265
_cell_length_c   5.86492744
_cell_angle_alpha   89.45129037
_cell_angle_beta   89.45129037
_cell_angle_gamma   37.78267622
_symmetry_Int_Tables_number   1
_chemical_formula_structural   Li9Mn2Co5O16
_chemical_formula_sum   'Li9 Mn2 Co5 O16'
_cell_volume   288.42409671
_cell_formula_units_Z   1
loop_
 _symmetry_equiv_pos_site_id
 _symmetry_equiv_pos_as_xyz
  1  'x, y, z'
loop_
 _atom_site_type_symbol
 _atom_site_label
 _atom_site_symmetry_multiplicity
 _atom_site_fract_x
 _atom_site_fract_y
 _atom_site_fract_z
 _atom_site_occupancy
  Li  Li0  1  0.87818800  0.87818800  0.25124100  1
  Li  Li1  1  0.12130600  0.12130600  0.74625500  1
  Li  Li2  1  0.75503700  0.23861100  0.99483300  1
  Li  Li3  1  0.00178400  0.50568100  0.50181500  1
  Li  Li4  1  0.62187600  0.62187600  0.74981100  1
  Li  Li5  1  0.50568100  0.00178400  0.50181500  1
  Li  Li6  1  0.37612400  0.37612400  0.24915100  1
  Li  Li7  1  0.23861100  0.75503700  0.99483300  1
  Li  Li8  1  0.87721400  0.87721400  0.75105800  1
  Mn  Mn9  1  0.00295100  0.50078300  0.99756500  1
  Mn  Mn10  1  0.50078300  0.00295100  0.99756500  1
  Co  Co11  1  0.23731800  0.75110100  0.50943900  1
  Co  Co12  1  0.75110100  0.23731800  0.50943900  1
  Co  Co13  1  0.12506700  0.12506700  0.25317300  1
  Co  Co14  1  0.37668800  0.37668800  0.74843500  1
  Co  Co15  1  0.61627300  0.61627300  0.25584900  1
  O  O16  1  0.75141100  0.75141100  0.22402500  1
  O  O17  1  0.00192000  0.00192000  0.74118400  1
  O  O18  1  0.60138500  0.12805700  0.97979100  1
  O  O19  1  0.88421100  0.36204800  0.47871600  1
  O  O20  1  0.50433200  0.50433200  0.74138000  1
  O  O21  1  0.36204800  0.88421100  0.47871600  1
  O  O22  1  0.25377800  0.25377800  0.22367900  1
  O  O23  1  0.12805700  0.60138500  0.97979100  1
  O  O24  1  0.99602300  0.99602300  0.26196300  1
  O  O25  1  0.24612100  0.24612100  0.77416100  1
  O  O26  1  0.89543000  0.37526800  0.02377800  1
  O  O27  1  0.14650000  0.61458600  0.51422200  1
  O  O28  1  0.74583200  0.74583100  0.77718300  1
  O  O29  1  0.61458600  0.14650000  0.51422200  1
  O  O30  1  0.50709500  0.50709500  0.25113300  1
  O  O31  1  0.37526800  0.89543000  0.02377800  1
