# generated using pymatgen
data_Li9Mn2Co5O16
_symmetry_space_group_name_H-M   'P 1'
_cell_length_a   4.96991200
_cell_length_b   5.87874804
_cell_length_c   9.74100532
_cell_angle_alpha   98.58240541
_cell_angle_beta   93.59134958
_cell_angle_gamma   90.08213172
_symmetry_Int_Tables_number   1
_chemical_formula_structural   Li9Mn2Co5O16
_chemical_formula_sum   'Li9 Mn2 Co5 O16'
_cell_volume   280.84529226
_cell_formula_units_Z   1
loop_
 _symmetry_equiv_pos_site_id
 _symmetry_equiv_pos_as_xyz
  1  'x, y, z'
loop_
 _atom_site_type_symbol
 _atom_site_label
 _atom_site_symmetry_multiplicity
 _atom_site_fract_x
 _atom_site_fract_y
 _atom_site_fract_z
 _atom_site_occupancy
  Li  Li0  1  0.38522700  0.80897700  0.24726700  1
  Li  Li1  1  0.61477300  0.19102300  0.75273300  1
  Li  Li2  1  0.86222800  0.56051800  0.24622400  1
  Li  Li3  1  0.86481600  0.06001000  0.24734700  1
  Li  Li4  1  0.13777200  0.43948200  0.75377600  1
  Li  Li5  1  0.38453800  0.31336500  0.24627400  1
  Li  Li6  1  0.61546200  0.68663500  0.75372600  1
  Li  Li7  1  0.13518400  0.93999000  0.75265300  1
  Li  Li8  1  0.50000000  0.50000000  0.00000000  1
  Mn  Mn9  1  0.00021600  0.74691300  0.00006300  1
  Mn  Mn10  1  0.99978400  0.25308700  0.99993700  1
  Co  Co11  1  0.24921600  0.12487200  0.49956100  1
  Co  Co12  1  0.75078400  0.87512800  0.50043900  1
  Co  Co13  1  0.24901700  0.62505400  0.49948900  1
  Co  Co14  1  0.50000000  0.00000000  0.00000000  1
  Co  Co15  1  0.75098300  0.37494600  0.50051100  1
  O  O16  1  0.15608300  0.52720300  0.11098200  1
  O  O17  1  0.44658600  0.90487300  0.61711600  1
  O  O18  1  0.69305800  0.26124300  0.11006200  1
  O  O19  1  0.69296000  0.79259300  0.11015800  1
  O  O20  1  0.94519200  0.15499400  0.61702800  1
  O  O21  1  0.18296600  0.02630100  0.10713400  1
  O  O22  1  0.44632900  0.40589400  0.61849300  1
  O  O23  1  0.94537000  0.65533900  0.61684200  1
  O  O24  1  0.55341400  0.09512700  0.38288400  1
  O  O25  1  0.84391700  0.47279700  0.88901800  1
  O  O26  1  0.05480800  0.84500600  0.38297200  1
  O  O27  1  0.05463000  0.34466100  0.38315800  1
  O  O28  1  0.30694200  0.73875700  0.88993800  1
  O  O29  1  0.55367100  0.59410600  0.38150700  1
  O  O30  1  0.81703400  0.97369900  0.89286600  1
  O  O31  1  0.30704000  0.20740700  0.88984200  1
