# generated using pymatgen
data_Li4V3P8O29
_symmetry_space_group_name_H-M   'P 1'
_cell_length_a   9.73650500
_cell_length_b   9.75040485
_cell_length_c   14.18696488
_cell_angle_alpha   89.18998627
_cell_angle_beta   89.55178923
_cell_angle_gamma   60.25399189
_symmetry_Int_Tables_number   1
_chemical_formula_structural   Li4V3P8O29
_chemical_formula_sum   'Li8 V6 P16 O58'
_cell_volume   1169.25200648
_cell_formula_units_Z   2
loop_
 _symmetry_equiv_pos_site_id
 _symmetry_equiv_pos_as_xyz
  1  'x, y, z'
loop_
 _atom_site_type_symbol
 _atom_site_label
 _atom_site_symmetry_multiplicity
 _atom_site_fract_x
 _atom_site_fract_y
 _atom_site_fract_z
 _atom_site_occupancy
  Li  Li0  1  0.68756400  0.08511800  0.05904000  1
  Li  Li1  1  0.09131300  0.22642400  0.05642000  1
  Li  Li2  1  0.22627800  0.68254300  0.05906000  1
  Li  Li3  1  0.90936400  0.32545300  0.44293700  1
  Li  Li4  1  0.09244700  0.67249500  0.56364500  1
  Li  Li5  1  0.77043400  0.31730600  0.93479500  1
  Li  Li6  1  0.32587400  0.90180900  0.93760800  1
  Li  Li7  1  0.00061800  0.99849700  0.50562200  1
  V  V8  1  0.00003100  0.43461500  0.24758200  1
  V  V9  1  0.99731600  0.56768000  0.75379400  1
  V  V10  1  0.56179800  0.43346800  0.74350800  1
  V  V11  1  0.43575800  0.56783400  0.25536200  1
  V  V12  1  0.56499100  0.99738800  0.25895900  1
  V  V13  1  0.43693800  0.00301300  0.74101600  1
  P  P14  1  0.68196400  0.08754800  0.84294000  1
  P  P15  1  0.69529500  0.22114700  0.33727500  1
  P  P16  1  0.21731900  0.08122100  0.34065600  1
  P  P17  1  0.33942800  0.33074400  0.13326600  1
  P  P18  1  0.33004500  0.33824900  0.62895900  1
  P  P19  1  0.09196000  0.22498200  0.83805700  1
  P  P20  1  0.91354500  0.31458200  0.65731700  1
  P  P21  1  0.23074900  0.67955500  0.84497800  1
  P  P22  1  0.76631100  0.32191700  0.15345300  1
  P  P23  1  0.08652200  0.68412300  0.34621300  1
  P  P24  1  0.91137700  0.77814700  0.16545200  1
  P  P25  1  0.66778900  0.66194100  0.37133800  1
  P  P26  1  0.66062200  0.66747900  0.86555000  1
  P  P27  1  0.78356500  0.91959400  0.65900500  1
  P  P28  1  0.30394000  0.78138900  0.66241200  1
  P  P29  1  0.31922500  0.91214200  0.15735500  1
  O  O30  1  0.79739700  0.00717600  0.57713100  1
  O  O31  1  0.65625600  0.08495300  0.33639700  1
  O  O32  1  0.75228500  0.25079800  0.06350800  1
  O  O33  1  0.66023900  0.25725600  0.83525600  1
  O  O34  1  0.52243800  0.09471100  0.82002200  1
  O  O35  1  0.48502100  0.18122900  0.17969100  1
  O  O36  1  0.37969500  0.07856600  0.32966800  1
  O  O37  1  0.24715600  0.99624000  0.06600000  1
  O  O38  1  0.25820800  0.07574400  0.83669300  1
  O  O39  1  0.48284200  0.32921500  0.67585600  1
  O  O40  1  0.53690300  0.38155100  0.32853700  1
  O  O41  1  0.32607500  0.19016300  0.67465200  1
  O  O42  1  0.35272800  0.32824100  0.02862400  1
  O  O43  1  0.33965900  0.33293500  0.52486100  1
  O  O44  1  0.18631700  0.32838300  0.16703100  1
  O  O45  1  0.38262300  0.52152400  0.82222300  1
  O  O46  1  0.33798300  0.47979200  0.17624200  1
  O  O47  1  0.08251500  0.25669400  0.33362500  1
  O  O48  1  0.00193200  0.20421900  0.74867900  1
  O  O49  1  0.98264100  0.22755600  0.56813800  1
  O  O50  1  0.00294300  0.23346300  0.92729500  1
  O  O51  1  0.10685000  0.37337700  0.82219000  1
  O  O52  1  0.18604100  0.49082000  0.66782200  1
  O  O53  1  0.91727200  0.33666300  0.15610400  1
  O  O54  1  0.09080600  0.52740700  0.33009100  1
  O  O55  1  0.25749300  0.65813700  0.32784800  1
  O  O56  1  0.78638500  0.20118700  0.23822300  1
  O  O57  1  0.79970300  0.20887400  0.41637400  1
  O  O58  1  0.19842800  0.79584000  0.58315400  1
  O  O59  1  0.73998600  0.34707800  0.66874600  1
  O  O60  1  0.91665700  0.46904400  0.66809100  1
  O  O61  1  0.08698400  0.65691300  0.84028100  1
  O  O62  1  0.81215800  0.50982100  0.33308500  1
  O  O63  1  0.90228700  0.62360700  0.17940400  1
  O  O64  1  0.00688500  0.77469600  0.08298500  1
  O  O65  1  0.02537700  0.76254700  0.43816700  1
  O  O66  1  0.98432100  0.80257400  0.26193600  1
  O  O67  1  0.91657700  0.74574800  0.66257700  1
  O  O68  1  0.66272100  0.51735800  0.82304700  1
  O  O69  1  0.61884600  0.48097000  0.17672200  1
  O  O70  1  0.80982300  0.66867000  0.82440900  1
  O  O71  1  0.65103000  0.66540200  0.97022500  1
  O  O72  1  0.65601100  0.66727300  0.47523700  1
  O  O73  1  0.67142400  0.81061000  0.32594600  1
  O  O74  1  0.46124300  0.62004800  0.66975400  1
  O  O75  1  0.51581400  0.67110000  0.32247100  1
  O  O76  1  0.74072200  0.92195100  0.16494400  1
  O  O77  1  0.79937600  0.99211700  0.75809400  1
  O  O78  1  0.74938700  0.01378300  0.93546200  1
  O  O79  1  0.61934900  0.92308800  0.67017100  1
  O  O80  1  0.51287900  0.81830900  0.82216000  1
  O  O81  1  0.47800100  0.90460800  0.17932500  1
  O  O82  1  0.33939400  0.74409900  0.16006300  1
  O  O83  1  0.24749100  0.74999200  0.93465300  1
  O  O84  1  0.21295500  0.80104700  0.76101400  1
  O  O85  1  0.34445900  0.91622100  0.66349400  1
  O  O86  1  0.19852000  0.99911200  0.42345900  1
  O  O87  1  0.20103500  0.00598900  0.24246000  1
