# generated using pymatgen
data_LiVP4(H2O7)2
_symmetry_space_group_name_H-M   'P 1'
_cell_length_a   5.16718389
_cell_length_b   9.88077350
_cell_length_c   10.26948241
_cell_angle_alpha   84.27553515
_cell_angle_beta   80.91614519
_cell_angle_gamma   83.07538009
_symmetry_Int_Tables_number   1
_chemical_formula_structural   LiVP4(H2O7)2
_chemical_formula_sum   'Li2 V2 P8 H8 O28'
_cell_volume   512.21888648
_cell_formula_units_Z   2
loop_
 _symmetry_equiv_pos_site_id
 _symmetry_equiv_pos_as_xyz
  1  'x, y, z'
loop_
 _atom_site_type_symbol
 _atom_site_label
 _atom_site_symmetry_multiplicity
 _atom_site_fract_x
 _atom_site_fract_y
 _atom_site_fract_z
 _atom_site_occupancy
  Li  Li0  1  0.24133700  0.24818100  0.75501300  1
  Li  Li1  1  0.75860300  0.75172400  0.24507300  1
  V  V2  1  0.50002200  0.49995200  0.49997900  1
  V  V3  1  0.99995600  0.00003100  0.00002700  1
  P  P4  1  0.06529200  0.45489100  0.27353500  1
  P  P5  1  0.56565300  0.95566200  0.77372500  1
  P  P6  1  0.93470000  0.54511400  0.72642900  1
  P  P7  1  0.43432600  0.04434400  0.22630900  1
  P  P8  1  0.31691600  0.68431800  0.07747200  1
  P  P9  1  0.81727200  0.18486100  0.57796800  1
  P  P10  1  0.68315900  0.31568400  0.92251200  1
  P  P11  1  0.18269900  0.81514000  0.42204200  1
  H  H12  1  0.20544900  0.63415800  0.89013900  1
  H  H13  1  0.70409300  0.13309600  0.39160200  1
  H  H14  1  0.79456700  0.36585700  0.10984800  1
  H  H15  1  0.29592300  0.86691800  0.60839400  1
  H  H16  1  0.88064300  0.80493500  0.83251800  1
  H  H17  1  0.38062800  0.30444700  0.33228900  1
  H  H18  1  0.11939400  0.19507800  0.16746600  1
  H  H19  1  0.61930900  0.69556200  0.66771100  1
  O  O20  1  0.83267700  0.50636100  0.37149400  1
  O  O21  1  0.33282400  0.00669300  0.87222700  1
  O  O22  1  0.16727400  0.49367100  0.62843300  1
  O  O23  1  0.66715200  0.99328800  0.12782400  1
  O  O24  1  0.02401500  0.34109700  0.19349400  1
  O  O25  1  0.52460200  0.84214900  0.69335800  1
  O  O26  1  0.97592100  0.65888300  0.80652500  1
  O  O27  1  0.47547100  0.15789700  0.30659600  1
  O  O28  1  0.12614300  0.81637500  0.07422700  1
  O  O29  1  0.62925700  0.31751600  0.57381500  1
  O  O30  1  0.87396000  0.18362300  0.92582400  1
  O  O31  1  0.37070900  0.68248500  0.42612900  1
  O  O32  1  0.42921700  0.31214600  0.87453800  1
  O  O33  1  0.92798200  0.81224100  0.37432600  1
  O  O34  1  0.57089800  0.68777700  0.12542900  1
  O  O35  1  0.07196800  0.18782000  0.62568600  1
  O  O36  1  0.12893700  0.58696400  0.18005700  1
  O  O37  1  0.62909600  0.08820800  0.68136100  1
  O  O38  1  0.87115600  0.41298600  0.81990400  1
  O  O39  1  0.37083700  0.91185000  0.31868700  1
  O  O40  1  0.36178400  0.62295400  0.94053700  1
  O  O41  1  0.86082600  0.12214000  0.44160000  1
  O  O42  1  0.63825400  0.37707300  0.05943400  1
  O  O43  1  0.13915900  0.87783800  0.55841800  1
  O  O44  1  0.31356200  0.40581300  0.34981600  1
  O  O45  1  0.81364300  0.90632200  0.85026400  1
  O  O46  1  0.68631200  0.59418000  0.65020900  1
  O  O47  1  0.18642700  0.09369600  0.14973600  1
