# generated using pymatgen
data_Na7Li4Yb5C12O37
_symmetry_space_group_name_H-M   'P 1'
_cell_length_a   10.33175301
_cell_length_b   10.33175301
_cell_length_c   10.27883032
_cell_angle_alpha   61.31083268
_cell_angle_beta   61.31083268
_cell_angle_gamma   59.19813297
_symmetry_Int_Tables_number   1
_chemical_formula_structural   Na7Li4Yb5C12O37
_chemical_formula_sum   'Na7 Li4 Yb5 C12 O37'
_cell_volume   785.78648346
_cell_formula_units_Z   1
loop_
 _symmetry_equiv_pos_site_id
 _symmetry_equiv_pos_as_xyz
  1  'x, y, z'
loop_
 _atom_site_type_symbol
 _atom_site_label
 _atom_site_symmetry_multiplicity
 _atom_site_fract_x
 _atom_site_fract_y
 _atom_site_fract_z
 _atom_site_occupancy
  Na  Na0  1  0.63738000  0.11752000  0.11961400  1
  Na  Na1  1  0.11752000  0.63738000  0.11961400  1
  Na  Na2  1  0.63484500  0.63484500  0.10723300  1
  Na  Na3  1  0.11055200  0.11055200  0.63745600  1
  Na  Na4  1  0.89460700  0.89460700  0.37237800  1
  Na  Na5  1  0.35723000  0.87058900  0.87766600  1
  Na  Na6  1  0.87058900  0.35723000  0.87766600  1
  Li  Li7  1  0.99763100  0.99763100  0.00998700  1
  Li  Li8  1  0.49745300  0.99512800  0.00300900  1
  Li  Li9  1  0.99512800  0.49745300  0.00300900  1
  Li  Li10  1  0.71028100  0.71028100  0.68443100  1
  Yb  Yb11  1  0.87191700  0.35881800  0.39354700  1
  Yb  Yb12  1  0.35881800  0.87191700  0.39354700  1
  Yb  Yb13  1  0.63034600  0.11644700  0.62823400  1
  Yb  Yb14  1  0.11644700  0.63034600  0.62823400  1
  Yb  Yb15  1  0.37606900  0.37606900  0.87573700  1
  C  C16  1  0.22173100  0.22173100  0.20778000  1
  C  C17  1  0.51664600  0.51664600  0.93477300  1
  C  C18  1  0.82884100  0.23280900  0.22355700  1
  C  C19  1  0.94942000  0.50730300  0.51074000  1
  C  C20  1  0.23280900  0.82884100  0.22355700  1
  C  C21  1  0.78576400  0.78576400  0.14545500  1
  C  C22  1  0.52105500  0.52105500  0.52146100  1
  C  C23  1  0.22812300  0.22812300  0.83196900  1
  C  C24  1  0.78205500  0.13708400  0.78867500  1
  C  C25  1  0.13708400  0.78205500  0.78867500  1
  C  C26  1  0.50730300  0.94942000  0.51074000  1
  C  C27  1  0.79189600  0.79189600  0.78795300  1
  O  O28  1  0.14704700  0.36501400  0.13310000  1
  O  O29  1  0.36501400  0.14704700  0.13310000  1
  O  O30  1  0.15472500  0.15472500  0.35213500  1
  O  O31  1  0.84528800  0.15475400  0.14634400  1
  O  O32  1  0.15475400  0.84528800  0.14634400  1
  O  O33  1  0.84017300  0.37179000  0.15503800  1
  O  O34  1  0.37179000  0.84017300  0.15503800  1
  O  O35  1  0.80213000  0.17409700  0.37404600  1
  O  O36  1  0.17409700  0.80213000  0.37404600  1
  O  O37  1  0.64294900  0.86003600  0.13960800  1
  O  O38  1  0.86003600  0.64294900  0.13960800  1
  O  O39  1  0.36630100  0.36630100  0.52397900  1
  O  O40  1  0.15553700  0.15553700  0.83663400  1
  O  O41  1  0.85355900  0.85355900  0.15683900  1
  O  O42  1  0.59720300  0.59720300  0.39068000  1
  O  O43  1  0.37571900  0.15758300  0.83103100  1
  O  O44  1  0.15758300  0.37571900  0.83103100  1
  O  O45  1  0.37446200  0.59225300  0.59058100  1
  O  O46  1  0.59225300  0.37446200  0.59058100  1
  O  O47  1  0.85077700  0.14187600  0.64428300  1
  O  O48  1  0.14187600  0.85077700  0.64428300  1
  O  O49  1  0.52380000  0.00015700  0.36580700  1
  O  O50  1  0.00015700  0.52380000  0.36580700  1
  O  O51  1  0.14047300  0.63741200  0.85427500  1
  O  O52  1  0.63741200  0.14047300  0.85427500  1
  O  O53  1  0.90917400  0.38647200  0.60844900  1
  O  O54  1  0.38647200  0.90917400  0.60844900  1
  O  O55  1  0.93219900  0.61104600  0.56111900  1
  O  O56  1  0.61104600  0.93219900  0.56111900  1
  O  O57  1  0.12607300  0.85558900  0.86682000  1
  O  O58  1  0.85558900  0.12607300  0.86682000  1
  O  O59  1  0.58096000  0.36648000  0.95750500  1
  O  O60  1  0.36648000  0.58096000  0.95750500  1
  O  O61  1  0.59987700  0.59987700  0.88668100  1
  O  O62  1  0.86130500  0.86130500  0.64628200  1
  O  O63  1  0.64499600  0.86617400  0.85453200  1
  O  O64  1  0.86617400  0.64499600  0.85453200  1
