# generated using pymatgen
data_Li3Mn3CoO8
_symmetry_space_group_name_H-M   'P 1'
_cell_length_a   5.92037724
_cell_length_b   6.02751396
_cell_length_c   10.12662742
_cell_angle_alpha   105.20782248
_cell_angle_beta   88.62156940
_cell_angle_gamma   59.67687880
_symmetry_Int_Tables_number   1
_chemical_formula_structural   Li3Mn3CoO8
_chemical_formula_sum   'Li6 Mn6 Co2 O16'
_cell_volume   295.64802271
_cell_formula_units_Z   2
loop_
 _symmetry_equiv_pos_site_id
 _symmetry_equiv_pos_as_xyz
  1  'x, y, z'
loop_
 _atom_site_type_symbol
 _atom_site_label
 _atom_site_symmetry_multiplicity
 _atom_site_fract_x
 _atom_site_fract_y
 _atom_site_fract_z
 _atom_site_occupancy
  Li  Li0  1  0.97521600  0.49954200  0.98877200  1
  Li  Li1  1  0.54052600  0.50674700  0.52681700  1
  Li  Li2  1  0.74374800  0.49719400  0.25088100  1
  Li  Li3  1  0.25308400  0.50739300  0.75093900  1
  Li  Li4  1  0.47897200  0.50006800  0.01269500  1
  Li  Li5  1  0.02210500  0.48929800  0.47983900  1
  Mn  Mn6  1  0.25351500  0.01645900  0.75239800  1
  Mn  Mn7  1  0.01159000  0.99253700  0.49819800  1
  Mn  Mn8  1  0.24855100  0.98583300  0.24674900  1
  Mn  Mn9  1  0.74442400  0.99128700  0.24908300  1
  Mn  Mn10  1  0.49207200  0.00102900  0.99995600  1
  Mn  Mn11  1  0.75452800  0.01061000  0.75104000  1
  Co  Co12  1  0.99521600  0.00112900  0.99974900  1
  Co  Co13  1  0.50270700  0.00017000  0.49986400  1
  O  O14  1  0.90140500  0.22918500  0.37440300  1
  O  O15  1  0.34463800  0.25614500  0.86920800  1
  O  O16  1  0.59233000  0.74404500  0.12947400  1
  O  O17  1  0.15879000  0.77449700  0.62835100  1
  O  O18  1  0.12984500  0.20159300  0.11910500  1
  O  O19  1  0.66514600  0.21446600  0.61933400  1
  O  O20  1  0.64124900  0.19876600  0.11528300  1
  O  O21  1  0.17470000  0.21955700  0.62199800  1
  O  O22  1  0.38466800  0.19425100  0.36146800  1
  O  O23  1  0.89767300  0.21254400  0.87139400  1
  O  O24  1  0.10002800  0.79119300  0.12887400  1
  O  O25  1  0.61077100  0.80235500  0.63595200  1
  O  O26  1  0.83527300  0.77795500  0.38022700  1
  O  O27  1  0.34428700  0.80165900  0.88062300  1
  O  O28  1  0.34930600  0.77984900  0.37398000  1
  O  O29  1  0.85363700  0.80264200  0.88334700  1
