# generated using pymatgen
data_Li9Mn7O16
_symmetry_space_group_name_H-M   'P 1'
_cell_length_a   2.87562700
_cell_length_b   9.87109200
_cell_length_c   10.52753910
_cell_angle_alpha   83.86106679
_cell_angle_beta   90.00000000
_cell_angle_gamma   90.00000000
_symmetry_Int_Tables_number   1
_chemical_formula_structural   Li9Mn7O16
_chemical_formula_sum   'Li9 Mn7 O16'
_cell_volume   297.11664915
_cell_formula_units_Z   1
loop_
 _symmetry_equiv_pos_site_id
 _symmetry_equiv_pos_as_xyz
  1  'x, y, z'
loop_
 _atom_site_type_symbol
 _atom_site_label
 _atom_site_symmetry_multiplicity
 _atom_site_fract_x
 _atom_site_fract_y
 _atom_site_fract_z
 _atom_site_occupancy
  Li  Li0  1  0.50000000  0.24433700  0.11826500  1
  Li  Li1  1  0.50000000  0.24603700  0.63057400  1
  Li  Li2  1  0.00000000  0.00175800  0.24193400  1
  Li  Li3  1  0.00000000  0.99824200  0.75806600  1
  Li  Li4  1  0.50000000  0.75396300  0.36942600  1
  Li  Li5  1  0.50000000  0.75566300  0.88173500  1
  Li  Li6  1  0.00000000  0.50000000  0.00000000  1
  Li  Li7  1  0.00000000  0.50000000  0.50000000  1
  Li  Li8  1  0.50000000  0.00000000  0.00000000  1
  Mn  Mn9  1  0.00000000  0.23766500  0.88713900  1
  Mn  Mn10  1  0.00000000  0.76233500  0.11286100  1
  Mn  Mn11  1  0.00000000  0.25269900  0.37271000  1
  Mn  Mn12  1  0.50000000  0.00000000  0.50000000  1
  Mn  Mn13  1  0.00000000  0.74730100  0.62729000  1
  Mn  Mn14  1  0.50000000  0.50720100  0.24428800  1
  Mn  Mn15  1  0.50000000  0.49279900  0.75571200  1
  O  O16  1  0.50000000  0.35837100  0.93499000  1
  O  O17  1  0.50000000  0.36461100  0.43605100  1
  O  O18  1  0.00000000  0.13874300  0.04248200  1
  O  O19  1  0.00000000  0.11117700  0.56123400  1
  O  O20  1  0.50000000  0.86360500  0.18214900  1
  O  O21  1  0.50000000  0.85902000  0.68905300  1
  O  O22  1  0.00000000  0.60603500  0.81108400  1
  O  O23  1  0.00000000  0.62747600  0.29418300  1
  O  O24  1  0.50000000  0.14098000  0.31094700  1
  O  O25  1  0.50000000  0.13639500  0.81785100  1
  O  O26  1  0.00000000  0.88882300  0.43876600  1
  O  O27  1  0.00000000  0.86125700  0.95751800  1
  O  O28  1  0.50000000  0.63538900  0.56394900  1
  O  O29  1  0.50000000  0.64162900  0.06501000  1
  O  O30  1  0.00000000  0.39396500  0.18891600  1
  O  O31  1  0.00000000  0.37252400  0.70581700  1
