# generated using pymatgen
data_Li5Ga(GeO4)2
_symmetry_space_group_name_H-M   'P 1'
_cell_length_a   10.87194400
_cell_length_b   5.12604700
_cell_length_c   6.46582615
_cell_angle_alpha   89.80840896
_cell_angle_beta   90.00000000
_cell_angle_gamma   90.00000000
_symmetry_Int_Tables_number   1
_chemical_formula_structural   Li5Ga(GeO4)2
_chemical_formula_sum   'Li10 Ga2 Ge4 O16'
_cell_volume   360.33909693
_cell_formula_units_Z   2
loop_
 _symmetry_equiv_pos_site_id
 _symmetry_equiv_pos_as_xyz
  1  'x, y, z'
loop_
 _atom_site_type_symbol
 _atom_site_label
 _atom_site_symmetry_multiplicity
 _atom_site_fract_x
 _atom_site_fract_y
 _atom_site_fract_z
 _atom_site_occupancy
  Li  Li0  1  0.08434700  0.94715200  0.00516900  1
  Li  Li1  1  0.58434700  0.05284800  0.99483100  1
  Li  Li2  1  0.92045700  0.53342400  0.51292500  1
  Li  Li3  1  0.42045700  0.46657600  0.48707500  1
  Li  Li4  1  0.65997600  0.43734600  0.25242500  1
  Li  Li5  1  0.15997600  0.56265400  0.74757500  1
  Li  Li6  1  0.66458500  0.43267000  0.74553600  1
  Li  Li7  1  0.16458500  0.56733000  0.25446400  1
  Li  Li8  1  0.33113200  0.07189500  0.24531800  1
  Li  Li9  1  0.83113200  0.92810500  0.75468200  1
  Ga  Ga10  1  0.33512900  0.07235000  0.74772400  1
  Ga  Ga11  1  0.83512900  0.92765000  0.25227600  1
  Ge  Ge12  1  0.08982000  0.08022700  0.48605600  1
  Ge  Ge13  1  0.58982000  0.91977300  0.51394400  1
  Ge  Ge14  1  0.91571800  0.44194900  0.99256800  1
  Ge  Ge15  1  0.41571800  0.55805100  0.00743200  1
  O  O16  1  0.43122000  0.03867100  0.50569800  1
  O  O17  1  0.93122000  0.96132900  0.49430200  1
  O  O18  1  0.56788600  0.45816600  0.00032500  1
  O  O19  1  0.06788600  0.54183400  0.99967500  1
  O  O20  1  0.17087000  0.96296000  0.72020800  1
  O  O21  1  0.67087000  0.03704000  0.27979200  1
  O  O22  1  0.83600600  0.56045300  0.22447000  1
  O  O23  1  0.33600600  0.43954700  0.77553000  1
  O  O24  1  0.83552200  0.54049000  0.77298200  1
  O  O25  1  0.33552200  0.45951000  0.22701800  1
  O  O26  1  0.16466300  0.95486000  0.27088200  1
  O  O27  1  0.66466300  0.04514000  0.72911800  1
  O  O28  1  0.40648000  0.91563000  0.98077700  1
  O  O29  1  0.90648000  0.08437000  0.01922300  1
  O  O30  1  0.58619000  0.58135700  0.49678700  1
  O  O31  1  0.08619000  0.41864300  0.50321300  1
