# generated using pymatgen
data_LiNbFeO4
_symmetry_space_group_name_H-M   'P 1'
_cell_length_a   6.29164380
_cell_length_b   8.85946789
_cell_length_c   6.11071439
_cell_angle_alpha   89.98169001
_cell_angle_beta   89.93157306
_cell_angle_gamma   89.99909103
_symmetry_Int_Tables_number   1
_chemical_formula_structural   LiNbFeO4
_chemical_formula_sum   'Li4 Nb4 Fe4 O16'
_cell_volume   340.61472523
_cell_formula_units_Z   4
loop_
 _symmetry_equiv_pos_site_id
 _symmetry_equiv_pos_as_xyz
  1  'x, y, z'
loop_
 _atom_site_type_symbol
 _atom_site_label
 _atom_site_symmetry_multiplicity
 _atom_site_fract_x
 _atom_site_fract_y
 _atom_site_fract_z
 _atom_site_occupancy
  Li  Li0  1  0.24000300  0.14521500  0.00050300  1
  Li  Li1  1  0.75993800  0.64512100  0.49705100  1
  Li  Li2  1  0.74002900  0.85494600  0.00295100  1
  Li  Li3  1  0.25992800  0.35482100  0.49987700  1
  Nb  Nb4  1  0.53659800  0.49831800  0.99533100  1
  Nb  Nb5  1  0.96339100  0.00156300  0.50420000  1
  Nb  Nb6  1  0.03658700  0.50168400  0.00254000  1
  Nb  Nb7  1  0.46336700  0.99825700  0.49808700  1
  Fe  Fe8  1  0.24986500  0.75000400  0.74973400  1
  Fe  Fe9  1  0.75032600  0.24998000  0.74986300  1
  Fe  Fe10  1  0.74961900  0.25006600  0.25026900  1
  Fe  Fe11  1  0.25025800  0.75006900  0.24950200  1
  O  O12  1  0.49725500  0.28123000  0.99982600  1
  O  O13  1  0.03587200  0.77858600  0.49994100  1
  O  O14  1  0.96415800  0.27868500  0.99997800  1
  O  O15  1  0.50282000  0.78118600  0.49964700  1
  O  O16  1  0.99712800  0.71882700  0.00018500  1
  O  O17  1  0.53570400  0.22134800  0.50044400  1
  O  O18  1  0.46428800  0.72140600  0.99951400  1
  O  O19  1  0.00284700  0.21869100  0.50013100  1
  O  O20  1  0.74870200  0.50443400  0.22397700  1
  O  O21  1  0.25075800  0.00420800  0.72663600  1
  O  O22  1  0.74900700  0.50408400  0.76965600  1
  O  O23  1  0.25151100  0.00422900  0.27233300  1
  O  O24  1  0.24918200  0.49569700  0.77375200  1
  O  O25  1  0.75119200  0.99565900  0.27591500  1
  O  O26  1  0.24860700  0.49589300  0.22798600  1
  O  O27  1  0.75106200  0.99579300  0.73017200  1
