# generated using pymatgen
data_Li7Mn5O12
_symmetry_space_group_name_H-M   'P 1'
_cell_length_a   2.98423002
_cell_length_b   14.43983890
_cell_length_c   10.84930853
_cell_angle_alpha   73.90595669
_cell_angle_beta   82.08285436
_cell_angle_gamma   95.92654313
_symmetry_Int_Tables_number   1
_chemical_formula_structural   Li7Mn5O12
_chemical_formula_sum   'Li14 Mn10 O24'
_cell_volume   439.97052471
_cell_formula_units_Z   2
loop_
 _symmetry_equiv_pos_site_id
 _symmetry_equiv_pos_as_xyz
  1  'x, y, z'
loop_
 _atom_site_type_symbol
 _atom_site_label
 _atom_site_symmetry_multiplicity
 _atom_site_fract_x
 _atom_site_fract_y
 _atom_site_fract_z
 _atom_site_occupancy
  Li  Li0  1  0.33329900  0.33329200  0.66670100  1
  Li  Li1  1  0.33335600  0.83334700  0.16664500  1
  Li  Li2  1  0.83744700  0.71732900  0.04238800  1
  Li  Li3  1  0.83759600  0.21731900  0.54208000  1
  Li  Li4  1  0.82920600  0.44935100  0.79099400  1
  Li  Li5  1  0.82940300  0.94953500  0.29079600  1
  Li  Li6  1  0.17354800  0.29480800  0.94771700  1
  Li  Li7  1  0.17330300  0.79475600  0.44814200  1
  Li  Li8  1  0.49337900  0.87192900  0.88517800  1
  Li  Li9  1  0.49300700  0.37164600  0.38564800  1
  Li  Li10  1  0.16677500  0.53981700  0.20630100  1
  Li  Li11  1  0.16651700  0.03961600  0.70660200  1
  Li  Li12  1  0.49975000  0.12674900  0.12724000  1
  Li  Li13  1  0.50005600  0.62704300  0.62691600  1
  Mn  Mn14  1  0.99610500  0.49450500  0.50212500  1
  Mn  Mn15  1  0.67064300  0.67225100  0.33114700  1
  Mn  Mn16  1  0.99943000  0.75026700  0.75136100  1
  Mn  Mn17  1  0.66680500  0.41600100  0.08243600  1
  Mn  Mn18  1  0.66707500  0.91626700  0.58211100  1
  Mn  Mn19  1  0.33316600  0.58318000  0.91678600  1
  Mn  Mn20  1  0.33280900  0.08287300  0.41717800  1
  Mn  Mn21  1  0.99611900  0.99452200  0.00211600  1
  Mn  Mn22  1  0.67059800  0.17222900  0.83116100  1
  Mn  Mn23  1  0.00067400  0.25143600  0.25011500  1
  O  O24  1  0.74302300  0.30170600  0.81555100  1
  O  O25  1  0.74303000  0.80165100  0.31552700  1
  O  O26  1  0.92362100  0.86497600  0.01784700  1
  O  O27  1  0.92368100  0.36506600  0.51777300  1
  O  O28  1  0.08100400  0.38888800  0.22683900  1
  O  O29  1  0.08084100  0.88871000  0.72705800  1
  O  O30  1  0.58588300  0.27798100  0.10636400  1
  O  O31  1  0.58585300  0.77793900  0.60634100  1
  O  O32  1  0.43118700  0.48533200  0.62277200  1
  O  O33  1  0.43119200  0.98529400  0.12271100  1
  O  O34  1  0.23551000  0.68134500  0.21052800  1
  O  O35  1  0.23551500  0.18133600  0.71051600  1
  O  O36  1  0.74553600  0.55360300  0.06276500  1
  O  O37  1  0.74555300  0.05379700  0.56282700  1
  O  O38  1  0.92104500  0.61288600  0.77058300  1
  O  O39  1  0.92113900  0.11299500  0.27052600  1
  O  O40  1  0.09035200  0.14320100  0.96226300  1
  O  O41  1  0.09044300  0.64319900  0.46210600  1
  O  O42  1  0.57622900  0.52342900  0.37118700  1
  O  O43  1  0.57630100  0.02349400  0.87113100  1
  O  O44  1  0.41093600  0.72080300  0.89872800  1
  O  O45  1  0.41099200  0.22082200  0.39862800  1
  O  O46  1  0.25553500  0.44577500  0.93487100  1
  O  O47  1  0.25553500  0.94570800  0.43467200  1
