# generated using pymatgen
data_Li7Mn5O12
_symmetry_space_group_name_H-M   'P 1'
_cell_length_a   6.00908604
_cell_length_b   6.01720532
_cell_length_c   6.46709172
_cell_angle_alpha   76.87427026
_cell_angle_beta   77.13447939
_cell_angle_gamma   91.97134766
_symmetry_Int_Tables_number   1
_chemical_formula_structural   Li7Mn5O12
_chemical_formula_sum   'Li7 Mn5 O12'
_cell_volume   221.11951555
_cell_formula_units_Z   1
loop_
 _symmetry_equiv_pos_site_id
 _symmetry_equiv_pos_as_xyz
  1  'x, y, z'
loop_
 _atom_site_type_symbol
 _atom_site_label
 _atom_site_symmetry_multiplicity
 _atom_site_fract_x
 _atom_site_fract_y
 _atom_site_fract_z
 _atom_site_occupancy
  Li  Li0  1  0.81228700  0.86169900  0.65935900  1
  Li  Li1  1  0.49530500  0.00018700  0.01062200  1
  Li  Li2  1  0.16073900  0.16140400  0.33707600  1
  Li  Li3  1  0.52015500  0.47489100  0.00578300  1
  Li  Li4  1  0.16979000  0.66656000  0.33307500  1
  Li  Li5  1  0.83507200  0.33130500  0.65607000  1
  Li  Li6  1  0.66594600  0.16896100  0.33360800  1
  Mn  Mn7  1  0.98889400  0.00457500  0.99906600  1
  Mn  Mn8  1  0.66942500  0.66958900  0.33646000  1
  Mn  Mn9  1  0.34257500  0.32598500  0.66388900  1
  Mn  Mn10  1  0.99853800  0.49735200  0.00259500  1
  Mn  Mn11  1  0.33568100  0.83492100  0.66379600  1
  O  O12  1  0.21234800  0.76489600  0.98740700  1
  O  O13  1  0.90952600  0.91066500  0.31389700  1
  O  O14  1  0.54712300  0.08504100  0.66825600  1
  O  O15  1  0.90117500  0.44662000  0.31574200  1
  O  O16  1  0.60847000  0.58944500  0.65054200  1
  O  O17  1  0.23876800  0.22589700  0.99698200  1
  O  O18  1  0.43572900  0.88936000  0.34941600  1
  O  O19  1  0.06340500  0.07565500  0.68125200  1
  O  O20  1  0.78396300  0.24574900  0.99738500  1
  O  O21  1  0.12270100  0.56590900  0.68131300  1
  O  O22  1  0.74727800  0.76946900  0.01636400  1
  O  O23  1  0.43510700  0.43386900  0.34004400  1
