# generated using pymatgen
data_Li24MnCr11O36
_symmetry_space_group_name_H-M   'P 1'
_cell_length_a   8.77521679
_cell_length_b   8.77521679
_cell_length_c   9.69533283
_cell_angle_alpha   82.14839661
_cell_angle_beta   82.14839661
_cell_angle_gamma   58.96686718
_symmetry_Int_Tables_number   1
_chemical_formula_structural   Li24MnCr11O36
_chemical_formula_sum   'Li24 Mn1 Cr11 O36'
_cell_volume   631.79813417
_cell_formula_units_Z   1
loop_
 _symmetry_equiv_pos_site_id
 _symmetry_equiv_pos_as_xyz
  1  'x, y, z'
loop_
 _atom_site_type_symbol
 _atom_site_label
 _atom_site_symmetry_multiplicity
 _atom_site_fract_x
 _atom_site_fract_y
 _atom_site_fract_z
 _atom_site_occupancy
  Li  Li0  1  0.82502300  0.00843200  0.24914600  1
  Li  Li1  1  0.74971900  0.25028100  0.00000000  1
  Li  Li2  1  0.66757800  0.16650500  0.74977300  1
  Li  Li3  1  0.58371800  0.08290500  0.49949500  1
  Li  Li4  1  0.50519300  0.32781700  0.25131300  1
  Li  Li5  1  0.50025100  0.99966700  0.24979700  1
  Li  Li6  1  0.34054500  0.15832500  0.75085600  1
  Li  Li7  1  0.32634200  0.50836400  0.74956300  1
  Li  Li8  1  0.25189200  0.74810800  0.50000000  1
  Li  Li9  1  0.15990000  0.34142400  0.24969000  1
  Li  Li10  1  0.16760500  0.66610400  0.25001700  1
  Li  Li11  1  0.08416900  0.58282300  0.99953900  1
  Li  Li12  1  0.00803900  0.82580600  0.74968500  1
  Li  Li13  1  0.00033300  0.49974900  0.75020300  1
  Li  Li14  1  0.99156800  0.17497700  0.75085400  1
  Li  Li15  1  0.91709500  0.41628200  0.50050500  1
  Li  Li16  1  0.84167500  0.65945500  0.24914400  1
  Li  Li17  1  0.83349500  0.33242200  0.25022700  1
  Li  Li18  1  0.67218300  0.49480700  0.74868700  1
  Li  Li19  1  0.65857600  0.84010000  0.75031000  1
  Li  Li20  1  0.49163600  0.67365800  0.25043700  1
  Li  Li21  1  0.41717700  0.91583100  0.00046100  1
  Li  Li22  1  0.33389600  0.83239500  0.74998300  1
  Li  Li23  1  0.17419400  0.99196100  0.25031500  1
  Mn  Mn24  1  0.58260100  0.41739900  0.50000000  1
  Cr  Cr25  1  0.92277200  0.07722800  0.50000000  1
  Cr  Cr26  1  0.42138900  0.57861100  0.00000000  1
  Cr  Cr27  1  0.41255100  0.25451500  0.99987400  1
  Cr  Cr28  1  0.25502300  0.41497400  0.49911100  1
  Cr  Cr29  1  0.24551500  0.08917800  0.50076800  1
  Cr  Cr30  1  0.07889400  0.92110600  0.00000000  1
  Cr  Cr31  1  0.08821800  0.24523900  0.99991400  1
  Cr  Cr32  1  0.91082200  0.75448500  0.49923200  1
  Cr  Cr33  1  0.75476100  0.91178200  0.00008600  1
  Cr  Cr34  1  0.74548500  0.58744900  0.00012600  1
  Cr  Cr35  1  0.58502600  0.74497700  0.50088900  1
  O  O36  1  0.88547300  0.02393100  0.88681100  1
  O  O37  1  0.71421200  0.21476600  0.38629900  1
  O  O38  1  0.61872100  0.11866800  0.11385200  1
  O  O39  1  0.54826900  0.04831700  0.88581600  1
  O  O40  1  0.52404200  0.38565700  0.88672500  1
  O  O41  1  0.45287300  0.31021800  0.61109000  1
  O  O42  1  0.30899500  0.44801800  0.11293500  1
  O  O43  1  0.38244000  0.52721900  0.38642400  1
  O  O44  1  0.28143700  0.14277100  0.11297100  1
  O  O45  1  0.35666500  0.21989300  0.38694200  1
  O  O46  1  0.21464600  0.71481000  0.88605700  1
  O  O47  1  0.21915200  0.35753200  0.88623500  1
  O  O48  1  0.19100900  0.05199100  0.88670500  1
  O  O49  1  0.14361900  0.28216200  0.61347400  1
  O  O50  1  0.11789900  0.61771800  0.61414300  1
  O  O51  1  0.97606900  0.11452700  0.11318900  1
  O  O52  1  0.04776600  0.54818400  0.38554100  1
  O  O53  1  0.05300700  0.19002200  0.38687600  1
  O  O54  1  0.94800900  0.80899100  0.11329500  1
  O  O55  1  0.95168300  0.45173100  0.11418400  1
  O  O56  1  0.02282600  0.88602800  0.38599800  1
  O  O57  1  0.88133200  0.38127900  0.88614800  1
  O  O58  1  0.85722900  0.71856300  0.88702900  1
  O  O59  1  0.80997800  0.94699300  0.61312400  1
  O  O60  1  0.78010700  0.64333500  0.61305800  1
  O  O61  1  0.78523400  0.28578800  0.61370100  1
  O  O62  1  0.64246800  0.78084800  0.11376500  1
  O  O63  1  0.71783800  0.85638100  0.38652600  1
  O  O64  1  0.61434300  0.47595800  0.11327500  1
  O  O65  1  0.68978200  0.54712700  0.38891000  1
  O  O66  1  0.55198200  0.69100500  0.88706500  1
  O  O67  1  0.47278100  0.61756000  0.61357600  1
  O  O68  1  0.45181600  0.95223400  0.61445900  1
  O  O69  1  0.38228200  0.88210100  0.38585700  1
  O  O70  1  0.28519000  0.78535400  0.11394300  1
  O  O71  1  0.11397200  0.97717400  0.61400200  1
