# generated using pymatgen
data_Li4Co5SnO12
_symmetry_space_group_name_H-M   'P 1'
_cell_length_a   5.04084281
_cell_length_b   10.85164929
_cell_length_c   8.79826439
_cell_angle_alpha   66.05108785
_cell_angle_beta   89.92845740
_cell_angle_gamma   85.31938217
_symmetry_Int_Tables_number   1
_chemical_formula_structural   Li4Co5SnO12
_chemical_formula_sum   'Li8 Co10 Sn2 O24'
_cell_volume   438.10824037
_cell_formula_units_Z   2
loop_
 _symmetry_equiv_pos_site_id
 _symmetry_equiv_pos_as_xyz
  1  'x, y, z'
loop_
 _atom_site_type_symbol
 _atom_site_label
 _atom_site_symmetry_multiplicity
 _atom_site_fract_x
 _atom_site_fract_y
 _atom_site_fract_z
 _atom_site_occupancy
  Li  Li0  1  0.05495500  0.74705200  0.46343300  1
  Li  Li1  1  0.53046900  0.74628300  0.96093300  1
  Li  Li2  1  0.44500800  0.25286900  0.71128000  1
  Li  Li3  1  0.96936200  0.25401800  0.20737000  1
  Li  Li4  1  0.54540600  0.74499200  0.29669800  1
  Li  Li5  1  0.04438900  0.74575100  0.79219800  1
  Li  Li6  1  0.95561600  0.25507300  0.54138500  1
  Li  Li7  1  0.45580200  0.25429200  0.03839700  1
  Co  Co8  1  0.25014000  0.49996000  0.08376000  1
  Co  Co9  1  0.50024900  0.99989000  0.16700000  1
  Co  Co10  1  0.99969500  0.00011200  0.66690400  1
  Co  Co11  1  0.49967200  0.00009100  0.83331500  1
  Co  Co12  1  0.00038100  0.99991700  0.33341500  1
  Co  Co13  1  0.24937500  0.49970700  0.75333300  1
  Co  Co14  1  0.74980600  0.50018700  0.24425900  1
  Co  Co15  1  0.24883100  0.50006400  0.41249500  1
  Co  Co16  1  0.74908200  0.49971300  0.91613200  1
  Co  Co17  1  0.74959600  0.50036200  0.58316600  1
  Sn  Sn18  1  0.99899800  0.00047200  0.00006700  1
  Sn  Sn19  1  0.50096600  0.99949900  0.50049400  1
  O  O20  1  0.91086500  0.60297100  0.70751900  1
  O  O21  1  0.41461500  0.60229500  0.18825500  1
  O  O22  1  0.58916800  0.39666400  0.81014000  1
  O  O23  1  0.08614700  0.39767800  0.29166400  1
  O  O24  1  0.33809500  0.10747000  0.94659500  1
  O  O25  1  0.83911800  0.10685600  0.44656500  1
  O  O26  1  0.66088000  0.89313800  0.05327300  1
  O  O27  1  0.16188200  0.89249500  0.55402300  1
  O  O28  1  0.30367500  0.10702300  0.62459500  1
  O  O29  1  0.80401700  0.10745100  0.12513100  1
  O  O30  1  0.19636400  0.89301100  0.23152800  1
  O  O31  1  0.69608900  0.89250100  0.73260800  1
  O  O32  1  0.80247600  0.10752300  0.76789100  1
  O  O33  1  0.30493100  0.10630800  0.26926700  1
  O  O34  1  0.69743900  0.89251800  0.37539500  1
  O  O35  1  0.19508000  0.89361700  0.87551700  1
  O  O36  1  0.09801300  0.39059000  0.63090000  1
  O  O37  1  0.59917600  0.40213100  0.12966000  1
  O  O38  1  0.60869700  0.39685600  0.45359200  1
  O  O39  1  0.12497900  0.39028900  0.99185000  1
  O  O40  1  0.40305300  0.60933800  0.52167500  1
  O  O41  1  0.89834500  0.59713200  0.03299600  1
  O  O42  1  0.89394300  0.60413200  0.35115200  1
  O  O43  1  0.37515100  0.60970700  0.88217700  1
