# generated using pymatgen
data_LiPbN
_symmetry_space_group_name_H-M   'P 1'
_cell_length_a   3.71119292
_cell_length_b   3.71067976
_cell_length_c   4.48092235
_cell_angle_alpha   90.00000000
_cell_angle_beta   90.00000000
_cell_angle_gamma   120.00457477
_symmetry_Int_Tables_number   1
_chemical_formula_structural   LiPbN
_chemical_formula_sum   'Li1 Pb1 N1'
_cell_volume   53.43736492
_cell_formula_units_Z   1
loop_
 _symmetry_equiv_pos_site_id
 _symmetry_equiv_pos_as_xyz
  1  'x, y, z'
loop_
 _atom_site_type_symbol
 _atom_site_label
 _atom_site_symmetry_multiplicity
 _atom_site_fract_x
 _atom_site_fract_y
 _atom_site_fract_z
 _atom_site_occupancy
  Li  Li0  1  0.00003621  0.00007341  0.50000000  1
  Pb  Pb1  1  0.66667829  0.33335557  0.00000000  1
  N  N2  1  0.66668551  0.33337101  0.50000000  1
