# generated using pymatgen
data_Li2Fe2P4H3O16
_symmetry_space_group_name_H-M   'P 1'
_cell_length_a   4.98629145
_cell_length_b   8.26894224
_cell_length_c   7.41273483
_cell_angle_alpha   90.32145811
_cell_angle_beta   103.97011005
_cell_angle_gamma   87.89137237
_symmetry_Int_Tables_number   1
_chemical_formula_structural   Li2Fe2P4H3O16
_chemical_formula_sum   'Li2 Fe2 P4 H3 O16'
_cell_volume   296.39438892
_cell_formula_units_Z   1
loop_
 _symmetry_equiv_pos_site_id
 _symmetry_equiv_pos_as_xyz
  1  'x, y, z'
loop_
 _atom_site_type_symbol
 _atom_site_label
 _atom_site_symmetry_multiplicity
 _atom_site_fract_x
 _atom_site_fract_y
 _atom_site_fract_z
 _atom_site_occupancy
  Li  Li0  1  0.34600336  0.84172502  0.83154112  1
  Li  Li1  1  0.64423997  0.15775763  0.17554161  1
  Fe  Fe2  1  0.49714888  0.50060908  0.00149965  1
  Fe  Fe3  1  0.00306311  0.99812976  0.49951400  1
  P  P4  1  0.12186908  0.34260981  0.26129949  1
  P  P5  1  0.39573872  0.84453555  0.23388318  1
  P  P6  1  0.60254969  0.15572828  0.75695528  1
  P  P7  1  0.87178274  0.65778480  0.73905496  1
  H  H8  1  0.32414891  0.40738248  0.55454592  1
  H  H9  1  0.67577083  0.59859633  0.44141267  1
  H  H10  1  0.95294899  0.01826848  0.97756805  1
  O  O11  1  0.94577579  0.82448638  0.67720955  1
  O  O12  1  0.12918052  0.57224122  0.85953729  1
  O  O13  1  0.23267456  0.84378372  0.38727612  1
  O  O14  1  0.22173282  0.45599409  0.43418334  1
  O  O15  1  0.35534716  0.04341331  0.69360022  1
  O  O16  1  0.49800142  0.32754893  0.79080083  1
  O  O17  1  0.23101695  0.91695382  0.04950719  1
  O  O18  1  0.35288570  0.32648252  0.15370847  1
  O  O19  1  0.64344541  0.67366778  0.84884400  1
  O  O20  1  0.77012535  0.08593757  0.95223146  1
  O  O21  1  0.50326661  0.66854694  0.21115647  1
  O  O22  1  0.65153056  0.95139675  0.30892365  1
  O  O23  1  0.76233109  0.54770538  0.56451617  1
  O  O24  1  0.77760935  0.15551486  0.61410532  1
  O  O25  1  0.86448782  0.42518324  0.13820810  1
  O  O26  1  0.05148660  0.17604327  0.32536289  1
