# generated using pymatgen
data_Li4V3P8O29
_symmetry_space_group_name_H-M   'P 1'
_cell_length_a   9.76035400
_cell_length_b   9.76433335
_cell_length_c   14.32489082
_cell_angle_alpha   90.07009412
_cell_angle_beta   90.31846861
_cell_angle_gamma   119.95157505
_symmetry_Int_Tables_number   1
_chemical_formula_structural   Li4V3P8O29
_chemical_formula_sum   'Li8 V6 P16 O58'
_cell_volume   1182.85224523
_cell_formula_units_Z   2
loop_
 _symmetry_equiv_pos_site_id
 _symmetry_equiv_pos_as_xyz
  1  'x, y, z'
loop_
 _atom_site_type_symbol
 _atom_site_label
 _atom_site_symmetry_multiplicity
 _atom_site_fract_x
 _atom_site_fract_y
 _atom_site_fract_z
 _atom_site_occupancy
  Li  Li0  1  0.90798900  0.67355800  0.44430600  1
  Li  Li1  1  0.32235000  0.23470100  0.44599400  1
  Li  Li2  1  0.33233800  0.09283400  0.93803400  1
  Li  Li3  1  0.90255100  0.23213500  0.93673600  1
  Li  Li4  1  0.76543300  0.09693900  0.44391500  1
  Li  Li5  1  0.23120400  0.32015000  0.05596200  1
  Li  Li6  1  0.92915200  0.91690800  0.98269300  1
  Li  Li7  1  0.99510900  0.99166100  0.51252100  1
  V  V8  1  0.43637800  0.99808900  0.74705300  1
  V  V9  1  0.56456100  0.00040100  0.24880000  1
  V  V10  1  0.99993900  0.56595900  0.24926600  1
  V  V11  1  0.00022900  0.43763000  0.75271800  1
  V  V12  1  0.56998600  0.56851000  0.75056900  1
  V  V13  1  0.43858200  0.43761000  0.25440300  1
  P  P14  1  0.77368300  0.68982400  0.15838000  1
  P  P15  1  0.91455100  0.69050800  0.65667900  1
  P  P16  1  0.30983400  0.22306100  0.66017000  1
  P  P17  1  0.66099000  0.32936200  0.86957900  1
  P  P18  1  0.66970800  0.33268700  0.36872900  1
  P  P19  1  0.31507000  0.08928800  0.15513000  1
  P  P20  1  0.22160300  0.91778100  0.33606700  1
  P  P21  1  0.91294400  0.22712100  0.15815600  1
  P  P22  1  0.08772100  0.78239500  0.83744700  1
  P  P23  1  0.77749600  0.08913100  0.65710500  1
  P  P24  1  0.69726400  0.91464200  0.83594200  1
  P  P25  1  0.33370300  0.66196000  0.63530300  1
  P  P26  1  0.33010200  0.66462600  0.13509700  1
  P  P27  1  0.69538000  0.78090100  0.34027500  1
  P  P28  1  0.08494700  0.30698500  0.33934700  1
  P  P29  1  0.22828000  0.31533400  0.84051200  1
  O  O30  1  0.79701500  0.79371500  0.42166400  1
  O  O31  1  0.74303100  0.65959100  0.67236600  1
  O  O32  1  0.00473100  0.80120400  0.91812800  1
  O  O33  1  0.91376800  0.65575800  0.17427800  1
  O  O34  1  0.61820800  0.53365000  0.17247300  1
  O  O35  1  0.66246700  0.47504800  0.82114800  1
  O  O36  1  0.46475800  0.38169700  0.67131700  1
  O  O37  1  0.23374400  0.23072100  0.92762100  1
  O  O38  1  0.33826800  0.25768100  0.16692700  1
  O  O39  1  0.81514800  0.48686900  0.32877000  1
  O  O40  1  0.91516000  0.53565900  0.66862800  1
  O  O41  1  0.51416600  0.32343400  0.33076600  1
  O  O42  1  0.64130700  0.32206300  0.97295500  1
  O  O43  1  0.67488800  0.32874500  0.47269400  1
  O  O44  1  0.51195000  0.18145600  0.82407100  1
  O  O45  1  0.90744200  0.38170600  0.17573500  1
  O  O46  1  0.81219800  0.32668800  0.83736500  1
  O  O47  1  0.34303200  0.08309900  0.67049800  1
  O  O48  1  0.19757000  0.98475200  0.23738800  1
  O  O49  1  0.21020900  0.01103100  0.41488500  1
  O  O50  1  0.24559000  0.02027700  0.06268100  1
  O  O51  1  0.47488200  0.09394200  0.17665500  1
  O  O52  1  0.67596000  0.18642500  0.32524400  1
  O  O53  1  0.26467000  0.91785700  0.83671300  1
  O  O54  1  0.61840000  0.08630500  0.67210400  1
  O  O55  1  0.91323800  0.25908300  0.67456200  1
  O  O56  1  0.01727000  0.80802300  0.74038700  1
  O  O57  1  0.97655000  0.77575800  0.56614100  1
  O  O58  1  0.98968400  0.20188500  0.41715100  1
  O  O59  1  0.08440000  0.74315400  0.33934400  1
  O  O60  1  0.38307000  0.92284400  0.32641800  1
  O  O61  1  0.74389600  0.08438800  0.16801700  1
  O  O62  1  0.33934800  0.81479000  0.68164300  1
  O  O63  1  0.54493000  0.92488000  0.82822100  1
  O  O64  1  0.80499100  0.00460800  0.91598400  1
  O  O65  1  0.79081500  0.02425200  0.56530800  1
  O  O66  1  0.79178100  0.98518100  0.73926700  1
  O  O67  1  0.65923100  0.91991900  0.33833000  1
  O  O68  1  0.18398500  0.66587900  0.18355000  1
  O  O69  1  0.08061600  0.62100600  0.82842400  1
  O  O70  1  0.47738600  0.81487900  0.18135500  1
  O  O71  1  0.32330400  0.66960500  0.03214100  1
  O  O72  1  0.33965200  0.67216700  0.53229000  1
  O  O73  1  0.48468900  0.66665800  0.68009200  1
  O  O74  1  0.07964800  0.46210600  0.32759700  1
  O  O75  1  0.19160700  0.51970500  0.68099700  1
  O  O76  1  0.65808600  0.74052600  0.83607100  1
  O  O77  1  0.79307400  0.80287700  0.24616200  1
  O  O78  1  0.79219100  0.77887600  0.07220500  1
  O  O79  1  0.53741400  0.62244500  0.32994600  1
  O  O80  1  0.32663200  0.51447600  0.17399900  1
  O  O81  1  0.38293100  0.47164200  0.82506200  1
  O  O82  1  0.08401800  0.34003300  0.84348600  1
  O  O83  1  0.99066500  0.23086500  0.06707200  1
  O  O84  1  0.01587400  0.21221700  0.24058100  1
  O  O85  1  0.25847300  0.34243600  0.34248200  1
  O  O86  1  0.22114600  0.20284700  0.57073400  1
  O  O87  1  0.20110700  0.20532500  0.74943800  1
