# generated using pymatgen
data_Li2VFe3O8
_symmetry_space_group_name_H-M   'P 1'
_cell_length_a   5.96608597
_cell_length_b   5.96608597
_cell_length_c   9.51218400
_cell_angle_alpha   90.00000000
_cell_angle_beta   90.00000000
_cell_angle_gamma   119.99999964
_symmetry_Int_Tables_number   1
_chemical_formula_structural   Li2VFe3O8
_chemical_formula_sum   'Li4 V2 Fe6 O16'
_cell_volume   293.21750215
_cell_formula_units_Z   2
loop_
 _symmetry_equiv_pos_site_id
 _symmetry_equiv_pos_as_xyz
  1  'x, y, z'
loop_
 _atom_site_type_symbol
 _atom_site_label
 _atom_site_symmetry_multiplicity
 _atom_site_fract_x
 _atom_site_fract_y
 _atom_site_fract_z
 _atom_site_occupancy
  Li  Li0  1  0.33333300  0.66666700  0.90347400  1
  Li  Li1  1  0.00000000  0.00000000  0.99049800  1
  Li  Li2  1  0.00000000  0.00000000  0.49049800  1
  Li  Li3  1  0.66666700  0.33333300  0.40347400  1
  V  V4  1  0.33333300  0.66666700  0.49594900  1
  V  V5  1  0.66666700  0.33333300  0.99594900  1
  Fe  Fe6  1  0.17312500  0.82687400  0.21747700  1
  Fe  Fe7  1  0.17312600  0.34625100  0.21747700  1
  Fe  Fe8  1  0.65374900  0.82687400  0.21747700  1
  Fe  Fe9  1  0.34625100  0.17312500  0.71747700  1
  Fe  Fe10  1  0.82687400  0.65374900  0.71747700  1
  Fe  Fe11  1  0.82687400  0.17312600  0.71747700  1
  O  O12  1  0.17453100  0.82546900  0.58680000  1
  O  O13  1  0.04512600  0.52256300  0.34809000  1
  O  O14  1  0.33333300  0.66666700  0.10392500  1
  O  O15  1  0.00000000  0.00000000  0.29970200  1
  O  O16  1  0.00000000  0.00000000  0.79970200  1
  O  O17  1  0.17453100  0.34906200  0.58680000  1
  O  O18  1  0.47743700  0.95487400  0.34809000  1
  O  O19  1  0.47743700  0.52256300  0.34809000  1
  O  O20  1  0.34906200  0.17453100  0.08680000  1
  O  O21  1  0.65093800  0.82546900  0.58680000  1
  O  O22  1  0.52256300  0.47743700  0.84809000  1
  O  O23  1  0.52256300  0.04512600  0.84809000  1
  O  O24  1  0.66666700  0.33333300  0.60392500  1
  O  O25  1  0.82546900  0.65093800  0.08680000  1
  O  O26  1  0.95487400  0.47743700  0.84809000  1
  O  O27  1  0.82546900  0.17453100  0.08680000  1
