# generated using pymatgen
data_NaLi5Fe2P2(CO7)2
_symmetry_space_group_name_H-M   'P 1'
_cell_length_a   6.50355400
_cell_length_b   8.56461793
_cell_length_c   10.24348121
_cell_angle_alpha   85.42359427
_cell_angle_beta   89.72229272
_cell_angle_gamma   89.37293029
_symmetry_Int_Tables_number   1
_chemical_formula_structural   NaLi5Fe2P2(CO7)2
_chemical_formula_sum   'Na2 Li10 Fe4 P4 C4 O28'
_cell_volume   568.70891561
_cell_formula_units_Z   2
loop_
 _symmetry_equiv_pos_site_id
 _symmetry_equiv_pos_as_xyz
  1  'x, y, z'
loop_
 _atom_site_type_symbol
 _atom_site_label
 _atom_site_symmetry_multiplicity
 _atom_site_fract_x
 _atom_site_fract_y
 _atom_site_fract_z
 _atom_site_occupancy
  Na  Na0  1  0.74913500  0.91325100  0.12150300  1
  Na  Na1  1  0.49547200  0.25913200  0.62623100  1
  Li  Li2  1  0.77857800  0.91642800  0.62159300  1
  Li  Li3  1  0.97436700  0.71834500  0.37969900  1
  Li  Li4  1  0.52985600  0.71470300  0.38104100  1
  Li  Li5  1  0.97407300  0.71884100  0.87293100  1
  Li  Li6  1  0.51432800  0.72586300  0.86802800  1
  Li  Li7  1  0.47181900  0.28221100  0.12598800  1
  Li  Li8  1  0.02843600  0.28403900  0.12383700  1
  Li  Li9  1  0.02183200  0.27658200  0.62839500  1
  Li  Li10  1  0.23893700  0.09208500  0.38254500  1
  Li  Li11  1  0.23352500  0.10374400  0.89103000  1
  Fe  Fe12  1  0.24550200  0.66682600  0.10445800  1
  Fe  Fe13  1  0.24817800  0.66573900  0.60487500  1
  Fe  Fe14  1  0.76079800  0.33385000  0.39032600  1
  Fe  Fe15  1  0.75171400  0.33825400  0.89163700  1
  P  P16  1  0.74669100  0.57949600  0.13682300  1
  P  P17  1  0.75491200  0.58986500  0.63669800  1
  P  P18  1  0.25178400  0.41319300  0.35522700  1
  P  P19  1  0.24576100  0.41705800  0.85820500  1
  C  C20  1  0.24593600  0.96723100  0.15084000  1
  C  C21  1  0.24222700  0.96103900  0.65785300  1
  C  C22  1  0.75160800  0.03042800  0.36170500  1
  C  C23  1  0.75788300  0.04100400  0.84279000  1
  O  O24  1  0.74629200  0.88190900  0.34527500  1
  O  O25  1  0.75235400  0.89255100  0.82344100  1
  O  O26  1  0.24261700  0.93188900  0.02991900  1
  O  O27  1  0.24482400  0.93514000  0.53473900  1
  O  O28  1  0.24018200  0.85405400  0.24420000  1
  O  O29  1  0.25561000  0.84153200  0.74559900  1
  O  O30  1  0.93317800  0.67453000  0.07918700  1
  O  O31  1  0.55797500  0.67894400  0.08553600  1
  O  O32  1  0.93371600  0.70142400  0.58982200  1
  O  O33  1  0.55952400  0.67795200  0.58255300  1
  O  O34  1  0.75286000  0.56901600  0.28996000  1
  O  O35  1  0.24429600  0.57689500  0.40860500  1
  O  O36  1  0.74827900  0.57133100  0.78993400  1
  O  O37  1  0.25142600  0.58078000  0.90982400  1
  O  O38  1  0.74257800  0.41111400  0.09183100  1
  O  O39  1  0.24072800  0.43278400  0.20227700  1
  O  O40  1  0.77783400  0.42785800  0.58282100  1
  O  O41  1  0.22734700  0.43487500  0.70633500  1
  O  O42  1  0.44758200  0.31735600  0.39692300  1
  O  O43  1  0.07427800  0.30536200  0.41071000  1
  O  O44  1  0.43718800  0.31419000  0.90074500  1
  O  O45  1  0.06488800  0.31599400  0.91879200  1
  O  O46  1  0.76332600  0.13371200  0.26078600  1
  O  O47  1  0.77053500  0.14573900  0.74341600  1
  O  O48  1  0.74658100  0.08013000  0.47834100  1
  O  O49  1  0.75058400  0.08962200  0.95888200  1
  O  O50  1  0.25486600  0.11243100  0.17997600  1
  O  O51  1  0.22519900  0.10168100  0.69531500  1
