# generated using pymatgen
data_LiVP2O7
_symmetry_space_group_name_H-M   'P 1'
_cell_length_a   5.27645800
_cell_length_b   5.36234375
_cell_length_c   9.07678175
_cell_angle_alpha   82.44941817
_cell_angle_beta   98.09696027
_cell_angle_gamma   75.83382995
_symmetry_Int_Tables_number   1
_chemical_formula_structural   LiVP2O7
_chemical_formula_sum   'Li2 V2 P4 O14'
_cell_volume   242.81946275
_cell_formula_units_Z   2
loop_
 _symmetry_equiv_pos_site_id
 _symmetry_equiv_pos_as_xyz
  1  'x, y, z'
loop_
 _atom_site_type_symbol
 _atom_site_label
 _atom_site_symmetry_multiplicity
 _atom_site_fract_x
 _atom_site_fract_y
 _atom_site_fract_z
 _atom_site_occupancy
  Li  Li0  1  0.70266500  0.69077000  0.49934500  1
  Li  Li1  1  0.31718000  0.28926800  0.99037000  1
  V  V2  1  0.31872100  0.32311000  0.49779300  1
  V  V3  1  0.67443500  0.68416400  0.00096600  1
  P  P4  1  0.22045600  0.78596500  0.70155600  1
  P  P5  1  0.21457500  0.78195100  0.20494900  1
  P  P6  1  0.77579100  0.20966200  0.79879500  1
  P  P7  1  0.78492900  0.22736300  0.29685900  1
  O  O8  1  0.36235000  0.95317300  0.61194900  1
  O  O9  1  0.03927500  0.64625600  0.11272900  1
  O  O10  1  0.09936100  0.61239100  0.60668100  1
  O  O11  1  0.38968900  0.89888200  0.10944500  1
  O  O12  1  0.38627400  0.62832300  0.85394100  1
  O  O13  1  0.37623200  0.61838600  0.35524300  1
  O  O14  1  0.98347200  0.97667600  0.75300500  1
  O  O15  1  0.01936300  0.01310600  0.25717200  1
  O  O16  1  0.61992200  0.36967400  0.64517500  1
  O  O17  1  0.62616500  0.37604800  0.14264500  1
  O  O18  1  0.61637300  0.06384600  0.89114100  1
  O  O19  1  0.93831200  0.38257500  0.38948100  1
  O  O20  1  0.91803900  0.37189400  0.89035800  1
  O  O21  1  0.61641600  0.09652200  0.39040400  1
