# generated using pymatgen
data_Li2Ca5N4
_symmetry_space_group_name_H-M   'P 1'
_cell_length_a   7.93095015
_cell_length_b   7.93095015
_cell_length_c   13.05841387
_cell_angle_alpha   90.00000000
_cell_angle_beta   90.00000000
_cell_angle_gamma   90.00000000
_symmetry_Int_Tables_number   1
_chemical_formula_structural   Li2Ca5N4
_chemical_formula_sum   'Li8 Ca20 N16'
_cell_volume   821.37384435
_cell_formula_units_Z   4
loop_
 _symmetry_equiv_pos_site_id
 _symmetry_equiv_pos_as_xyz
  1  'x, y, z'
loop_
 _atom_site_type_symbol
 _atom_site_label
 _atom_site_symmetry_multiplicity
 _atom_site_fract_x
 _atom_site_fract_y
 _atom_site_fract_z
 _atom_site_occupancy
  Li  Li0  1  0.09746745  0.90253255  0.25000000  1
  Li  Li1  1  0.40253255  0.90253255  0.75000000  1
  Li  Li2  1  0.09746745  0.59746745  0.75000000  1
  Li  Li3  1  0.40253255  0.59746745  0.25000000  1
  Li  Li4  1  0.90253255  0.09746745  0.75000000  1
  Li  Li5  1  0.59746745  0.09746745  0.25000000  1
  Li  Li6  1  0.90253255  0.40253255  0.25000000  1
  Li  Li7  1  0.59746745  0.40253255  0.75000000  1
  Ca  Ca8  1  0.75000000  0.75000000  0.37381709  1
  Ca  Ca9  1  0.75000000  0.75000000  0.87381709  1
  Ca  Ca10  1  0.25000000  0.25000000  0.62618291  1
  Ca  Ca11  1  0.25000000  0.25000000  0.12618291  1
  Ca  Ca12  1  0.13231757  0.57803623  0.41522493  1
  Ca  Ca13  1  0.36768243  0.57803623  0.91522493  1
  Ca  Ca14  1  0.13231757  0.92196377  0.91522493  1
  Ca  Ca15  1  0.36768243  0.92196377  0.41522493  1
  Ca  Ca16  1  0.57803623  0.13231757  0.91522493  1
  Ca  Ca17  1  0.92196377  0.13231757  0.41522493  1
  Ca  Ca18  1  0.57803623  0.36768243  0.41522493  1
  Ca  Ca19  1  0.92196377  0.36768243  0.91522493  1
  Ca  Ca20  1  0.86768243  0.42196377  0.58477507  1
  Ca  Ca21  1  0.63231757  0.42196377  0.08477507  1
  Ca  Ca22  1  0.86768243  0.07803623  0.08477507  1
  Ca  Ca23  1  0.63231757  0.07803623  0.58477507  1
  Ca  Ca24  1  0.42196377  0.86768243  0.08477507  1
  Ca  Ca25  1  0.07803623  0.86768243  0.58477507  1
  Ca  Ca26  1  0.42196377  0.63231757  0.58477507  1
  Ca  Ca27  1  0.07803623  0.63231757  0.08477507  1
  N  N28  1  0.63517439  0.05327915  0.39421476  1
  N  N29  1  0.86482561  0.05327915  0.89421476  1
  N  N30  1  0.63517439  0.44672085  0.89421476  1
  N  N31  1  0.86482561  0.44672085  0.39421476  1
  N  N32  1  0.05327915  0.63517439  0.89421476  1
  N  N33  1  0.44672085  0.63517439  0.39421476  1
  N  N34  1  0.05327915  0.86482561  0.39421476  1
  N  N35  1  0.44672085  0.86482561  0.89421476  1
  N  N36  1  0.36482561  0.94672085  0.60578524  1
  N  N37  1  0.13517439  0.94672085  0.10578524  1
  N  N38  1  0.36482561  0.55327915  0.10578524  1
  N  N39  1  0.13517439  0.55327915  0.60578524  1
  N  N40  1  0.94672085  0.36482561  0.10578524  1
  N  N41  1  0.55327915  0.36482561  0.60578524  1
  N  N42  1  0.94672085  0.13517439  0.60578524  1
  N  N43  1  0.55327915  0.13517439  0.10578524  1
