# generated using pymatgen
data_Li9Mn2Co5O16
_symmetry_space_group_name_H-M   'P 1'
_cell_length_a   5.80966400
_cell_length_b   5.89309900
_cell_length_c   8.45610450
_cell_angle_alpha   89.74085004
_cell_angle_beta   90.00000000
_cell_angle_gamma   90.00000000
_symmetry_Int_Tables_number   1
_chemical_formula_structural   Li9Mn2Co5O16
_chemical_formula_sum   'Li9 Mn2 Co5 O16'
_cell_volume   289.50805498
_cell_formula_units_Z   1
loop_
 _symmetry_equiv_pos_site_id
 _symmetry_equiv_pos_as_xyz
  1  'x, y, z'
loop_
 _atom_site_type_symbol
 _atom_site_label
 _atom_site_symmetry_multiplicity
 _atom_site_fract_x
 _atom_site_fract_y
 _atom_site_fract_z
 _atom_site_occupancy
  Li  Li0  1  0.24614200  0.25130100  0.25899500  1
  Li  Li1  1  0.24614200  0.74869900  0.74100500  1
  Li  Li2  1  0.50000000  0.00000000  0.50000000  1
  Li  Li3  1  0.50000000  0.50000000  0.00000000  1
  Li  Li4  1  0.75385800  0.74869900  0.74100500  1
  Li  Li5  1  0.75385800  0.25130100  0.25899500  1
  Li  Li6  1  0.00000000  0.50000000  0.00000000  1
  Li  Li7  1  0.00000000  0.00000000  0.50000000  1
  Li  Li8  1  0.00000000  0.50000000  0.50000000  1
  Mn  Mn9  1  0.00000000  0.00000000  0.00000000  1
  Mn  Mn10  1  0.50000000  0.50000000  0.50000000  1
  Co  Co11  1  0.24545200  0.74550600  0.26026000  1
  Co  Co12  1  0.24545200  0.25449400  0.73974000  1
  Co  Co13  1  0.50000000  0.00000000  0.00000000  1
  Co  Co14  1  0.75454800  0.25449400  0.73974000  1
  Co  Co15  1  0.75454800  0.74550600  0.26026000  1
  O  O16  1  0.24334000  0.22728200  0.00110400  1
  O  O17  1  0.26289800  0.73636100  0.49409600  1
  O  O18  1  0.50000000  0.97148900  0.24331000  1
  O  O19  1  0.50000000  0.49945500  0.72911800  1
  O  O20  1  0.73710200  0.73636100  0.49409600  1
  O  O21  1  0.75666000  0.22728200  0.00110400  1
  O  O22  1  0.00000000  0.47286800  0.75685500  1
  O  O23  1  0.00000000  0.99396400  0.23221000  1
  O  O24  1  0.26289800  0.26363900  0.50590400  1
  O  O25  1  0.24334000  0.77271800  0.99889600  1
  O  O26  1  0.50000000  0.02851100  0.75669000  1
  O  O27  1  0.50000000  0.50054500  0.27088200  1
  O  O28  1  0.75666000  0.77271800  0.99889600  1
  O  O29  1  0.73710200  0.26363900  0.50590400  1
  O  O30  1  0.00000000  0.52713200  0.24314500  1
  O  O31  1  0.00000000  0.00603600  0.76779000  1
