# generated using pymatgen
data_Li2Si4Ni5O14
_symmetry_space_group_name_H-M   'P 1'
_cell_length_a   5.41088957
_cell_length_b   7.43575159
_cell_length_c   14.39199272
_cell_angle_alpha   85.53707383
_cell_angle_beta   100.06164346
_cell_angle_gamma   104.43542238
_symmetry_Int_Tables_number   1
_chemical_formula_structural   Li2Si4Ni5O14
_chemical_formula_sum   'Li4 Si8 Ni10 O28'
_cell_volume   551.78596243
_cell_formula_units_Z   2
loop_
 _symmetry_equiv_pos_site_id
 _symmetry_equiv_pos_as_xyz
  1  'x, y, z'
loop_
 _atom_site_type_symbol
 _atom_site_label
 _atom_site_symmetry_multiplicity
 _atom_site_fract_x
 _atom_site_fract_y
 _atom_site_fract_z
 _atom_site_occupancy
  Li  Li0  1  0.23936000  0.87426800  0.22551900  1
  Li  Li1  1  0.22976800  0.38013100  0.73050500  1
  Li  Li2  1  0.77042400  0.61975400  0.26951400  1
  Li  Li3  1  0.76060200  0.12573900  0.77448400  1
  Si  Si4  1  0.51023800  0.79400000  0.43026100  1
  Si  Si5  1  0.50892100  0.28700200  0.93271500  1
  Si  Si6  1  0.49117800  0.71291200  0.06729200  1
  Si  Si7  1  0.48984200  0.20606400  0.56975500  1
  Si  Si8  1  0.80268500  0.01376000  0.19955300  1
  Si  Si9  1  0.78854200  0.52107800  0.69435600  1
  Si  Si10  1  0.21153000  0.47901000  0.30562500  1
  Si  Si11  1  0.19719200  0.98617600  0.80050400  1
  Ni  Ni12  1  0.00013500  0.49998100  0.50004000  1
  Ni  Ni13  1  0.99935800  0.00036300  0.99996900  1
  Ni  Ni14  1  0.09784000  0.94251100  0.41854900  1
  Ni  Ni15  1  0.08111100  0.50313800  0.90370400  1
  Ni  Ni16  1  0.91894200  0.49696400  0.09623500  1
  Ni  Ni17  1  0.90235300  0.05758500  0.58139400  1
  Ni  Ni18  1  0.64473500  0.22590600  0.35116800  1
  Ni  Ni19  1  0.62594000  0.73539000  0.85183200  1
  Ni  Ni20  1  0.37393400  0.26476000  0.14811300  1
  Ni  Ni21  1  0.35486200  0.77410300  0.64880400  1
  O  O22  1  0.88778100  0.89249400  0.29333100  1
  O  O23  1  0.88605300  0.39719300  0.78533800  1
  O  O24  1  0.11402000  0.60280400  0.21463300  1
  O  O25  1  0.11224900  0.10736300  0.70669800  1
  O  O26  1  0.79869900  0.84883300  0.49043800  1
  O  O27  1  0.81538500  0.34432500  0.98071300  1
  O  O28  1  0.18486600  0.65523200  0.01926700  1
  O  O29  1  0.20136800  0.15121600  0.50958000  1
  O  O30  1  0.53091900  0.87965400  0.14262700  1
  O  O31  1  0.52227600  0.39083100  0.63157500  1
  O  O32  1  0.47775700  0.60916800  0.36847200  1
  O  O33  1  0.46909700  0.12015800  0.85742300  1
  O  O34  1  0.42618900  0.96232500  0.36039500  1
  O  O35  1  0.41229800  0.46338000  0.87305800  1
  O  O36  1  0.58798100  0.53655100  0.12693900  1
  O  O37  1  0.57379100  0.03768800  0.63962100  1
  O  O38  1  0.03977400  0.04632700  0.13717800  1
  O  O39  1  0.02911400  0.55906300  0.63254900  1
  O  O40  1  0.97096400  0.44090400  0.36740900  1
  O  O41  1  0.96009800  0.95379700  0.86286700  1
  O  O42  1  0.71382300  0.20274500  0.21556700  1
  O  O43  1  0.67771900  0.69316100  0.71876000  1
  O  O44  1  0.32232200  0.30695300  0.28119100  1
  O  O45  1  0.28583100  0.79708500  0.78448100  1
  O  O46  1  0.32536300  0.20400100  0.01219100  1
  O  O47  1  0.28763200  0.74115300  0.50115700  1
  O  O48  1  0.71245300  0.25890700  0.49885600  1
  O  O49  1  0.67468600  0.79609500  0.98779700  1
