# generated using pymatgen
data_Li5Mn3O8
_symmetry_space_group_name_H-M   'P 1'
_cell_length_a   5.00375621
_cell_length_b   7.89473051
_cell_length_c   7.72893574
_cell_angle_alpha   81.31818101
_cell_angle_beta   76.91670659
_cell_angle_gamma   100.90131198
_symmetry_Int_Tables_number   1
_chemical_formula_structural   Li5Mn3O8
_chemical_formula_sum   'Li10 Mn6 O16'
_cell_volume   285.97167967
_cell_formula_units_Z   2
loop_
 _symmetry_equiv_pos_site_id
 _symmetry_equiv_pos_as_xyz
  1  'x, y, z'
loop_
 _atom_site_type_symbol
 _atom_site_label
 _atom_site_symmetry_multiplicity
 _atom_site_fract_x
 _atom_site_fract_y
 _atom_site_fract_z
 _atom_site_occupancy
  Li  Li0  1  0.01637000  0.38699400  0.87557100  1
  Li  Li1  1  0.01708800  0.88737800  0.37552600  1
  Li  Li2  1  0.99276300  0.62435100  0.12549400  1
  Li  Li3  1  0.99271800  0.12434400  0.62544400  1
  Li  Li4  1  0.50246600  0.12833700  0.12111700  1
  Li  Li5  1  0.50275000  0.62829300  0.62116700  1
  Li  Li6  1  0.50215000  0.49471000  0.99210000  1
  Li  Li7  1  0.50245100  0.99453900  0.49231600  1
  Li  Li8  1  0.50177500  0.25923000  0.76024200  1
  Li  Li9  1  0.50242100  0.75946700  0.26045700  1
  Mn  Mn10  1  0.49805700  0.86929900  0.87636300  1
  Mn  Mn11  1  0.00304000  0.00406500  0.00268100  1
  Mn  Mn12  1  0.00209800  0.74776100  0.74464900  1
  Mn  Mn13  1  0.49764900  0.36902600  0.37615000  1
  Mn  Mn14  1  0.00323000  0.50403900  0.50271800  1
  Mn  Mn15  1  0.00125700  0.24761000  0.24465400  1
  O  O16  1  0.23490600  0.25987300  0.01173900  1
  O  O17  1  0.23525500  0.75990800  0.51166600  1
  O  O18  1  0.78722500  0.51686100  0.74256400  1
  O  O19  1  0.78700800  0.01674200  0.24256900  1
  O  O20  1  0.23667100  0.47753700  0.26612700  1
  O  O21  1  0.23708000  0.97774900  0.76609700  1
  O  O22  1  0.73560800  0.74582800  0.98116200  1
  O  O23  1  0.73467500  0.24526600  0.48102200  1
  O  O24  1  0.73566000  0.59302600  0.38024400  1
  O  O25  1  0.73572400  0.09319600  0.88025500  1
  O  O26  1  0.75075600  0.36648900  0.14552200  1
  O  O27  1  0.75101200  0.86656100  0.64567400  1
  O  O28  1  0.24830800  0.64906400  0.86761100  1
  O  O29  1  0.24793600  0.14900000  0.36755500  1
  O  O30  1  0.25194000  0.87676300  0.10678400  1
  O  O31  1  0.25195500  0.37669200  0.60676100  1
