# generated using pymatgen
data_Li9Mn2Co5O16
_symmetry_space_group_name_H-M   'P 1'
_cell_length_a   5.12736884
_cell_length_b   5.12736884
_cell_length_c   20.73503659
_cell_angle_alpha   81.77672349
_cell_angle_beta   81.77672349
_cell_angle_gamma   32.57409082
_symmetry_Int_Tables_number   1
_chemical_formula_structural   Li9Mn2Co5O16
_chemical_formula_sum   'Li9 Mn2 Co5 O16'
_cell_volume   290.21161649
_cell_formula_units_Z   1
loop_
 _symmetry_equiv_pos_site_id
 _symmetry_equiv_pos_as_xyz
  1  'x, y, z'
loop_
 _atom_site_type_symbol
 _atom_site_label
 _atom_site_symmetry_multiplicity
 _atom_site_fract_x
 _atom_site_fract_y
 _atom_site_fract_z
 _atom_site_occupancy
  Li  Li0  1  0.24793100  0.24793100  0.06963000  1
  Li  Li1  1  0.75822300  0.75822300  0.18329300  1
  Li  Li2  1  0.25853900  0.25853900  0.31322700  1
  Li  Li3  1  0.74781100  0.74781100  0.43302500  1
  Li  Li4  1  0.25370000  0.25370000  0.56320300  1
  Li  Li5  1  0.75239200  0.75239200  0.68251900  1
  Li  Li6  1  0.24856300  0.24856300  0.81637400  1
  Li  Li7  1  0.74224000  0.74224000  0.93984400  1
  Li  Li8  1  0.49829800  0.49829800  0.12366800  1
  Mn  Mn9  1  0.99337300  0.99337300  0.00634100  1
  Mn  Mn10  1  0.00057200  0.00057200  0.75005700  1
  Co  Co11  1  0.01317300  0.01317300  0.23980700  1
  Co  Co12  1  0.49904900  0.49904900  0.37307800  1
  Co  Co13  1  0.00080600  0.00080600  0.49814900  1
  Co  Co14  1  0.50282400  0.50282400  0.62196200  1
  Co  Co15  1  0.49224600  0.49224600  0.87861400  1
  O  O16  1  0.38594200  0.38594200  0.97226100  1
  O  O17  1  0.88334000  0.88334000  0.08589900  1
  O  O18  1  0.39386400  0.39386400  0.22263600  1
  O  O19  1  0.88158400  0.88158400  0.34537300  1
  O  O20  1  0.39211500  0.39211500  0.46930800  1
  O  O21  1  0.88224100  0.88224100  0.59426400  1
  O  O22  1  0.38943800  0.38943800  0.71939800  1
  O  O23  1  0.87608100  0.87608100  0.84995500  1
  O  O24  1  0.12540600  0.12540600  0.16252900  1
  O  O25  1  0.60639000  0.60639000  0.27997100  1
  O  O26  1  0.11886800  0.11886800  0.40292000  1
  O  O27  1  0.60909300  0.60909300  0.52816400  1
  O  O28  1  0.12229800  0.12229800  0.65173500  1
  O  O29  1  0.61014200  0.61014200  0.78312500  1
  O  O30  1  0.10538500  0.10538500  0.91128700  1
  O  O31  1  0.60807300  0.60807300  0.02838600  1
