# generated using pymatgen
data_Li2Fe3WO8
_symmetry_space_group_name_H-M   'P 1'
_cell_length_a   5.93299073
_cell_length_b   5.93299073
_cell_length_c   9.61106342
_cell_angle_alpha   89.06892987
_cell_angle_beta   89.06892987
_cell_angle_gamma   119.70823633
_symmetry_Int_Tables_number   1
_chemical_formula_structural   Li2Fe3WO8
_chemical_formula_sum   'Li4 Fe6 W2 O16'
_cell_volume   293.69144086
_cell_formula_units_Z   2
loop_
 _symmetry_equiv_pos_site_id
 _symmetry_equiv_pos_as_xyz
  1  'x, y, z'
loop_
 _atom_site_type_symbol
 _atom_site_label
 _atom_site_symmetry_multiplicity
 _atom_site_fract_x
 _atom_site_fract_y
 _atom_site_fract_z
 _atom_site_occupancy
  Li  Li0  1  0.67299200  0.34020100  0.90568500  1
  Li  Li1  1  0.99278500  0.99240800  0.99050900  1
  Li  Li2  1  0.99240800  0.99278500  0.49050900  1
  Li  Li3  1  0.34020100  0.67299200  0.40568500  1
  Fe  Fe4  1  0.33642200  0.16793300  0.21458500  1
  Fe  Fe5  1  0.82689800  0.65858900  0.21491800  1
  Fe  Fe6  1  0.82562100  0.16884900  0.21434700  1
  Fe  Fe7  1  0.16884900  0.82562100  0.71434700  1
  Fe  Fe8  1  0.16793300  0.33642200  0.71458500  1
  Fe  Fe9  1  0.65858900  0.82689800  0.71491800  1
  W  W10  1  0.66981800  0.33113900  0.48757200  1
  W  W11  1  0.33113900  0.66981800  0.98757200  1
  O  O12  1  0.34030700  0.15309400  0.58153300  1
  O  O13  1  0.53936000  0.49864400  0.35347800  1
  O  O14  1  0.68442800  0.34696400  0.11401000  1
  O  O15  1  0.98021500  0.98811500  0.30008700  1
  O  O16  1  0.98811500  0.98021500  0.80008700  1
  O  O17  1  0.83182800  0.64808900  0.59454000  1
  O  O18  1  0.54212000  0.04271500  0.35023200  1
  O  O19  1  0.96522200  0.47868800  0.34272200  1
  O  O20  1  0.15838500  0.81785400  0.08970200  1
  O  O21  1  0.81785400  0.15838500  0.58970200  1
  O  O22  1  0.04271500  0.54212000  0.85023200  1
  O  O23  1  0.47868800  0.96522200  0.84272200  1
  O  O24  1  0.34696400  0.68442800  0.61401000  1
  O  O25  1  0.15309400  0.34030700  0.08153300  1
  O  O26  1  0.49864400  0.53936000  0.85347800  1
  O  O27  1  0.64808900  0.83182800  0.09454000  1
