# generated using pymatgen
data_Ba2Li3Ho3(WO4)8
_symmetry_space_group_name_H-M   'P 1'
_cell_length_a   5.27256600
_cell_length_b   6.94000530
_cell_length_c   19.10555710
_cell_angle_alpha   88.69224956
_cell_angle_beta   88.87215838
_cell_angle_gamma   67.96967552
_symmetry_Int_Tables_number   1
_chemical_formula_structural   Ba2Li3Ho3(WO4)8
_chemical_formula_sum   'Ba2 Li3 Ho3 W8 O32'
_cell_volume   647.84340036
_cell_formula_units_Z   1
loop_
 _symmetry_equiv_pos_site_id
 _symmetry_equiv_pos_as_xyz
  1  'x, y, z'
loop_
 _atom_site_type_symbol
 _atom_site_label
 _atom_site_symmetry_multiplicity
 _atom_site_fract_x
 _atom_site_fract_y
 _atom_site_fract_z
 _atom_site_occupancy
  Ba  Ba0  1  0.96579700  0.06138700  0.26154900  1
  Ba  Ba1  1  0.03278700  0.93928400  0.74145600  1
  Li  Li2  1  0.69275700  0.63131200  0.25633900  1
  Li  Li3  1  0.31074300  0.36595000  0.74451300  1
  Li  Li4  1  0.85281400  0.28647700  0.46170200  1
  Ho  Ho5  1  0.85935700  0.29396500  0.03371800  1
  Ho  Ho6  1  0.14975000  0.70736600  0.52906500  1
  Ho  Ho7  1  0.14093900  0.70649800  0.96778600  1
  W  W8  1  0.56827800  0.88067000  0.40698000  1
  W  W9  1  0.54545900  0.87509200  0.09442600  1
  W  W10  1  0.42926300  0.12038300  0.59185300  1
  W  W11  1  0.45476400  0.12371500  0.90607900  1
  W  W12  1  0.26179500  0.47561800  0.34914500  1
  W  W13  1  0.27335000  0.48031900  0.15376100  1
  W  W14  1  0.74152800  0.52257400  0.65200500  1
  W  W15  1  0.72845900  0.51987200  0.84713500  1
  O  O16  1  0.83760400  0.67068200  0.45437700  1
  O  O17  1  0.51888400  0.65566100  0.04235800  1
  O  O18  1  0.17881600  0.35145500  0.54958900  1
  O  O19  1  0.48313900  0.34340000  0.95715100  1
  O  O20  1  0.50936700  0.41145800  0.27394500  1
  O  O21  1  0.05597400  0.40206900  0.21175000  1
  O  O22  1  0.48793900  0.59168700  0.72493400  1
  O  O23  1  0.94091100  0.59734200  0.78676900  1
  O  O24  1  0.44419800  0.82445600  0.32397600  1
  O  O25  1  0.72737900  0.82676100  0.17525200  1
  O  O26  1  0.55352300  0.16879300  0.67585000  1
  O  O27  1  0.27345700  0.17350900  0.82490400  1
  O  O28  1  0.67525800  0.09798200  0.39024500  1
  O  O29  1  0.22237500  0.09525300  0.10327000  1
  O  O30  1  0.30461700  0.90710000  0.60842700  1
  O  O31  1  0.77872600  0.90439100  0.89604900  1
  O  O32  1  0.39998100  0.52905900  0.43046800  1
  O  O33  1  0.08133100  0.51921300  0.06896000  1
  O  O34  1  0.58378400  0.48947700  0.57230900  1
  O  O35  1  0.92155400  0.48028800  0.93118800  1
  O  O36  1  0.26953200  0.95532700  0.46618300  1
  O  O37  1  0.77586600  0.96033400  0.03611600  1
  O  O38  1  0.73654400  0.02481300  0.53731200  1
  O  O39  1  0.22368600  0.03858700  0.96355600  1
  O  O40  1  0.10340900  0.28745300  0.36225800  1
  O  O41  1  0.61620000  0.28956300  0.13175200  1
  O  O42  1  0.90925700  0.70792300  0.63635200  1
  O  O43  1  0.38429400  0.70947800  0.86809300  1
  O  O44  1  0.98017200  0.70518100  0.31854700  1
  O  O45  1  0.29721600  0.72920500  0.17187500  1
  O  O46  1  0.01521300  0.28815800  0.68151000  1
  O  O47  1  0.70195800  0.27346300  0.82716300  1
