# generated using pymatgen
data_Li10Zn(PS4)4
_symmetry_space_group_name_H-M   'P 1'
_cell_length_a   7.92157000
_cell_length_b   12.39913600
_cell_length_c   17.92193193
_cell_angle_alpha   46.25616874
_cell_angle_beta   90.00000000
_cell_angle_gamma   90.00000000
_symmetry_Int_Tables_number   1
_chemical_formula_structural   Li10Zn(PS4)4
_chemical_formula_sum   'Li20 Zn2 P8 S32'
_cell_volume   1271.71074041
_cell_formula_units_Z   2
loop_
 _symmetry_equiv_pos_site_id
 _symmetry_equiv_pos_as_xyz
  1  'x, y, z'
loop_
 _atom_site_type_symbol
 _atom_site_label
 _atom_site_symmetry_multiplicity
 _atom_site_fract_x
 _atom_site_fract_y
 _atom_site_fract_z
 _atom_site_occupancy
  Li  Li0  1  0.24396700  0.33599500  0.16138100  1
  Li  Li1  1  0.25230700  0.85019000  0.15154000  1
  Li  Li2  1  0.24725600  0.85106200  0.64728500  1
  Li  Li3  1  0.24630100  0.33412000  0.66095300  1
  Li  Li4  1  0.24760500  0.90962700  0.34661100  1
  Li  Li5  1  0.25594300  0.40278400  0.34313600  1
  Li  Li6  1  0.27554000  0.90734700  0.84425200  1
  Li  Li7  1  0.72446000  0.90734700  0.34425200  1
  Li  Li8  1  0.74405700  0.40278400  0.84313600  1
  Li  Li9  1  0.75239500  0.90962700  0.84661100  1
  Li  Li10  1  0.75369900  0.33412000  0.16095300  1
  Li  Li11  1  0.75274400  0.85106200  0.14728500  1
  Li  Li12  1  0.74769300  0.85019000  0.65154000  1
  Li  Li13  1  0.75603300  0.33599500  0.66138100  1
  Li  Li14  1  0.99572000  0.16756100  0.07732500  1
  Li  Li15  1  0.01363600  0.67432500  0.07236900  1
  Li  Li16  1  0.98636400  0.67432500  0.57236900  1
  Li  Li17  1  0.00428000  0.16756100  0.57732500  1
  Li  Li18  1  0.48913900  0.56843600  0.42418800  1
  Li  Li19  1  0.51086100  0.56843600  0.92418800  1
  Zn  Zn20  1  0.25668200  0.40175600  0.84537000  1
  Zn  Zn21  1  0.74331800  0.40175600  0.34537000  1
  P  P22  1  0.99073400  0.08866800  0.40627200  1
  P  P23  1  0.99844000  0.58788700  0.40897800  1
  P  P24  1  0.00156000  0.58788700  0.90897800  1
  P  P25  1  0.00926600  0.08866800  0.90627200  1
  P  P26  1  0.49219000  0.16369000  0.08923000  1
  P  P27  1  0.50143000  0.65677500  0.09416200  1
  P  P28  1  0.49857000  0.65677500  0.59416200  1
  P  P29  1  0.50781000  0.16369000  0.58923000  1
  S  S30  1  0.00044700  0.38573000  0.05914600  1
  S  S31  1  0.00625800  0.88761100  0.05929400  1
  S  S32  1  0.99374200  0.88761100  0.55929400  1
  S  S33  1  0.99955300  0.38573000  0.55914600  1
  S  S34  1  0.98702000  0.76359100  0.39876500  1
  S  S35  1  0.99476300  0.26416500  0.40372300  1
  S  S36  1  0.00523700  0.26416500  0.90372300  1
  S  S37  1  0.01298000  0.76359100  0.89876500  1
  S  S38  1  0.21141500  0.10921000  0.34129100  1
  S  S39  1  0.20936700  0.60842300  0.33362100  1
  S  S40  1  0.22156300  0.60481500  0.83513000  1
  S  S41  1  0.22693100  0.10609500  0.84041800  1
  S  S42  1  0.27950600  0.03447500  0.16390400  1
  S  S43  1  0.28763400  0.52736900  0.16424600  1
  S  S44  1  0.27823200  0.52445400  0.66855400  1
  S  S45  1  0.29281500  0.03511800  0.65981800  1
  S  S46  1  0.49654500  0.32343000  0.09504200  1
  S  S47  1  0.50156800  0.81916100  0.09364600  1
  S  S48  1  0.49843200  0.81916100  0.59364600  1
  S  S49  1  0.50345500  0.32343000  0.59504200  1
  S  S50  1  0.48439700  0.74286700  0.44638200  1
  S  S51  1  0.50509700  0.25283000  0.43963900  1
  S  S52  1  0.49490300  0.25283000  0.93963900  1
  S  S53  1  0.51560300  0.74286700  0.94638200  1
  S  S54  1  0.70718500  0.03511800  0.15981800  1
  S  S55  1  0.72176800  0.52445400  0.16855400  1
  S  S56  1  0.71236600  0.52736900  0.66424600  1
  S  S57  1  0.72049400  0.03447500  0.66390400  1
  S  S58  1  0.77306900  0.10609500  0.34041800  1
  S  S59  1  0.77843700  0.60481500  0.33513000  1
  S  S60  1  0.79063300  0.60842300  0.83362100  1
  S  S61  1  0.78858500  0.10921000  0.84129100  1
