# generated using pymatgen
data_Li5V3P8O29
_symmetry_space_group_name_H-M   'P 1'
_cell_length_a   9.78131800
_cell_length_b   9.82053538
_cell_length_c   14.08454150
_cell_angle_alpha   89.52981833
_cell_angle_beta   89.54819210
_cell_angle_gamma   60.15030464
_symmetry_Int_Tables_number   1
_chemical_formula_structural   Li5V3P8O29
_chemical_formula_sum   'Li10 V6 P16 O58'
_cell_volume   1173.39132475
_cell_formula_units_Z   2
loop_
 _symmetry_equiv_pos_site_id
 _symmetry_equiv_pos_as_xyz
  1  'x, y, z'
loop_
 _atom_site_type_symbol
 _atom_site_label
 _atom_site_symmetry_multiplicity
 _atom_site_fract_x
 _atom_site_fract_y
 _atom_site_fract_z
 _atom_site_occupancy
  Li  Li0  1  0.22959100  0.08619100  0.55961100  1
  Li  Li1  1  0.09676600  0.67452900  0.55719000  1
  Li  Li2  1  0.33293600  0.32755200  0.88925800  1
  Li  Li3  1  0.23509800  0.67180200  0.06469400  1
  Li  Li4  1  0.67973400  0.08856200  0.06190200  1
  Li  Li5  1  0.67812100  0.23034500  0.55865800  1
  Li  Li6  1  0.76687400  0.33567100  0.94363600  1
  Li  Li7  1  0.90960000  0.32265100  0.43318300  1
  Li  Li8  1  0.77544800  0.90722400  0.43844200  1
  Li  Li9  1  0.04538600  0.98412000  0.99840400  1
  V  V10  1  0.43274600  0.57027400  0.25365800  1
  V  V11  1  0.56736000  0.43323900  0.74696700  1
  V  V12  1  0.42953100  0.99806300  0.75274700  1
  V  V13  1  0.56272100  0.00076500  0.24761900  1
  V  V14  1  0.00673800  0.43138000  0.24122600  1
  V  V15  1  0.99209800  0.57314200  0.75337900  1
  P  P16  1  0.08453200  0.22406300  0.83874700  1
  P  P17  1  0.22907600  0.08817100  0.34260500  1
  P  P18  1  0.08644700  0.67872000  0.34252200  1
  P  P19  1  0.33789000  0.33675100  0.12666000  1
  P  P20  1  0.32966600  0.33382700  0.62970600  1
  P  P21  1  0.22665200  0.68144000  0.84516700  1
  P  P22  1  0.31287900  0.77145200  0.66174900  1
  P  P23  1  0.68223200  0.09204600  0.84401000  1
  P  P24  1  0.30626300  0.91535500  0.15955100  1
  P  P25  1  0.67986000  0.22994100  0.34085100  1
  P  P26  1  0.77137100  0.31700700  0.15865000  1
  P  P27  1  0.67309600  0.66169300  0.36827600  1
  P  P28  1  0.66388200  0.66280700  0.87249100  1
  P  P29  1  0.91477100  0.31971300  0.65428600  1
  P  P30  1  0.76808700  0.91567500  0.66120100  1
  P  P31  1  0.91548600  0.77825000  0.16018700  1
  O  O32  1  0.99969400  0.24882900  0.56307900  1
  O  O33  1  0.08187300  0.25249800  0.33489000  1
  O  O34  1  0.20349900  0.99154500  0.07646700  1
  O  O35  1  0.25689400  0.08659800  0.83772100  1
  O  O36  1  0.09360700  0.37817900  0.83079000  1
  O  O37  1  0.19334900  0.32817700  0.16763200  1
  O  O38  1  0.09493900  0.52089600  0.32421400  1
  O  O39  1  0.00749100  0.79358100  0.07977600  1
  O  O40  1  0.07940100  0.66011400  0.83158200  1
  O  O41  1  0.32530400  0.18500300  0.66763300  1
  O  O42  1  0.38028100  0.09916200  0.31795000  1
  O  O43  1  0.18137800  0.48240200  0.67547700  1
  O  O44  1  0.33570000  0.34944300  0.01986100  1
  O  O45  1  0.32416400  0.34592000  0.52409900  1
  O  O46  1  0.32885100  0.49009200  0.16855300  1
  O  O47  1  0.51719200  0.11018800  0.83008600  1
  O  O48  1  0.49196500  0.19005000  0.16162400  1
  O  O49  1  0.25493700  0.65658100  0.33472600  1
  O  O50  1  0.21477600  0.79435600  0.75953900  1
  O  O51  1  0.22447900  0.76383300  0.57935600  1
  O  O52  1  0.21612800  0.76123500  0.93660700  1
  O  O53  1  0.37307500  0.51756800  0.83060200  1
  O  O54  1  0.48474000  0.32679800  0.66863000  1
  O  O55  1  0.34126800  0.73989100  0.16601000  1
  O  O56  1  0.51896700  0.37983800  0.32225300  1
  O  O57  1  0.66266700  0.08235300  0.34179700  1
  O  O58  1  0.21156200  0.98990200  0.25758300  1
  O  O59  1  0.24358100  0.00993400  0.43551600  1
  O  O60  1  0.76194300  0.00080100  0.57083600  1
  O  O61  1  0.33561000  0.91659100  0.66136000  1
  O  O62  1  0.47434500  0.61881300  0.67828900  1
  O  O63  1  0.66257400  0.25994900  0.83612100  1
  O  O64  1  0.52310700  0.65998500  0.32254600  1
  O  O65  1  0.61454000  0.47215200  0.17418100  1
  O  O66  1  0.76792000  0.23289900  0.07021800  1
  O  O67  1  0.75563500  0.24443300  0.43002800  1
  O  O68  1  0.79093300  0.20852600  0.25065800  1
  O  O69  1  0.74990000  0.33379800  0.65744400  1
  O  O70  1  0.51998500  0.80778700  0.82925700  1
  O  O71  1  0.46199300  0.91660200  0.16663000  1
  O  O72  1  0.67439800  0.50972100  0.83166700  1
  O  O73  1  0.68179400  0.65269700  0.97697500  1
  O  O74  1  0.66808400  0.65716500  0.47386200  1
  O  O75  1  0.81888300  0.51253400  0.32677800  1
  O  O76  1  0.61695600  0.90786800  0.67951900  1
  O  O77  1  0.66984100  0.81370500  0.32969700  1
  O  O78  1  0.91200200  0.34395400  0.15963600  1
  O  O79  1  0.01134700  0.20446700  0.74068500  1
  O  O80  1  0.99167600  0.21246300  0.91968100  1
  O  O81  1  0.90439800  0.47780100  0.67787500  1
  O  O82  1  0.81501900  0.66355300  0.82356500  1
  O  O83  1  0.91033200  0.62521600  0.16867800  1
  O  O84  1  0.74376500  0.92049200  0.16225200  1
  O  O85  1  0.76586300  0.01441600  0.93334400  1
  O  O86  1  0.79011200  0.00108500  0.75209700  1
  O  O87  1  0.91535500  0.74768100  0.66162300  1
  O  O88  1  0.00419800  0.75361200  0.43404400  1
  O  O89  1  0.98878300  0.79896200  0.25879800  1
