# generated using pymatgen
data_Li7Eu3(MoO4)8
_symmetry_space_group_name_H-M   'P 1'
_cell_length_a   6.91769700
_cell_length_b   10.09948520
_cell_length_c   10.86496261
_cell_angle_alpha   66.35767765
_cell_angle_beta   83.84614137
_cell_angle_gamma   74.75853703
_symmetry_Int_Tables_number   1
_chemical_formula_structural   Li7Eu3(MoO4)8
_chemical_formula_sum   'Li7 Eu3 Mo8 O32'
_cell_volume   670.91033512
_cell_formula_units_Z   1
loop_
 _symmetry_equiv_pos_site_id
 _symmetry_equiv_pos_as_xyz
  1  'x, y, z'
loop_
 _atom_site_type_symbol
 _atom_site_label
 _atom_site_symmetry_multiplicity
 _atom_site_fract_x
 _atom_site_fract_y
 _atom_site_fract_z
 _atom_site_occupancy
  Li  Li0  1  0.19731800  0.39747100  0.13019700  1
  Li  Li1  1  0.69775600  0.89806100  0.12993600  1
  Li  Li2  1  0.30257500  0.10209900  0.86990400  1
  Li  Li3  1  0.80396200  0.60433400  0.86702900  1
  Li  Li4  1  0.24984400  0.75021800  0.99932600  1
  Li  Li5  1  0.75003900  0.24998800  0.99996600  1
  Li  Li6  1  0.97805500  0.79502500  0.56212400  1
  Eu  Eu7  1  0.47583000  0.29499900  0.56152400  1
  Eu  Eu8  1  0.52116300  0.70643500  0.44199800  1
  Eu  Eu9  1  0.02444100  0.20022100  0.44035300  1
  Mo  Mo10  1  0.09071400  0.60900100  0.31976800  1
  Mo  Mo11  1  0.59453400  0.10633900  0.31917400  1
  Mo  Mo12  1  0.40739700  0.89168400  0.68100600  1
  Mo  Mo13  1  0.90830100  0.39332900  0.68183100  1
  Mo  Mo14  1  0.36414500  0.48186300  0.80125800  1
  Mo  Mo15  1  0.86559900  0.97844000  0.80117800  1
  Mo  Mo16  1  0.13447100  0.01885600  0.19870700  1
  Mo  Mo17  1  0.63431500  0.52011700  0.19778000  1
  O  O18  1  0.69532600  0.99287700  0.93147000  1
  O  O19  1  0.19356900  0.49374500  0.93185400  1
  O  O20  1  0.80515800  0.50691700  0.06824300  1
  O  O21  1  0.30532700  0.00669900  0.06822500  1
  O  O22  1  0.33622000  0.54858700  0.40484100  1
  O  O23  1  0.83257500  0.05069800  0.40305100  1
  O  O24  1  0.16685500  0.95176200  0.59653300  1
  O  O25  1  0.66520700  0.45124000  0.59493400  1
  O  O26  1  0.14183200  0.18485100  0.22605000  1
  O  O27  1  0.64166800  0.68477400  0.22470300  1
  O  O28  1  0.35798500  0.31552000  0.77408400  1
  O  O29  1  0.85670400  0.81586400  0.77701100  1
  O  O30  1  0.39882300  0.16590900  0.42745400  1
  O  O31  1  0.89768400  0.66355500  0.42599400  1
  O  O32  1  0.10279400  0.33423300  0.57256500  1
  O  O33  1  0.59750800  0.83531900  0.57244100  1
  O  O34  1  0.31099900  0.64671700  0.64412600  1
  O  O35  1  0.80842300  0.14962500  0.64114300  1
  O  O36  1  0.19302700  0.85271800  0.35394800  1
  O  O37  1  0.69086900  0.35222300  0.35740000  1
  O  O38  1  0.05223000  0.45273800  0.29201500  1
  O  O39  1  0.55187300  0.95198000  0.29120300  1
  O  O40  1  0.44840300  0.04844500  0.70834000  1
  O  O41  1  0.94837800  0.54610800  0.70783100  1
  O  O42  1  0.11074500  0.94626800  0.86301500  1
  O  O43  1  0.61055200  0.44672000  0.86221400  1
  O  O44  1  0.38994400  0.55338900  0.13695700  1
  O  O45  1  0.88866900  0.05293200  0.13760400  1
  O  O46  1  0.06477500  0.75960900  0.16128300  1
  O  O47  1  0.56697800  0.25903400  0.16185200  1
  O  O48  1  0.43375100  0.73987400  0.83941300  1
  O  O49  1  0.93468700  0.24059100  0.83914300  1
