# generated using pymatgen
data_Li7Mn5O12
_symmetry_space_group_name_H-M   'P 1'
_cell_length_a   5.29580078
_cell_length_b   15.06175872
_cell_length_c   6.05727076
_cell_angle_alpha   82.29515740
_cell_angle_beta   68.99707866
_cell_angle_gamma   93.88660962
_symmetry_Int_Tables_number   1
_chemical_formula_structural   Li7Mn5O12
_chemical_formula_sum   'Li14 Mn10 O24'
_cell_volume   443.46325581
_cell_formula_units_Z   2
loop_
 _symmetry_equiv_pos_site_id
 _symmetry_equiv_pos_as_xyz
  1  'x, y, z'
loop_
 _atom_site_type_symbol
 _atom_site_label
 _atom_site_symmetry_multiplicity
 _atom_site_fract_x
 _atom_site_fract_y
 _atom_site_fract_z
 _atom_site_occupancy
  Li  Li0  1  0.77504000  0.25737800  0.00906000  1
  Li  Li1  1  0.22496200  0.74262700  0.99091700  1
  Li  Li2  1  0.75776000  0.25317300  0.49869100  1
  Li  Li3  1  0.24232300  0.74684700  0.50125000  1
  Li  Li4  1  0.00003300  0.00000000  0.49999200  1
  Li  Li5  1  0.49997500  0.49998100  0.50001100  1
  Li  Li6  1  0.58618100  0.07930900  0.82854900  1
  Li  Li7  1  0.08491300  0.57705600  0.82385200  1
  Li  Li8  1  0.91507000  0.42295800  0.17607000  1
  Li  Li9  1  0.41389500  0.92072100  0.17144800  1
  Li  Li10  1  0.59335100  0.08348200  0.35140300  1
  Li  Li11  1  0.10806700  0.58154600  0.35891600  1
  Li  Li12  1  0.89197300  0.41848800  0.64104300  1
  Li  Li13  1  0.40667800  0.91653700  0.64859100  1
  Mn  Mn14  1  0.50000500  0.50001600  0.00021000  1
  Mn  Mn15  1  0.00006400  0.00000500  0.99994200  1
  Mn  Mn16  1  0.33741200  0.33632700  0.82906500  1
  Mn  Mn17  1  0.83418500  0.83537300  0.83571600  1
  Mn  Mn18  1  0.16596100  0.16467900  0.16426100  1
  Mn  Mn19  1  0.66241400  0.66373300  0.17105400  1
  Mn  Mn20  1  0.34347800  0.33642400  0.33786200  1
  Mn  Mn21  1  0.84017700  0.83521700  0.34121800  1
  Mn  Mn22  1  0.15980200  0.16479700  0.65885500  1
  Mn  Mn23  1  0.65649900  0.66351300  0.66217700  1
  O  O24  1  0.27661600  0.04471100  0.68070500  1
  O  O25  1  0.77741600  0.54522200  0.68220400  1
  O  O26  1  0.22255000  0.45475700  0.31766200  1
  O  O27  1  0.72342300  0.95527100  0.31922700  1
  O  O28  1  0.40514100  0.20521900  0.82274300  1
  O  O29  1  0.93920700  0.71423000  0.85072100  1
  O  O30  1  0.06072500  0.28573700  0.14933000  1
  O  O31  1  0.59483800  0.79475100  0.17730400  1
  O  O32  1  0.61877100  0.38000000  0.01686700  1
  O  O33  1  0.11974300  0.88110200  0.02273000  1
  O  O34  1  0.88022800  0.11888100  0.97727700  1
  O  O35  1  0.38113600  0.61998800  0.98315600  1
  O  O36  1  0.25059300  0.04276900  0.14548000  1
  O  O37  1  0.75136200  0.54214500  0.14313200  1
  O  O38  1  0.24856300  0.45786600  0.85684400  1
  O  O39  1  0.74937400  0.95719200  0.85450900  1
  O  O40  1  0.44451300  0.20871900  0.34768800  1
  O  O41  1  0.94841400  0.71467700  0.34837900  1
  O  O42  1  0.05163400  0.28530400  0.65161400  1
  O  O43  1  0.55547600  0.79128200  0.65233600  1
  O  O44  1  0.61146600  0.37220100  0.51853300  1
  O  O45  1  0.08247900  0.86966400  0.49964800  1
  O  O46  1  0.91753900  0.13031900  0.50043200  1
  O  O47  1  0.38857400  0.62780300  0.48132400  1
