# generated using pymatgen
data_Li2VCr3O8
_symmetry_space_group_name_H-M   'P 1'
_cell_length_a   5.90889247
_cell_length_b   5.90998115
_cell_length_c   10.47686151
_cell_angle_alpha   74.55597285
_cell_angle_beta   73.61695878
_cell_angle_gamma   60.00595955
_symmetry_Int_Tables_number   1
_chemical_formula_structural   Li2VCr3O8
_chemical_formula_sum   'Li4 V2 Cr6 O16'
_cell_volume   300.52752047
_cell_formula_units_Z   2
loop_
 _symmetry_equiv_pos_site_id
 _symmetry_equiv_pos_as_xyz
  1  'x, y, z'
loop_
 _atom_site_type_symbol
 _atom_site_label
 _atom_site_symmetry_multiplicity
 _atom_site_fract_x
 _atom_site_fract_y
 _atom_site_fract_z
 _atom_site_occupancy
  Li  Li0  1  0.25004600  0.74986000  0.24999000  1
  Li  Li1  1  0.75007300  0.24989700  0.75003500  1
  Li  Li2  1  0.75002100  0.74992000  0.25004200  1
  Li  Li3  1  0.24991500  0.24995900  0.75008600  1
  V  V4  1  0.99989600  0.99989400  0.00018200  1
  V  V5  1  0.49992100  0.50004000  0.50014200  1
  Cr  Cr6  1  0.49993800  0.00011600  0.00003600  1
  Cr  Cr7  1  0.99999700  0.00019600  0.49983200  1
  Cr  Cr8  1  0.50005100  0.99991300  0.50007600  1
  Cr  Cr9  1  0.00021300  0.49987400  0.49986200  1
  Cr  Cr10  1  0.49999100  0.50026400  0.99971600  1
  Cr  Cr11  1  0.99973700  0.50003000  0.00014000  1
  O  O12  1  0.37941200  0.84784500  0.39357200  1
  O  O13  1  0.87937200  0.34783600  0.89353300  1
  O  O14  1  0.12072200  0.65213000  0.10643300  1
  O  O15  1  0.62080100  0.15211400  0.60642600  1
  O  O16  1  0.87290000  0.86032100  0.39385600  1
  O  O17  1  0.37272400  0.36035500  0.89393700  1
  O  O18  1  0.62691000  0.63976000  0.10613900  1
  O  O19  1  0.12707100  0.13974100  0.60607300  1
  O  O20  1  0.84869100  0.37696500  0.39750000  1
  O  O21  1  0.34866600  0.87703500  0.89752600  1
  O  O22  1  0.37701300  0.37680000  0.39755600  1
  O  O23  1  0.87681800  0.87691700  0.89759000  1
  O  O24  1  0.12307400  0.12301500  0.10248900  1
  O  O25  1  0.62330700  0.62293600  0.60243700  1
  O  O26  1  0.65137900  0.12315100  0.10241700  1
  O  O27  1  0.15134100  0.62311700  0.60237600  1
