# generated using pymatgen
data_Rb4Li(SO4)4
_symmetry_space_group_name_H-M   'P 1'
_cell_length_a   7.81505900
_cell_length_b   7.81505900
_cell_length_c   30.24580200
_cell_angle_alpha   90.00000000
_cell_angle_beta   90.00000000
_cell_angle_gamma   90.00000000
_symmetry_Int_Tables_number   1
_chemical_formula_structural   Rb4Li(SO4)4
_chemical_formula_sum   'Rb16 Li4 S16 O64'
_cell_volume   1847.26680853
_cell_formula_units_Z   4
loop_
 _symmetry_equiv_pos_site_id
 _symmetry_equiv_pos_as_xyz
  1  'x, y, z'
loop_
 _atom_site_type_symbol
 _atom_site_label
 _atom_site_symmetry_multiplicity
 _atom_site_fract_x
 _atom_site_fract_y
 _atom_site_fract_z
 _atom_site_occupancy
  Rb  Rb0  1  0.88186200  0.94079700  0.46477500  1
  Rb  Rb1  1  0.11813800  0.05920300  0.96477500  1
  Rb  Rb2  1  0.94079700  0.11813800  0.21477500  1
  Rb  Rb3  1  0.05920300  0.88186200  0.71477500  1
  Rb  Rb4  1  0.39061300  0.63042000  0.45474200  1
  Rb  Rb5  1  0.60938700  0.36958000  0.95474200  1
  Rb  Rb6  1  0.63042000  0.60938700  0.20474200  1
  Rb  Rb7  1  0.36958000  0.39061300  0.70474200  1
  Rb  Rb8  1  0.98236200  0.46590600  0.83399700  1
  Rb  Rb9  1  0.01763800  0.53409400  0.33399700  1
  Rb  Rb10  1  0.46590600  0.01763800  0.58399700  1
  Rb  Rb11  1  0.53409400  0.98236200  0.08399700  1
  Rb  Rb12  1  0.47636100  0.77807900  0.82635500  1
  Rb  Rb13  1  0.52363900  0.22192100  0.32635500  1
  Rb  Rb14  1  0.77807900  0.52363900  0.57635500  1
  Rb  Rb15  1  0.22192100  0.47636100  0.07635500  1
  Li  Li16  1  0.87039500  0.71961800  0.02005800  1
  Li  Li17  1  0.12960500  0.28038200  0.52005800  1
  Li  Li18  1  0.71961800  0.12960500  0.77005800  1
  Li  Li19  1  0.28038200  0.87039500  0.27005800  1
  S  S20  1  0.12784700  0.54128200  0.95381500  1
  S  S21  1  0.87215300  0.45871800  0.45381500  1
  S  S22  1  0.54128200  0.87215300  0.70381500  1
  S  S23  1  0.45871800  0.12784700  0.20381500  1
  S  S24  1  0.12089700  0.59509200  0.20681200  1
  S  S25  1  0.87910300  0.40490800  0.70681200  1
  S  S26  1  0.59509200  0.87910300  0.95681200  1
  S  S27  1  0.40490800  0.12089700  0.45681200  1
  S  S28  1  0.99257400  0.96245700  0.83556600  1
  S  S29  1  0.00742600  0.03754300  0.33556600  1
  S  S30  1  0.96245700  0.00742600  0.58556600  1
  S  S31  1  0.03754300  0.99257400  0.08556600  1
  S  S32  1  0.70051800  0.45797200  0.08377000  1
  S  S33  1  0.29948200  0.54202800  0.58377000  1
  S  S34  1  0.45797200  0.29948200  0.83377000  1
  S  S35  1  0.54202800  0.70051800  0.33377000  1
  O  O36  1  0.25139400  0.42639500  0.97591900  1
  O  O37  1  0.74860600  0.57360500  0.47591900  1
  O  O38  1  0.42639500  0.74860600  0.72591900  1
  O  O39  1  0.57360500  0.25139400  0.22591900  1
  O  O40  1  0.20345600  0.61692400  0.91259000  1
  O  O41  1  0.79654400  0.38307600  0.41259000  1
  O  O42  1  0.61692400  0.79654400  0.66259000  1
  O  O43  1  0.38307600  0.20345600  0.16259000  1
  O  O44  1  0.07360600  0.67881200  0.98455700  1
  O  O45  1  0.92639400  0.32118800  0.48455700  1
  O  O46  1  0.67881200  0.92639400  0.73455700  1
  O  O47  1  0.32118800  0.07360600  0.23455700  1
  O  O48  1  0.97758700  0.44050300  0.93726900  1
  O  O49  1  0.02241300  0.55949700  0.43726900  1
  O  O50  1  0.44050300  0.02241300  0.68726900  1
  O  O51  1  0.55949700  0.97758700  0.18726900  1
  O  O52  1  0.25473500  0.65813400  0.23770100  1
  O  O53  1  0.74526500  0.34186600  0.73770100  1
  O  O54  1  0.65813400  0.74526500  0.98770100  1
  O  O55  1  0.34186600  0.25473500  0.48770100  1
  O  O56  1  0.02042300  0.73967000  0.18714000  1
  O  O57  1  0.97957700  0.26033000  0.68714000  1
  O  O58  1  0.73967000  0.97957700  0.93714000  1
  O  O59  1  0.26033000  0.02042300  0.43714000  1
  O  O60  1  0.99663900  0.48557800  0.23101700  1
  O  O61  1  0.00336100  0.51442200  0.73101700  1
  O  O62  1  0.48557800  0.00336100  0.98101700  1
  O  O63  1  0.51442200  0.99663900  0.48101700  1
  O  O64  1  0.20253900  0.50138800  0.16963300  1
  O  O65  1  0.79746100  0.49861200  0.66963300  1
  O  O66  1  0.50138800  0.79746100  0.91963300  1
  O  O67  1  0.49861200  0.20253900  0.41963300  1
  O  O68  1  0.10904400  0.83535100  0.81461400  1
  O  O69  1  0.89095600  0.16464900  0.31461400  1
  O  O70  1  0.83535100  0.89095600  0.56461400  1
  O  O71  1  0.16464900  0.10904400  0.06461400  1
  O  O72  1  0.84725900  0.86419400  0.85559400  1
  O  O73  1  0.15274100  0.13580600  0.35559400  1
  O  O74  1  0.86419400  0.15274100  0.60559400  1
  O  O75  1  0.13580600  0.84725900  0.10559400  1
  O  O76  1  0.07892200  0.05639500  0.87198400  1
  O  O77  1  0.92107800  0.94360500  0.37198400  1
  O  O78  1  0.05639500  0.92107800  0.62198400  1
  O  O79  1  0.94360500  0.07892200  0.12198400  1
  O  O80  1  0.93156200  0.08611100  0.80169700  1
  O  O81  1  0.06843800  0.91388900  0.30169700  1
  O  O82  1  0.08611100  0.06843800  0.55169700  1
  O  O83  1  0.91388900  0.93156200  0.05169700  1
  O  O84  1  0.59754900  0.60767400  0.09988800  1
  O  O85  1  0.40245100  0.39232600  0.59988800  1
  O  O86  1  0.60767400  0.40245100  0.84988800  1
  O  O87  1  0.39232600  0.59754900  0.34988800  1
  O  O88  1  0.84464600  0.51420500  0.05536800  1
  O  O89  1  0.15535400  0.48579500  0.55536800  1
  O  O90  1  0.51420500  0.15535400  0.80536800  1
  O  O91  1  0.48579500  0.84464600  0.30536800  1
  O  O92  1  0.76749300  0.37952100  0.12570400  1
  O  O93  1  0.23250700  0.62047900  0.62570400  1
  O  O94  1  0.37952100  0.23250700  0.87570400  1
  O  O95  1  0.62047900  0.76749300  0.37570400  1
  O  O96  1  0.58951600  0.33705400  0.05955600  1
  O  O97  1  0.41048400  0.66294600  0.55955600  1
  O  O98  1  0.33705400  0.41048400  0.80955600  1
  O  O99  1  0.66294600  0.58951600  0.30955600  1
