# generated using pymatgen
data_Na2LiFePCO7
_symmetry_space_group_name_H-M   'P 1'
_cell_length_a   6.67561700
_cell_length_b   8.84358954
_cell_length_c   10.33512443
_cell_angle_alpha   91.98489603
_cell_angle_beta   90.26083077
_cell_angle_gamma   91.11467526
_symmetry_Int_Tables_number   1
_chemical_formula_structural   Na2LiFePCO7
_chemical_formula_sum   'Na8 Li4 Fe4 P4 C4 O28'
_cell_volume   609.65888565
_cell_formula_units_Z   4
loop_
 _symmetry_equiv_pos_site_id
 _symmetry_equiv_pos_as_xyz
  1  'x, y, z'
loop_
 _atom_site_type_symbol
 _atom_site_label
 _atom_site_symmetry_multiplicity
 _atom_site_fract_x
 _atom_site_fract_y
 _atom_site_fract_z
 _atom_site_occupancy
  Na  Na0  1  0.23708500  0.91852300  0.87880500  1
  Na  Na1  1  0.24703900  0.91631100  0.38082300  1
  Na  Na2  1  0.50174200  0.74023900  0.62710900  1
  Na  Na3  1  0.00174800  0.73627100  0.12728900  1
  Na  Na4  1  0.49900600  0.73770800  0.12637800  1
  Na  Na5  1  0.49977400  0.25975900  0.87310100  1
  Na  Na6  1  0.50579300  0.25896600  0.37594900  1
  Na  Na7  1  0.99647100  0.25938700  0.37655400  1
  Li  Li8  1  0.03139500  0.71608400  0.61356600  1
  Li  Li9  1  0.96950300  0.28094200  0.88478700  1
  Li  Li10  1  0.77805300  0.08991600  0.62922400  1
  Li  Li11  1  0.75574900  0.09972600  0.11979500  1
  Fe  Fe12  1  0.74831800  0.65117800  0.88752500  1
  Fe  Fe13  1  0.75601200  0.64667700  0.39526300  1
  Fe  Fe14  1  0.24796500  0.34716500  0.61402800  1
  Fe  Fe15  1  0.24273600  0.34874800  0.10728800  1
  P  P16  1  0.23620200  0.58456200  0.85152100  1
  P  P17  1  0.25362100  0.58424800  0.35915100  1
  P  P18  1  0.75854500  0.40943100  0.65032100  1
  P  P19  1  0.74635600  0.40923900  0.14316700  1
  C  C20  1  0.75988400  0.95805200  0.86230700  1
  C  C21  1  0.75250700  0.94894100  0.35781700  1
  C  C22  1  0.24154900  0.05009800  0.63585500  1
  C  C23  1  0.24764900  0.05711600  0.13660800  1
  O  O24  1  0.22559100  0.90401100  0.64146600  1
  O  O25  1  0.25563400  0.91242400  0.14663700  1
  O  O26  1  0.75193100  0.92089200  0.98316000  1
  O  O27  1  0.75220700  0.92053600  0.48056200  1
  O  O28  1  0.75006400  0.85222200  0.77095000  1
  O  O29  1  0.75999600  0.83648400  0.27232300  1
  O  O30  1  0.06051300  0.68494700  0.89949000  1
  O  O31  1  0.43321000  0.67314500  0.89012100  1
  O  O32  1  0.07112800  0.67928600  0.40745800  1
  O  O33  1  0.44381100  0.68192600  0.39671200  1
  O  O34  1  0.22505000  0.56718800  0.70029100  1
  O  O35  1  0.77277100  0.56767800  0.58925500  1
  O  O36  1  0.24418500  0.56232700  0.20864900  1
  O  O37  1  0.74556200  0.56350900  0.07823500  1
  O  O38  1  0.22596100  0.42526900  0.90962100  1
  O  O39  1  0.76824000  0.43127200  0.80099600  1
  O  O40  1  0.25582300  0.42892200  0.42169300  1
  O  O41  1  0.75699600  0.43449200  0.29294300  1
  O  O42  1  0.56354800  0.32034900  0.61085400  1
  O  O43  1  0.93209600  0.30425300  0.60577100  1
  O  O44  1  0.55658300  0.31091400  0.10689500  1
  O  O45  1  0.92526500  0.30903400  0.09585800  1
  O  O46  1  0.25191300  0.13577000  0.74051100  1
  O  O47  1  0.24036800  0.14614700  0.23981000  1
  O  O48  1  0.24751400  0.11555600  0.52457000  1
  O  O49  1  0.24592100  0.11798100  0.02376800  1
  O  O50  1  0.77735800  0.09850800  0.83002800  1
  O  O51  1  0.74605800  0.08567100  0.31714100  1
