# generated using pymatgen
data_Li5Mn2CoO8
_symmetry_space_group_name_H-M   'P 1'
_cell_length_a   5.05068058
_cell_length_b   7.70856303
_cell_length_c   7.64978875
_cell_angle_alpha   83.01913338
_cell_angle_beta   108.50703484
_cell_angle_gamma   95.89130159
_symmetry_Int_Tables_number   1
_chemical_formula_structural   Li5Mn2CoO8
_chemical_formula_sum   'Li10 Mn4 Co2 O16'
_cell_volume   279.68667370
_cell_formula_units_Z   2
loop_
 _symmetry_equiv_pos_site_id
 _symmetry_equiv_pos_as_xyz
  1  'x, y, z'
loop_
 _atom_site_type_symbol
 _atom_site_label
 _atom_site_symmetry_multiplicity
 _atom_site_fract_x
 _atom_site_fract_y
 _atom_site_fract_z
 _atom_site_occupancy
  Li  Li0  1  0.00151600  0.87643100  0.37464400  1
  Li  Li1  1  0.99848700  0.37356800  0.87535600  1
  Li  Li2  1  0.50713200  0.70014100  0.43094700  1
  Li  Li3  1  0.50614200  0.19711800  0.93381600  1
  Li  Li4  1  0.49386000  0.05288200  0.31618300  1
  Li  Li5  1  0.49286800  0.54986000  0.81905300  1
  Li  Li6  1  0.50143600  0.94152400  0.68567700  1
  Li  Li7  1  0.50053800  0.43949300  0.18213300  1
  Li  Li8  1  0.49856500  0.30847500  0.56432300  1
  Li  Li9  1  0.49946100  0.81050700  0.06786500  1
  Mn  Mn10  1  0.99630000  0.50071900  0.49969300  1
  Mn  Mn11  1  0.00369900  0.74928100  0.75030800  1
  Mn  Mn12  1  0.00744800  0.00042700  0.00385700  1
  Mn  Mn13  1  0.99255200  0.24957400  0.24614300  1
  Co  Co14  1  0.00000000  0.62500000  0.12500100  1
  Co  Co15  1  0.00000000  0.12500000  0.62500000  1
  O  O16  1  0.23572600  0.95455700  0.85117800  1
  O  O17  1  0.22238300  0.46084900  0.34222600  1
  O  O18  1  0.76427300  0.29544300  0.39882200  1
  O  O19  1  0.77761600  0.78915100  0.90777400  1
  O  O20  1  0.22852200  0.70180000  0.60322200  1
  O  O21  1  0.22663000  0.20491400  0.10263600  1
  O  O22  1  0.77337000  0.04508700  0.14736400  1
  O  O23  1  0.77147500  0.54819800  0.64677800  1
  O  O24  1  0.23227100  0.85056100  0.20501900  1
  O  O25  1  0.21598900  0.34072000  0.69711700  1
  O  O26  1  0.78401100  0.90927900  0.55288300  1
  O  O27  1  0.76773000  0.39943900  0.04498100  1
  O  O28  1  0.21483800  0.10667300  0.46255500  1
  O  O29  1  0.22307400  0.60251900  0.96274800  1
  O  O30  1  0.78516200  0.14332700  0.78744500  1
  O  O31  1  0.77692500  0.64748200  0.28725200  1
