# generated using pymatgen
data_Li9Mn2Co5O16
_symmetry_space_group_name_H-M   'P 1'
_cell_length_a   2.96272700
_cell_length_b   6.49135757
_cell_length_c   15.45474599
_cell_angle_alpha   88.05449540
_cell_angle_beta   87.04506002
_cell_angle_gamma   77.06448674
_symmetry_Int_Tables_number   1
_chemical_formula_structural   Li9Mn2Co5O16
_chemical_formula_sum   'Li9 Mn2 Co5 O16'
_cell_volume   289.22282871
_cell_formula_units_Z   1
loop_
 _symmetry_equiv_pos_site_id
 _symmetry_equiv_pos_as_xyz
  1  'x, y, z'
loop_
 _atom_site_type_symbol
 _atom_site_label
 _atom_site_symmetry_multiplicity
 _atom_site_fract_x
 _atom_site_fract_y
 _atom_site_fract_z
 _atom_site_occupancy
  Li  Li0  1  0.94290300  0.12190600  0.81485400  1
  Li  Li1  1  0.17942600  0.64057600  0.56056700  1
  Li  Li2  1  0.44658900  0.11632900  0.31272500  1
  Li  Li3  1  0.54705400  0.87826700  0.68072100  1
  Li  Li4  1  0.80386200  0.37358400  0.43608500  1
  Li  Li5  1  0.06731700  0.87842500  0.18834800  1
  Li  Li6  1  0.69299200  0.61929700  0.06393600  1
  Li  Li7  1  0.31284400  0.37724000  0.93720700  1
  Li  Li8  1  0.52001700  0.99045400  0.50395700  1
  Mn  Mn9  1  0.99256900  0.00377000  0.00137800  1
  Mn  Mn10  1  0.87997600  0.23760900  0.62093700  1
  Co  Co11  1  0.23932500  0.50146500  0.74841300  1
  Co  Co12  1  0.75516200  0.50246800  0.25069200  1
  Co  Co13  1  0.12336700  0.75738400  0.38022300  1
  Co  Co14  1  0.38351000  0.25333800  0.12658600  1
  Co  Co15  1  0.61965500  0.75390200  0.87380100  1
  O  O16  1  0.42510300  0.05806100  0.90894500  1
  O  O17  1  0.71084500  0.54488800  0.66166400  1
  O  O18  1  0.98433200  0.02788300  0.39944000  1
  O  O19  1  0.09399900  0.80325100  0.78829400  1
  O  O20  1  0.36312600  0.30606200  0.54240600  1
  O  O21  1  0.56826300  0.79238900  0.28372200  1
  O  O22  1  0.24468500  0.54440500  0.15903700  1
  O  O23  1  0.82129800  0.30230500  0.03574500  1
  O  O24  1  0.38203100  0.19671500  0.70714000  1
  O  O25  1  0.68623300  0.68829100  0.46130800  1
  O  O26  1  0.93912200  0.20712800  0.21696500  1
  O  O27  1  0.02510600  0.95553600  0.59589000  1
  O  O28  1  0.26158200  0.46148000  0.34304800  1
  O  O29  1  0.55570000  0.95574900  0.09517600  1
  O  O30  1  0.14963100  0.70290700  0.96459500  1
  O  O31  1  0.78237800  0.44693600  0.83619300  1
