# generated using pymatgen
data_Li9Mn2Co5O16
_symmetry_space_group_name_H-M   'P 1'
_cell_length_a   5.05484200
_cell_length_b   5.90460572
_cell_length_c   10.14133135
_cell_angle_alpha   89.93888324
_cell_angle_beta   99.96958613
_cell_angle_gamma   105.63853420
_symmetry_Int_Tables_number   1
_chemical_formula_structural   Li9Mn2Co5O16
_chemical_formula_sum   'Li9 Mn2 Co5 O16'
_cell_volume   286.74830435
_cell_formula_units_Z   1
loop_
 _symmetry_equiv_pos_site_id
 _symmetry_equiv_pos_as_xyz
  1  'x, y, z'
loop_
 _atom_site_type_symbol
 _atom_site_label
 _atom_site_symmetry_multiplicity
 _atom_site_fract_x
 _atom_site_fract_y
 _atom_site_fract_z
 _atom_site_occupancy
  Li  Li0  1  0.49725900  0.36652700  0.12960300  1
  Li  Li1  1  0.99296900  0.24946500  0.24674000  1
  Li  Li2  1  0.00583900  0.50829800  0.00485700  1
  Li  Li3  1  0.50043900  0.11822700  0.36561000  1
  Li  Li4  1  0.00897200  0.00363500  0.49511200  1
  Li  Li5  1  0.49788600  0.87370700  0.62343900  1
  Li  Li6  1  0.99611000  0.74018300  0.75257200  1
  Li  Li7  1  0.50018000  0.63173200  0.88294000  1
  Li  Li8  1  0.50055200  0.87437500  0.12368600  1
  Mn  Mn9  1  0.99898300  0.99431600  0.00190800  1
  Mn  Mn10  1  0.50079900  0.37511500  0.62579000  1
  Co  Co11  1  0.99885500  0.76445900  0.24750900  1
  Co  Co12  1  0.49429200  0.63174500  0.36531900  1
  Co  Co13  1  0.99988200  0.50421900  0.49284400  1
  Co  Co14  1  0.99663800  0.25029000  0.75057700  1
  Co  Co15  1  0.49816100  0.11687500  0.88060000  1
  O  O16  1  0.22716100  0.05583600  0.17562000  1
  O  O17  1  0.76063900  0.92115100  0.31559800  1
  O  O18  1  0.75260600  0.18064400  0.04574100  1
  O  O19  1  0.24815800  0.80115400  0.43816000  1
  O  O20  1  0.73249100  0.65928000  0.56212800  1
  O  O21  1  0.25140400  0.54342900  0.68026000  1
  O  O22  1  0.73740400  0.42841900  0.79951000  1
  O  O23  1  0.23970800  0.28233800  0.93206400  1
  O  O24  1  0.77604000  0.71231700  0.06038900  1
  O  O25  1  0.25344400  0.57031600  0.20175700  1
  O  O26  1  0.23067300  0.82548900  0.93510500  1
  O  O27  1  0.76490900  0.44542900  0.32039200  1
  O  O28  1  0.26757500  0.32356000  0.45162800  1
  O  O29  1  0.74861000  0.20061000  0.57471800  1
  O  O30  1  0.27132100  0.08983600  0.69414700  1
  O  O31  1  0.75004100  0.95701900  0.82367600  1
