# generated using pymatgen
data_Li3MnV(PO4)3
_symmetry_space_group_name_H-M   'P 1'
_cell_length_a   9.08851837
_cell_length_b   8.57798998
_cell_length_c   14.51576389
_cell_angle_alpha   89.59524394
_cell_angle_beta   74.21453109
_cell_angle_gamma   61.33712653
_symmetry_Int_Tables_number   1
_chemical_formula_structural   Li3MnV(PO4)3
_chemical_formula_sum   'Li12 Mn4 V4 P12 O48'
_cell_volume   945.27770822
_cell_formula_units_Z   4
loop_
 _symmetry_equiv_pos_site_id
 _symmetry_equiv_pos_as_xyz
  1  'x, y, z'
loop_
 _atom_site_type_symbol
 _atom_site_label
 _atom_site_symmetry_multiplicity
 _atom_site_fract_x
 _atom_site_fract_y
 _atom_site_fract_z
 _atom_site_occupancy
  Li  Li0  1  0.14748000  0.25333200  0.33069000  1
  Li  Li1  1  0.14602500  0.79768100  0.13241800  1
  Li  Li2  1  0.14657100  0.29657500  0.63157400  1
  Li  Li3  1  0.14814200  0.72723400  0.46074900  1
  Li  Li4  1  0.15338600  0.22231600  0.95788300  1
  Li  Li5  1  0.14583500  0.75305200  0.83409800  1
  Li  Li6  1  0.85695300  0.24632700  0.16657100  1
  Li  Li7  1  0.85014200  0.77927100  0.04162600  1
  Li  Li8  1  0.85101800  0.27488900  0.53975600  1
  Li  Li9  1  0.84946100  0.70540800  0.36825800  1
  Li  Li10  1  0.85269800  0.20410900  0.87023400  1
  Li  Li11  1  0.85250900  0.74422900  0.66756800  1
  Mn  Mn12  1  0.04509300  0.47803300  0.82544300  1
  Mn  Mn13  1  0.55975000  0.21707300  0.07197900  1
  Mn  Mn14  1  0.56124000  0.71794400  0.57039500  1
  Mn  Mn15  1  0.95658100  0.52152900  0.17428800  1
  V  V16  1  0.04398800  0.97935300  0.32568100  1
  V  V17  1  0.43380400  0.28233700  0.42911600  1
  V  V18  1  0.43991500  0.78026200  0.92691900  1
  V  V19  1  0.95258000  0.02224400  0.67441900  1
  P  P20  1  0.25042000  0.07711800  0.12332100  1
  P  P21  1  0.24901500  0.02057000  0.47928900  1
  P  P22  1  0.24983000  0.52160600  0.26957400  1
  P  P23  1  0.25473600  0.01326700  0.76602500  1
  P  P24  1  0.24648900  0.58119400  0.62659000  1
  P  P25  1  0.25259300  0.51711900  0.97998400  1
  P  P26  1  0.75649000  0.48164300  0.02025300  1
  P  P27  1  0.74540800  0.41816700  0.37716200  1
  P  P28  1  0.74481200  0.98851600  0.23058200  1
  P  P29  1  0.75182200  0.47763700  0.72916500  1
  P  P30  1  0.75056100  0.98141300  0.52147100  1
  P  P31  1  0.74838100  0.91885100  0.87626900  1
  O  O32  1  0.09591000  0.24678500  0.10123200  1
  O  O33  1  0.18911200  0.06332200  0.23316700  1
  O  O34  1  0.09702400  0.61699800  0.07803300  1
  O  O35  1  0.09621900  0.11415700  0.57868900  1
  O  O36  1  0.09370200  0.48283300  0.27106400  1
  O  O37  1  0.41760400  0.08566400  0.09955200  1
  O  O38  1  0.26262500  0.17732200  0.43195300  1
  O  O39  1  0.19227400  0.71878200  0.25352600  1
  O  O40  1  0.20093800  0.20770600  0.74925000  1
  O  O41  1  0.26471300  0.49796700  0.37333100  1
  O  O42  1  0.42002500  0.39178600  0.19263100  1
  O  O43  1  0.09356900  0.75768800  0.60583300  1
  O  O44  1  0.27067100  0.91528600  0.06125100  1
  O  O45  1  0.26036800  0.42641800  0.56360400  1
  O  O46  1  0.57459800  0.12161700  0.30606400  1
  O  O47  1  0.18837100  0.56113000  0.73646800  1
  O  O48  1  0.19264400  0.92510000  0.41677100  1
  O  O49  1  0.19953400  0.41968000  0.91738200  1
  O  O50  1  0.72766900  0.01371600  0.12611600  1
  O  O51  1  0.58624300  0.61336700  0.00034500  1
  O  O52  1  0.57881900  0.11496900  0.50375900  1
  O  O53  1  0.10164600  0.97211000  0.76685600  1
  O  O54  1  0.74691000  0.32364900  0.06486400  1
  O  O55  1  0.57740600  0.40949300  0.40468500  1
  O  O56  1  0.41413900  0.58849300  0.60441400  1
  O  O57  1  0.27193800  0.67036600  0.93110500  1
  O  O58  1  0.90017100  0.02616200  0.22958200  1
  O  O59  1  0.42161400  0.88536900  0.49539100  1
  O  O60  1  0.42419300  0.38513900  0.99923700  1
  O  O61  1  0.27139300  0.98879500  0.87004400  1
  O  O62  1  0.80626300  0.58315100  0.08353700  1
  O  O63  1  0.80590000  0.08014000  0.58302900  1
  O  O64  1  0.80201100  0.43980400  0.26893300  1
  O  O65  1  0.42800800  0.87906500  0.69092200  1
  O  O66  1  0.72814800  0.57640600  0.44128000  1
  O  O67  1  0.72795600  0.08085700  0.93765400  1
  O  O68  1  0.90205600  0.24395500  0.39669700  1
  O  O69  1  0.58285000  0.60793300  0.80750500  1
  O  O70  1  0.73236100  0.50279700  0.62652900  1
  O  O71  1  0.79861600  0.79433300  0.24765500  1
  O  O72  1  0.80689400  0.28155000  0.74731200  1
  O  O73  1  0.74100600  0.82430000  0.56837400  1
  O  O74  1  0.58016100  0.90796600  0.90112200  1
  O  O75  1  0.90687800  0.51587600  0.72744900  1
  O  O76  1  0.90296100  0.88849900  0.42104500  1
  O  O77  1  0.91226800  0.38727900  0.91980500  1
  O  O78  1  0.80678100  0.93462500  0.76712800  1
  O  O79  1  0.90311300  0.74929600  0.89846800  1
