# generated using pymatgen
data_K8Li31Al8O32
_symmetry_space_group_name_H-M   'P 1'
_cell_length_a   5.63267200
_cell_length_b   10.75817508
_cell_length_c   15.31134090
_cell_angle_alpha   90.18818381
_cell_angle_beta   90.04605714
_cell_angle_gamma   100.30439250
_symmetry_Int_Tables_number   1
_chemical_formula_structural   K8Li31Al8O32
_chemical_formula_sum   'K8 Li31 Al8 O32'
_cell_volume   912.85505231
_cell_formula_units_Z   1
loop_
 _symmetry_equiv_pos_site_id
 _symmetry_equiv_pos_as_xyz
  1  'x, y, z'
loop_
 _atom_site_type_symbol
 _atom_site_label
 _atom_site_symmetry_multiplicity
 _atom_site_fract_x
 _atom_site_fract_y
 _atom_site_fract_z
 _atom_site_occupancy
  K  K0  1  0.11825900  0.16106000  0.06542200  1
  K  K1  1  0.63413700  0.22842900  0.20022600  1
  K  K2  1  0.87516600  0.27254300  0.70405500  1
  K  K3  1  0.38516900  0.35104900  0.58941400  1
  K  K4  1  0.62238400  0.65610400  0.43572500  1
  K  K5  1  0.13591600  0.72570400  0.29955600  1
  K  K6  1  0.35916100  0.76531000  0.79799500  1
  K  K7  1  0.87567200  0.83537700  0.93165700  1
  Li  Li8  1  0.48191200  0.00143700  0.65571200  1
  Li  Li9  1  0.39192900  0.01745900  0.93050600  1
  Li  Li10  1  0.12576200  0.02170100  0.23584700  1
  Li  Li11  1  0.98238700  0.04206400  0.57818800  1
  Li  Li12  1  0.38708600  0.08059000  0.48477400  1
  Li  Li13  1  0.79784400  0.12688700  0.88205900  1
  Li  Li14  1  0.91341900  0.12862100  0.33983300  1
  Li  Li15  1  0.31835600  0.23065300  0.37957200  1
  Li  Li16  1  0.18460100  0.27118400  0.87388400  1
  Li  Li17  1  0.69893700  0.37063700  0.38318000  1
  Li  Li18  1  0.57941700  0.38568500  0.82966200  1
  Li  Li19  1  0.11008400  0.42301300  0.97911300  1
  Li  Li20  1  0.51793300  0.45715500  0.07639900  1
  Li  Li21  1  0.11322500  0.47618600  0.43161300  1
  Li  Li22  1  0.01751100  0.49428600  0.15292100  1
  Li  Li23  1  0.00162900  0.50543100  0.83694200  1
  Li  Li24  1  0.62494300  0.52019900  0.26461000  1
  Li  Li25  1  0.90022500  0.52476800  0.57190400  1
  Li  Li26  1  0.48003700  0.54299600  0.92334800  1
  Li  Li27  1  0.88258700  0.57638100  0.01258000  1
  Li  Li28  1  0.29983200  0.62662600  0.62140700  1
  Li  Li29  1  0.41250700  0.62607400  0.16156800  1
  Li  Li30  1  0.81749400  0.72594100  0.12404100  1
  Li  Li31  1  0.68197600  0.77702800  0.62094200  1
  Li  Li32  1  0.08538300  0.86962200  0.66012900  1
  Li  Li33  1  0.19891200  0.86983400  0.11855800  1
  Li  Li34  1  0.61665900  0.92525100  0.51475900  1
  Li  Li35  1  0.02195100  0.95965100  0.42257000  1
  Li  Li36  1  0.86797000  0.97475400  0.76539500  1
  Li  Li37  1  0.60836800  0.97924200  0.07092500  1
  Li  Li38  1  0.51868800  0.99787600  0.34457700  1
  Al  Al39  1  0.30924700  0.10987600  0.77726300  1
  Al  Al40  1  0.81972000  0.20477100  0.48703300  1
  Al  Al41  1  0.67752400  0.29833000  0.97969900  1
  Al  Al42  1  0.18914900  0.37856400  0.27288000  1
  Al  Al43  1  0.79408900  0.62348700  0.72483800  1
  Al  Al44  1  0.31893600  0.70247300  0.01586600  1
  Al  Al45  1  0.18235600  0.79734600  0.51432700  1
  Al  Al46  1  0.68986700  0.87913600  0.22702800  1
  O  O47  1  0.56985600  0.03780600  0.79211200  1
  O  O48  1  0.14769500  0.04247200  0.68435800  1
  O  O49  1  0.11128200  0.07531700  0.86945700  1
  O  O50  1  0.66544300  0.10035000  0.56734300  1
  O  O51  1  0.63058500  0.13499300  0.00306700  1
  O  O52  1  0.08898100  0.14172500  0.46585600  1
  O  O53  1  0.62611600  0.17687700  0.39218300  1
  O  O54  1  0.14339100  0.21011400  0.26105700  1
  O  O55  1  0.36779600  0.27430600  0.76328800  1
  O  O56  1  0.87294600  0.32393500  0.88560400  1
  O  O57  1  0.40772200  0.36141000  0.96128400  1
  O  O58  1  0.86684700  0.36804800  0.50722200  1
  O  O59  1  0.83471600  0.40006000  0.06134400  1
  O  O60  1  0.38413200  0.41984500  0.36591400  1
  O  O61  1  0.92211000  0.44697500  0.28711000  1
  O  O62  1  0.34820700  0.45077600  0.18130500  1
  O  O63  1  0.04919000  0.55067900  0.70298500  1
  O  O64  1  0.67597500  0.56263900  0.82557200  1
  O  O65  1  0.62415500  0.59295500  0.62615400  1
  O  O66  1  0.16748000  0.60074600  0.93354400  1
  O  O67  1  0.13452700  0.63462000  0.49246200  1
  O  O68  1  0.58758100  0.63955700  0.03733600  1
  O  O69  1  0.12427600  0.67471600  0.10976100  1
  O  O70  1  0.64239100  0.71065800  0.23985400  1
  O  O71  1  0.84932900  0.79242000  0.73881300  1
  O  O72  1  0.37315300  0.82446100  0.60956400  1
  O  O73  1  0.91370600  0.86144100  0.53538500  1
  O  O74  1  0.36702300  0.86580100  0.99669600  1
  O  O75  1  0.33783200  0.90199500  0.43485600  1
  O  O76  1  0.88307900  0.91840300  0.13334400  1
  O  O77  1  0.42519200  0.94965900  0.21174900  1
  O  O78  1  0.84941600  0.95369700  0.31817100  1
