# generated using pymatgen
data_Li6Zn3(PS4)4
_symmetry_space_group_name_H-M   'P 1'
_cell_length_a   9.31773400
_cell_length_b   11.59480779
_cell_length_c   23.12481445
_cell_angle_alpha   89.97474754
_cell_angle_beta   89.97496061
_cell_angle_gamma   89.91491223
_symmetry_Int_Tables_number   1
_chemical_formula_structural   Li6Zn3(PS4)4
_chemical_formula_sum   'Li24 Zn12 P16 S64'
_cell_volume   2498.34008355
_cell_formula_units_Z   4
loop_
 _symmetry_equiv_pos_site_id
 _symmetry_equiv_pos_as_xyz
  1  'x, y, z'
loop_
 _atom_site_type_symbol
 _atom_site_label
 _atom_site_symmetry_multiplicity
 _atom_site_fract_x
 _atom_site_fract_y
 _atom_site_fract_z
 _atom_site_occupancy
  Li  Li0  1  0.74237800  0.50419000  0.12736300  1
  Li  Li1  1  0.74941500  0.99858200  0.12293800  1
  Li  Li2  1  0.24472700  0.25399100  0.24774800  1
  Li  Li3  1  0.25111300  0.24537400  0.00375000  1
  Li  Li4  1  0.50179500  0.50069600  0.74988500  1
  Li  Li5  1  0.50390500  0.00166700  0.74877200  1
  Li  Li6  1  0.50432700  0.49857400  0.50073300  1
  Li  Li7  1  0.50434500  0.99762400  0.50140200  1
  Li  Li8  1  0.00154000  0.24990300  0.62479300  1
  Li  Li9  1  0.00114200  0.75024500  0.62502400  1
  Li  Li10  1  0.49505000  0.50192600  0.25099800  1
  Li  Li11  1  0.99708800  0.25133500  0.37767100  1
  Li  Li12  1  0.00285100  0.74783600  0.37445200  1
  Li  Li13  1  0.49674800  0.50294200  0.99913200  1
  Li  Li14  1  0.50321800  0.99905500  0.99722000  1
  Li  Li15  1  0.99477400  0.24923600  0.12477300  1
  Li  Li16  1  0.00821000  0.74963600  0.12551300  1
  Li  Li17  1  0.99658600  0.24962700  0.87199000  1
  Li  Li18  1  0.00441300  0.75271500  0.87552600  1
  Li  Li19  1  0.48332900  0.74968300  0.12513700  1
  Li  Li20  1  0.50092500  0.24853800  0.12494600  1
  Li  Li21  1  0.99465500  0.50312200  0.25055200  1
  Li  Li22  1  0.99944800  0.99752600  0.25108500  1
  Li  Li23  1  0.00190800  0.99804300  0.00057200  1
  Zn  Zn24  1  0.49752900  0.99857600  0.25114400  1
  Zn  Zn25  1  0.50067700  0.75092200  0.87529000  1
  Zn  Zn26  1  0.50517300  0.25077600  0.87401800  1
  Zn  Zn27  1  0.49943400  0.74974000  0.62518100  1
  Zn  Zn28  1  0.49846900  0.25007300  0.62496200  1
  Zn  Zn29  1  0.99913100  0.49954800  0.74922200  1
  Zn  Zn30  1  0.99970000  0.00037200  0.75044000  1
  Zn  Zn31  1  0.50392200  0.74794100  0.37520000  1
  Zn  Zn32  1  0.50239200  0.24983400  0.37609800  1
  Zn  Zn33  1  0.99988300  0.49951700  0.49975000  1
  Zn  Zn34  1  0.00116700  0.99931600  0.49973400  1
  Zn  Zn35  1  0.99913700  0.50284900  0.99977600  1
  P  P36  1  0.75040100  0.75014800  0.75007600  1
  P  P37  1  0.75024700  0.25046400  0.74936800  1
  P  P38  1  0.75086000  0.74940700  0.49981200  1
  P  P39  1  0.75080100  0.24914400  0.50023100  1
  P  P40  1  0.24990900  0.50007600  0.62493300  1
  P  P41  1  0.24973000  0.99971600  0.62491100  1
  P  P42  1  0.74963200  0.75568400  0.25196400  1
  P  P43  1  0.75019200  0.25172400  0.24779200  1
  P  P44  1  0.24813400  0.50393800  0.37561000  1
  P  P45  1  0.25243200  0.00937000  0.37534700  1
  P  P46  1  0.74936300  0.74412300  0.00266600  1
  P  P47  1  0.75060600  0.24746200  0.99793200  1
  P  P48  1  0.24897300  0.49107300  0.12426500  1
  P  P49  1  0.24949600  0.99979800  0.12554100  1
  P  P50  1  0.25217200  0.49895000  0.87456400  1
  P  P51  1  0.24876100  0.99682900  0.87438200  1
  S  S52  1  0.86769800  0.63973400  0.94783300  1
  S  S53  1  0.87573000  0.14664500  0.94786200  1
  S  S54  1  0.86494200  0.63895300  0.69760800  1
  S  S55  1  0.86509700  0.13899100  0.69742600  1
  S  S56  1  0.36500300  0.38737500  0.82226000  1
  S  S57  1  0.37414100  0.89297900  0.82226900  1
  S  S58  1  0.86447800  0.63791600  0.44750100  1
  S  S59  1  0.86313400  0.13655300  0.44796900  1
  S  S60  1  0.36412400  0.38860600  0.57262100  1
  S  S61  1  0.36369300  0.88772400  0.57272500  1
  S  S62  1  0.86173600  0.64889500  0.19709600  1
  S  S63  1  0.86508400  0.14030600  0.19638900  1
  S  S64  1  0.36897100  0.38891100  0.32388700  1
  S  S65  1  0.36519000  0.89298800  0.32232600  1
  S  S66  1  0.37052100  0.38780100  0.07034400  1
  S  S67  1  0.37619200  0.90343400  0.07347200  1
  S  S68  1  0.63463300  0.35426400  0.69378400  1
  S  S69  1  0.63667600  0.85407700  0.69378600  1
  S  S70  1  0.63947900  0.35438400  0.44379800  1
  S  S71  1  0.63646400  0.85422600  0.44421100  1
  S  S72  1  0.13605000  0.10405500  0.56882600  1
  S  S73  1  0.13493500  0.60404700  0.56928900  1
  S  S74  1  0.62409900  0.35631700  0.19700700  1
  S  S75  1  0.62392700  0.86050600  0.19710100  1
  S  S76  1  0.13273500  0.11052200  0.32155000  1
  S  S77  1  0.13896700  0.60497900  0.32035400  1
  S  S78  1  0.62916700  0.35486600  0.94571500  1
  S  S79  1  0.63597400  0.84913900  0.94634500  1
  S  S80  1  0.13058900  0.10923600  0.07349300  1
  S  S81  1  0.12943100  0.59927700  0.07122900  1
  S  S82  1  0.13840400  0.10429400  0.81829500  1
  S  S83  1  0.13338500  0.60145500  0.81989600  1
  S  S84  1  0.86425500  0.86147100  0.80234500  1
  S  S85  1  0.86213600  0.36316100  0.80155900  1
  S  S86  1  0.86602700  0.86093200  0.55170500  1
  S  S87  1  0.86472100  0.36082100  0.55225500  1
  S  S88  1  0.36379700  0.61138300  0.67732000  1
  S  S89  1  0.36360600  0.11147500  0.67699800  1
  S  S90  1  0.86514400  0.85815600  0.30437600  1
  S  S91  1  0.86767800  0.35083600  0.30160500  1
  S  S92  1  0.37192400  0.60861600  0.42789700  1
  S  S93  1  0.37226500  0.11215700  0.42917700  1
  S  S94  1  0.86864300  0.85324800  0.05345800  1
  S  S95  1  0.86572100  0.36144600  0.05174700  1
  S  S96  1  0.36555300  0.59727200  0.17530900  1
  S  S97  1  0.37072300  0.10841900  0.18156800  1
  S  S98  1  0.36225400  0.61132800  0.92682700  1
  S  S99  1  0.36911800  0.11190600  0.92593200  1
  S  S100  1  0.63621700  0.64582000  0.80582300  1
  S  S101  1  0.63815400  0.14536100  0.80538200  1
  S  S102  1  0.63701900  0.64589500  0.55613600  1
  S  S103  1  0.63553300  0.14594500  0.55613700  1
  S  S104  1  0.13637500  0.39521700  0.68075700  1
  S  S105  1  0.13515300  0.89600100  0.68073800  1
  S  S106  1  0.62741700  0.64734700  0.30311600  1
  S  S107  1  0.62936100  0.14259200  0.30323200  1
  S  S108  1  0.13862700  0.39607900  0.43163200  1
  S  S109  1  0.13921200  0.89985300  0.42869000  1
  S  S110  1  0.62554200  0.64217100  0.05514000  1
  S  S111  1  0.63111200  0.14482800  0.05221600  1
  S  S112  1  0.12267600  0.39037500  0.17764700  1
  S  S113  1  0.13051800  0.89759500  0.17755800  1
  S  S114  1  0.13097000  0.39404300  0.92982300  1
  S  S115  1  0.13968900  0.89536100  0.92944200  1
