# generated using pymatgen
data_Li2Mn2P4H3O16
_symmetry_space_group_name_H-M   'P 1'
_cell_length_a   4.86400531
_cell_length_b   8.21834674
_cell_length_c   7.39129592
_cell_angle_alpha   87.87799486
_cell_angle_beta   104.44301627
_cell_angle_gamma   89.83203488
_symmetry_Int_Tables_number   1
_chemical_formula_structural   Li2Mn2P4H3O16
_chemical_formula_sum   'Li2 Mn2 P4 H3 O16'
_cell_volume   285.90378839
_cell_formula_units_Z   1
loop_
 _symmetry_equiv_pos_site_id
 _symmetry_equiv_pos_as_xyz
  1  'x, y, z'
loop_
 _atom_site_type_symbol
 _atom_site_label
 _atom_site_symmetry_multiplicity
 _atom_site_fract_x
 _atom_site_fract_y
 _atom_site_fract_z
 _atom_site_occupancy
  Li  Li0  1  0.39044835  0.86046670  0.84911678  1
  Li  Li1  1  0.58533465  0.13360026  0.14284939  1
  Mn  Mn2  1  0.49737413  0.49726003  0.00133150  1
  Mn  Mn3  1  0.99196472  0.00123193  0.49770699  1
  P  P4  1  0.11376878  0.34164226  0.26604455  1
  P  P5  1  0.37325218  0.84957498  0.25009966  1
  P  P6  1  0.61916846  0.14872481  0.75243115  1
  P  P7  1  0.87368254  0.65530213  0.73813005  1
  H  H8  1  0.42807723  0.45550110  0.50334497  1
  H  H9  1  0.67400568  0.62120904  0.42523969  1
  H  H10  1  0.95650480  -0.00033399  0.98242178  1
  O  O11  1  0.97066077  0.82759303  0.68780662  1
  O  O12  1  0.12749720  0.55761749  0.85266519  1
  O  O13  1  0.15798385  0.83815462  0.37447473  1
  O  O14  1  0.22980686  0.41665909  0.45966121  1
  O  O15  1  0.36306025  0.04082746  0.65900199  1
  O  O16  1  0.24684259  0.93410298  0.05756995  1
  O  O17  1  0.34483365  0.32679641  0.15508869  1
  O  O18  1  0.54399393  0.31275730  0.81119075  1
  O  O19  1  0.48824652  0.67817905  0.23299006  1
  O  O20  1  0.64950323  0.67231804  0.85469413  1
  O  O21  1  0.74566892  0.04087855  0.93990948  1
  O  O22  1  0.62028803  0.96639895  0.34351855  1
  O  O23  1  0.73487832  0.56264305  0.55595261  1
  O  O24  1  0.83401360  0.16203023  0.63028514  1
  O  O25  1  0.86508968  0.44745452  0.15732983  1
  O  O26  1  0.00406508  0.16768299  0.30072853  1
