# generated using pymatgen
data_Li2MnV3O8
_symmetry_space_group_name_H-M   'P 1'
_cell_length_a   5.97851222
_cell_length_b   10.34985861
_cell_length_c   5.94146237
_cell_angle_alpha   106.26778466
_cell_angle_beta   59.81294908
_cell_angle_gamma   89.98991877
_symmetry_Int_Tables_number   1
_chemical_formula_structural   Li2MnV3O8
_chemical_formula_sum   'Li4 Mn2 V6 O16'
_cell_volume   300.62094572
_cell_formula_units_Z   2
loop_
 _symmetry_equiv_pos_site_id
 _symmetry_equiv_pos_as_xyz
  1  'x, y, z'
loop_
 _atom_site_type_symbol
 _atom_site_label
 _atom_site_symmetry_multiplicity
 _atom_site_fract_x
 _atom_site_fract_y
 _atom_site_fract_z
 _atom_site_occupancy
  Li  Li0  1  0.31539300  0.56429100  0.37953500  1
  Li  Li1  1  0.80462400  0.06429800  0.38080800  1
  Li  Li2  1  0.18438500  0.93585100  0.62064000  1
  Li  Li3  1  0.69563000  0.43573300  0.61926300  1
  Mn  Mn4  1  0.75017900  0.74947900  0.49957200  1
  Mn  Mn5  1  0.25084200  0.25041500  0.50037300  1
  V  V6  1  0.24960700  0.75036300  0.99940600  1
  V  V7  1  0.24946400  0.25040500  0.00018200  1
  V  V8  1  0.00799800  0.49987100  0.99900800  1
  V  V9  1  0.74975100  0.24961700  0.99897300  1
  V  V10  1  0.74849900  0.74990700  0.00127000  1
  V  V11  1  0.49351000  0.99995200  0.00050200  1
  O  O12  1  0.11637800  0.63777200  0.79157500  1
  O  O13  1  0.59091600  0.13682600  0.79241000  1
  O  O14  1  0.38245700  0.86255800  0.20850100  1
  O  O15  1  0.90870100  0.36243600  0.20788300  1
  O  O16  1  0.88432300  0.85717100  0.24819600  1
  O  O17  1  0.36659500  0.35720400  0.24865000  1
  O  O18  1  0.10364300  0.63580600  0.24830100  1
  O  O19  1  0.59564300  0.13587900  0.24687800  1
  O  O20  1  0.65728300  0.63567400  0.24588100  1
  O  O21  1  0.15002800  0.13574500  0.24867300  1
  O  O22  1  0.84004500  0.86499500  0.75484700  1
  O  O23  1  0.35454400  0.36336500  0.75029700  1
  O  O24  1  0.39741300  0.86373000  0.75101900  1
  O  O25  1  0.90425800  0.36485200  0.75429600  1
  O  O26  1  0.61495800  0.64287600  0.75130600  1
  O  O27  1  0.13292900  0.14293000  0.75176100  1
