# generated using pymatgen
data_Li2WO4
_symmetry_space_group_name_H-M   'P 1'
_cell_length_a   9.63388382
_cell_length_b   9.63388382
_cell_length_c   9.63388382
_cell_angle_alpha   101.20945124
_cell_angle_beta   101.20945124
_cell_angle_gamma   127.67687707
_symmetry_Int_Tables_number   1
_chemical_formula_structural   Li2WO4
_chemical_formula_sum   'Li16 W8 O32'
_cell_volume   635.18404279
_cell_formula_units_Z   8
loop_
 _symmetry_equiv_pos_site_id
 _symmetry_equiv_pos_as_xyz
  1  'x, y, z'
loop_
 _atom_site_type_symbol
 _atom_site_label
 _atom_site_symmetry_multiplicity
 _atom_site_fract_x
 _atom_site_fract_y
 _atom_site_fract_z
 _atom_site_occupancy
  Li  Li0  1  0.49024800  0.37500000  0.61524800  1
  Li  Li1  1  0.12500000  0.24024800  0.61524800  1
  Li  Li2  1  0.62500000  0.50975200  0.38475200  1
  Li  Li3  1  0.75975200  0.87500000  0.38475200  1
  Li  Li4  1  0.75975200  0.37500000  0.88475200  1
  Li  Li5  1  0.12500000  0.50975200  0.88475200  1
  Li  Li6  1  0.62500000  0.24024800  0.11524800  1
  Li  Li7  1  0.49024800  0.87500000  0.11524800  1
  Li  Li8  1  0.86944600  0.13055400  0.00000000  1
  Li  Li9  1  0.38055400  0.88055400  0.76110900  1
  Li  Li10  1  0.13055400  0.13055400  0.26110900  1
  Li  Li11  1  0.11944600  0.88055400  0.50000000  1
  Li  Li12  1  0.38055400  0.61944600  0.50000000  1
  Li  Li13  1  0.86944600  0.86944600  0.73889100  1
  Li  Li14  1  0.11944600  0.61944600  0.23889100  1
  Li  Li15  1  0.13055400  0.86944600  0.00000000  1
  W  W16  1  0.90050400  0.53631300  0.63580900  1
  W  W17  1  0.90050400  0.26469400  0.36419100  1
  W  W18  1  0.51469400  0.65050400  0.86419100  1
  W  W19  1  0.78631300  0.65050400  0.13580900  1
  W  W20  1  0.34949600  0.48530600  0.13580900  1
  W  W21  1  0.46368700  0.09949600  0.36419100  1
  W  W22  1  0.73530600  0.09949600  0.63580900  1
  W  W23  1  0.34949600  0.21368700  0.86419100  1
  O  O24  1  0.11200300  0.73504700  0.62304400  1
  O  O25  1  0.96686400  0.36025200  0.60661200  1
  O  O26  1  0.75364100  0.36025200  0.39338800  1
  O  O27  1  0.61025200  0.71686400  0.10661200  1
  O  O28  1  0.49635900  0.38974800  0.10661200  1
  O  O29  1  0.28313600  0.38974800  0.89338800  1
  O  O30  1  0.63974800  0.03313600  0.39338800  1
  O  O31  1  0.61025200  0.50364100  0.89338800  1
  O  O32  1  0.49574300  0.15052300  0.88557800  1
  O  O33  1  0.86016500  0.24574300  0.84522100  1
  O  O34  1  0.40052300  0.01494500  0.15477900  1
  O  O35  1  0.26494500  0.61016500  0.11442200  1
  O  O36  1  0.84947700  0.50425700  0.11442200  1
  O  O37  1  0.38983500  0.73505500  0.88557800  1
  O  O38  1  0.75425700  0.13983500  0.15477900  1
  O  O39  1  0.98505500  0.59947700  0.84522100  1
  O  O40  1  0.75425700  0.59947700  0.61442200  1
  O  O41  1  0.38983500  0.50425700  0.65477900  1
  O  O42  1  0.84947700  0.73505500  0.34522100  1
  O  O43  1  0.98505500  0.13983500  0.38557800  1
  O  O44  1  0.40052300  0.24574300  0.38557800  1
  O  O45  1  0.86016500  0.01494500  0.61442200  1
  O  O46  1  0.49574300  0.61016500  0.34522100  1
  O  O47  1  0.26494500  0.15052200  0.65477900  1
  O  O48  1  0.73895900  0.86200300  0.87695600  1
  O  O49  1  0.98504700  0.86200300  0.12304400  1
  O  O50  1  0.13799700  0.26104100  0.12304400  1
  O  O51  1  0.26495300  0.88799700  0.37695600  1
  O  O52  1  0.51104100  0.88799700  0.62304400  1
  O  O53  1  0.13799700  0.01495300  0.87695600  1
  O  O54  1  0.63974800  0.24635900  0.60661200  1
  O  O55  1  0.11200300  0.48895900  0.37695600  1
