# generated using pymatgen
data_Li2CrO2
_symmetry_space_group_name_H-M   'P 1'
_cell_length_a   4.72006193
_cell_length_b   10.21521191
_cell_length_c   4.72006255
_cell_angle_alpha   79.56333564
_cell_angle_beta   77.53607623
_cell_angle_gamma   100.43654975
_symmetry_Int_Tables_number   1
_chemical_formula_structural   Li2CrO2
_chemical_formula_sum   'Li8 Cr4 O8'
_cell_volume   212.71872289
_cell_formula_units_Z   4
loop_
 _symmetry_equiv_pos_site_id
 _symmetry_equiv_pos_as_xyz
  1  'x, y, z'
loop_
 _atom_site_type_symbol
 _atom_site_label
 _atom_site_symmetry_multiplicity
 _atom_site_fract_x
 _atom_site_fract_y
 _atom_site_fract_z
 _atom_site_occupancy
  Li  Li0  1  0.60844200  0.21688500  0.89155900  1
  Li  Li1  1  0.10843900  0.21687900  0.39156200  1
  Li  Li2  1  0.85843800  0.71687800  0.14156100  1
  Li  Li3  1  0.35844100  0.71688400  0.64155900  1
  Li  Li4  1  0.64155800  0.28311500  0.35844200  1
  Li  Li5  1  0.14156100  0.28312100  0.85843900  1
  Li  Li6  1  0.89155900  0.78311500  0.60844300  1
  Li  Li7  1  0.39156200  0.78312200  0.10843900  1
  Cr  Cr8  1  0.50001300  0.00000100  0.50001400  1
  Cr  Cr9  1  0.74997900  0.49999900  0.74997700  1
  Cr  Cr10  1  0.00001800  0.00000100  0.00002100  1
  Cr  Cr11  1  0.24998400  0.50000000  0.24998000  1
  O  O12  1  0.42749800  0.35497500  0.07250200  1
  O  O13  1  0.92748400  0.35497600  0.57251200  1
  O  O14  1  0.67748800  0.85497800  0.32251600  1
  O  O15  1  0.17749900  0.85497900  0.82250200  1
  O  O16  1  0.82250300  0.14502500  0.17749900  1
  O  O17  1  0.32251700  0.14502400  0.67748900  1
  O  O18  1  0.07250200  0.64502200  0.42749900  1
  O  O19  1  0.57251300  0.64502200  0.92748400  1
