# generated using pymatgen
data_Li2VOF4
_symmetry_space_group_name_H-M   'P 1'
_cell_length_a   5.31422374
_cell_length_b   7.40945419
_cell_length_c   10.85940793
_cell_angle_alpha   69.98839543
_cell_angle_beta   96.73347773
_cell_angle_gamma   109.95453903
_symmetry_Int_Tables_number   1
_chemical_formula_structural   Li2VOF4
_chemical_formula_sum   'Li8 V4 O4 F16'
_cell_volume   377.65654243
_cell_formula_units_Z   4
loop_
 _symmetry_equiv_pos_site_id
 _symmetry_equiv_pos_as_xyz
  1  'x, y, z'
loop_
 _atom_site_type_symbol
 _atom_site_label
 _atom_site_symmetry_multiplicity
 _atom_site_fract_x
 _atom_site_fract_y
 _atom_site_fract_z
 _atom_site_occupancy
  Li  Li0  1  0.72899600  0.96799800  0.92254900  1
  Li  Li1  1  0.72909900  0.46811100  0.92248700  1
  Li  Li2  1  0.27147200  0.35934400  0.42241000  1
  Li  Li3  1  0.27142900  0.85933700  0.42241000  1
  Li  Li4  1  0.63379000  0.28606000  0.24889100  1
  Li  Li5  1  0.63369200  0.78605300  0.24885800  1
  Li  Li6  1  0.36688300  0.21471500  0.74893900  1
  Li  Li7  1  0.36675500  0.71465300  0.74888400  1
  V  V8  1  0.72409900  0.63029600  0.55900300  1
  V  V9  1  0.27563200  0.06077600  0.05876200  1
  V  V10  1  0.72395600  0.13010200  0.55911400  1
  V  V11  1  0.27579300  0.56066300  0.05877900  1
  O  O12  1  0.68418800  0.38660400  0.56762800  1
  O  O13  1  0.68410200  0.88655000  0.56761400  1
  O  O14  1  0.31538700  0.29579900  0.06716700  1
  O  O15  1  0.31609100  0.79577200  0.06729400  1
  F  F16  1  0.91993900  0.41493300  0.12307500  1
  F  F17  1  0.92018600  0.91442900  0.12331800  1
  F  F18  1  0.07909500  0.21192600  0.62398100  1
  F  F19  1  0.07923900  0.71218600  0.62386100  1
  F  F20  1  0.89352300  0.27831100  0.39080800  1
  F  F21  1  0.89357800  0.77838100  0.39073900  1
  F  F22  1  0.10674300  0.08211000  0.89024400  1
  F  F23  1  0.10702700  0.58259600  0.89021900  1
  F  F24  1  0.60916300  0.17342800  0.95148100  1
  F  F25  1  0.60908600  0.67322200  0.95157100  1
  F  F26  1  0.39078700  0.12526100  0.45107400  1
  F  F27  1  0.39079700  0.62536300  0.45084100  1
  F  F28  1  0.54593700  0.01785100  0.73715900  1
  F  F29  1  0.54589900  0.51798900  0.73712900  1
  F  F30  1  0.45374000  0.49443000  0.23685800  1
  F  F31  1  0.45389600  0.99475700  0.23684800  1
