# generated using pymatgen
data_Li9Mn2Co5O16
_symmetry_space_group_name_H-M   'P 1'
_cell_length_a   3.01520700
_cell_length_b   5.06206925
_cell_length_c   19.12388333
_cell_angle_alpha   92.41563117
_cell_angle_beta   93.34896047
_cell_angle_gamma   91.57656967
_symmetry_Int_Tables_number   1
_chemical_formula_structural   Li9Mn2Co5O16
_chemical_formula_sum   'Li9 Mn2 Co5 O16'
_cell_volume   291.00248202
_cell_formula_units_Z   1
loop_
 _symmetry_equiv_pos_site_id
 _symmetry_equiv_pos_as_xyz
  1  'x, y, z'
loop_
 _atom_site_type_symbol
 _atom_site_label
 _atom_site_symmetry_multiplicity
 _atom_site_fract_x
 _atom_site_fract_y
 _atom_site_fract_z
 _atom_site_occupancy
  Li  Li0  1  0.00426300  0.62241400  0.87415700  1
  Li  Li1  1  0.50723000  0.74605600  0.74934400  1
  Li  Li2  1  0.00009500  0.87427100  0.62463000  1
  Li  Li3  1  0.49172400  0.00313900  0.49975700  1
  Li  Li4  1  0.99810700  0.12595200  0.37592800  1
  Li  Li5  1  0.50137400  0.25279100  0.25065800  1
  Li  Li6  1  0.99893400  0.37626400  0.12521900  1
  Li  Li7  1  0.49982300  0.49975300  0.00038800  1
  Li  Li8  1  0.49840200  0.37554400  0.62405900  1
  Mn  Mn9  1  0.98999000  0.99812900  0.00088800  1
  Mn  Mn10  1  0.50238800  0.12860600  0.87247600  1
  Co  Co11  1  0.01035300  0.25318800  0.74254700  1
  Co  Co12  1  0.99173400  0.49801800  0.50418900  1
  Co  Co13  1  0.50059500  0.62068500  0.37547000  1
  Co  Co14  1  0.00748900  0.75211500  0.25219400  1
  Co  Co15  1  0.50403400  0.87313300  0.12846100  1
  O  O16  1  0.52834200  0.82858400  0.93517900  1
  O  O17  1  0.02614500  0.96855900  0.80873900  1
  O  O18  1  0.52929800  0.07301700  0.69082800  1
  O  O19  1  0.00059600  0.21796300  0.55374100  1
  O  O20  1  0.52380300  0.33629200  0.43716000  1
  O  O21  1  0.02599400  0.46138600  0.31351200  1
  O  O22  1  0.54045400  0.58300500  0.18980200  1
  O  O23  1  0.97815600  0.70802300  0.06496000  1
  O  O24  1  0.47580700  0.42110600  0.81069300  1
  O  O25  1  0.99766500  0.53289600  0.69334200  1
  O  O26  1  0.46575700  0.67747100  0.55661300  1
  O  O27  1  0.97174100  0.77709700  0.43755000  1
  O  O28  1  0.47550400  0.91299400  0.31400100  1
  O  O29  1  0.02375900  0.03750700  0.18965400  1
  O  O30  1  0.45963000  0.16691400  0.06576200  1
  O  O31  1  0.97082000  0.29713300  0.93809500  1
