# generated using pymatgen
data_Li4MnCo2O7
_symmetry_space_group_name_H-M   'P 1'
_cell_length_a   3.01605700
_cell_length_b   6.00222180
_cell_length_c   14.26682987
_cell_angle_alpha   82.95649824
_cell_angle_beta   84.44290802
_cell_angle_gamma   84.78180556
_symmetry_Int_Tables_number   1
_chemical_formula_structural   Li4MnCo2O7
_chemical_formula_sum   'Li8 Mn2 Co4 O14'
_cell_volume   254.30051097
_cell_formula_units_Z   2
loop_
 _symmetry_equiv_pos_site_id
 _symmetry_equiv_pos_as_xyz
  1  'x, y, z'
loop_
 _atom_site_type_symbol
 _atom_site_label
 _atom_site_symmetry_multiplicity
 _atom_site_fract_x
 _atom_site_fract_y
 _atom_site_fract_z
 _atom_site_occupancy
  Li  Li0  1  0.71422100  0.35850200  0.57258100  1
  Li  Li1  1  0.28577900  0.64149800  0.42741900  1
  Li  Li2  1  0.85898600  0.92709800  0.28380500  1
  Li  Li3  1  0.14101400  0.07290200  0.71619500  1
  Li  Li4  1  0.56799200  0.79056000  0.85919900  1
  Li  Li5  1  0.00000000  0.50000000  0.00000000  1
  Li  Li6  1  0.43200800  0.20944000  0.14080100  1
  Li  Li7  1  0.00000000  0.00000000  0.00000000  1
  Mn  Mn8  1  0.71293700  0.85209300  0.57296700  1
  Mn  Mn9  1  0.28706300  0.14790700  0.42703300  1
  Co  Co10  1  0.85744400  0.43160900  0.28257600  1
  Co  Co11  1  0.43172100  0.72527600  0.13671200  1
  Co  Co12  1  0.56827900  0.27472400  0.86328800  1
  Co  Co13  1  0.14255600  0.56839100  0.71742400  1
  O  O14  1  0.18822800  0.60792000  0.57941900  1
  O  O15  1  0.75696200  0.89809600  0.43269500  1
  O  O16  1  0.32968000  0.19364800  0.28845000  1
  O  O17  1  0.61178600  0.33227000  0.72659700  1
  O  O18  1  0.05001900  0.05543800  0.85691800  1
  O  O19  1  0.49085700  0.74136000  0.01343500  1
  O  O20  1  0.90663800  0.47877900  0.14808400  1
  O  O21  1  0.24303800  0.10190400  0.56730500  1
  O  O22  1  0.81177200  0.39208000  0.42058100  1
  O  O23  1  0.38821400  0.66773000  0.27340300  1
  O  O24  1  0.67032000  0.80635200  0.71155000  1
  O  O25  1  0.09336200  0.52122100  0.85191600  1
  O  O26  1  0.50914300  0.25864000  0.98656500  1
  O  O27  1  0.94998100  0.94456200  0.14308200  1
