# generated using pymatgen
data_Li7Mn5O12
_symmetry_space_group_name_H-M   'P 1'
_cell_length_a   2.87188100
_cell_length_b   11.27728403
_cell_length_c   14.72673027
_cell_angle_alpha   71.86814268
_cell_angle_beta   84.40742138
_cell_angle_gamma   97.31611926
_symmetry_Int_Tables_number   1
_chemical_formula_structural   Li7Mn5O12
_chemical_formula_sum   'Li14 Mn10 O24'
_cell_volume   444.80066914
_cell_formula_units_Z   2
loop_
 _symmetry_equiv_pos_site_id
 _symmetry_equiv_pos_as_xyz
  1  'x, y, z'
loop_
 _atom_site_type_symbol
 _atom_site_label
 _atom_site_symmetry_multiplicity
 _atom_site_fract_x
 _atom_site_fract_y
 _atom_site_fract_z
 _atom_site_occupancy
  Li  Li0  1  0.66701000  0.25069300  0.91666800  1
  Li  Li1  1  0.66626000  0.74931100  0.41668300  1
  Li  Li2  1  0.50161800  0.12239800  0.11913400  1
  Li  Li3  1  0.50149000  0.62203800  0.61890900  1
  Li  Li4  1  0.83176200  0.37796000  0.71439200  1
  Li  Li5  1  0.83163600  0.87758300  0.21418800  1
  Li  Li6  1  0.51242800  0.39817600  0.37342500  1
  Li  Li7  1  0.51322900  0.89929100  0.87305800  1
  Li  Li8  1  0.82110000  0.60180100  0.95992500  1
  Li  Li9  1  0.82029000  0.10073800  0.46025800  1
  Li  Li10  1  0.15307900  0.34576300  0.03959500  1
  Li  Li11  1  0.15274600  0.84491400  0.53941000  1
  Li  Li12  1  0.18025800  0.65428800  0.29370000  1
  Li  Li13  1  0.18054900  0.15510800  0.79389100  1
  Mn  Mn14  1  0.01098100  0.01996600  0.99809400  1
  Mn  Mn15  1  0.01018900  0.51893800  0.49835400  1
  Mn  Mn16  1  0.32305700  0.48100900  0.83500300  1
  Mn  Mn17  1  0.32229900  0.98005300  0.33523600  1
  Mn  Mn18  1  0.99452400  0.73933600  0.75097400  1
  Mn  Mn19  1  0.99336400  0.23833900  0.25170500  1
  Mn  Mn20  1  0.33990600  0.76163400  0.08160700  1
  Mn  Mn21  1  0.33879700  0.26050100  0.58237600  1
  Mn  Mn22  1  0.66682300  0.00003500  0.66665800  1
  Mn  Mn23  1  0.66659500  0.49996700  0.16672100  1
  O  O24  1  0.43174400  0.45449400  0.59083600  1
  O  O25  1  0.43219700  0.95494300  0.09062300  1
  O  O26  1  0.90157400  0.54551100  0.74247800  1
  O  O27  1  0.90111100  0.04507300  0.24268800  1
  O  O28  1  0.41131400  0.66832100  0.84613200  1
  O  O29  1  0.41010000  0.16695500  0.34687100  1
  O  O30  1  0.92326800  0.83311100  0.98638800  1
  O  O31  1  0.92208200  0.33172800  0.48719200  1
  O  O32  1  0.07604900  0.17184100  0.01976500  1
  O  O33  1  0.07560300  0.67087000  0.51947400  1
  O  O34  1  0.25766100  0.32911600  0.81385200  1
  O  O35  1  0.25721600  0.82817300  0.31358200  1
  O  O36  1  0.08797900  0.43845000  0.26246900  1
  O  O37  1  0.08856400  0.93911300  0.76226200  1
  O  O38  1  0.24511000  0.56137400  0.07108200  1
  O  O39  1  0.24503300  0.06095600  0.57108000  1
  O  O40  1  0.76286600  0.70310200  0.17724000  1
  O  O41  1  0.76239000  0.20293900  0.67810000  1
  O  O42  1  0.57042300  0.29691600  0.15607000  1
  O  O43  1  0.57107900  0.79710000  0.65524700  1
  O  O44  1  0.75312600  0.43586200  0.92979500  1
  O  O45  1  0.75235200  0.93469700  0.42992400  1
  O  O46  1  0.58018200  0.56414900  0.40349800  1
  O  O47  1  0.58098600  0.06536400  0.90338600  1
