# generated using pymatgen
data_Li7Mn4CoO12
_symmetry_space_group_name_H-M   'P 1'
_cell_length_a   5.87417708
_cell_length_b   5.95409992
_cell_length_c   12.68272571
_cell_angle_alpha   103.19442345
_cell_angle_beta   88.79465192
_cell_angle_gamma   92.14978545
_symmetry_Int_Tables_number   1
_chemical_formula_structural   Li7Mn4CoO12
_chemical_formula_sum   'Li14 Mn8 Co2 O24'
_cell_volume   431.53432865
_cell_formula_units_Z   2
loop_
 _symmetry_equiv_pos_site_id
 _symmetry_equiv_pos_as_xyz
  1  'x, y, z'
loop_
 _atom_site_type_symbol
 _atom_site_label
 _atom_site_symmetry_multiplicity
 _atom_site_fract_x
 _atom_site_fract_y
 _atom_site_fract_z
 _atom_site_occupancy
  Li  Li0  1  0.25017700  0.66667200  0.83339400  1
  Li  Li1  1  0.74982700  0.66666600  0.83327300  1
  Li  Li2  1  0.99999900  0.16666800  0.33333200  1
  Li  Li3  1  0.50000100  0.16666700  0.33333200  1
  Li  Li4  1  0.25014300  0.16662700  0.83338800  1
  Li  Li5  1  0.74986100  0.16670500  0.83328100  1
  Li  Li6  1  0.00379600  0.47843000  0.98188500  1
  Li  Li7  1  0.50383700  0.47879300  0.98291200  1
  Li  Li8  1  0.99620600  0.85490600  0.68478000  1
  Li  Li9  1  0.49616600  0.85453700  0.68375500  1
  Li  Li10  1  0.25208800  0.33437400  0.16707300  1
  Li  Li11  1  0.74683500  0.33318900  0.16795200  1
  Li  Li12  1  0.25316900  0.00014600  0.49871400  1
  Li  Li13  1  0.74791600  0.99896600  0.49959200  1
  Mn  Mn14  1  0.99312000  0.00213600  0.99286600  1
  Mn  Mn15  1  0.00688700  0.33121000  0.67380300  1
  Mn  Mn16  1  0.25328900  0.83358600  0.16830600  1
  Mn  Mn17  1  0.74669900  0.49974700  0.49836100  1
  Mn  Mn18  1  0.49357000  0.00209700  0.99226000  1
  Mn  Mn19  1  0.50642600  0.33122400  0.67440600  1
  Mn  Mn20  1  0.74889500  0.83075000  0.16708900  1
  Mn  Mn21  1  0.25111200  0.50258500  0.49958100  1
  Co  Co22  1  0.49999700  0.66666700  0.33333200  1
  Co  Co23  1  0.00000000  0.66666700  0.33333300  1
  O  O24  1  0.25068000  0.22201000  0.00021600  1
  O  O25  1  0.75170100  0.22186700  0.99986800  1
  O  O26  1  0.24830100  0.11146500  0.66679900  1
  O  O27  1  0.74932300  0.11132000  0.66645100  1
  O  O28  1  0.48267300  0.06789400  0.15701800  1
  O  O29  1  0.97861700  0.06762200  0.15993100  1
  O  O30  1  0.02137500  0.26571200  0.50673700  1
  O  O31  1  0.51732500  0.26543700  0.50964900  1
  O  O32  1  0.50120200  0.41195600  0.82124300  1
  O  O33  1  0.00043400  0.41178200  0.82054800  1
  O  O34  1  0.99957000  0.92155200  0.84611700  1
  O  O35  1  0.49880300  0.92137500  0.84542500  1
  O  O36  1  0.26247700  0.55467800  0.66384700  1
  O  O37  1  0.76345000  0.55447400  0.66217300  1
  O  O38  1  0.23655000  0.77885700  0.00449300  1
  O  O39  1  0.73752400  0.77865300  0.00282100  1
  O  O40  1  0.47860400  0.73921000  0.49285400  1
  O  O41  1  0.98086300  0.73573300  0.48969400  1
  O  O42  1  0.01913300  0.59760000  0.17697100  1
  O  O43  1  0.52138900  0.59412100  0.17381000  1
  O  O44  1  0.27597800  0.90062200  0.32754900  1
  O  O45  1  0.75610900  0.88536500  0.33007000  1
  O  O46  1  0.24388700  0.44796900  0.33659700  1
  O  O47  1  0.72401600  0.43271300  0.33911600  1
