# generated using pymatgen
data_Li2AlCr2SbO8
_symmetry_space_group_name_H-M   'P 1'
_cell_length_a   5.92100051
_cell_length_b   5.92100051
_cell_length_c   9.60922708
_cell_angle_alpha   89.70067508
_cell_angle_beta   89.70067508
_cell_angle_gamma   59.56839802
_symmetry_Int_Tables_number   1
_chemical_formula_structural   Li2AlCr2SbO8
_chemical_formula_sum   'Li4 Al2 Cr4 Sb2 O16'
_cell_volume   290.46656369
_cell_formula_units_Z   2
loop_
 _symmetry_equiv_pos_site_id
 _symmetry_equiv_pos_as_xyz
  1  'x, y, z'
loop_
 _atom_site_type_symbol
 _atom_site_label
 _atom_site_symmetry_multiplicity
 _atom_site_fract_x
 _atom_site_fract_y
 _atom_site_fract_z
 _atom_site_occupancy
  Li  Li0  1  0.33372400  0.33372400  0.60112900  1
  Li  Li1  1  0.66501000  0.66501000  0.09608800  1
  Li  Li2  1  0.00189400  0.00189400  0.00653300  1
  Li  Li3  1  0.99981400  0.99981400  0.51499800  1
  Al  Al4  1  0.34128000  0.82871700  0.78560400  1
  Al  Al5  1  0.82871700  0.34128000  0.78560400  1
  Cr  Cr6  1  0.16961900  0.16961900  0.28578000  1
  Cr  Cr7  1  0.66032300  0.16905800  0.28625100  1
  Cr  Cr8  1  0.16905800  0.66032300  0.28625100  1
  Cr  Cr9  1  0.82928800  0.82928800  0.78634800  1
  Sb  Sb10  1  0.33405100  0.33405100  0.00957200  1
  Sb  Sb11  1  0.66469200  0.66469200  0.51543900  1
  O  O12  1  0.00077000  0.00077000  0.19169100  1
  O  O13  1  0.00887900  0.00887900  0.70370200  1
  O  O14  1  0.16759000  0.16759000  0.89824000  1
  O  O15  1  0.67204900  0.17269800  0.89991800  1
  O  O16  1  0.17269800  0.67204900  0.89991800  1
  O  O17  1  0.83458800  0.83458800  0.40827200  1
  O  O18  1  0.32910500  0.83407100  0.40601100  1
  O  O19  1  0.83407100  0.32910500  0.40601100  1
  O  O20  1  0.33195300  0.33195300  0.39314800  1
  O  O21  1  0.65820100  0.65820100  0.88609300  1
  O  O22  1  0.48163000  0.48163000  0.15542800  1
  O  O23  1  0.03469900  0.48449000  0.15487200  1
  O  O24  1  0.48449000  0.03469900  0.15487200  1
  O  O25  1  0.51816600  0.51816600  0.66124800  1
  O  O26  1  0.96187600  0.51176500  0.66018900  1
  O  O27  1  0.51176500  0.96187600  0.66018900  1
