# generated using pymatgen
data_Li7Mn4CoO12
_symmetry_space_group_name_H-M   'P 1'
_cell_length_a   2.94580290
_cell_length_b   15.28901045
_cell_length_c   9.84020381
_cell_angle_alpha   101.09532721
_cell_angle_beta   92.31032161
_cell_angle_gamma   89.09442216
_symmetry_Int_Tables_number   1
_chemical_formula_structural   Li7Mn4CoO12
_chemical_formula_sum   'Li14 Mn8 Co2 O24'
_cell_volume   434.53510628
_cell_formula_units_Z   2
loop_
 _symmetry_equiv_pos_site_id
 _symmetry_equiv_pos_as_xyz
  1  'x, y, z'
loop_
 _atom_site_type_symbol
 _atom_site_label
 _atom_site_symmetry_multiplicity
 _atom_site_fract_x
 _atom_site_fract_y
 _atom_site_fract_z
 _atom_site_occupancy
  Li  Li0  1  0.99997100  0.41661500  0.74984000  1
  Li  Li1  1  0.00021400  0.91647200  0.25004400  1
  Li  Li2  1  0.50003400  0.16663600  0.99999200  1
  Li  Li3  1  0.49989800  0.66685100  0.49966200  1
  Li  Li4  1  0.49874500  0.41728300  0.24897200  1
  Li  Li5  1  0.50123600  0.91605700  0.75095700  1
  Li  Li6  1  0.47975600  0.49865300  0.00878100  1
  Li  Li7  1  0.48321500  0.99946100  0.50834100  1
  Li  Li8  1  0.51673800  0.33374600  0.49162300  1
  Li  Li9  1  0.51989700  0.83472600  0.99183400  1
  Li  Li10  1  0.99684700  0.26278800  0.26088300  1
  Li  Li11  1  0.98882000  0.76023100  0.76431800  1
  Li  Li12  1  0.00321500  0.07042600  0.73903200  1
  Li  Li13  1  0.01122400  0.57334300  0.23558800  1
  Mn  Mn14  1  0.01927000  0.99654500  0.99199300  1
  Mn  Mn15  1  0.98067200  0.33675400  0.00797600  1
  Mn  Mn16  1  0.48736500  0.24641100  0.75034300  1
  Mn  Mn17  1  0.51265600  0.08690700  0.24962800  1
  Mn  Mn18  1  0.00755000  0.49603700  0.49057200  1
  Mn  Mn19  1  0.99209200  0.83735200  0.50949000  1
  Mn  Mn20  1  0.49733900  0.74771400  0.25121700  1
  Mn  Mn21  1  0.50291600  0.58558500  0.74873700  1
  Co  Co22  1  0.99998000  0.16666700  0.49998900  1
  Co  Co23  1  0.00011300  0.66667500  0.00014000  1
  O  O24  1  0.51755300  0.46769800  0.61505300  1
  O  O25  1  0.53191600  0.96736600  0.11545400  1
  O  O26  1  0.46823500  0.36601000  0.88451200  1
  O  O27  1  0.48180100  0.86577000  0.38520700  1
  O  O28  1  0.95068900  0.21566000  0.87749000  1
  O  O29  1  0.98449200  0.71713100  0.37649600  1
  O  O30  1  0.04936500  0.11771000  0.12252100  1
  O  O31  1  0.01299100  0.61611100  0.62411900  1
  O  O32  1  0.97267600  0.05002300  0.37322900  1
  O  O33  1  0.99527900  0.54311300  0.85640800  1
  O  O34  1  0.02743200  0.28338000  0.62678000  1
  O  O35  1  0.00825300  0.79031300  0.14288900  1
  O  O36  1  0.49741700  0.29726100  0.11043600  1
  O  O37  1  0.50897600  0.79671800  0.60984100  1
  O  O38  1  0.50259200  0.03607800  0.88954900  1
  O  O39  1  0.49028900  0.53665900  0.39038700  1
  O  O40  1  0.45934200  0.12844800  0.62078500  1
  O  O41  1  0.50448600  0.63185000  0.13349100  1
  O  O42  1  0.54070500  0.20493700  0.37919100  1
  O  O43  1  0.49590800  0.70107000  0.86604700  1
  O  O44  1  0.00413800  0.38392500  0.38697300  1
  O  O45  1  0.00785100  0.88366100  0.88874500  1
  O  O46  1  0.99210000  0.44964200  0.11125700  1
  O  O47  1  0.99575400  0.94952700  0.61318000  1
