# generated using pymatgen
data_LiNbZnO4
_symmetry_space_group_name_H-M   'P 1'
_cell_length_a   6.17185200
_cell_length_b   6.17185200
_cell_length_c   8.50539300
_cell_angle_alpha   90.00000000
_cell_angle_beta   90.00000000
_cell_angle_gamma   90.00000000
_symmetry_Int_Tables_number   1
_chemical_formula_structural   LiNbZnO4
_chemical_formula_sum   'Li4 Nb4 Zn4 O16'
_cell_volume   323.98536428
_cell_formula_units_Z   4
loop_
 _symmetry_equiv_pos_site_id
 _symmetry_equiv_pos_as_xyz
  1  'x, y, z'
loop_
 _atom_site_type_symbol
 _atom_site_label
 _atom_site_symmetry_multiplicity
 _atom_site_fract_x
 _atom_site_fract_y
 _atom_site_fract_z
 _atom_site_occupancy
  Li  Li0  1  0.21942400  0.00000000  0.25000000  1
  Li  Li1  1  0.00000000  0.21942400  0.00000000  1
  Li  Li2  1  0.00000000  0.78057600  0.50000000  1
  Li  Li3  1  0.78057600  0.00000000  0.75000000  1
  Nb  Nb4  1  0.78683200  0.50000000  0.75000000  1
  Nb  Nb5  1  0.21316800  0.50000000  0.25000000  1
  Nb  Nb6  1  0.50000000  0.78683200  0.50000000  1
  Nb  Nb7  1  0.50000000  0.21316800  0.00000000  1
  Zn  Zn8  1  0.25910000  0.25910000  0.62500000  1
  Zn  Zn9  1  0.25910000  0.74090000  0.87500000  1
  Zn  Zn10  1  0.74090000  0.74090000  0.12500000  1
  Zn  Zn11  1  0.74090000  0.25910000  0.37500000  1
  O  O12  1  0.26583900  0.51737000  0.48354000  1
  O  O13  1  0.51737000  0.73416100  0.73354000  1
  O  O14  1  0.48263000  0.26583900  0.23354000  1
  O  O15  1  0.73416100  0.51737000  0.51646000  1
  O  O16  1  0.73416100  0.48263000  0.98354000  1
  O  O17  1  0.01664000  0.73669300  0.24675100  1
  O  O18  1  0.48263000  0.73416100  0.26646000  1
  O  O19  1  0.51737000  0.26583900  0.76646000  1
  O  O20  1  0.26330700  0.01664000  0.99675100  1
  O  O21  1  0.98336000  0.26330700  0.74675100  1
  O  O22  1  0.73669300  0.01664000  0.00324900  1
  O  O23  1  0.26330700  0.98336000  0.50324900  1
  O  O24  1  0.98336000  0.73669300  0.75324900  1
  O  O25  1  0.73669300  0.98336000  0.49675100  1
  O  O26  1  0.01664000  0.26330700  0.25324900  1
  O  O27  1  0.26583900  0.48263000  0.01646000  1
