# generated using pymatgen
data_LiLa8Cu3O16
_symmetry_space_group_name_H-M   'P 1'
_cell_length_a   7.09366100
_cell_length_b   7.59218074
_cell_length_c   7.59210693
_cell_angle_alpha   90.16252882
_cell_angle_beta   105.37636574
_cell_angle_gamma   105.57225794
_symmetry_Int_Tables_number   1
_chemical_formula_structural   LiLa8Cu3O16
_chemical_formula_sum   'Li1 La8 Cu3 O16'
_cell_volume   378.56754270
_cell_formula_units_Z   1
loop_
 _symmetry_equiv_pos_site_id
 _symmetry_equiv_pos_as_xyz
  1  'x, y, z'
loop_
 _atom_site_type_symbol
 _atom_site_label
 _atom_site_symmetry_multiplicity
 _atom_site_fract_x
 _atom_site_fract_y
 _atom_site_fract_z
 _atom_site_occupancy
  Li  Li0  1  0.00000000  0.00000000  0.50000000  1
  La  La1  1  0.72190700  0.68092000  0.18596000  1
  La  La2  1  0.72353200  0.17552900  0.68034600  1
  La  La3  1  0.27646800  0.82447100  0.31965400  1
  La  La4  1  0.27809300  0.31908000  0.81404000  1
  La  La5  1  0.27637900  0.81959700  0.81855000  1
  La  La6  1  0.27644600  0.31415400  0.32412300  1
  La  La7  1  0.72355400  0.68584600  0.67587700  1
  La  La8  1  0.72362100  0.18040300  0.18145000  1
  Cu  Cu9  1  0.00000000  0.50000000  0.00000000  1
  Cu  Cu10  1  0.00000000  0.00000000  0.00000000  1
  Cu  Cu11  1  0.00000000  0.50000000  0.50000000  1
  O  O12  1  0.99410400  0.25337200  0.49922800  1
  O  O13  1  0.99357200  0.75087900  0.99904800  1
  O  O14  1  0.00593100  0.50214100  0.25386600  1
  O  O15  1  0.00648900  0.00232200  0.75655400  1
  O  O16  1  0.00642800  0.24912100  0.00095200  1
  O  O17  1  0.00589600  0.74662800  0.50077200  1
  O  O18  1  0.99351100  0.99767800  0.24344600  1
  O  O19  1  0.99406900  0.49785900  0.74613400  1
  O  O20  1  0.36290500  0.09914100  0.58180000  1
  O  O21  1  0.36228200  0.59958200  0.08194200  1
  O  O22  1  0.63771800  0.40041800  0.91805800  1
  O  O23  1  0.63709500  0.90085900  0.41820000  1
  O  O24  1  0.62786500  0.91686500  0.89694800  1
  O  O25  1  0.62797200  0.41669900  0.39757000  1
  O  O26  1  0.37202800  0.58330100  0.60243000  1
  O  O27  1  0.37213500  0.08313500  0.10305200  1
