# generated using pymatgen
data_Li2VFeP2(HO5)2
_symmetry_space_group_name_H-M   'P 1'
_cell_length_a   5.44924534
_cell_length_b   7.40171005
_cell_length_c   10.15677539
_cell_angle_alpha   75.49462072
_cell_angle_beta   79.21752219
_cell_angle_gamma   106.21359231
_symmetry_Int_Tables_number   1
_chemical_formula_structural   Li2VFeP2(HO5)2
_chemical_formula_sum   'Li4 V2 Fe2 P4 H4 O20'
_cell_volume   365.98416469
_cell_formula_units_Z   2
loop_
 _symmetry_equiv_pos_site_id
 _symmetry_equiv_pos_as_xyz
  1  'x, y, z'
loop_
 _atom_site_type_symbol
 _atom_site_label
 _atom_site_symmetry_multiplicity
 _atom_site_fract_x
 _atom_site_fract_y
 _atom_site_fract_z
 _atom_site_occupancy
  Li  Li0  1  0.02244600  0.45181900  0.37370100  1
  Li  Li1  1  0.52232100  0.95237400  0.87315200  1
  Li  Li2  1  0.47767600  0.04762100  0.12686400  1
  Li  Li3  1  0.97757000  0.54819200  0.62631200  1
  V  V4  1  0.50003100  0.00006600  0.49993500  1
  V  V5  1  0.00009200  0.49993200  0.00003300  1
  Fe  Fe6  1  0.99996700  0.99998400  0.00006800  1
  Fe  Fe7  1  0.50002300  0.50005900  0.49988300  1
  P  P8  1  0.02325200  0.89258300  0.33677100  1
  P  P9  1  0.52211900  0.39290800  0.83750800  1
  P  P10  1  0.47778400  0.60712200  0.16253000  1
  P  P11  1  0.97672400  0.10739500  0.66320500  1
  H  H12  1  0.87956400  0.15738500  0.18019700  1
  H  H13  1  0.37982000  0.66053000  0.68066800  1
  H  H14  1  0.62022100  0.33951300  0.31933900  1
  H  H15  1  0.12045700  0.84261800  0.81977400  1
  O  O16  1  0.62626300  0.30237800  0.41945400  1
  O  O17  1  0.13051300  0.80649100  0.91923000  1
  O  O18  1  0.86954700  0.19354700  0.08075100  1
  O  O19  1  0.37368900  0.69761500  0.58055400  1
  O  O20  1  0.84246500  0.01489800  0.36220700  1
  O  O21  1  0.34158400  0.51660700  0.86269400  1
  O  O22  1  0.65822200  0.48353200  0.13737500  1
  O  O23  1  0.15756100  0.98506500  0.63777900  1
  O  O24  1  0.19348300  0.50799000  0.15313900  1
  O  O25  1  0.69180100  0.00830800  0.65464800  1
  O  O26  1  0.30810000  0.99162300  0.34536200  1
  O  O27  1  0.80653600  0.49197700  0.84679900  1
  O  O28  1  0.06530800  0.88527100  0.18277800  1
  O  O29  1  0.56502200  0.38755900  0.68309700  1
  O  O30  1  0.43512000  0.61233200  0.31698500  1
  O  O31  1  0.93459800  0.11465400  0.81719700  1
  O  O32  1  0.89800100  0.67492900  0.44157700  1
  O  O33  1  0.39839000  0.17608600  0.94192300  1
  O  O34  1  0.60167400  0.82386800  0.05810400  1
  O  O35  1  0.10205500  0.32517100  0.55840800  1
