# generated using pymatgen
data_Li4TiCo5O12
_symmetry_space_group_name_H-M   'P 1'
_cell_length_a   4.93771895
_cell_length_b   19.98069625
_cell_length_c   4.95909186
_cell_angle_alpha   93.90151883
_cell_angle_beta   119.85202924
_cell_angle_gamma   94.07971469
_symmetry_Int_Tables_number   1
_chemical_formula_structural   Li4TiCo5O12
_chemical_formula_sum   'Li8 Ti2 Co10 O24'
_cell_volume   420.22876677
_cell_formula_units_Z   2
loop_
 _symmetry_equiv_pos_site_id
 _symmetry_equiv_pos_as_xyz
  1  'x, y, z'
loop_
 _atom_site_type_symbol
 _atom_site_label
 _atom_site_symmetry_multiplicity
 _atom_site_fract_x
 _atom_site_fract_y
 _atom_site_fract_z
 _atom_site_occupancy
  Li  Li0  1  0.56622000  0.37322100  0.24360100  1
  Li  Li1  1  0.56406900  0.87232000  0.23718700  1
  Li  Li2  1  0.76285500  0.12550100  0.42563500  1
  Li  Li3  1  0.75630200  0.62893500  0.45087500  1
  Li  Li4  1  0.22005300  0.37085800  0.58995500  1
  Li  Li5  1  0.21700200  0.86952000  0.57341800  1
  Li  Li6  1  0.42584000  0.12888700  0.78140700  1
  Li  Li7  1  0.42053900  0.63104200  0.79514900  1
  Ti  Ti8  1  0.00061300  0.99881900  0.00466400  1
  Ti  Ti9  1  0.02072400  0.50112600  0.99876400  1
  Co  Co10  1  0.82555700  0.75056300  0.17211100  1
  Co  Co11  1  0.15839600  0.24952600  0.84735100  1
  Co  Co12  1  0.15655000  0.75064100  0.84110000  1
  Co  Co13  1  0.67724800  0.99879200  0.32036800  1
  Co  Co14  1  0.68275400  0.50101000  0.31041300  1
  Co  Co15  1  0.49137400  0.24962000  0.51411700  1
  Co  Co16  1  0.49081200  0.75049900  0.50671400  1
  Co  Co17  1  0.82543300  0.24972600  0.17941900  1
  Co  Co18  1  0.34289600  0.99890100  0.65361900  1
  Co  Co19  1  0.34968100  0.50076800  0.64547100  1
  O  O20  1  0.19327700  0.29921100  0.21770200  1
  O  O21  1  0.19783300  0.80093900  0.21220100  1
  O  O22  1  0.78714500  0.20004600  0.81322100  1
  O  O23  1  0.78437300  0.70015800  0.80138100  1
  O  O24  1  0.38633600  0.05220600  0.36090400  1
  O  O25  1  0.38977700  0.55650300  0.33434400  1
  O  O26  1  0.64705600  0.44854300  0.60510800  1
  O  O27  1  0.63443800  0.94664500  0.61252500  1
  O  O28  1  0.72350300  0.05632200  0.04372100  1
  O  O29  1  0.71604700  0.55582000  0.02026700  1
  O  O30  1  0.96813600  0.44429600  0.27546900  1
  O  O31  1  0.95229900  0.94049400  0.27404500  1
  O  O32  1  0.04130500  0.05004500  0.67843100  1
  O  O33  1  0.04253400  0.55419400  0.66723800  1
  O  O34  1  0.32399600  0.44637800  0.96010400  1
  O  O35  1  0.31954400  0.94721300  0.95785700  1
  O  O36  1  0.47401700  0.19720600  0.13658800  1
  O  O37  1  0.46905600  0.70070700  0.14880400  1
  O  O38  1  0.11535000  0.19791500  0.48900300  1
  O  O39  1  0.13327500  0.70078600  0.48603400  1
  O  O40  1  0.86629700  0.30156600  0.53080600  1
  O  O41  1  0.84911700  0.80048000  0.52743600  1
  O  O42  1  0.51769300  0.30170500  0.89230800  1
  O  O43  1  0.51267900  0.80034800  0.86316500  1
