# generated using pymatgen
data_Li4Co2OF7
_symmetry_space_group_name_H-M   'P 1'
_cell_length_a   6.02902369
_cell_length_b   10.31328410
_cell_length_c   5.96933783
_cell_angle_alpha   88.90068130
_cell_angle_beta   120.33409427
_cell_angle_gamma   106.98489745
_symmetry_Int_Tables_number   1
_chemical_formula_structural   Li4Co2OF7
_chemical_formula_sum   'Li8 Co4 O2 F14'
_cell_volume   302.65355778
_cell_formula_units_Z   2
loop_
 _symmetry_equiv_pos_site_id
 _symmetry_equiv_pos_as_xyz
  1  'x, y, z'
loop_
 _atom_site_type_symbol
 _atom_site_label
 _atom_site_symmetry_multiplicity
 _atom_site_fract_x
 _atom_site_fract_y
 _atom_site_fract_z
 _atom_site_occupancy
  Li  Li0  1  0.98941300  0.99995300  0.98022300  1
  Li  Li1  1  0.99077200  0.49994700  0.48021100  1
  Li  Li2  1  0.76390400  0.12554600  0.39335300  1
  Li  Li3  1  0.75505400  0.62554500  0.89337800  1
  Li  Li4  1  0.37341300  0.31141500  0.43604000  1
  Li  Li5  1  0.37409100  0.81140100  0.93604500  1
  Li  Li6  1  0.37820600  0.06192300  0.69495100  1
  Li  Li7  1  0.37871200  0.56192400  0.19500300  1
  Co  Co8  1  0.39459500  0.82376200  0.42713900  1
  Co  Co9  1  0.85633700  0.32376900  0.92714700  1
  Co  Co10  1  0.38023100  0.31649800  0.93241600  1
  Co  Co11  1  0.86870800  0.81648000  0.43242400  1
  O  O12  1  0.63579000  0.42018800  0.82818900  1
  O  O13  1  0.61268300  0.92018900  0.32827500  1
  F  F14  1  0.62712300  0.18499200  0.05199300  1
  F  F15  1  0.60979700  0.68496500  0.55204000  1
  F  F16  1  0.12501400  0.43645400  0.82470400  1
  F  F17  1  0.13609400  0.93643400  0.32453800  1
  F  F18  1  0.11259700  0.20493200  0.04724800  1
  F  F19  1  0.13943200  0.70490500  0.54715400  1
  F  F20  1  0.12686200  0.42722800  0.29437400  1
  F  F21  1  0.12740200  0.92957400  0.79468700  1
  F  F22  1  0.59687500  0.42955800  0.29470400  1
  F  F23  1  0.59468200  0.92721600  0.79441200  1
  F  F24  1  0.15543100  0.19047500  0.58425800  1
  F  F25  1  0.14820600  0.69215500  0.08541900  1
  F  F26  1  0.62925100  0.19216500  0.58535800  1
  F  F27  1  0.61933200  0.69041100  0.08431500  1
