# generated using pymatgen
data_Li2VOF3
_symmetry_space_group_name_H-M   'P 1'
_cell_length_a   5.05453053
_cell_length_b   9.82560386
_cell_length_c   6.00609024
_cell_angle_alpha   95.67912540
_cell_angle_beta   89.79492760
_cell_angle_gamma   90.18314850
_symmetry_Int_Tables_number   1
_chemical_formula_structural   Li2VOF3
_chemical_formula_sum   'Li8 V4 O4 F12'
_cell_volume   296.81816392
_cell_formula_units_Z   4
loop_
 _symmetry_equiv_pos_site_id
 _symmetry_equiv_pos_as_xyz
  1  'x, y, z'
loop_
 _atom_site_type_symbol
 _atom_site_label
 _atom_site_symmetry_multiplicity
 _atom_site_fract_x
 _atom_site_fract_y
 _atom_site_fract_z
 _atom_site_occupancy
  Li  Li0  1  0.01151700  0.22688500  0.64669400  1
  Li  Li1  1  0.00797100  0.72716700  0.13364500  1
  Li  Li2  1  0.47707100  0.47487500  0.89388100  1
  Li  Li3  1  0.47620600  0.97770100  0.39708100  1
  Li  Li4  1  0.47798100  0.11874300  0.81003400  1
  Li  Li5  1  0.48306300  0.61305600  0.30987200  1
  Li  Li6  1  0.01474400  0.36677600  0.05986800  1
  Li  Li7  1  0.00494800  0.87999800  0.56525900  1
  V  V8  1  0.02158900  0.50949500  0.49973800  1
  V  V9  1  0.47118600  0.26054700  0.24916700  1
  V  V10  1  0.02237500  0.00956700  0.00058100  1
  V  V11  1  0.46774300  0.75800700  0.74907600  1
  O  O12  1  0.20256900  0.17921900  0.04737000  1
  O  O13  1  0.20863100  0.66856000  0.57358000  1
  O  O14  1  0.29566600  0.43047400  0.28864600  1
  O  O15  1  0.28575900  0.93089700  0.79446400  1
  F  F16  1  0.34474500  0.16473400  0.52114000  1
  F  F17  1  0.34931300  0.66728500  0.02669600  1
  F  F18  1  0.14368700  0.41287800  0.76808400  1
  F  F19  1  0.14389500  0.91047900  0.27324500  1
  F  F20  1  0.83241800  0.06570500  0.71580100  1
  F  F21  1  0.83905900  0.56723900  0.22015800  1
  F  F22  1  0.66129900  0.31596300  0.96416300  1
  F  F23  1  0.65677400  0.81619100  0.46964900  1
  F  F24  1  0.68744800  0.07413100  0.18769600  1
  F  F25  1  0.68843900  0.57366200  0.68985100  1
  F  F26  1  0.80725200  0.32450800  0.43383300  1
  F  F27  1  0.80032900  0.82557600  0.93448400  1
