# generated using pymatgen
data_Li4Ni3BiO8
_symmetry_space_group_name_H-M   'P 1'
_cell_length_a   6.05419097
_cell_length_b   10.52525944
_cell_length_c   6.05381348
_cell_angle_alpha   89.96599971
_cell_angle_beta   119.53385898
_cell_angle_gamma   73.07413487
_symmetry_Int_Tables_number   1
_chemical_formula_structural   Li4Ni3BiO8
_chemical_formula_sum   'Li8 Ni6 Bi2 O16'
_cell_volume   316.24908622
_cell_formula_units_Z   2
loop_
 _symmetry_equiv_pos_site_id
 _symmetry_equiv_pos_as_xyz
  1  'x, y, z'
loop_
 _atom_site_type_symbol
 _atom_site_label
 _atom_site_symmetry_multiplicity
 _atom_site_fract_x
 _atom_site_fract_y
 _atom_site_fract_z
 _atom_site_occupancy
  Li  Li0  1  0.50016800  0.75017600  0.74966500  1
  Li  Li1  1  0.50023500  0.25016200  0.24965000  1
  Li  Li2  1  0.00012400  0.25029200  0.75064800  1
  Li  Li3  1  0.99919600  0.75023700  0.24961800  1
  Li  Li4  1  0.52002200  0.48670700  0.52171300  1
  Li  Li5  1  0.48075800  0.01279700  0.97877700  1
  Li  Li6  1  0.00861900  0.51275400  0.00657500  1
  Li  Li7  1  0.99145300  0.98668800  0.49324400  1
  Ni  Ni8  1  0.99970400  0.25003100  0.24968400  1
  Ni  Ni9  1  0.00029000  0.74989100  0.74990300  1
  Ni  Ni10  1  0.50191600  0.00037500  0.50230900  1
  Ni  Ni11  1  0.50018500  0.24979500  0.74970200  1
  Ni  Ni12  1  0.49986900  0.74998300  0.25005600  1
  Ni  Ni13  1  0.49720400  0.50051200  0.99764000  1
  Bi  Bi14  1  0.00392700  0.99984900  0.00381500  1
  Bi  Bi15  1  0.99640300  0.49985200  0.49629600  1
  O  O16  1  0.27380100  0.13779400  0.62336500  1
  O  O17  1  0.23886800  0.63781400  0.08835300  1
  O  O18  1  0.72541200  0.36216000  0.87677400  1
  O  O19  1  0.76095900  0.86213700  0.41247900  1
  O  O20  1  0.75134800  0.62532000  0.62330900  1
  O  O21  1  0.75148100  0.12531800  0.12338600  1
  O  O22  1  0.25543700  0.87752700  0.37459900  1
  O  O23  1  0.25924600  0.37200200  0.86552100  1
  O  O24  1  0.76259700  0.87194800  0.86896900  1
  O  O25  1  0.74789100  0.37758500  0.36701000  1
  O  O26  1  0.23663900  0.62843700  0.63002100  1
  O  O27  1  0.25279500  0.12220400  0.13374100  1
  O  O28  1  0.74416900  0.62223000  0.12511300  1
  O  O29  1  0.74156200  0.12833900  0.63492100  1
  O  O30  1  0.24908000  0.87452700  0.87681600  1
  O  O31  1  0.24864200  0.37455700  0.37632800  1
