# generated using pymatgen
data_Li4Co3O7
_symmetry_space_group_name_H-M   'P 1'
_cell_length_a   6.52292300
_cell_length_b   6.54293652
_cell_length_c   6.56065035
_cell_angle_alpha   71.68923428
_cell_angle_beta   72.54832099
_cell_angle_gamma   71.95897176
_symmetry_Int_Tables_number   1
_chemical_formula_structural   Li4Co3O7
_chemical_formula_sum   'Li8 Co6 O14'
_cell_volume   246.30712006
_cell_formula_units_Z   2
loop_
 _symmetry_equiv_pos_site_id
 _symmetry_equiv_pos_as_xyz
  1  'x, y, z'
loop_
 _atom_site_type_symbol
 _atom_site_label
 _atom_site_symmetry_multiplicity
 _atom_site_fract_x
 _atom_site_fract_y
 _atom_site_fract_z
 _atom_site_occupancy
  Li  Li0  1  0.65282300  0.28991500  0.56425000  1
  Li  Li1  1  0.34717700  0.71008500  0.43575000  1
  Li  Li2  1  0.07348500  0.14509300  0.29037500  1
  Li  Li3  1  0.92651500  0.85490700  0.70962500  1
  Li  Li4  1  0.21458600  0.42884500  0.85461100  1
  Li  Li5  1  0.50000000  0.00000000  0.00000000  1
  Li  Li6  1  0.78541400  0.57115500  0.14538900  1
  Li  Li7  1  0.00000000  0.50000000  0.50000000  1
  Co  Co8  1  0.57373300  0.63959300  0.78589500  1
  Co  Co9  1  0.42626700  0.36040700  0.21410500  1
  Co  Co10  1  0.27750300  0.07858900  0.63713700  1
  Co  Co11  1  0.72249700  0.92141100  0.36286300  1
  Co  Co12  1  0.14076900  0.78447100  0.07496000  1
  Co  Co13  1  0.85923100  0.21552900  0.92504000  1
  O  O14  1  0.66502000  0.61923700  0.49353200  1
  O  O15  1  0.40410500  0.05674800  0.31742000  1
  O  O16  1  0.13201100  0.47229100  0.17194900  1
  O  O17  1  0.97510900  0.17150500  0.61633900  1
  O  O18  1  0.27524900  0.74763100  0.75510500  1
  O  O19  1  0.53304800  0.33837600  0.90898800  1
  O  O20  1  0.82574800  0.90244200  0.03915100  1
  O  O21  1  0.59589500  0.94325200  0.68258000  1
  O  O22  1  0.33498000  0.38076300  0.50646800  1
  O  O23  1  0.02489100  0.82849500  0.38366100  1
  O  O24  1  0.86798900  0.52770900  0.82805100  1
  O  O25  1  0.17425200  0.09755800  0.96084900  1
  O  O26  1  0.46695200  0.66162400  0.09101200  1
  O  O27  1  0.72475100  0.25236900  0.24489500  1
