# generated using pymatgen
data_LiZnHg2
_symmetry_space_group_name_H-M   'P 1'
_cell_length_a   11.08339537
_cell_length_b   11.08339537
_cell_length_c   11.08339537
_cell_angle_alpha   120.06219796
_cell_angle_beta   119.66389359
_cell_angle_gamma   90.23772049
_symmetry_Int_Tables_number   1
_chemical_formula_structural   LiZnHg2
_chemical_formula_sum   'Li1 Zn1 Hg2'
_cell_volume   964.69714542
_cell_formula_units_Z   1
loop_
 _symmetry_equiv_pos_site_id
 _symmetry_equiv_pos_as_xyz
  1  'x, y, z'
loop_
 _atom_site_type_symbol
 _atom_site_label
 _atom_site_symmetry_multiplicity
 _atom_site_fract_x
 _atom_site_fract_y
 _atom_site_fract_z
 _atom_site_occupancy
  Li  Li0  1  0.00000000  0.00000000  0.00000000  1
  Zn  Zn1  1  0.50000000  0.00000000  0.50000000  1
  Hg  Hg2  1  0.24555600  0.00000000  0.24555600  1
  Hg  Hg3  1  0.75444400  0.00000000  0.75444400  1
