# generated using pymatgen
data_Li2VF5
_symmetry_space_group_name_H-M   'P 1'
_cell_length_a   5.94549300
_cell_length_b   7.70275800
_cell_length_c   17.38092300
_cell_angle_alpha   90.00000000
_cell_angle_beta   90.00000000
_cell_angle_gamma   90.00000000
_symmetry_Int_Tables_number   1
_chemical_formula_structural   Li2VF5
_chemical_formula_sum   'Li16 V8 F40'
_cell_volume   795.98880807
_cell_formula_units_Z   8
loop_
 _symmetry_equiv_pos_site_id
 _symmetry_equiv_pos_as_xyz
  1  'x, y, z'
loop_
 _atom_site_type_symbol
 _atom_site_label
 _atom_site_symmetry_multiplicity
 _atom_site_fract_x
 _atom_site_fract_y
 _atom_site_fract_z
 _atom_site_occupancy
  Li  Li0  1  0.48736300  0.26526600  0.47212300  1
  Li  Li1  1  0.48736300  0.76526600  0.02787700  1
  Li  Li2  1  0.25000000  0.90874700  0.64704700  1
  Li  Li3  1  0.25000000  0.40874700  0.85295300  1
  Li  Li4  1  0.25000000  0.87495600  0.18783600  1
  Li  Li5  1  0.25000000  0.37495600  0.31216400  1
  Li  Li6  1  0.01263700  0.26526600  0.47212300  1
  Li  Li7  1  0.01263700  0.76526600  0.02787700  1
  Li  Li8  1  0.98736300  0.73473400  0.52787700  1
  Li  Li9  1  0.98736300  0.23473400  0.97212300  1
  Li  Li10  1  0.75000000  0.09125300  0.35295300  1
  Li  Li11  1  0.75000000  0.62504400  0.68783600  1
  Li  Li12  1  0.75000000  0.12504400  0.81216400  1
  Li  Li13  1  0.75000000  0.59125300  0.14704700  1
  Li  Li14  1  0.51263700  0.73473400  0.52787700  1
  Li  Li15  1  0.51263700  0.23473400  0.97212300  1
  V  V16  1  0.25000000  0.92693100  0.85453400  1
  V  V17  1  0.25000000  0.89378100  0.37508800  1
  V  V18  1  0.25000000  0.42693100  0.64546600  1
  V  V19  1  0.25000000  0.39378100  0.12491200  1
  V  V20  1  0.75000000  0.60621900  0.87508800  1
  V  V21  1  0.75000000  0.10621900  0.62491200  1
  V  V22  1  0.75000000  0.57306900  0.35453400  1
  V  V23  1  0.75000000  0.07306900  0.14546600  1
  F  F24  1  0.50242800  0.23907000  0.16212500  1
  F  F25  1  0.50242800  0.73907000  0.33787500  1
  F  F26  1  0.48711100  0.05317000  0.41446800  1
  F  F27  1  0.48711100  0.55317000  0.08553200  1
  F  F28  1  0.48274500  0.60948300  0.62415000  1
  F  F29  1  0.48274500  0.10948300  0.87585000  1
  F  F30  1  0.25000000  0.75534200  0.47101700  1
  F  F31  1  0.25000000  0.85569200  0.96595300  1
  F  F32  1  0.25000000  0.97734900  0.74769900  1
  F  F33  1  0.25000000  0.50869200  0.22267500  1
  F  F34  1  0.25000000  0.47734900  0.75230100  1
  F  F35  1  0.25000000  0.35569200  0.53404700  1
  F  F36  1  0.25000000  0.00869200  0.27732500  1
  F  F37  1  0.25000000  0.25534200  0.02898300  1
  F  F38  1  0.01725500  0.60948300  0.62415000  1
  F  F39  1  0.01725500  0.10948300  0.87585000  1
  F  F40  1  0.01288900  0.05317000  0.41446800  1
  F  F41  1  0.01288900  0.55317000  0.08553200  1
  F  F42  1  0.99757200  0.23907000  0.16212500  1
  F  F43  1  0.99757200  0.73907000  0.33787500  1
  F  F44  1  0.00242800  0.76093000  0.83787500  1
  F  F45  1  0.00242800  0.26093000  0.66212500  1
  F  F46  1  0.98711100  0.94683000  0.58553200  1
  F  F47  1  0.98711100  0.44683000  0.91446800  1
  F  F48  1  0.98274500  0.89051700  0.12415000  1
  F  F49  1  0.98274500  0.39051700  0.37585000  1
  F  F50  1  0.75000000  0.64430800  0.46595300  1
  F  F51  1  0.75000000  0.74465800  0.97101700  1
  F  F52  1  0.75000000  0.24465800  0.52898300  1
  F  F53  1  0.75000000  0.99130800  0.72267500  1
  F  F54  1  0.75000000  0.49130800  0.77732500  1
  F  F55  1  0.75000000  0.52265100  0.24769900  1
  F  F56  1  0.75000000  0.02265100  0.25230100  1
  F  F57  1  0.75000000  0.14430800  0.03404700  1
  F  F58  1  0.51725500  0.39051700  0.37585000  1
  F  F59  1  0.51725500  0.89051700  0.12415000  1
  F  F60  1  0.51288900  0.94683000  0.58553200  1
  F  F61  1  0.51288900  0.44683000  0.91446800  1
  F  F62  1  0.49757200  0.76093000  0.83787500  1
  F  F63  1  0.49757200  0.26093000  0.66212500  1
