# generated using pymatgen
data_LiYIn2
_symmetry_space_group_name_H-M   'P 1'
_cell_length_a   12.88613375
_cell_length_b   12.88613375
_cell_length_c   12.88613375
_cell_angle_alpha   125.45384760
_cell_angle_beta   118.88200084
_cell_angle_gamma   86.38485504
_symmetry_Int_Tables_number   1
_chemical_formula_structural   LiYIn2
_chemical_formula_sum   'Li1 Y1 In2'
_cell_volume   1453.79500328
_cell_formula_units_Z   1
loop_
 _symmetry_equiv_pos_site_id
 _symmetry_equiv_pos_as_xyz
  1  'x, y, z'
loop_
 _atom_site_type_symbol
 _atom_site_label
 _atom_site_symmetry_multiplicity
 _atom_site_fract_x
 _atom_site_fract_y
 _atom_site_fract_z
 _atom_site_occupancy
  Li  Li0  1  0.00000000  0.00000000  0.00000000  1
  Y  Y1  1  0.00000000  0.50000000  0.50000000  1
  In  In2  1  0.00000000  0.23891100  0.23891100  1
  In  In3  1  0.00000000  0.76108900  0.76108900  1
