# generated using pymatgen
data_Li2V3SnO8
_symmetry_space_group_name_H-M   'P 1'
_cell_length_a   6.00363197
_cell_length_b   6.00488525
_cell_length_c   10.78491763
_cell_angle_alpha   74.37560531
_cell_angle_beta   89.30783614
_cell_angle_gamma   119.66907266
_symmetry_Int_Tables_number   1
_chemical_formula_structural   Li2V3SnO8
_chemical_formula_sum   'Li4 V6 Sn2 O16'
_cell_volume   320.40255955
_cell_formula_units_Z   2
loop_
 _symmetry_equiv_pos_site_id
 _symmetry_equiv_pos_as_xyz
  1  'x, y, z'
loop_
 _atom_site_type_symbol
 _atom_site_label
 _atom_site_symmetry_multiplicity
 _atom_site_fract_x
 _atom_site_fract_y
 _atom_site_fract_z
 _atom_site_occupancy
  Li  Li0  1  0.94117200  0.87642500  0.18223100  1
  Li  Li1  1  0.44120500  0.87647500  0.68223100  1
  Li  Li2  1  0.55875800  0.12352000  0.31778600  1
  Li  Li3  1  0.05879500  0.12355300  0.81780100  1
  V  V4  1  0.49988300  0.49997500  0.99998300  1
  V  V5  1  0.50003200  0.00000200  0.00001300  1
  V  V6  1  0.99991300  0.50001400  0.00005700  1
  V  V7  1  0.00002100  0.49967800  0.50014000  1
  V  V8  1  0.00003900  0.99998600  0.49994400  1
  V  V9  1  0.50026000  0.50025400  0.49988300  1
  Sn  Sn10  1  0.74985900  0.49987300  0.74999600  1
  Sn  Sn11  1  0.25011300  0.50017500  0.24995900  1
  O  O12  1  0.87575700  0.72405400  0.40037100  1
  O  O13  1  0.37565700  0.72402500  0.90036500  1
  O  O14  1  0.62427100  0.27593800  0.09967000  1
  O  O15  1  0.12435900  0.27599100  0.59961300  1
  O  O16  1  0.10249200  0.73388100  0.61671000  1
  O  O17  1  0.60232900  0.73363200  0.11677900  1
  O  O18  1  0.64921600  0.28087500  0.61672400  1
  O  O19  1  0.14900200  0.28082100  0.11674600  1
  O  O20  1  0.64327600  0.74159800  0.61527500  1
  O  O21  1  0.14341300  0.74168300  0.11534900  1
  O  O22  1  0.85659800  0.25836900  0.88466300  1
  O  O23  1  0.35677100  0.25847000  0.38471200  1
  O  O24  1  0.85093900  0.71915500  0.88326500  1
  O  O25  1  0.35077000  0.71917900  0.38325700  1
  O  O26  1  0.39763400  0.26633700  0.88320000  1
  O  O27  1  0.89746700  0.26606300  0.38327400  1
