# generated using pymatgen
data_Li5Mn4(P2O7)4
_symmetry_space_group_name_H-M   'P 1'
_cell_length_a   9.76485800
_cell_length_b   9.76990298
_cell_length_c   11.32834820
_cell_angle_alpha   102.88254619
_cell_angle_beta   90.43702286
_cell_angle_gamma   90.64704025
_symmetry_Int_Tables_number   1
_chemical_formula_structural   Li5Mn4(P2O7)4
_chemical_formula_sum   'Li10 Mn8 P16 O56'
_cell_volume   1053.41637788
_cell_formula_units_Z   2
loop_
 _symmetry_equiv_pos_site_id
 _symmetry_equiv_pos_as_xyz
  1  'x, y, z'
loop_
 _atom_site_type_symbol
 _atom_site_label
 _atom_site_symmetry_multiplicity
 _atom_site_fract_x
 _atom_site_fract_y
 _atom_site_fract_z
 _atom_site_occupancy
  Li  Li0  1  0.57005100  0.84217800  0.46348900  1
  Li  Li1  1  0.89242800  0.91121500  0.97698500  1
  Li  Li2  1  0.40427500  0.57793500  0.01934800  1
  Li  Li3  1  0.03454700  0.61945400  0.50080600  1
  Li  Li4  1  0.20775100  0.38421700  0.54524500  1
  Li  Li5  1  0.41292100  0.15136300  0.03882600  1
  Li  Li6  1  0.89868300  0.35329700  0.96322800  1
  Li  Li7  1  0.10747200  0.09361400  0.03189300  1
  Li  Li8  1  0.41882300  0.16526300  0.54291900  1
  Li  Li9  1  0.72468600  0.12902400  0.45211600  1
  Mn  Mn10  1  0.07281800  0.79860700  0.32206800  1
  Mn  Mn11  1  0.77384500  0.72259100  0.16465300  1
  Mn  Mn12  1  0.29048200  0.75683200  0.82425100  1
  Mn  Mn13  1  0.57633100  0.69715900  0.67235800  1
  Mn  Mn14  1  0.42171800  0.29775900  0.32357600  1
  Mn  Mn15  1  0.71403400  0.23989200  0.17244100  1
  Mn  Mn16  1  0.22251500  0.26148300  0.82928800  1
  Mn  Mn17  1  0.93071500  0.20681900  0.67329100  1
  P  P18  1  0.55866300  0.97290300  0.23973100  1
  P  P19  1  0.29225800  0.87853500  0.11060800  1
  P  P20  1  0.07024500  0.94082900  0.76169400  1
  P  P21  1  0.85423800  0.88009700  0.57282900  1
  P  P22  1  0.34921000  0.62279800  0.43107600  1
  P  P23  1  0.57235300  0.56702200  0.24549600  1
  P  P24  1  0.95269000  0.47750500  0.25143200  1
  P  P25  1  0.78813400  0.61758300  0.88503000  1
  P  P26  1  0.20818200  0.38793100  0.11082400  1
  P  P27  1  0.05050900  0.53246600  0.75552300  1
  P  P28  1  0.42118700  0.43058200  0.75216600  1
  P  P29  1  0.65258300  0.37815700  0.58930700  1
  P  P30  1  0.14812000  0.11894200  0.42082800  1
  P  P31  1  0.92608000  0.06393100  0.24075300  1
  P  P32  1  0.71204300  0.11351100  0.89210000  1
  P  P33  1  0.45128100  0.01831600  0.75537500  1
  O  O34  1  0.58616300  0.98677300  0.37350900  1
  O  O35  1  0.15200200  0.96206600  0.42353600  1
  O  O36  1  0.91165200  0.91730600  0.26774900  1
  O  O37  1  0.65940700  0.88579500  0.15277800  1
  O  O38  1  0.41188400  0.89897900  0.21504600  1
  O  O39  1  0.17176200  0.82148800  0.17027200  1
  O  O40  1  0.34853200  0.77096300  0.99894700  1
  O  O41  1  0.73716800  0.97167700  0.91459500  1
  O  O42  1  0.92843200  0.87614800  0.69948000  1
  O  O43  1  0.05888300  0.94494600  0.89480700  1
  O  O44  1  0.46097100  0.86193500  0.77744000  1
  O  O45  1  0.70978500  0.82520400  0.58397300  1
  O  O46  1  0.18518600  0.83906600  0.70685500  1
  O  O47  1  0.94033600  0.79177700  0.47327600  1
  O  O48  1  0.44503500  0.71365800  0.52762100  1
  O  O49  1  0.68422000  0.67681500  0.30831300  1
  O  O50  1  0.20881100  0.68292500  0.41516200  1
  O  O51  1  0.95594100  0.62915100  0.21840100  1
  O  O52  1  0.42823100  0.62266600  0.30370500  1
  O  O53  1  0.57486800  0.57909500  0.11432000  1
  O  O54  1  0.24113500  0.52796900  0.08676400  1
  O  O55  1  0.83983900  0.72762700  0.00079600  1
  O  O56  1  0.66959500  0.67863100  0.82441200  1
  O  O57  1  0.90878100  0.61115200  0.78458900  1
  O  O58  1  0.41026200  0.58242000  0.73380000  1
  O  O59  1  0.15472300  0.61705400  0.84789900  1
  O  O60  1  0.92788400  0.48405500  0.38162500  1
  O  O61  1  0.65997100  0.53107800  0.57552800  1
  O  O62  1  0.33686300  0.47096100  0.44436100  1
  O  O63  1  0.08416500  0.52867300  0.62581800  1
  O  O64  1  0.85355800  0.38549700  0.15516500  1
  O  O65  1  0.59070900  0.41882300  0.26859900  1
  O  O66  1  0.10027800  0.41049300  0.22267400  1
  O  O67  1  0.32677800  0.31000600  0.15594500  1
  O  O68  1  0.13190900  0.28551800  0.00337300  1
  O  O69  1  0.77172900  0.47734000  0.91440500  1
  O  O70  1  0.39891000  0.41677000  0.88095700  1
  O  O71  1  0.57419100  0.37925500  0.71438700  1
  O  O72  1  0.03538300  0.37921800  0.77992100  1
  O  O73  1  0.79359500  0.31583200  0.60232100  1
  O  O74  1  0.32312000  0.32674000  0.66859600  1
  O  O75  1  0.57193600  0.27973600  0.48729800  1
  O  O76  1  0.07691300  0.21193400  0.52726400  1
  O  O77  1  0.81045600  0.16345200  0.30180000  1
  O  O78  1  0.29318600  0.17436100  0.40810900  1
  O  O79  1  0.54847100  0.12285000  0.20639700  1
  O  O80  1  0.93166800  0.07109500  0.10912500  1
  O  O81  1  0.06888700  0.13127300  0.29842200  1
  O  O82  1  0.27364900  0.02007700  0.08081400  1
  O  O83  1  0.64496500  0.21499100  0.00520100  1
  O  O84  1  0.83129900  0.18780600  0.84373100  1
  O  O85  1  0.59794400  0.09430400  0.78458700  1
  O  O86  1  0.35435900  0.09723700  0.85283400  1
  O  O87  1  0.08421700  0.08848000  0.73016300  1
  O  O88  1  0.84717100  0.03829600  0.56641500  1
  O  O89  1  0.42397300  0.01941900  0.62562400  1
