# generated using pymatgen
data_LiOsN2
_symmetry_space_group_name_H-M   'P 1'
_cell_length_a   5.68513396
_cell_length_b   4.66105950
_cell_length_c   9.26455765
_cell_angle_alpha   89.99999632
_cell_angle_beta   144.56815264
_cell_angle_gamma   114.20068914
_symmetry_Int_Tables_number   1
_chemical_formula_structural   LiOsN2
_chemical_formula_sum   'Li2 Os2 N4'
_cell_volume   100.63845040
_cell_formula_units_Z   2
loop_
 _symmetry_equiv_pos_site_id
 _symmetry_equiv_pos_as_xyz
  1  'x, y, z'
loop_
 _atom_site_type_symbol
 _atom_site_label
 _atom_site_symmetry_multiplicity
 _atom_site_fract_x
 _atom_site_fract_y
 _atom_site_fract_z
 _atom_site_occupancy
  Li  Li0  1  0.00000000  0.50000000  0.75000000  1
  Li  Li1  1  0.00000000  -0.00000000  0.50000000  1
  Os  Os2  1  0.00000000  0.50000000  0.25000000  1
  Os  Os3  1  0.00000000  -0.00000000  0.00000000  1
  N  N4  1  0.50000000  0.04487122  0.12500000  1
  N  N5  1  0.50000000  0.95512878  0.62500000  1
  N  N6  1  0.41025755  0.45512878  0.33012878  1
  N  N7  1  0.58974245  0.54487122  0.91987122  1
