# generated using pymatgen
data_Li9Mn2Co5O16
_symmetry_space_group_name_H-M   'P 1'
_cell_length_a   6.48185700
_cell_length_b   6.48590176
_cell_length_c   7.82905360
_cell_angle_alpha   65.74251700
_cell_angle_beta   77.65290667
_cell_angle_gamma   71.96760675
_symmetry_Int_Tables_number   1
_chemical_formula_structural   Li9Mn2Co5O16
_chemical_formula_sum   'Li9 Mn2 Co5 O16'
_cell_volume   283.91015279
_cell_formula_units_Z   1
loop_
 _symmetry_equiv_pos_site_id
 _symmetry_equiv_pos_as_xyz
  1  'x, y, z'
loop_
 _atom_site_type_symbol
 _atom_site_label
 _atom_site_symmetry_multiplicity
 _atom_site_fract_x
 _atom_site_fract_y
 _atom_site_fract_z
 _atom_site_occupancy
  Li  Li0  1  0.94325900  0.55664800  0.30783400  1
  Li  Li1  1  0.44535900  0.05591700  0.81244500  1
  Li  Li2  1  0.06020700  0.44045700  0.68762100  1
  Li  Li3  1  0.55802000  0.93640400  0.18519200  1
  Li  Li4  1  0.19242300  0.32414000  0.06286900  1
  Li  Li5  1  0.67793600  0.81234700  0.56873900  1
  Li  Li6  1  0.32347600  0.19651400  0.42203000  1
  Li  Li7  1  0.80015700  0.68038900  0.95131900  1
  Li  Li8  1  0.37723400  0.61918900  0.12612500  1
  Mn  Mn9  1  0.99868400  0.99668000  0.00055800  1
  Mn  Mn10  1  0.13077100  0.87771700  0.37020900  1
  Co  Co11  1  0.50462000  0.49948900  0.49171200  1
  Co  Co12  1  0.62123800  0.37577300  0.88092600  1
  Co  Co13  1  0.25114900  0.74594300  0.76055300  1
  Co  Co14  1  0.74736100  0.25420400  0.24635000  1
  Co  Co15  1  0.87199900  0.12669000  0.62271300  1
  O  O16  1  0.08501000  0.67928800  0.02249600  1
  O  O17  1  0.60500400  0.15502100  0.53815500  1
  O  O18  1  0.21950700  0.54823600  0.41752000  1
  O  O19  1  0.72714000  0.04258000  0.90866900  1
  O  O20  1  0.35471200  0.42647100  0.78245200  1
  O  O21  1  0.86442400  0.92290600  0.26283400  1
  O  O22  1  0.49079700  0.27992200  0.15791800  1
  O  O23  1  0.98766100  0.80837300  0.63215200  1
  O  O24  1  0.77532300  0.44757600  0.59588300  1
  O  O25  1  0.25404200  0.96590400  0.10865600  1
  O  O26  1  0.89911200  0.33041900  0.96095800  1
  O  O27  1  0.39089400  0.84498800  0.46278700  1
  O  O28  1  0.02203000  0.20459500  0.34214700  1
  O  O29  1  0.52614700  0.70616400  0.83508200  1
  O  O30  1  0.13774000  0.07140500  0.74125700  1
  O  O31  1  0.65655900  0.56765000  0.23384300  1
