# generated using pymatgen
data_Li4Mn3NbO8
_symmetry_space_group_name_H-M   'P 1'
_cell_length_a   6.03529442
_cell_length_b   6.16195825
_cell_length_c   10.60561799
_cell_angle_alpha   90.80091404
_cell_angle_beta   75.37330535
_cell_angle_gamma   60.82871879
_symmetry_Int_Tables_number   1
_chemical_formula_structural   Li4Mn3NbO8
_chemical_formula_sum   'Li8 Mn6 Nb2 O16'
_cell_volume   328.81444363
_cell_formula_units_Z   2
loop_
 _symmetry_equiv_pos_site_id
 _symmetry_equiv_pos_as_xyz
  1  'x, y, z'
loop_
 _atom_site_type_symbol
 _atom_site_label
 _atom_site_symmetry_multiplicity
 _atom_site_fract_x
 _atom_site_fract_y
 _atom_site_fract_z
 _atom_site_occupancy
  Li  Li0  1  0.49195500  0.75325000  0.25279900  1
  Li  Li1  1  0.49212000  0.25279400  0.75269700  1
  Li  Li2  1  0.50099300  0.99782400  0.00033700  1
  Li  Li3  1  0.50130100  0.49732900  0.50032000  1
  Li  Li4  1  0.99310700  0.24731500  0.25452000  1
  Li  Li5  1  0.99274900  0.74752500  0.75457400  1
  Li  Li6  1  0.99951800  0.49832400  0.00132800  1
  Li  Li7  1  0.99945300  0.99825200  0.50137700  1
  Mn  Mn8  1  0.99562500  0.74805100  0.25121700  1
  Mn  Mn9  1  0.50181000  0.49708100  0.00039500  1
  Mn  Mn10  1  0.49878400  0.75115200  0.74894000  1
  Mn  Mn11  1  0.99519000  0.24853300  0.75134900  1
  Mn  Mn12  1  0.50204500  0.99615400  0.50033000  1
  Mn  Mn13  1  0.49900500  0.25098800  0.24907100  1
  Nb  Nb14  1  0.00252900  0.49674700  0.50097300  1
  Nb  Nb15  1  0.00230800  0.99704600  0.00082100  1
  O  O16  1  0.27192100  0.89714200  0.61525700  1
  O  O17  1  0.27233500  0.39703100  0.11514300  1
  O  O18  1  0.72519900  0.10355400  0.38525400  1
  O  O19  1  0.72506000  0.60412800  0.88527600  1
  O  O20  1  0.24268400  0.63813900  0.89117000  1
  O  O21  1  0.24275700  0.13798400  0.39121800  1
  O  O22  1  0.76269100  0.38707100  0.61379100  1
  O  O23  1  0.76281300  0.88698200  0.11379300  1
  O  O24  1  0.77169300  0.09606800  0.87757500  1
  O  O25  1  0.77178000  0.59591700  0.37760200  1
  O  O26  1  0.75809300  0.35946300  0.10974100  1
  O  O27  1  0.75798300  0.85930400  0.60978000  1
  O  O28  1  0.23542000  0.11263300  0.88713600  1
  O  O29  1  0.23562600  0.61242900  0.38720600  1
  O  O30  1  0.22532600  0.90214100  0.12577500  1
  O  O31  1  0.22507600  0.40230900  0.62591600  1
