# generated using pymatgen
data_Li3MnV(PO4)3
_symmetry_space_group_name_H-M   'P 1'
_cell_length_a   8.76520400
_cell_length_b   8.79612632
_cell_length_c   14.47678899
_cell_angle_alpha   73.40723824
_cell_angle_beta   74.42979936
_cell_angle_gamma   60.99298166
_symmetry_Int_Tables_number   1
_chemical_formula_structural   Li3MnV(PO4)3
_chemical_formula_sum   'Li12 Mn4 V4 P12 O48'
_cell_volume   924.18818424
_cell_formula_units_Z   4
loop_
 _symmetry_equiv_pos_site_id
 _symmetry_equiv_pos_as_xyz
  1  'x, y, z'
loop_
 _atom_site_type_symbol
 _atom_site_label
 _atom_site_symmetry_multiplicity
 _atom_site_fract_x
 _atom_site_fract_y
 _atom_site_fract_z
 _atom_site_occupancy
  Li  Li0  1  0.14143100  0.01266800  0.11244700  1
  Li  Li1  1  0.50309400  0.99644900  0.99848900  1
  Li  Li2  1  0.23349700  0.10779900  0.63714200  1
  Li  Li3  1  0.75107600  0.25101300  0.24977600  1
  Li  Li4  1  0.35867000  0.48737600  0.38783300  1
  Li  Li5  1  0.26488800  0.39062000  0.86214200  1
  Li  Li6  1  0.73572100  0.60709900  0.13593600  1
  Li  Li7  1  0.64022200  0.51442000  0.61189700  1
  Li  Li8  1  0.24660600  0.75214100  0.74861600  1
  Li  Li9  1  0.00052300  0.50145400  0.49972800  1
  Li  Li10  1  0.76637000  0.89193400  0.36343400  1
  Li  Li11  1  0.85650000  0.98558800  0.88689800  1
  Mn  Mn12  1  0.57537400  0.07322200  0.78443000  1
  Mn  Mn13  1  0.67838800  0.17286900  0.46488300  1
  Mn  Mn14  1  0.82312200  0.32532200  0.03520400  1
  Mn  Mn15  1  0.32027200  0.82906000  0.53463900  1
  V  V16  1  0.07725400  0.56829900  0.28682300  1
  V  V17  1  0.18405400  0.67230800  0.96243200  1
  V  V18  1  0.92138400  0.43333400  0.71324800  1
  V  V19  1  0.42515500  0.93022500  0.21282000  1
  P  P20  1  0.13253700  0.33059500  0.11781000  1
  P  P21  1  0.36750300  0.16774100  0.38291600  1
  P  P22  1  0.18031900  0.07258800  0.87351600  1
  P  P23  1  0.91344900  0.11922600  0.63294000  1
  P  P24  1  0.31794900  0.43441700  0.62295500  1
  P  P25  1  0.41880500  0.61742900  0.13355000  1
  P  P26  1  0.58272100  0.38098400  0.86852200  1
  P  P27  1  0.67775900  0.57070300  0.37623300  1
  P  P28  1  0.08422100  0.88066100  0.36784700  1
  P  P29  1  0.82731200  0.92497300  0.12287200  1
  P  P30  1  0.63068900  0.83440700  0.61814800  1
  P  P31  1  0.86706100  0.66672600  0.88328500  1
  O  O32  1  0.28225300  0.14064400  0.11487900  1
  O  O33  1  0.38792600  0.08748900  0.29789400  1
  O  O34  1  0.32917900  0.05747900  0.48235800  1
  O  O35  1  0.16719200  0.44270300  0.01909800  1
  O  O36  1  0.11334200  0.41001100  0.20320000  1
  O  O37  1  0.81658400  0.10646400  0.12561800  1
  O  O38  1  0.10382500  0.19701500  0.78062700  1
  O  O39  1  0.54757000  0.17909000  0.36867800  1
  O  O40  1  0.06830600  0.13751800  0.96855300  1
  O  O41  1  0.89609700  0.02957100  0.35902100  1
  O  O42  1  0.21930100  0.35773300  0.38601500  1
  O  O43  1  0.36482900  0.05996500  0.87469600  1
  O  O44  1  0.13347500  0.45022100  0.62036500  1
  O  O45  1  0.83638200  0.13190700  0.54677800  1
  O  O46  1  0.34208700  0.63010100  0.04707500  1
  O  O47  1  0.43589800  0.36344500  0.53036800  1
  O  O48  1  0.79934300  0.08397000  0.73157600  1
  O  O49  1  0.60650800  0.46788700  0.14243500  1
  O  O50  1  0.38736000  0.31680600  0.71845700  1
  O  O51  1  0.30190800  0.58707200  0.23102600  1
  O  O52  1  0.95371100  0.31648600  0.13312600  1
  O  O53  1  0.57119100  0.20137700  0.88394900  1
  O  O54  1  0.68840000  0.38981200  0.37199100  1
  O  O55  1  0.07458400  0.69997500  0.38579700  1
  O  O56  1  0.92048400  0.30075300  0.61616700  1
  O  O57  1  0.30680500  0.61680300  0.62578500  1
  O  O58  1  0.42778400  0.79851000  0.11470200  1
  O  O59  1  0.04791400  0.67591300  0.86604600  1
  O  O60  1  0.69336100  0.41622800  0.77015900  1
  O  O61  1  0.60443500  0.69453200  0.28213500  1
  O  O62  1  0.39244800  0.53101200  0.86404000  1
  O  O63  1  0.20126800  0.91074800  0.27035700  1
  O  O64  1  0.56279400  0.63871900  0.47014200  1
  O  O65  1  0.66326400  0.36144700  0.95490600  1
  O  O66  1  0.16017700  0.86915700  0.45451600  1
  O  O67  1  0.86291600  0.55380100  0.37767700  1
  O  O68  1  0.64266900  0.94230700  0.12031000  1
  O  O69  1  0.77856500  0.64436300  0.61491800  1
  O  O70  1  0.10193800  0.97185800  0.64180200  1
  O  O71  1  0.94674500  0.85311600  0.03003600  1
  O  O72  1  0.45095100  0.82242400  0.63225800  1
  O  O73  1  0.89757800  0.80430600  0.21807100  1
  O  O74  1  0.19555800  0.89012500  0.86958500  1
  O  O75  1  0.87967200  0.58926100  0.79845900  1
  O  O76  1  0.83274100  0.55193500  0.98248800  1
  O  O77  1  0.66836500  0.94459600  0.51868700  1
  O  O78  1  0.61063100  0.91486500  0.70334100  1
  O  O79  1  0.71975800  0.85482600  0.89042200  1
