# generated using pymatgen
data_Li9Mn2Co5O16
_symmetry_space_group_name_H-M   'P 1'
_cell_length_a   4.99545000
_cell_length_b   5.87316598
_cell_length_c   10.22400406
_cell_angle_alpha   89.65759952
_cell_angle_beta   98.18897752
_cell_angle_gamma   106.55621967
_symmetry_Int_Tables_number   1
_chemical_formula_structural   Li9Mn2Co5O16
_chemical_formula_sum   'Li9 Mn2 Co5 O16'
_cell_volume   284.40568049
_cell_formula_units_Z   1
loop_
 _symmetry_equiv_pos_site_id
 _symmetry_equiv_pos_as_xyz
  1  'x, y, z'
loop_
 _atom_site_type_symbol
 _atom_site_label
 _atom_site_symmetry_multiplicity
 _atom_site_fract_x
 _atom_site_fract_y
 _atom_site_fract_z
 _atom_site_occupancy
  Li  Li0  1  0.00625900  0.25303800  0.25687600  1
  Li  Li1  1  0.49156300  0.87137400  0.61809000  1
  Li  Li2  1  0.98561000  0.99643800  0.49667900  1
  Li  Li3  1  0.49596600  0.62161400  0.87061200  1
  Li  Li4  1  0.99605500  0.74882500  0.73985000  1
  Li  Li5  1  0.50243400  0.37953500  0.13478200  1
  Li  Li6  1  0.00637300  0.49701600  0.00610500  1
  Li  Li7  1  0.50741800  0.12771400  0.37560500  1
  Li  Li8  1  0.49384600  0.62470600  0.37176600  1
  Mn  Mn9  1  0.00693300  0.00285400  0.00409800  1
  Mn  Mn10  1  0.99982100  0.74538500  0.25402800  1
  Co  Co11  1  0.99796600  0.25192700  0.74195600  1
  Co  Co12  1  0.50919600  0.87553100  0.12913500  1
  Co  Co13  1  0.99994900  0.49871700  0.49269400  1
  Co  Co14  1  0.50335500  0.12481600  0.87678100  1
  Co  Co15  1  0.49686700  0.38227100  0.61464300  1
  O  O16  1  0.76561500  0.16334900  0.06650500  1
  O  O17  1  0.21666100  0.80682200  0.42309400  1
  O  O18  1  0.74803500  0.92221300  0.29681000  1
  O  O19  1  0.23705900  0.55622800  0.68344000  1
  O  O20  1  0.74055800  0.66439800  0.56586300  1
  O  O21  1  0.25085400  0.28682600  0.93818500  1
  O  O22  1  0.74653500  0.40898900  0.81568700  1
  O  O23  1  0.24684600  0.03980500  0.17832900  1
  O  O24  1  0.23642300  0.32090000  0.44312000  1
  O  O25  1  0.76130400  0.95245100  0.83309400  1
  O  O26  1  0.24336300  0.08163000  0.69002800  1
  O  O27  1  0.76838000  0.71415700  0.07158800  1
  O  O28  1  0.27163600  0.84137500  0.95153600  1
  O  O29  1  0.76943800  0.45569900  0.30853800  1
  O  O30  1  0.25176200  0.59125600  0.18476200  1
  O  O31  1  0.74591800  0.19213800  0.56572800  1
