# generated using pymatgen
data_Li9Mn2Co5O16
_symmetry_space_group_name_H-M   'P 1'
_cell_length_a   2.91407495
_cell_length_b   19.46862685
_cell_length_c   5.11175801
_cell_angle_alpha   92.72000175
_cell_angle_beta   87.57237068
_cell_angle_gamma   87.68190947
_symmetry_Int_Tables_number   1
_chemical_formula_structural   Li9Mn2Co5O16
_chemical_formula_sum   'Li9 Mn2 Co5 O16'
_cell_volume   289.15681686
_cell_formula_units_Z   1
loop_
 _symmetry_equiv_pos_site_id
 _symmetry_equiv_pos_as_xyz
  1  'x, y, z'
loop_
 _atom_site_type_symbol
 _atom_site_label
 _atom_site_symmetry_multiplicity
 _atom_site_fract_x
 _atom_site_fract_y
 _atom_site_fract_z
 _atom_site_occupancy
  Li  Li0  1  0.93652300  0.11828300  0.66957400  1
  Li  Li1  1  0.31317100  0.37087000  0.55869900  1
  Li  Li2  1  0.68389400  0.62750200  0.43380300  1
  Li  Li3  1  0.06363300  0.88175700  0.33102200  1
  Li  Li4  1  0.45045800  0.12139600  0.18418300  1
  Li  Li5  1  0.81639200  0.37256200  0.06665300  1
  Li  Li6  1  0.18614100  0.62912300  0.94157700  1
  Li  Li7  1  0.54933400  0.87850500  0.81525900  1
  Li  Li8  1  0.50006900  0.00005000  0.49988800  1
  Mn  Mn9  1  0.00004600  0.99984300  0.99943200  1
  Mn  Mn10  1  0.75011000  0.50010000  0.75039300  1
  Co  Co11  1  0.37786700  0.24940600  0.87399500  1
  Co  Co12  1  0.12271000  0.75067300  0.62551000  1
  Co  Co13  1  0.87681800  0.24888600  0.37414300  1
  Co  Co14  1  0.24989000  0.49997400  0.25023100  1
  Co  Co15  1  0.62285100  0.75100100  0.12617500  1
  O  O16  1  0.49136400  0.05534300  0.85851800  1
  O  O17  1  0.83225400  0.30884800  0.72501900  1
  O  O18  1  0.20050700  0.55631700  0.57842200  1
  O  O19  1  0.58347500  0.80733900  0.47549500  1
  O  O20  1  0.96680500  0.05816900  0.31251400  1
  O  O21  1  0.33449000  0.30806200  0.22648100  1
  O  O22  1  0.68926200  0.55689400  0.08397600  1
  O  O23  1  0.08359100  0.80599400  0.97635800  1
  O  O24  1  0.41766400  0.19252700  0.52415700  1
  O  O25  1  0.81087800  0.44329300  0.41612900  1
  O  O26  1  0.16647600  0.69167400  0.27578800  1
  O  O27  1  0.50852100  0.94453100  0.14156500  1
  O  O28  1  0.91633700  0.19401600  0.02201700  1
  O  O29  1  0.29973600  0.44378200  0.92184700  1
  O  O30  1  0.66552800  0.69150100  0.77407900  1
  O  O31  1  0.03320400  0.94177800  0.68710000  1
