# generated using pymatgen
data_Li8Mn7Sn(PO4)12
_symmetry_space_group_name_H-M   'P 1'
_cell_length_a   8.57024800
_cell_length_b   8.86322155
_cell_length_c   12.08362657
_cell_angle_alpha   89.93196033
_cell_angle_beta   89.80426618
_cell_angle_gamma   88.19957001
_symmetry_Int_Tables_number   1
_chemical_formula_structural   Li8Mn7Sn(PO4)12
_chemical_formula_sum   'Li8 Mn7 Sn1 P12 O48'
_cell_volume   917.41333612
_cell_formula_units_Z   1
loop_
 _symmetry_equiv_pos_site_id
 _symmetry_equiv_pos_as_xyz
  1  'x, y, z'
loop_
 _atom_site_type_symbol
 _atom_site_label
 _atom_site_symmetry_multiplicity
 _atom_site_fract_x
 _atom_site_fract_y
 _atom_site_fract_z
 _atom_site_occupancy
  Li  Li0  1  0.21454500  0.27538000  0.81906100  1
  Li  Li1  1  0.21622300  0.21959100  0.18188300  1
  Li  Li2  1  0.28212100  0.78239600  0.68193800  1
  Li  Li3  1  0.28276500  0.72714500  0.31572000  1
  Li  Li4  1  0.71570300  0.27649100  0.68261600  1
  Li  Li5  1  0.72091900  0.21684900  0.31667800  1
  Li  Li6  1  0.78183400  0.78034900  0.81997400  1
  Li  Li7  1  0.78541300  0.72769600  0.17527200  1
  Mn  Mn8  1  0.25017400  0.03541300  0.38840100  1
  Mn  Mn9  1  0.24760500  0.46225300  0.61358900  1
  Mn  Mn10  1  0.25099700  0.96496100  0.88559100  1
  Mn  Mn11  1  0.25120000  0.53772900  0.11052600  1
  Mn  Mn12  1  0.74747600  0.46138200  0.88737000  1
  Mn  Mn13  1  0.74925600  0.03566700  0.11192100  1
  Mn  Mn14  1  0.75157000  0.96488800  0.61450700  1
  Sn  Sn15  1  0.74917200  0.53923600  0.38602500  1
  P  P16  1  0.03930100  0.74798500  0.50079700  1
  P  P17  1  0.46531200  0.25450500  0.99969600  1
  P  P18  1  0.53313600  0.74455000  0.00045300  1
  P  P19  1  0.96802200  0.25021900  0.50134600  1
  P  P20  1  0.10542900  0.60440600  0.85060700  1
  P  P21  1  0.10493100  0.89478000  0.14201500  1
  P  P22  1  0.38883700  0.39435800  0.35178800  1
  P  P23  1  0.39715500  0.10609400  0.64771600  1
  P  P24  1  0.60458200  0.90050800  0.35409800  1
  P  P25  1  0.60164600  0.60523100  0.65468500  1
  P  P26  1  0.89565200  0.39618700  0.14399300  1
  P  P27  1  0.89500700  0.10523100  0.85394700  1
  O  O28  1  0.05996200  0.35876200  0.57507000  1
  O  O29  1  0.06379300  0.14168600  0.42748200  1
  O  O30  1  0.07606800  0.10528300  0.84236300  1
  O  O31  1  0.07699900  0.39976800  0.15468300  1
  O  O32  1  0.14779300  0.83065800  0.42224900  1
  O  O33  1  0.14438200  0.65700300  0.58588500  1
  O  O34  1  0.15375600  0.55918700  0.96976800  1
  O  O35  1  0.15068300  0.93154800  0.02362700  1
  O  O36  1  0.15710800  0.76054600  0.81668800  1
  O  O37  1  0.16032900  0.73053300  0.17549700  1
  O  O38  1  0.17828200  0.47918700  0.77316300  1
  O  O39  1  0.17375200  0.01070500  0.22133100  1
  O  O40  1  0.32815100  0.98938600  0.72933800  1
  O  O41  1  0.31883400  0.51941000  0.27345200  1
  O  O42  1  0.33723400  0.23795300  0.31871800  1
  O  O43  1  0.34072200  0.26994700  0.67927300  1
  O  O44  1  0.34463400  0.44087600  0.47113900  1
  O  O45  1  0.34886800  0.06242600  0.53211300  1
  O  O46  1  0.35722000  0.17297500  0.92110000  1
  O  O47  1  0.35921000  0.34453900  0.08542100  1
  O  O48  1  0.42355800  0.90021200  0.34310000  1
  O  O49  1  0.42056300  0.60258100  0.66299600  1
  O  O50  1  0.43877300  0.85241900  0.92607900  1
  O  O51  1  0.43928500  0.63824200  0.07558700  1
  O  O52  1  0.55917700  0.35955800  0.92397800  1
  O  O53  1  0.56042100  0.14594600  0.07369300  1
  O  O54  1  0.57190400  0.39419900  0.34240000  1
  O  O55  1  0.57865500  0.10504700  0.65906600  1
  O  O56  1  0.64179400  0.65382100  0.91684000  1
  O  O57  1  0.63957500  0.82779700  0.07930700  1
  O  O58  1  0.65476400  0.93539300  0.47132200  1
  O  O59  1  0.65123600  0.55681400  0.53746700  1
  O  O60  1  0.65463700  0.76217700  0.68536600  1
  O  O61  1  0.65928100  0.73740900  0.31782800  1
  O  O62  1  0.67699600  0.48069500  0.73174500  1
  O  O63  1  0.67514400  0.01553700  0.27341300  1
  O  O64  1  0.82660600  0.98740300  0.77398100  1
  O  O65  1  0.82243000  0.52308600  0.22017600  1
  O  O66  1  0.83802700  0.26873100  0.82178400  1
  O  O67  1  0.84366300  0.24119600  0.18053700  1
  O  O68  1  0.84858900  0.43665400  0.02464300  1
  O  O69  1  0.84596500  0.06301800  0.97055400  1
  O  O70  1  0.85964300  0.33549500  0.41587000  1
  O  O71  1  0.86074100  0.17016100  0.58225400  1
  O  O72  1  0.92298200  0.89532200  0.15376200  1
  O  O73  1  0.92360000  0.60218000  0.84265900  1
  O  O74  1  0.94105300  0.85565400  0.57380300  1
  O  O75  1  0.94717300  0.63939700  0.42922500  1
