# generated using pymatgen
data_Li2TiCrO4
_symmetry_space_group_name_H-M   'P 1'
_cell_length_a   5.88850941
_cell_length_b   9.56547089
_cell_length_c   5.88867291
_cell_angle_alpha   72.03240282
_cell_angle_beta   90.11885457
_cell_angle_gamma   107.96634063
_symmetry_Int_Tables_number   1
_chemical_formula_structural   Li2TiCrO4
_chemical_formula_sum   'Li8 Ti4 Cr4 O16'
_cell_volume   298.53438416
_cell_formula_units_Z   4
loop_
 _symmetry_equiv_pos_site_id
 _symmetry_equiv_pos_as_xyz
  1  'x, y, z'
loop_
 _atom_site_type_symbol
 _atom_site_label
 _atom_site_symmetry_multiplicity
 _atom_site_fract_x
 _atom_site_fract_y
 _atom_site_fract_z
 _atom_site_occupancy
  Li  Li0  1  0.37594256  0.25019614  0.62412339  1
  Li  Li1  1  0.87429057  0.25025620  0.12564228  1
  Li  Li2  1  0.12506632  0.74961445  0.37509484  1
  Li  Li3  1  0.62455397  0.74963579  0.87527568  1
  Li  Li4  1  0.49934964  0.99866216  0.00067933  1
  Li  Li5  1  0.00035610  0.00077534  0.49959235  1
  Li  Li6  1  0.24985683  0.49970269  0.75012223  1
  Li  Li7  1  0.75030080  0.50061302  0.24971886  1
  Ti  Ti8  1  0.87687943  0.24979271  0.62628202  1
  Ti  Ti9  1  0.37294466  0.24979702  0.12390169  1
  Ti  Ti10  1  0.62518859  0.75001043  0.37448406  1
  Ti  Ti11  1  0.12483041  0.75001577  0.87549733  1
  Cr  Cr12  1  0.75008709  0.50008906  0.74998088  1
  Cr  Cr13  1  0.49982223  0.99963544  0.50016742  1
  Cr  Cr14  1  0.24998329  0.49985655  0.25007101  1
  Cr  Cr15  1  0.00028046  0.00056398  0.99973646  1
  O  O16  1  0.97868129  0.47944053  0.51944398  1
  O  O17  1  0.50075503  0.47943125  0.00109926  1
  O  O18  1  0.73007526  0.97786204  0.27185034  1
  O  O19  1  0.24779075  0.97788114  0.75026915  1
  O  O20  1  0.74958487  0.02089123  0.73054490  1
  O  O21  1  0.27129121  0.02090887  0.24854142  1
  O  O22  1  0.51979756  0.52191253  0.49968530  1
  O  O23  1  0.00210066  0.52189399  0.97841346  1
  O  O24  1  0.88012768  0.76016850  0.11988238  1
  O  O25  1  0.38047624  0.76101987  0.61951401  1
  O  O26  1  0.63070505  0.26145479  0.86928496  1
  O  O27  1  0.12977888  0.25950525  0.37021676  1
  O  O28  1  0.37002861  0.74013813  0.12992195  1
  O  O29  1  0.86944062  0.73886557  0.63062754  1
  O  O30  1  0.12061011  0.24125649  0.87940366  1
  O  O31  1  0.61902321  0.23815305  0.38093108  1
