# generated using pymatgen
data_LiAlSi3O8
_symmetry_space_group_name_H-M   'P 1'
_cell_length_a   7.13041539
_cell_length_b   7.33721686
_cell_length_c   7.60503241
_cell_angle_alpha   115.87394703
_cell_angle_beta   110.05537747
_cell_angle_gamma   97.30001122
_symmetry_Int_Tables_number   1
_chemical_formula_structural   LiAlSi3O8
_chemical_formula_sum   'Li2 Al2 Si6 O16'
_cell_volume   317.74924053
_cell_formula_units_Z   2
loop_
 _symmetry_equiv_pos_site_id
 _symmetry_equiv_pos_as_xyz
  1  'x, y, z'
loop_
 _atom_site_type_symbol
 _atom_site_label
 _atom_site_symmetry_multiplicity
 _atom_site_fract_x
 _atom_site_fract_y
 _atom_site_fract_z
 _atom_site_occupancy
  Li  Li0  1  0.84963865  0.72190272  0.75134379  1
  Li  Li1  1  0.15036135  0.27809728  0.24865621  1
  Al  Al2  1  0.79962529  0.14780138  0.83797181  1
  Al  Al3  1  0.20037471  0.85219862  0.16202819  1
  Si  Si4  1  0.62775657  0.21334689  0.45031425  1
  Si  Si5  1  0.37224343  0.78665311  0.54968575  1
  Si  Si6  1  0.75552955  0.81734780  0.17285987  1
  Si  Si7  1  0.24447045  0.18265220  0.82714013  1
  Si  Si8  1  0.70920495  0.42710781  0.22114243  1
  Si  Si9  1  0.29079505  0.57289219  0.77885757  1
  O  O10  1  0.72740317  0.43072084  0.44666656  1
  O  O11  1  0.27259683  0.56927916  0.55333344  1
  O  O12  1  0.62984582  0.87729654  0.68768816  1
  O  O13  1  0.37015418  0.12270346  0.31231184  1
  O  O14  1  0.05367346  0.12829270  0.88462528  1
  O  O15  1  0.94632654  0.87170730  0.11537472  1
  O  O16  1  0.72691770  0.03322062  0.33399835  1
  O  O17  1  0.27308230  0.96677938  0.66600165  1
  O  O18  1  0.83941385  0.28731375  0.11263660  1
  O  O19  1  0.16058615  0.71268625  0.88736340  1
  O  O20  1  0.79820079  0.67654481  0.29229591  1
  O  O21  1  0.20179921  0.32345519  0.70770409  1
  O  O22  1  0.54168578  0.67742032  0.94408264  1
  O  O23  1  0.45831422  0.32257968  0.05591736  1
  O  O24  1  0.71108466  0.28481154  0.70409253  1
  O  O25  1  0.28891534  0.71518846  0.29590747  1
