# generated using pymatgen
data_Li2Fe5Si5O16
_symmetry_space_group_name_H-M   'P 1'
_cell_length_a   10.32404100
_cell_length_b   6.84800600
_cell_length_c   10.21420561
_cell_angle_alpha   89.65180427
_cell_angle_beta   90.00000000
_cell_angle_gamma   90.00000000
_symmetry_Int_Tables_number   1
_chemical_formula_structural   Li2Fe5Si5O16
_chemical_formula_sum   'Li4 Fe10 Si10 O32'
_cell_volume   722.12175528
_cell_formula_units_Z   2
loop_
 _symmetry_equiv_pos_site_id
 _symmetry_equiv_pos_as_xyz
  1  'x, y, z'
loop_
 _atom_site_type_symbol
 _atom_site_label
 _atom_site_symmetry_multiplicity
 _atom_site_fract_x
 _atom_site_fract_y
 _atom_site_fract_z
 _atom_site_occupancy
  Li  Li0  1  0.34078400  0.24889100  0.46466900  1
  Li  Li1  1  0.32829600  0.25379600  0.96577700  1
  Li  Li2  1  0.84078400  0.75110900  0.53533100  1
  Li  Li3  1  0.82829600  0.74620400  0.03422300  1
  Fe  Fe4  1  0.16109400  0.25326400  0.22012500  1
  Fe  Fe5  1  0.16146000  0.21487400  0.70463400  1
  Fe  Fe6  1  0.66146000  0.78512600  0.29536600  1
  Fe  Fe7  1  0.36254300  0.74944900  0.48433200  1
  Fe  Fe8  1  0.66109400  0.74673600  0.77987500  1
  Fe  Fe9  1  0.36518200  0.75478800  0.96740600  1
  Fe  Fe10  1  0.15844200  0.71357900  0.72146100  1
  Fe  Fe11  1  0.86254300  0.25055100  0.51566800  1
  Fe  Fe12  1  0.65844200  0.28642100  0.27853900  1
  Fe  Fe13  1  0.86518200  0.24521200  0.03259400  1
  Si  Si14  1  0.90831200  0.53085300  0.28674900  1
  Si  Si15  1  0.40038700  0.49963100  0.21316500  1
  Si  Si16  1  0.90038700  0.50036900  0.78683500  1
  Si  Si17  1  0.40831200  0.46914700  0.71325100  1
  Si  Si18  1  0.16071200  0.75106800  0.21959200  1
  Si  Si19  1  0.59117700  0.02458200  0.53285900  1
  Si  Si20  1  0.09117700  0.97541800  0.46714100  1
  Si  Si21  1  0.58567200  0.00775400  0.02376800  1
  Si  Si22  1  0.08567200  0.99224600  0.97623200  1
  Si  Si23  1  0.66071200  0.24893200  0.78040800  1
  O  O24  1  0.85742700  0.32172700  0.22544400  1
  O  O25  1  0.80962500  0.30390900  0.73106200  1
  O  O26  1  0.33671800  0.30801600  0.28150400  1
  O  O27  1  0.33482400  0.28350600  0.77601000  1
  O  O28  1  0.89489400  0.51426400  0.44459700  1
  O  O29  1  0.54912100  0.53688700  0.26300100  1
  O  O30  1  0.87884900  0.50050200  0.94405700  1
  O  O31  1  0.39489400  0.48573600  0.55540300  1
  O  O32  1  0.06994000  0.55350100  0.24448100  1
  O  O33  1  0.56994000  0.44649900  0.75551900  1
  O  O34  1  0.37884900  0.49949800  0.05594300  1
  O  O35  1  0.04912100  0.46311300  0.73699900  1
  O  O36  1  0.83482400  0.71649400  0.22399000  1
  O  O37  1  0.83671800  0.69198400  0.71849600  1
  O  O38  1  0.30962500  0.69609100  0.26893800  1
  O  O39  1  0.35742700  0.67827300  0.77455600  1
  O  O40  1  0.65896300  0.81799000  0.49449200  1
  O  O41  1  0.64242100  0.80335700  0.96617000  1
  O  O42  1  0.16572000  0.78596900  0.52926400  1
  O  O43  1  0.16287200  0.80793200  0.06203500  1
  O  O44  1  0.93791900  0.98783800  0.49982400  1
  O  O45  1  0.63119000  0.03588100  0.17659000  1
  O  O46  1  0.43791900  0.01216200  0.50017600  1
  O  O47  1  0.93099100  0.97951000  0.00060500  1
  O  O48  1  0.61446400  0.05186000  0.69986800  1
  O  O49  1  0.11446400  0.94814000  0.30013200  1
  O  O50  1  0.43099100  0.02049000  0.99939500  1
  O  O51  1  0.13119000  0.96411900  0.82341000  1
  O  O52  1  0.66572000  0.21403100  0.47073600  1
  O  O53  1  0.66287200  0.19206800  0.93796500  1
  O  O54  1  0.15896300  0.18201000  0.50550800  1
  O  O55  1  0.14242100  0.19664300  0.03383000  1
