# generated using pymatgen
data_Li4MnCo2O7
_symmetry_space_group_name_H-M   'P 1'
_cell_length_a   5.10114600
_cell_length_b   5.87677367
_cell_length_c   8.60841398
_cell_angle_alpha   91.74360628
_cell_angle_beta   94.62171128
_cell_angle_gamma   108.47732565
_symmetry_Int_Tables_number   1
_chemical_formula_structural   Li4MnCo2O7
_chemical_formula_sum   'Li8 Mn2 Co4 O14'
_cell_volume   243.53823412
_cell_formula_units_Z   2
loop_
 _symmetry_equiv_pos_site_id
 _symmetry_equiv_pos_as_xyz
  1  'x, y, z'
loop_
 _atom_site_type_symbol
 _atom_site_label
 _atom_site_symmetry_multiplicity
 _atom_site_fract_x
 _atom_site_fract_y
 _atom_site_fract_z
 _atom_site_occupancy
  Li  Li0  1  0.85428700  0.21277200  0.71162000  1
  Li  Li1  1  0.71834400  0.92850600  0.43287100  1
  Li  Li2  1  0.28145800  0.06695100  0.57636600  1
  Li  Li3  1  0.14242500  0.78504100  0.28906100  1
  Li  Li4  1  0.57140800  0.63963900  0.14357900  1
  Li  Li5  1  0.00037100  0.50195500  0.99505300  1
  Li  Li6  1  0.43204200  0.36599100  0.85228100  1
  Li  Li7  1  0.85692900  0.71378300  0.71334400  1
  Mn  Mn8  1  0.99841500  0.99671700  0.99641000  1
  Mn  Mn9  1  0.28706800  0.57340600  0.57358400  1
  Co  Co10  1  0.71483500  0.42900300  0.42926700  1
  Co  Co11  1  0.57266000  0.14478600  0.14440700  1
  Co  Co12  1  0.42759000  0.85573500  0.85574500  1
  Co  Co13  1  0.14299100  0.28578400  0.28668500  1
  O  O14  1  0.15722500  0.02525500  0.80367900  1
  O  O15  1  0.00389800  0.71896300  0.50109800  1
  O  O16  1  0.54562800  0.87844700  0.64772600  1
  O  O17  1  0.40787600  0.59471400  0.36080000  1
  O  O18  1  0.83643500  0.44540900  0.21975000  1
  O  O19  1  0.26335500  0.30785700  0.07898800  1
  O  O20  1  0.71692200  0.15486200  0.93855200  1
  O  O21  1  0.55977600  0.40768300  0.62566800  1
  O  O22  1  0.44955100  0.12504500  0.34779800  1
  O  O23  1  0.01965600  0.26013500  0.49487800  1
  O  O24  1  0.87868900  0.97978200  0.20932900  1
  O  O25  1  0.28281600  0.84726100  0.06167900  1
  O  O26  1  0.71009800  0.70597800  0.93073600  1
  O  O27  1  0.16725300  0.54854000  0.77904600  1
