# generated using pymatgen
data_Li6Mn5SbO12
_symmetry_space_group_name_H-M   'P 1'
_cell_length_a   5.53274036
_cell_length_b   9.07703105
_cell_length_c   10.53993171
_cell_angle_alpha   89.99823747
_cell_angle_beta   81.29949944
_cell_angle_gamma   90.00016052
_symmetry_Int_Tables_number   1
_chemical_formula_structural   Li6Mn5SbO12
_chemical_formula_sum   'Li12 Mn10 Sb2 O24'
_cell_volume   523.23322769
_cell_formula_units_Z   2
loop_
 _symmetry_equiv_pos_site_id
 _symmetry_equiv_pos_as_xyz
  1  'x, y, z'
loop_
 _atom_site_type_symbol
 _atom_site_label
 _atom_site_symmetry_multiplicity
 _atom_site_fract_x
 _atom_site_fract_y
 _atom_site_fract_z
 _atom_site_occupancy
  Li  Li0  1  0.74580600  0.99827100  0.71641700  1
  Li  Li1  1  0.24554300  0.49749500  0.71647700  1
  Li  Li2  1  0.25425200  0.99828600  0.28358800  1
  Li  Li3  1  0.75439000  0.49745200  0.28349300  1
  Li  Li4  1  0.75079800  0.17058000  0.28491700  1
  Li  Li5  1  0.25072000  0.67002800  0.28495300  1
  Li  Li6  1  0.24915400  0.17063600  0.71505900  1
  Li  Li7  1  0.74928900  0.67002100  0.71507700  1
  Li  Li8  1  0.74909800  0.83211400  0.28771100  1
  Li  Li9  1  0.24918300  0.33147200  0.28788200  1
  Li  Li10  1  0.25086600  0.83201400  0.71236700  1
  Li  Li11  1  0.75073800  0.33151000  0.71206700  1
  Mn  Mn12  1  0.99995100  0.50016500  0.50000100  1
  Mn  Mn13  1  0.99998700  0.83324500  0.50000500  1
  Mn  Mn14  1  0.99994800  0.16634000  0.49994900  1
  Mn  Mn15  1  0.50003300  0.16739600  0.99995400  1
  Mn  Mn16  1  0.50006000  0.83158900  0.00001600  1
  Mn  Mn17  1  0.49998300  0.00000400  0.50007000  1
  Mn  Mn18  1  0.50000200  0.33316300  0.49996700  1
  Mn  Mn19  1  0.50014900  0.66635800  0.49994400  1
  Mn  Mn20  1  0.99998200  0.66855100  0.00006400  1
  Mn  Mn21  1  0.00001100  0.33220500  0.99998400  1
  Sb  Sb22  1  0.00001000  0.99752800  0.99998200  1
  Sb  Sb23  1  0.49998900  0.49678100  0.99999500  1
  O  O24  1  0.90771900  0.00030600  0.39079400  1
  O  O25  1  0.40777900  0.50017100  0.39074200  1
  O  O26  1  0.09229300  0.00032400  0.60926000  1
  O  O27  1  0.59223300  0.50015100  0.60921100  1
  O  O28  1  0.70732100  0.98794000  0.90081800  1
  O  O29  1  0.20707700  0.48809500  0.90100300  1
  O  O30  1  0.29265800  0.98794500  0.09918200  1
  O  O31  1  0.79303100  0.48809300  0.09898500  1
  O  O32  1  0.18574500  0.84682000  0.89039000  1
  O  O33  1  0.68485200  0.34581900  0.89024700  1
  O  O34  1  0.81420500  0.84686900  0.10966800  1
  O  O35  1  0.31523800  0.34578600  0.10970900  1
  O  O36  1  0.16637700  0.16788500  0.89824100  1
  O  O37  1  0.66699300  0.66720800  0.89835900  1
  O  O38  1  0.83366000  0.16792000  0.10171400  1
  O  O39  1  0.33303700  0.66716700  0.10167600  1
  O  O40  1  0.59948600  0.17934500  0.61603300  1
  O  O41  1  0.09961800  0.67937100  0.61614400  1
  O  O42  1  0.40045500  0.17930900  0.38396900  1
  O  O43  1  0.90035800  0.67941400  0.38391000  1
  O  O44  1  0.60156700  0.82015800  0.61494300  1
  O  O45  1  0.10128600  0.32026300  0.61492200  1
  O  O46  1  0.39845800  0.82018900  0.38511000  1
  O  O47  1  0.89863200  0.32024900  0.38503800  1
