# generated using pymatgen
data_Li9Mn2Co5O16
_symmetry_space_group_name_H-M   'P 1'
_cell_length_a   4.96259800
_cell_length_b   7.75719741
_cell_length_c   7.81875458
_cell_angle_alpha   98.18858269
_cell_angle_beta   101.23485295
_cell_angle_gamma   102.59813676
_symmetry_Int_Tables_number   1
_chemical_formula_structural   Li9Mn2Co5O16
_chemical_formula_sum   'Li9 Mn2 Co5 O16'
_cell_volume   282.68617969
_cell_formula_units_Z   1
loop_
 _symmetry_equiv_pos_site_id
 _symmetry_equiv_pos_as_xyz
  1  'x, y, z'
loop_
 _atom_site_type_symbol
 _atom_site_label
 _atom_site_symmetry_multiplicity
 _atom_site_fract_x
 _atom_site_fract_y
 _atom_site_fract_z
 _atom_site_occupancy
  Li  Li0  1  0.47796800  0.73874000  0.73714700  1
  Li  Li1  1  0.00017300  0.38386200  0.14071600  1
  Li  Li2  1  0.51516300  0.99328400  0.49961100  1
  Li  Li3  1  0.99765600  0.85546300  0.61505700  1
  Li  Li4  1  0.50273500  0.50546500  0.00663100  1
  Li  Li5  1  0.01560500  0.13421800  0.38670800  1
  Li  Li6  1  0.98928600  0.62044800  0.86432200  1
  Li  Li7  1  0.51263600  0.25988500  0.25951300  1
  Li  Li8  1  0.99705600  0.49635600  0.49812000  1
  Mn  Mn9  1  0.99699900  0.99964300  0.99403200  1
  Mn  Mn10  1  0.99972300  0.25500800  0.75012900  1
  Co  Co11  1  0.50084500  0.61683100  0.38285400  1
  Co  Co12  1  0.50115200  0.87770200  0.12195300  1
  Co  Co13  1  0.49717300  0.12611200  0.87246800  1
  Co  Co14  1  0.99943900  0.74828500  0.25866300  1
  Co  Co15  1  0.49030200  0.37642800  0.62258900  1
  O  O16  1  0.75102700  0.77257600  0.00424900  1
  O  O17  1  0.26459700  0.37288200  0.38151600  1
  O  O18  1  0.75957300  0.01744700  0.76872900  1
  O  O19  1  0.23990700  0.89653100  0.87210800  1
  O  O20  1  0.74032400  0.51151300  0.25070400  1
  O  O21  1  0.26538700  0.14419100  0.64808200  1
  O  O22  1  0.25411100  0.65160200  0.13116200  1
  O  O23  1  0.76102400  0.24972700  0.53102100  1
  O  O24  1  0.26480300  0.74851700  0.48738300  1
  O  O25  1  0.75366300  0.35362400  0.87212900  1
  O  O26  1  0.24633300  0.99555800  0.21880800  1
  O  O27  1  0.77075200  0.87395500  0.36729900  1
  O  O28  1  0.24845600  0.47902800  0.75615800  1
  O  O29  1  0.73088400  0.10825000  0.09883300  1
  O  O30  1  0.72047300  0.60589200  0.62104700  1
  O  O31  1  0.23477400  0.23097300  0.98025700  1
