# generated using pymatgen
data_Li9Mn2Co5O16
_symmetry_space_group_name_H-M   'P 1'
_cell_length_a   5.08425200
_cell_length_b   5.79119759
_cell_length_c   9.81183403
_cell_angle_alpha   97.99739262
_cell_angle_beta   96.31051714
_cell_angle_gamma   89.46064255
_symmetry_Int_Tables_number   1
_chemical_formula_structural   Li9Mn2Co5O16
_chemical_formula_sum   'Li9 Mn2 Co5 O16'
_cell_volume   284.35048032
_cell_formula_units_Z   1
loop_
 _symmetry_equiv_pos_site_id
 _symmetry_equiv_pos_as_xyz
  1  'x, y, z'
loop_
 _atom_site_type_symbol
 _atom_site_label
 _atom_site_symmetry_multiplicity
 _atom_site_fract_x
 _atom_site_fract_y
 _atom_site_fract_z
 _atom_site_occupancy
  Li  Li0  1  0.13899600  0.18163900  0.73348400  1
  Li  Li1  1  0.38114000  0.06114000  0.26708600  1
  Li  Li2  1  0.60136100  0.93360400  0.73252200  1
  Li  Li3  1  0.62761300  0.43276500  0.73792700  1
  Li  Li4  1  0.86975600  0.31669700  0.26275900  1
  Li  Li5  1  0.13466700  0.68677100  0.73005900  1
  Li  Li6  1  0.36756700  0.57070000  0.26674200  1
  Li  Li7  1  0.88912300  0.81399200  0.26719300  1
  Li  Li8  1  0.24906900  0.87445200  0.49955800  1
  Mn  Mn9  1  0.99954200  0.99520300  0.99848200  1
  Mn  Mn10  1  0.49931900  0.25188900  0.99984400  1
  Co  Co11  1  0.49983900  0.75110300  0.00184100  1
  Co  Co12  1  0.74093600  0.63088300  0.49694500  1
  Co  Co13  1  0.99882500  0.49744900  0.00041000  1
  Co  Co14  1  0.24989100  0.37483000  0.49927400  1
  Co  Co15  1  0.75950200  0.11794700  0.50380800  1
  O  O16  1  0.80492400  0.23011700  0.89429100  1
  O  O17  1  0.06581400  0.11595400  0.38622800  1
  O  O18  1  0.33691600  0.98505500  0.88021900  1
  O  O19  1  0.30465400  0.47035000  0.89206700  1
  O  O20  1  0.54773500  0.33856600  0.38992900  1
  O  O21  1  0.80541500  0.71995000  0.89781000  1
  O  O22  1  0.06810600  0.57823700  0.38656700  1
  O  O23  1  0.58574100  0.83398700  0.37801600  1
  O  O24  1  0.43073900  0.17282200  0.61124100  1
  O  O25  1  0.66260100  0.04017700  0.11775400  1
  O  O26  1  0.91474800  0.91853400  0.62468700  1
  O  O27  1  0.95255600  0.41256100  0.61141400  1
  O  O28  1  0.19209000  0.27463700  0.10403800  1
  O  O29  1  0.43558600  0.63249000  0.61258900  1
  O  O30  1  0.69448700  0.51667200  0.10973800  1
  O  O31  1  0.19074000  0.76882600  0.10547800  1
