# generated using pymatgen
data_Li9Co7O16
_symmetry_space_group_name_H-M   'P 1'
_cell_length_a   2.92947300
_cell_length_b   10.10492190
_cell_length_c   10.65746835
_cell_angle_alpha   113.67183449
_cell_angle_beta   96.31317624
_cell_angle_gamma   91.00675862
_symmetry_Int_Tables_number   1
_chemical_formula_structural   Li9Co7O16
_chemical_formula_sum   'Li9 Co7 O16'
_cell_volume   286.52557090
_cell_formula_units_Z   1
loop_
 _symmetry_equiv_pos_site_id
 _symmetry_equiv_pos_as_xyz
  1  'x, y, z'
loop_
 _atom_site_type_symbol
 _atom_site_label
 _atom_site_symmetry_multiplicity
 _atom_site_fract_x
 _atom_site_fract_y
 _atom_site_fract_z
 _atom_site_occupancy
  Li  Li0  1  0.12580600  0.68606000  0.24878000  1
  Li  Li1  1  0.88239400  0.81661700  0.75876900  1
  Li  Li2  1  0.61602700  0.93603300  0.24713300  1
  Li  Li3  1  0.63691900  0.43478100  0.25280000  1
  Li  Li4  1  0.36308100  0.56521900  0.74720000  1
  Li  Li5  1  0.11760600  0.18338300  0.24123100  1
  Li  Li6  1  0.87419400  0.31394000  0.75122000  1
  Li  Li7  1  0.38397300  0.06396700  0.75286700  1
  Li  Li8  1  0.50000000  0.00000000  0.00000000  1
  Co  Co9  1  0.99788700  0.76397600  0.00317200  1
  Co  Co10  1  0.00211300  0.23602400  0.99682800  1
  Co  Co11  1  0.75837600  0.87240500  0.49785200  1
  Co  Co12  1  0.24162400  0.12759500  0.50214800  1
  Co  Co13  1  0.74472000  0.37744200  0.50399800  1
  Co  Co14  1  0.50000000  0.50000000  0.00000000  1
  Co  Co15  1  0.25528000  0.62255800  0.49600200  1
  O  O16  1  0.57027100  0.70015100  0.10935600  1
  O  O17  1  0.33487500  0.83725400  0.61317000  1
  O  O18  1  0.05973100  0.95031100  0.12066200  1
  O  O19  1  0.03566100  0.46588000  0.10126000  1
  O  O20  1  0.80822900  0.58781500  0.61511700  1
  O  O21  1  0.57254700  0.22632000  0.11796800  1
  O  O22  1  0.29676700  0.34472400  0.61975500  1
  O  O23  1  0.81814200  0.09317500  0.61455400  1
  O  O24  1  0.70323300  0.65527600  0.38024500  1
  O  O25  1  0.42745300  0.77368000  0.88203200  1
  O  O26  1  0.18185800  0.90682500  0.38544600  1
  O  O27  1  0.19177100  0.41218500  0.38488300  1
  O  O28  1  0.96433900  0.53412000  0.89874000  1
  O  O29  1  0.66512500  0.16274600  0.38683000  1
  O  O30  1  0.42972900  0.29984900  0.89064400  1
  O  O31  1  0.94026900  0.04968900  0.87933800  1
