# generated using pymatgen
data_Li3Co2(CO3)4
_symmetry_space_group_name_H-M   'P 1'
_cell_length_a   5.41629845
_cell_length_b   6.35839910
_cell_length_c   16.16661588
_cell_angle_alpha   88.09228905
_cell_angle_beta   91.68238479
_cell_angle_gamma   114.77135931
_symmetry_Int_Tables_number   1
_chemical_formula_structural   Li3Co2(CO3)4
_chemical_formula_sum   'Li6 Co4 C8 O24'
_cell_volume   505.17951660
_cell_formula_units_Z   2
loop_
 _symmetry_equiv_pos_site_id
 _symmetry_equiv_pos_as_xyz
  1  'x, y, z'
loop_
 _atom_site_type_symbol
 _atom_site_label
 _atom_site_symmetry_multiplicity
 _atom_site_fract_x
 _atom_site_fract_y
 _atom_site_fract_z
 _atom_site_occupancy
  Li  Li0  1  0.62685000  0.95307500  0.15542600  1
  Li  Li1  1  0.13524400  0.95800200  0.65861400  1
  Li  Li2  1  0.17486700  0.05140900  0.33750300  1
  Li  Li3  1  0.67794000  0.05033000  0.83739200  1
  Li  Li4  1  0.16854100  0.52790500  0.42126300  1
  Li  Li5  1  0.66412600  0.52268900  0.92857600  1
  Co  Co6  1  0.63576800  0.00230300  0.50113800  1
  Co  Co7  1  0.12513300  0.51592800  0.73957000  1
  Co  Co8  1  0.13474300  0.99405700  0.00081900  1
  Co  Co9  1  0.58569600  0.50697100  0.24674200  1
  C  C10  1  0.77523300  0.61104300  0.10666000  1
  C  C11  1  0.28071100  0.61124800  0.60279300  1
  C  C12  1  0.22789000  0.12454300  0.14857600  1
  C  C13  1  0.74212500  0.12279000  0.64965300  1
  C  C14  1  0.61120100  0.88434900  0.34850600  1
  C  C15  1  0.11490700  0.87445800  0.84881900  1
  C  C16  1  0.66111200  0.39664300  0.39418800  1
  C  C17  1  0.13708800  0.38369500  0.89737600  1
  O  O18  1  0.87234500  0.65838900  0.03362500  1
  O  O19  1  0.36219500  0.66130600  0.52877900  1
  O  O20  1  0.54708700  0.61909900  0.12558200  1
  O  O21  1  0.04990000  0.60796800  0.62738100  1
  O  O22  1  0.99425700  0.08597800  0.11782300  1
  O  O23  1  0.50362800  0.08099700  0.62129600  1
  O  O24  1  0.39777900  0.08457000  0.10390800  1
  O  O25  1  0.90629300  0.08415600  0.60118500  1
  O  O26  1  0.29741500  0.19933500  0.22490100  1
  O  O27  1  0.82287800  0.19779400  0.72477700  1
  O  O28  1  0.89537700  0.55409400  0.16840900  1
  O  O29  1  0.41471200  0.56196100  0.66251900  1
  O  O30  1  0.61169600  0.81914600  0.27255700  1
  O  O31  1  0.12303900  0.81633600  0.77240100  1
  O  O32  1  0.42010600  0.38675900  0.37488100  1
  O  O33  1  0.89380900  0.36621800  0.88850600  1
  O  O34  1  0.82615600  0.94554600  0.39530100  1
  O  O35  1  0.32620100  0.93264100  0.89727400  1
  O  O36  1  0.84027700  0.47192800  0.33516200  1
  O  O37  1  0.30106200  0.45596500  0.83318000  1
  O  O38  1  0.39481000  0.88780600  0.37907500  1
  O  O39  1  0.89614400  0.87728000  0.87831600  1
  O  O40  1  0.72963700  0.33780700  0.46431500  1
  O  O41  1  0.24286500  0.33438700  0.96304600  1
