# generated using pymatgen
data_Li2Mg
_symmetry_space_group_name_H-M   'P 1'
_cell_length_a   8.07514677
_cell_length_b   8.07514677
_cell_length_c   5.03214200
_cell_angle_alpha   90.00000000
_cell_angle_beta   90.00000000
_cell_angle_gamma   158.19964530
_symmetry_Int_Tables_number   1
_chemical_formula_structural   Li2Mg
_chemical_formula_sum   'Li4 Mg2'
_cell_volume   121.86100214
_cell_formula_units_Z   2
loop_
 _symmetry_equiv_pos_site_id
 _symmetry_equiv_pos_as_xyz
  1  'x, y, z'
loop_
 _atom_site_type_symbol
 _atom_site_label
 _atom_site_symmetry_multiplicity
 _atom_site_fract_x
 _atom_site_fract_y
 _atom_site_fract_z
 _atom_site_occupancy
  Li  Li0  1  0.99950100  0.00049900  0.00000000  1
  Li  Li1  1  0.33329200  0.66670800  0.00000000  1
  Li  Li2  1  0.66660300  0.33339700  0.00000000  1
  Li  Li3  1  0.44442700  0.55557300  0.50000000  1
  Mg  Mg4  1  0.10982300  0.89017700  0.50000000  1
  Mg  Mg5  1  0.77968600  0.22031400  0.50000000  1
