# generated using pymatgen
data_Li13Mn2O9
_symmetry_space_group_name_H-M   'P 1'
_cell_length_a   5.68966218
_cell_length_b   10.03866097
_cell_length_c   8.22263745
_cell_angle_alpha   89.97964984
_cell_angle_beta   88.42229169
_cell_angle_gamma   89.99547323
_symmetry_Int_Tables_number   1
_chemical_formula_structural   Li13Mn2O9
_chemical_formula_sum   'Li26 Mn4 O18'
_cell_volume   469.47093535
_cell_formula_units_Z   2
loop_
 _symmetry_equiv_pos_site_id
 _symmetry_equiv_pos_as_xyz
  1  'x, y, z'
loop_
 _atom_site_type_symbol
 _atom_site_label
 _atom_site_symmetry_multiplicity
 _atom_site_fract_x
 _atom_site_fract_y
 _atom_site_fract_z
 _atom_site_occupancy
  Li  Li0  1  0.12777541  0.15220738  0.44236109  1
  Li  Li1  1  0.63876195  0.66395135  0.42370440  1
  Li  Li2  1  0.17601492  0.15141523  0.93975273  1
  Li  Li3  1  0.68468185  0.65687844  0.94498505  1
  Li  Li4  1  0.43616462  0.15294438  0.21689932  1
  Li  Li5  1  0.97042263  0.66739239  0.21513968  1
  Li  Li6  1  0.52084057  0.49564210  0.21335326  1
  Li  Li7  1  0.01732567  0.98246361  0.21591547  1
  Li  Li8  1  0.65122745  0.31044565  0.42114828  1
  Li  Li9  1  0.16383119  0.81516864  0.41719963  1
  Li  Li10  1  0.61952662  0.34607264  0.96471505  1
  Li  Li11  1  0.14577468  0.85498213  0.94453373  1
  Li  Li12  1  0.68238375  0.02443320  0.42861257  1
  Li  Li13  1  0.18699632  0.52434951  0.42193053  1
  Li  Li14  1  0.80694610  0.15201495  0.06800591  1
  Li  Li15  1  0.32218462  0.65870677  0.05952189  1
  Li  Li16  1  0.82179120  0.48413103  0.56991650  1
  Li  Li17  1  0.32102857  0.98571883  0.58626024  1
  Li  Li18  1  0.95407041  0.30822736  0.75088061  1
  Li  Li19  1  0.48577666  0.80908424  0.74666859  1
  Li  Li20  1  0.96926219  0.01255596  0.75116074  1
  Li  Li21  1  0.49349516  0.50822144  0.75126708  1
  Li  Li22  1  0.15055845  0.47255473  0.93635746  1
  Li  Li23  1  0.64816384  0.97058511  0.93410306  1
  Li  Li24  1  0.30242338  0.33512220  0.59058226  1
  Li  Li25  1  0.81547392  0.83810898  0.57411646  1
  Mn  Mn26  1  0.03600104  0.66261656  0.73487040  1
  Mn  Mn27  1  0.52118230  0.84952925  0.21736708  1
  Mn  Mn28  1  0.53224509  0.16326085  0.74230727  1
  Mn  Mn29  1  0.02393454  0.33869450  0.22365644  1
  O  O30  1  0.17447119  0.16249440  0.67575357  1
  O  O31  1  0.70694268  0.65974509  0.65444114  1
  O  O32  1  0.50058066  0.16163056  0.99102575  1
  O  O33  1  0.02133288  0.66167546  0.96741534  1
  O  O34  1  0.63818568  0.34422716  0.65546537  1
  O  O35  1  0.13625251  0.83566020  0.67170471  1
  O  O36  1  0.13126351  0.48648833  0.67736036  1
  O  O37  1  0.64380205  0.98065512  0.66481292  1
  O  O38  1  0.84860981  0.49186780  0.32711641  1
  O  O39  1  0.33071496  0.99772648  0.34878021  1
  O  O40  1  0.84782990  0.17476572  0.30704924  1
  O  O41  1  0.33774667  0.66795646  0.30693314  1
  O  O42  1  0.95951537  0.32069511  0.00204055  1
  O  O43  1  0.47987403  0.81328254  0.97889379  1
  O  O44  1  0.97050195  0.00626392  0.98753596  1
  O  O45  1  0.47485065  0.50655835  0.98583425  1
  O  O46  1  0.30113579  0.33317744  0.35095912  1
  O  O47  1  0.83583258  0.83030243  0.33971540  1
