# generated using pymatgen
data_LiSn(PO3)4
_symmetry_space_group_name_H-M   'P 1'
_cell_length_a   7.47092988
_cell_length_b   7.47092988
_cell_length_c   10.31946115
_cell_angle_alpha   66.46428735
_cell_angle_beta   66.46428735
_cell_angle_gamma   70.64849917
_symmetry_Int_Tables_number   1
_chemical_formula_structural   LiSn(PO3)4
_chemical_formula_sum   'Li2 Sn2 P8 O24'
_cell_volume   473.90161728
_cell_formula_units_Z   2
loop_
 _symmetry_equiv_pos_site_id
 _symmetry_equiv_pos_as_xyz
  1  'x, y, z'
loop_
 _atom_site_type_symbol
 _atom_site_label
 _atom_site_symmetry_multiplicity
 _atom_site_fract_x
 _atom_site_fract_y
 _atom_site_fract_z
 _atom_site_occupancy
  Li  Li0  1  0.00000000  0.50000000  0.50000000  1
  Li  Li1  1  0.50000000  0.00000000  0.00000000  1
  Sn  Sn2  1  0.04997000  0.95003000  0.25000000  1
  Sn  Sn3  1  0.95003000  0.04997000  0.75000000  1
  P  P4  1  0.70158100  0.68824400  0.80168900  1
  P  P5  1  0.26499100  0.71859100  0.97851100  1
  P  P6  1  0.28140900  0.73500900  0.52148900  1
  P  P7  1  0.68824400  0.70158100  0.30168900  1
  P  P8  1  0.31175600  0.29841900  0.69831100  1
  P  P9  1  0.71859100  0.26499100  0.47851100  1
  P  P10  1  0.73500900  0.28140900  0.02148900  1
  P  P11  1  0.29841900  0.31175600  0.19831100  1
  O  O12  1  0.80680100  0.65231000  0.65707500  1
  O  O13  1  0.29684500  0.80175200  0.07846500  1
  O  O14  1  0.46675100  0.69045500  0.84581100  1
  O  O15  1  0.09677400  0.82874100  0.91398400  1
  O  O16  1  0.87326800  0.71226300  0.32558500  1
  O  O17  1  0.23147700  0.49525500  0.06365900  1
  O  O18  1  0.80175200  0.29684500  0.57846500  1
  O  O19  1  0.17125900  0.90322600  0.58601600  1
  O  O20  1  0.50474500  0.76852300  0.43634100  1
  O  O21  1  0.65231000  0.80680100  0.15707500  1
  O  O22  1  0.30954500  0.53324900  0.65418900  1
  O  O23  1  0.28773700  0.12673200  0.17441500  1
  O  O24  1  0.71226300  0.87326800  0.82558500  1
  O  O25  1  0.69045500  0.46675100  0.34581100  1
  O  O26  1  0.34769000  0.19319900  0.84292500  1
  O  O27  1  0.49525500  0.23147700  0.56365900  1
  O  O28  1  0.82874100  0.09677400  0.41398400  1
  O  O29  1  0.19824800  0.70315500  0.42153500  1
  O  O30  1  0.76852300  0.50474500  0.93634100  1
  O  O31  1  0.12673200  0.28773700  0.67441500  1
  O  O32  1  0.90322600  0.17125900  0.08601600  1
  O  O33  1  0.53324900  0.30954500  0.15418900  1
  O  O34  1  0.70315500  0.19824800  0.92153500  1
  O  O35  1  0.19319900  0.34769000  0.34292500  1
