# generated using pymatgen
data_Li8CoO5F
_symmetry_space_group_name_H-M   'P 1'
_cell_length_a   5.44128272
_cell_length_b   5.76753228
_cell_length_c   8.62255652
_cell_angle_alpha   81.75595730
_cell_angle_beta   84.83209125
_cell_angle_gamma   92.52430310
_symmetry_Int_Tables_number   1
_chemical_formula_structural   Li8CoO5F
_chemical_formula_sum   'Li16 Co2 O10 F2'
_cell_volume   266.26910208
_cell_formula_units_Z   2
loop_
 _symmetry_equiv_pos_site_id
 _symmetry_equiv_pos_as_xyz
  1  'x, y, z'
loop_
 _atom_site_type_symbol
 _atom_site_label
 _atom_site_symmetry_multiplicity
 _atom_site_fract_x
 _atom_site_fract_y
 _atom_site_fract_z
 _atom_site_occupancy
  Li  Li0  1  0.33844900  0.24101700  0.13061000  1
  Li  Li1  1  0.85745700  0.72762400  0.62279200  1
  Li  Li2  1  0.16852200  0.60149600  0.06258500  1
  Li  Li3  1  0.66419100  0.09063600  0.56784100  1
  Li  Li4  1  0.67631000  0.44595900  0.20784000  1
  Li  Li5  1  0.20069700  0.93673300  0.69954700  1
  Li  Li6  1  0.49938900  0.15228500  0.87921800  1
  Li  Li7  1  0.01086900  0.66132500  0.36220200  1
  Li  Li8  1  0.51868900  0.82463100  0.13953000  1
  Li  Li9  1  0.02389500  0.31695100  0.64490800  1
  Li  Li10  1  0.30920700  0.55140000  0.78623000  1
  Li  Li11  1  0.79837900  0.05558400  0.28435200  1
  Li  Li12  1  0.84047500  0.41219400  0.95606800  1
  Li  Li13  1  0.34927000  0.91385200  0.44190300  1
  Li  Li14  1  0.64303700  0.76843800  0.87326500  1
  Li  Li15  1  0.13735900  0.28161700  0.37913100  1
  Co  Co16  1  0.99028200  0.99884500  0.96083600  1
  Co  Co17  1  0.49385100  0.49938600  0.47540400  1
  O  O18  1  0.33352900  0.52500800  0.24812700  1
  O  O19  1  0.85494500  0.00700100  0.74956500  1
  O  O20  1  0.16254700  0.29484200  0.94240800  1
  O  O21  1  0.67092000  0.79841700  0.44375600  1
  O  O22  1  0.66601700  0.15528400  0.08626300  1
  O  O23  1  0.19421300  0.64412700  0.57928000  1
  O  O24  1  0.31500600  0.84022600  0.90127400  1
  O  O25  1  0.79740500  0.35217500  0.41454600  1
  O  O26  1  0.83681100  0.70444000  0.05556100  1
  O  O27  1  0.33505100  0.19911000  0.55255200  1
  F  F28  1  0.66572300  0.49253300  0.77555700  1
  F  F29  1  0.14750500  0.00686300  0.27684600  1
