# generated using pymatgen
data_Li9Mn2Co5O16
_symmetry_space_group_name_H-M   'P 1'
_cell_length_a   2.96188600
_cell_length_b   6.52280678
_cell_length_c   15.47309513
_cell_angle_alpha   88.11956008
_cell_angle_beta   87.64280562
_cell_angle_gamma   77.07688815
_symmetry_Int_Tables_number   1
_chemical_formula_structural   Li9Mn2Co5O16
_chemical_formula_sum   'Li9 Mn2 Co5 O16'
_cell_volume   291.03334254
_cell_formula_units_Z   1
loop_
 _symmetry_equiv_pos_site_id
 _symmetry_equiv_pos_as_xyz
  1  'x, y, z'
loop_
 _atom_site_type_symbol
 _atom_site_label
 _atom_site_symmetry_multiplicity
 _atom_site_fract_x
 _atom_site_fract_y
 _atom_site_fract_z
 _atom_site_occupancy
  Li  Li0  1  0.93610800  0.12489500  0.81173900  1
  Li  Li1  1  0.18605800  0.62521000  0.56132900  1
  Li  Li2  1  0.44344100  0.12639800  0.31444200  1
  Li  Li3  1  0.55908200  0.87560100  0.68687600  1
  Li  Li4  1  0.80320700  0.38348100  0.43782400  1
  Li  Li5  1  0.07066300  0.86034700  0.18900200  1
  Li  Li6  1  0.70131000  0.62142800  0.06967600  1
  Li  Li7  1  0.30369900  0.37907900  0.93367400  1
  Li  Li8  1  0.73199000  0.51055800  0.24657800  1
  Mn  Mn9  1  0.00507400  0.99891200  0.00059800  1
  Mn  Mn10  1  0.37690000  0.25908200  0.12984200  1
  Co  Co11  1  0.24500800  0.49376300  0.74917100  1
  Co  Co12  1  0.50376800  0.99963100  0.49845000  1
  Co  Co13  1  0.87774800  0.24275300  0.62506400  1
  Co  Co14  1  0.12587100  0.74225200  0.37028100  1
  Co  Co15  1  0.62727500  0.75192400  0.87295900  1
  O  O16  1  0.43895400  0.05897500  0.91141800  1
  O  O17  1  0.70739700  0.54587500  0.65979600  1
  O  O18  1  0.98689500  0.03885900  0.40702300  1
  O  O19  1  0.08197000  0.80330500  0.78666500  1
  O  O20  1  0.36123500  0.29364400  0.53292200  1
  O  O21  1  0.55915300  0.81223900  0.28947100  1
  O  O22  1  0.22642600  0.54120700  0.15288900  1
  O  O23  1  0.87323200  0.29679300  0.04205700  1
  O  O24  1  0.39034800  0.19292200  0.71386200  1
  O  O25  1  0.68145100  0.70759700  0.46591000  1
  O  O26  1  0.89183000  0.19610100  0.20848200  1
  O  O27  1  0.02630800  0.94924100  0.59068800  1
  O  O28  1  0.26317900  0.47187400  0.35040500  1
  O  O29  1  0.56383800  0.95276200  0.09146800  1
  O  O30  1  0.16787300  0.69787300  0.96153900  1
  O  O31  1  0.78271300  0.44542000  0.83789700  1
