# generated using pymatgen
data_Li2MoO4
_symmetry_space_group_name_H-M   'P 1'
_cell_length_a   14.55632368
_cell_length_b   14.55632368
_cell_length_c   9.72563500
_cell_angle_alpha   90.00000000
_cell_angle_beta   90.00000000
_cell_angle_gamma   119.99999854
_symmetry_Int_Tables_number   1
_chemical_formula_structural   Li2MoO4
_chemical_formula_sum   'Li36 Mo18 O72'
_cell_volume   1784.64571260
_cell_formula_units_Z   18
loop_
 _symmetry_equiv_pos_site_id
 _symmetry_equiv_pos_as_xyz
  1  'x, y, z'
loop_
 _atom_site_type_symbol
 _atom_site_label
 _atom_site_symmetry_multiplicity
 _atom_site_fract_x
 _atom_site_fract_y
 _atom_site_fract_z
 _atom_site_occupancy
  Li  Li0  1  0.81063700  0.45397800  0.56470000  1
  Li  Li1  1  0.54602200  0.35665900  0.23136600  1
  Li  Li2  1  0.64334100  0.18936300  0.89803300  1
  Li  Li3  1  0.64814400  0.19304400  0.56858800  1
  Li  Li4  1  0.80695600  0.45510000  0.23525400  1
  Li  Li5  1  0.54490000  0.35185600  0.90192100  1
  Li  Li6  1  0.97412600  0.85637200  0.56526500  1
  Li  Li7  1  0.14362800  0.11775400  0.23193200  1
  Li  Li8  1  0.88224600  0.02587400  0.89859900  1
  Li  Li9  1  0.21036100  0.68693800  0.56429200  1
  Li  Li10  1  0.31306200  0.52342300  0.23095800  1
  Li  Li11  1  0.47657700  0.78963900  0.89762500  1
  Li  Li12  1  0.88022800  0.02161600  0.56900400  1
  Li  Li13  1  0.97838400  0.85861200  0.23567100  1
  Li  Li14  1  0.14138800  0.11977200  0.90233700  1
  Li  Li15  1  0.47303400  0.78880600  0.57022200  1
  Li  Li16  1  0.21119400  0.68422800  0.23688900  1
  Li  Li17  1  0.31577200  0.52696600  0.90355600  1
  Li  Li18  1  0.85477800  0.20869300  0.39525400  1
  Li  Li19  1  0.79130700  0.64608500  0.06192100  1
  Li  Li20  1  0.35391500  0.14522200  0.72858700  1
  Li  Li21  1  0.35799400  0.14152400  0.39969400  1
  Li  Li22  1  0.85847600  0.21646900  0.06636100  1
  Li  Li23  1  0.78353100  0.64200600  0.73302700  1
  Li  Li24  1  0.45364300  0.98097900  0.39994700  1
  Li  Li25  1  0.01902100  0.47266400  0.06661400  1
  Li  Li26  1  0.52733600  0.54635700  0.73328000  1
  Li  Li27  1  0.52292400  0.54783600  0.40219300  1
  Li  Li28  1  0.45216400  0.97508800  0.06886000  1
  Li  Li29  1  0.02491200  0.47707600  0.73552700  1
  Li  Li30  1  0.12339200  0.31196400  0.39946000  1
  Li  Li31  1  0.68803600  0.81142800  0.06612600  1
  Li  Li32  1  0.18857200  0.87660800  0.73279300  1
  Li  Li33  1  0.68658600  0.80909200  0.39818800  1
  Li  Li34  1  0.19090800  0.87749400  0.06485500  1
  Li  Li35  1  0.12250600  0.31341400  0.73152100  1
  Mo  Mo36  1  0.54981700  0.35447800  0.56452100  1
  Mo  Mo37  1  0.64552200  0.19534000  0.23118700  1
  Mo  Mo38  1  0.80466000  0.45018300  0.89785400  1
  Mo  Mo39  1  0.13788800  0.11929100  0.56686900  1
  Mo  Mo40  1  0.88070900  0.01859700  0.23353600  1
  Mo  Mo41  1  0.98140300  0.86211200  0.90020300  1
  Mo  Mo42  1  0.31620900  0.52950900  0.56838500  1
  Mo  Mo43  1  0.47049100  0.78670000  0.23505200  1
  Mo  Mo44  1  0.21330000  0.68379100  0.90171900  1
  Mo  Mo45  1  0.01798500  0.47028300  0.39952300  1
  Mo  Mo46  1  0.52971700  0.54770200  0.06619000  1
  Mo  Mo47  1  0.45229800  0.98201500  0.73285600  1
  Mo  Mo48  1  0.19303000  0.87987500  0.39909400  1
  Mo  Mo49  1  0.12012500  0.31315500  0.06576100  1
  Mo  Mo50  1  0.68684500  0.80697000  0.73242700  1
  Mo  Mo51  1  0.78333600  0.64725900  0.39683700  1
  Mo  Mo52  1  0.35274100  0.13607700  0.06350400  1
  Mo  Mo53  1  0.86392300  0.21666400  0.73017000  1
  O  O54  1  0.33060600  0.65960700  0.56785100  1
  O  O55  1  0.34039300  0.67099900  0.23451800  1
  O  O56  1  0.32900100  0.66939400  0.90118400  1
  O  O57  1  0.66312900  0.33654000  0.56581800  1
  O  O58  1  0.66346000  0.32658900  0.23248500  1
  O  O59  1  0.67341100  0.33687100  0.89915100  1
  O  O60  1  0.00721300  0.00527900  0.57000400  1
  O  O61  1  0.99472100  0.00193400  0.23667100  1
  O  O62  1  0.99806600  0.99278700  0.90333800  1
  O  O63  1  0.89833500  0.77744300  0.39931900  1
  O  O64  1  0.22255700  0.12089100  0.06598500  1
  O  O65  1  0.87910900  0.10166500  0.73265200  1
  O  O66  1  0.88991100  0.46072600  0.39898700  1
  O  O67  1  0.53927400  0.42918500  0.06565400  1
  O  O68  1  0.57081500  0.11008900  0.73232000  1
  O  O69  1  0.54080400  0.78886100  0.38824200  1
  O  O70  1  0.21113900  0.75194400  0.05490900  1
  O  O71  1  0.24805600  0.45919600  0.72157500  1
  O  O72  1  0.20621700  0.76335500  0.39902500  1
  O  O73  1  0.23664500  0.44286300  0.06569200  1
  O  O74  1  0.55713700  0.79378300  0.73235900  1
  O  O75  1  0.87597100  0.08458500  0.38767600  1
  O  O76  1  0.91541500  0.79138500  0.05434200  1
  O  O77  1  0.20861500  0.12402900  0.72100900  1
  O  O78  1  0.57896300  0.12641500  0.38612800  1
  O  O79  1  0.87358500  0.45254700  0.05279500  1
  O  O80  1  0.54745300  0.42103700  0.71946100  1
  O  O81  1  0.54919900  0.42514200  0.41226900  1
  O  O82  1  0.57485800  0.12405600  0.07893500  1
  O  O83  1  0.87594400  0.45080100  0.74560200  1
  O  O84  1  0.24961500  0.45878000  0.41401800  1
  O  O85  1  0.54122000  0.79083500  0.08068500  1
  O  O86  1  0.20916500  0.75038500  0.74735100  1
  O  O87  1  0.20934200  0.12015900  0.41482300  1
  O  O88  1  0.87984100  0.08918200  0.08148900  1
  O  O89  1  0.91081800  0.79065800  0.74815600  1
  O  O90  1  0.67012800  0.66535900  0.39854400  1
  O  O91  1  0.33464100  0.00476900  0.06521100  1
  O  O92  1  0.99523100  0.32987200  0.73187800  1
  O  O93  1  0.32456300  0.99297900  0.39722700  1
  O  O94  1  0.00702100  0.33158400  0.06389400  1
  O  O95  1  0.66841600  0.67543700  0.73056100  1
  O  O96  1  0.99939200  0.33887800  0.39802500  1
  O  O97  1  0.66112200  0.66051400  0.06469200  1
  O  O98  1  0.33948600  0.00060800  0.73135900  1
  O  O99  1  0.12272300  0.23458200  0.56484300  1
  O  O100  1  0.76541800  0.88814100  0.23151000  1
  O  O101  1  0.11185900  0.87727700  0.89817600  1
  O  O102  1  0.43397000  0.22458700  0.56204000  1
  O  O103  1  0.77541300  0.20938300  0.22870700  1
  O  O104  1  0.79061700  0.56603000  0.89537300  1
  O  O105  1  0.12341400  0.87916600  0.55274900  1
  O  O106  1  0.12083400  0.24424800  0.21941500  1
  O  O107  1  0.75575200  0.87658600  0.88608200  1
  O  O108  1  0.44701500  0.54598000  0.57053000  1
  O  O109  1  0.45402000  0.90103500  0.23719700  1
  O  O110  1  0.09896500  0.55298500  0.90386300  1
  O  O111  1  0.78437900  0.57724600  0.54938800  1
  O  O112  1  0.42275400  0.20713300  0.21605500  1
  O  O113  1  0.79286700  0.21562100  0.88272200  1
  O  O114  1  0.79420000  0.21351600  0.57527500  1
  O  O115  1  0.78648400  0.58068400  0.24194100  1
  O  O116  1  0.41931600  0.20580000  0.90860800  1
  O  O117  1  0.08773100  0.54027700  0.55268300  1
  O  O118  1  0.45972300  0.54745400  0.21934900  1
  O  O119  1  0.45254600  0.91226900  0.88601600  1
  O  O120  1  0.45194600  0.91253800  0.57945600  1
  O  O121  1  0.08746200  0.53940800  0.24612300  1
  O  O122  1  0.46059200  0.54805400  0.91278900  1
  O  O123  1  0.75598900  0.87687100  0.57955800  1
  O  O124  1  0.12312900  0.87911800  0.24622500  1
  O  O125  1  0.12088200  0.24401100  0.91289100  1
