# generated using pymatgen
data_Li2ScTl
_symmetry_space_group_name_H-M   'P 1'
_cell_length_a   14.15365149
_cell_length_b   14.15365149
_cell_length_c   14.15365149
_cell_angle_alpha   124.75863446
_cell_angle_beta   118.13211769
_cell_angle_gamma   87.61426670
_symmetry_Int_Tables_number   1
_chemical_formula_structural   Li2ScTl
_chemical_formula_sum   'Li2 Sc1 Tl1'
_cell_volume   1950.60717291
_cell_formula_units_Z   1
loop_
 _symmetry_equiv_pos_site_id
 _symmetry_equiv_pos_as_xyz
  1  'x, y, z'
loop_
 _atom_site_type_symbol
 _atom_site_label
 _atom_site_symmetry_multiplicity
 _atom_site_fract_x
 _atom_site_fract_y
 _atom_site_fract_z
 _atom_site_occupancy
  Li  Li0  1  0.00000000  0.25823300  0.25823300  1
  Li  Li1  1  0.00000000  0.74176700  0.74176700  1
  Sc  Sc2  1  0.00000000  0.00000000  0.00000000  1
  Tl  Tl3  1  0.00000000  0.50000000  0.50000000  1
