# generated using pymatgen
data_Li12Mn7V(PO4)12
_symmetry_space_group_name_H-M   'P 1'
_cell_length_a   8.63947300
_cell_length_b   8.73647120
_cell_length_c   12.30209259
_cell_angle_alpha   89.60200761
_cell_angle_beta   87.67833025
_cell_angle_gamma   89.35522066
_symmetry_Int_Tables_number   1
_chemical_formula_structural   Li12Mn7V(PO4)12
_chemical_formula_sum   'Li12 Mn7 V1 P12 O48'
_cell_volume   927.70306024
_cell_formula_units_Z   1
loop_
 _symmetry_equiv_pos_site_id
 _symmetry_equiv_pos_as_xyz
  1  'x, y, z'
loop_
 _atom_site_type_symbol
 _atom_site_label
 _atom_site_symmetry_multiplicity
 _atom_site_fract_x
 _atom_site_fract_y
 _atom_site_fract_z
 _atom_site_occupancy
  Li  Li0  1  0.91946800  0.08145500  0.69615000  1
  Li  Li1  1  0.92003700  0.69662900  0.76011500  1
  Li  Li2  1  0.79236600  0.78193500  0.17387100  1
  Li  Li3  1  0.70947400  0.27866700  0.32659600  1
  Li  Li4  1  0.57688100  0.19365700  0.73856300  1
  Li  Li5  1  0.57684600  0.58465200  0.80310400  1
  Li  Li6  1  0.42111200  0.41925300  0.19809500  1
  Li  Li7  1  0.41986800  0.80487900  0.26320500  1
  Li  Li8  1  0.29225400  0.71851700  0.67188200  1
  Li  Li9  1  0.20654000  0.21698300  0.82774100  1
  Li  Li10  1  0.08342800  0.30567500  0.23713500  1
  Li  Li11  1  0.08134400  0.91809300  0.30305000  1
  Mn  Mn12  1  0.74694700  0.03754600  0.89815200  1
  Mn  Mn13  1  0.75201900  0.45873000  0.11008300  1
  Mn  Mn14  1  0.74879100  0.95762100  0.39089900  1
  Mn  Mn15  1  0.25198300  0.04015500  0.60884100  1
  Mn  Mn16  1  0.24744600  0.54289400  0.89010700  1
  Mn  Mn17  1  0.25245200  0.96279100  0.10174100  1
  Mn  Mn18  1  0.24877000  0.46295700  0.39799600  1
  V  V19  1  0.75200000  0.53143600  0.60743000  1
  P  P20  1  0.96513500  0.24980600  0.49352500  1
  P  P21  1  0.89394700  0.38337100  0.85504800  1
  P  P22  1  0.89993200  0.09870900  0.15473600  1
  P  P23  1  0.60295100  0.59840400  0.34762700  1
  P  P24  1  0.60259500  0.88582200  0.64116900  1
  P  P25  1  0.53973000  0.75245000  0.00518900  1
  P  P26  1  0.45997500  0.24914100  0.99607700  1
  P  P27  1  0.39778900  0.11599700  0.35962600  1
  P  P28  1  0.39522400  0.39991200  0.65701700  1
  P  P29  1  0.09980100  0.90080000  0.84488700  1
  P  P30  1  0.10508000  0.61717800  0.14082300  1
  P  P31  1  0.03921000  0.74682700  0.50501900  1
  O  O32  1  0.95213300  0.86519100  0.43374100  1
  O  O33  1  0.91788300  0.89281600  0.84958800  1
  O  O34  1  0.92942700  0.67859400  0.59572800  1
  O  O35  1  0.92958800  0.59619800  0.16694400  1
  O  O36  1  0.89807300  0.36764400  0.57530700  1
  O  O37  1  0.85634100  0.21421800  0.82244600  1
  O  O38  1  0.85633000  0.40465200  0.97758200  1
  O  O39  1  0.85957500  0.97656200  0.24672500  1
  O  O40  1  0.84963500  0.26108800  0.19292400  1
  O  O41  1  0.83315500  0.17496600  0.43447800  1
  O  O42  1  0.82955900  0.04393300  0.05235300  1
  O  O43  1  0.80165500  0.50189500  0.78640200  1
  O  O44  1  0.69521900  0.00559300  0.70250800  1
  O  O45  1  0.67391000  0.54537200  0.45197500  1
  O  O46  1  0.67174400  0.67515300  0.06606700  1
  O  O47  1  0.65098400  0.75879100  0.30606100  1
  O  O48  1  0.63525400  0.89712000  0.51728000  1
  O  O49  1  0.63945000  0.71785600  0.67871800  1
  O  O50  1  0.64474900  0.47512800  0.25629200  1
  O  O51  1  0.60461600  0.87276600  0.92365600  1
  O  O52  1  0.56969300  0.17998000  0.90411100  1
  O  O53  1  0.57646300  0.39214700  0.65190000  1
  O  O54  1  0.57470500  0.09354200  0.33394400  1
  O  O55  1  0.54588100  0.36318800  0.06747500  1
  O  O56  1  0.45444500  0.63764600  0.93456500  1
  O  O57  1  0.42525000  0.90838200  0.66617300  1
  O  O58  1  0.42078100  0.60514500  0.35139000  1
  O  O59  1  0.42981500  0.82193600  0.09693000  1
  O  O60  1  0.39492500  0.12796500  0.07672100  1
  O  O61  1  0.35754600  0.52439200  0.74817700  1
  O  O62  1  0.36108800  0.28531800  0.32274300  1
  O  O63  1  0.36585600  0.10539800  0.48343400  1
  O  O64  1  0.34574900  0.23983600  0.69746600  1
  O  O65  1  0.32730600  0.32739100  0.93606200  1
  O  O66  1  0.32378500  0.45768700  0.55470500  1
  O  O67  1  0.30467300  0.99685300  0.29807500  1
  O  O68  1  0.20010100  0.49662800  0.20279400  1
  O  O69  1  0.17097900  0.95660900  0.94697200  1
  O  O70  1  0.17326900  0.82129900  0.56195600  1
  O  O71  1  0.15107100  0.73877800  0.80609300  1
  O  O72  1  0.13878900  0.02223800  0.75244900  1
  O  O73  1  0.13570600  0.60429100  0.01667900  1
  O  O74  1  0.14256400  0.78573100  0.17627500  1
  O  O75  1  0.10163400  0.62718600  0.42146000  1
  O  O76  1  0.06933200  0.40369700  0.83149800  1
  O  O77  1  0.07420500  0.32053900  0.40255500  1
  O  O78  1  0.08191900  0.10623400  0.15068400  1
  O  O79  1  0.05179400  0.13148800  0.56444300  1
