# generated using pymatgen
data_Li2HN
_symmetry_space_group_name_H-M   'P 1'
_cell_length_a   7.15534386
_cell_length_b   7.15534386
_cell_length_c   7.15534386
_cell_angle_alpha   120.46110672
_cell_angle_beta   120.32591767
_cell_angle_gamma   89.31979794
_symmetry_Int_Tables_number   1
_chemical_formula_structural   Li2HN
_chemical_formula_sum   'Li16 H8 N8'
_cell_volume   257.48487293
_cell_formula_units_Z   8
loop_
 _symmetry_equiv_pos_site_id
 _symmetry_equiv_pos_as_xyz
  1  'x, y, z'
loop_
 _atom_site_type_symbol
 _atom_site_label
 _atom_site_symmetry_multiplicity
 _atom_site_fract_x
 _atom_site_fract_y
 _atom_site_fract_z
 _atom_site_occupancy
  Li  Li0  1  0.85597200  0.11442700  0.75845500  1
  Li  Li1  1  0.14402800  0.90248300  0.25845500  1
  Li  Li2  1  0.62974900  0.88524700  0.75549800  1
  Li  Li3  1  0.13216700  0.38461000  0.75244300  1
  Li  Li4  1  0.12137800  0.35461600  0.24439400  1
  Li  Li5  1  0.60494100  0.88427500  0.26042100  1
  Li  Li6  1  0.12385400  0.88427500  0.77933400  1
  Li  Li7  1  0.61022300  0.35461600  0.73323800  1
  Li  Li8  1  0.37025100  0.12574900  0.25549800  1
  Li  Li9  1  0.86783300  0.62027600  0.25244300  1
  Li  Li10  1  0.87614600  0.65548000  0.76042100  1
  Li  Li11  1  0.38977700  0.12301600  0.74439400  1
  Li  Li12  1  0.87862200  0.12301600  0.23323800  1
  Li  Li13  1  0.39505900  0.65548000  0.27933400  1
  Li  Li14  1  0.99398400  0.00300600  0.50902200  1
  Li  Li15  1  0.00601600  0.51503700  0.00902200  1
  H  H16  1  0.69882300  0.31361100  0.11478800  1
  H  H17  1  0.70403100  0.59859600  0.39456500  1
  H  H18  1  0.38616400  0.30062800  0.08656600  1
  H  H19  1  0.71406200  0.30062800  0.41446400  1
  H  H20  1  0.29596900  0.69053400  0.89456500  1
  H  H21  1  0.30117700  0.41596400  0.61478800  1
  H  H22  1  0.61383600  0.70040200  0.91446400  1
  H  H23  1  0.28593800  0.70040200  0.58656600  1
  N  N24  1  0.75702200  0.25236700  0.99534500  1
  N  N25  1  0.76106500  0.77628300  0.51521900  1
  N  N26  1  0.20847200  0.24197800  0.97054100  1
  N  N27  1  0.77143700  0.24197800  0.53350700  1
  N  N28  1  0.23893500  0.75415400  0.01521900  1
  N  N29  1  0.24297800  0.23832400  0.49534500  1
  N  N30  1  0.79152900  0.76207000  0.03350700  1
  N  N31  1  0.22856300  0.76207000  0.47054100  1
