# generated using pymatgen
data_SrLiTi3Cr2O11
_symmetry_space_group_name_H-M   'P 1'
_cell_length_a   5.81208000
_cell_length_b   9.96145200
_cell_length_c   13.89753700
_cell_angle_alpha   90.00000000
_cell_angle_beta   90.00000000
_cell_angle_gamma   90.00000000
_symmetry_Int_Tables_number   1
_chemical_formula_structural   SrLiTi3Cr2O11
_chemical_formula_sum   'Sr4 Li4 Ti12 Cr8 O44'
_cell_volume   804.62230786
_cell_formula_units_Z   4
loop_
 _symmetry_equiv_pos_site_id
 _symmetry_equiv_pos_as_xyz
  1  'x, y, z'
loop_
 _atom_site_type_symbol
 _atom_site_label
 _atom_site_symmetry_multiplicity
 _atom_site_fract_x
 _atom_site_fract_y
 _atom_site_fract_z
 _atom_site_occupancy
  Sr  Sr0  1  0.25000000  0.60301700  0.59545300  1
  Sr  Sr1  1  0.75000000  0.39698300  0.40454700  1
  Sr  Sr2  1  0.75000000  0.10301700  0.90454700  1
  Sr  Sr3  1  0.25000000  0.89698300  0.09545300  1
  Li  Li4  1  0.25000000  0.57893100  0.04020400  1
  Li  Li5  1  0.75000000  0.42106900  0.95979600  1
  Li  Li6  1  0.75000000  0.07893100  0.45979600  1
  Li  Li7  1  0.25000000  0.92106900  0.54020400  1
  Ti  Ti8  1  0.25000000  0.22990300  0.00233400  1
  Ti  Ti9  1  0.75000000  0.77009700  0.99766600  1
  Ti  Ti10  1  0.75000000  0.72990300  0.49766600  1
  Ti  Ti11  1  0.25000000  0.27009700  0.50233400  1
  Ti  Ti12  1  0.25000000  0.56838600  0.33250900  1
  Ti  Ti13  1  0.75000000  0.43161400  0.66749100  1
  Ti  Ti14  1  0.75000000  0.06838600  0.16749100  1
  Ti  Ti15  1  0.25000000  0.93161400  0.83250900  1
  Ti  Ti16  1  0.25000000  0.10864800  0.33230900  1
  Ti  Ti17  1  0.75000000  0.89135200  0.66769100  1
  Ti  Ti18  1  0.75000000  0.60864800  0.16769100  1
  Ti  Ti19  1  0.25000000  0.39135200  0.83230900  1
  Cr  Cr20  1  0.00148100  0.33599400  0.17185900  1
  Cr  Cr21  1  0.99851900  0.66400600  0.82814100  1
  Cr  Cr22  1  0.99851900  0.83599400  0.32814100  1
  Cr  Cr23  1  0.50148100  0.66400600  0.82814100  1
  Cr  Cr24  1  0.00148100  0.16400600  0.67185900  1
  Cr  Cr25  1  0.49851900  0.33599400  0.17185900  1
  Cr  Cr26  1  0.49851900  0.16400600  0.67185900  1
  Cr  Cr27  1  0.50148100  0.83599400  0.32814100  1
  O  O28  1  0.25000000  0.44018500  0.43489000  1
  O  O29  1  0.75000000  0.55981500  0.56511000  1
  O  O30  1  0.75000000  0.94018500  0.06511000  1
  O  O31  1  0.25000000  0.05981500  0.93489000  1
  O  O32  1  0.25000000  0.39647700  0.08680200  1
  O  O33  1  0.75000000  0.60352300  0.91319800  1
  O  O34  1  0.75000000  0.89647700  0.41319800  1
  O  O35  1  0.25000000  0.10352300  0.58680200  1
  O  O36  1  0.02745900  0.18370400  0.41388000  1
  O  O37  1  0.97254100  0.81629600  0.58612000  1
  O  O38  1  0.97254100  0.68370400  0.08612000  1
  O  O39  1  0.52745900  0.81629600  0.58612000  1
  O  O40  1  0.02745900  0.31629600  0.91388000  1
  O  O41  1  0.47254100  0.18370400  0.41388000  1
  O  O42  1  0.47254100  0.31629600  0.91388000  1
  O  O43  1  0.52745900  0.68370400  0.08612000  1
  O  O44  1  0.25000000  0.92783200  0.39689600  1
  O  O45  1  0.75000000  0.07216800  0.60310400  1
  O  O46  1  0.75000000  0.42783200  0.10310400  1
  O  O47  1  0.25000000  0.57216800  0.89689600  1
  O  O48  1  0.50525100  0.17347700  0.08621000  1
  O  O49  1  0.49474900  0.82652300  0.91379000  1
  O  O50  1  0.49474900  0.67347700  0.41379000  1
  O  O51  1  0.00525100  0.82652300  0.91379000  1
  O  O52  1  0.50525100  0.32652300  0.58621000  1
  O  O53  1  0.99474900  0.17347700  0.08621000  1
  O  O54  1  0.99474900  0.32652300  0.58621000  1
  O  O55  1  0.00525100  0.67347700  0.41379000  1
  O  O56  1  0.25000000  0.74888300  0.26091900  1
  O  O57  1  0.75000000  0.25111700  0.73908100  1
  O  O58  1  0.75000000  0.24888300  0.23908100  1
  O  O59  1  0.25000000  0.75111700  0.76091900  1
  O  O60  1  0.25000000  0.25437200  0.24493500  1
  O  O61  1  0.75000000  0.74562800  0.75506500  1
  O  O62  1  0.75000000  0.75437200  0.25506500  1
  O  O63  1  0.25000000  0.24562800  0.74493500  1
  O  O64  1  0.99984900  0.99955700  0.24373500  1
  O  O65  1  0.00015100  0.00044300  0.75626500  1
  O  O66  1  0.00015100  0.49955700  0.25626500  1
  O  O67  1  0.49984900  0.00044300  0.75626500  1
  O  O68  1  0.99984900  0.50044300  0.74373500  1
  O  O69  1  0.50015100  0.99955700  0.24373500  1
  O  O70  1  0.50015100  0.50044300  0.74373500  1
  O  O71  1  0.49984900  0.49955700  0.25626500  1
