# generated using pymatgen
data_Li9Mn2Co5O16
_symmetry_space_group_name_H-M   'P 1'
_cell_length_a   4.99287300
_cell_length_b   5.95130242
_cell_length_c   9.82646769
_cell_angle_alpha   99.16741551
_cell_angle_beta   93.58221618
_cell_angle_gamma   90.55322992
_symmetry_Int_Tables_number   1
_chemical_formula_structural   Li9Mn2Co5O16
_chemical_formula_sum   'Li9 Mn2 Co5 O16'
_cell_volume   287.63491918
_cell_formula_units_Z   1
loop_
 _symmetry_equiv_pos_site_id
 _symmetry_equiv_pos_as_xyz
  1  'x, y, z'
loop_
 _atom_site_type_symbol
 _atom_site_label
 _atom_site_symmetry_multiplicity
 _atom_site_fract_x
 _atom_site_fract_y
 _atom_site_fract_z
 _atom_site_occupancy
  Li  Li0  1  0.88166900  0.80907500  0.25049800  1
  Li  Li1  1  0.12454900  0.69356200  0.74453100  1
  Li  Li2  1  0.37817200  0.56466600  0.25562800  1
  Li  Li3  1  0.87939100  0.30892900  0.25236600  1
  Li  Li4  1  0.12456000  0.18453400  0.74222000  1
  Li  Li5  1  0.37727700  0.06154200  0.25528400  1
  Li  Li6  1  0.61872600  0.93675500  0.75080600  1
  Li  Li7  1  0.61825000  0.44108600  0.74859100  1
  Li  Li8  1  0.25016600  0.87603100  0.49901100  1
  Mn  Mn9  1  0.99987500  0.99973000  0.99892900  1
  Mn  Mn10  1  0.75080300  0.62535000  0.50025800  1
  Co  Co11  1  0.49631000  0.74947700  0.00491900  1
  Co  Co12  1  0.00000800  0.49898600  0.99889600  1
  Co  Co13  1  0.24948900  0.37999300  0.49991800  1
  Co  Co14  1  0.50345100  0.25059900  0.99714900  1
  Co  Co15  1  0.74875700  0.11380700  0.50056000  1
  O  O16  1  0.69643300  0.03031600  0.11647300  1
  O  O17  1  0.90787000  0.89140700  0.61576900  1
  O  O18  1  0.20827300  0.76857100  0.12457200  1
  O  O19  1  0.70145500  0.52534500  0.11557600  1
  O  O20  1  0.94160100  0.41617300  0.61113200  1
  O  O21  1  0.19295100  0.26807900  0.11141800  1
  O  O22  1  0.43215000  0.18032000  0.60547300  1
  O  O23  1  0.43861600  0.63344300  0.60878100  1
  O  O24  1  0.06289700  0.57626900  0.39222300  1
  O  O25  1  0.29964000  0.47434000  0.88467700  1
  O  O26  1  0.55816100  0.35672700  0.38906200  1
  O  O27  1  0.06454000  0.12458700  0.39314700  1
  O  O28  1  0.30441500  0.96921600  0.88210700  1
  O  O29  1  0.59441700  0.82885200  0.38535500  1
  O  O30  1  0.80537800  0.73019700  0.88849800  1
  O  O31  1  0.78975300  0.23203500  0.87617400  1
