# generated using pymatgen
data_Li4TiCo3O8
_symmetry_space_group_name_H-M   'P 1'
_cell_length_a   5.91271053
_cell_length_b   5.94063703
_cell_length_c   10.35639412
_cell_angle_alpha   107.17532659
_cell_angle_beta   72.55806018
_cell_angle_gamma   120.77913289
_symmetry_Int_Tables_number   1
_chemical_formula_structural   Li4TiCo3O8
_chemical_formula_sum   'Li8 Ti2 Co6 O16'
_cell_volume   293.65977490
_cell_formula_units_Z   2
loop_
 _symmetry_equiv_pos_site_id
 _symmetry_equiv_pos_as_xyz
  1  'x, y, z'
loop_
 _atom_site_type_symbol
 _atom_site_label
 _atom_site_symmetry_multiplicity
 _atom_site_fract_x
 _atom_site_fract_y
 _atom_site_fract_z
 _atom_site_occupancy
  Li  Li0  1  0.25327200  0.74933500  0.24915100  1
  Li  Li1  1  0.74673000  0.25066500  0.75084900  1
  Li  Li2  1  0.75078600  0.24841700  0.24834300  1
  Li  Li3  1  0.24921300  0.75158200  0.75165700  1
  Li  Li4  1  0.74779000  0.74860600  0.75077100  1
  Li  Li5  1  0.25221000  0.25139400  0.24922900  1
  Li  Li6  1  0.25284300  0.24938700  0.74805800  1
  Li  Li7  1  0.74715800  0.75061400  0.25194200  1
  Ti  Ti8  1  0.50000000  0.49999900  0.50000000  1
  Ti  Ti9  1  0.99999900  0.00000100  0.00000200  1
  Co  Co10  1  0.00000000  0.00000000  0.49999900  1
  Co  Co11  1  0.00000000  0.50000000  0.00000000  1
  Co  Co12  1  0.50000000  0.00000000  0.99999900  1
  Co  Co13  1  0.50000000  0.49999900  0.00000000  1
  Co  Co14  1  0.50000000  0.00000000  0.49999900  1
  Co  Co15  1  0.00000000  0.49999900  0.49999900  1
  O  O16  1  0.36668100  0.64230600  0.89415000  1
  O  O17  1  0.86378700  0.13586300  0.39206200  1
  O  O18  1  0.13621200  0.86413600  0.60793800  1
  O  O19  1  0.63331900  0.35769500  0.10585000  1
  O  O20  1  0.86005800  0.11490900  0.88721200  1
  O  O21  1  0.38062000  0.62051700  0.38296800  1
  O  O22  1  0.61938000  0.37948400  0.61703300  1
  O  O23  1  0.13994300  0.88509200  0.11278800  1
  O  O24  1  0.86125200  0.62028900  0.38295400  1
  O  O25  1  0.35422500  0.12569600  0.88092000  1
  O  O26  1  0.38027500  0.14062500  0.38410600  1
  O  O27  1  0.88578300  0.64282500  0.88344800  1
  O  O28  1  0.64577500  0.87430400  0.11908000  1
  O  O29  1  0.13874800  0.37971100  0.61704500  1
  O  O30  1  0.11421700  0.35717400  0.11655100  1
  O  O31  1  0.61972800  0.85937500  0.61589400  1
