# generated using pymatgen
data_Li7Mn4CoO12
_symmetry_space_group_name_H-M   'P 1'
_cell_length_a   6.80133493
_cell_length_b   8.65913172
_cell_length_c   7.72404617
_cell_angle_alpha   104.65646910
_cell_angle_beta   91.66417836
_cell_angle_gamma   99.85273937
_symmetry_Int_Tables_number   1
_chemical_formula_structural   Li7Mn4CoO12
_chemical_formula_sum   'Li14 Mn8 Co2 O24'
_cell_volume   432.35359599
_cell_formula_units_Z   2
loop_
 _symmetry_equiv_pos_site_id
 _symmetry_equiv_pos_as_xyz
  1  'x, y, z'
loop_
 _atom_site_type_symbol
 _atom_site_label
 _atom_site_symmetry_multiplicity
 _atom_site_fract_x
 _atom_site_fract_y
 _atom_site_fract_z
 _atom_site_occupancy
  Li  Li0  1  0.66662800  0.83332800  0.16667500  1
  Li  Li1  1  0.16661900  0.83331100  0.66667000  1
  Li  Li2  1  0.58941000  0.91098500  0.84208900  1
  Li  Li3  1  0.08727800  0.91092400  0.34220000  1
  Li  Li4  1  0.24610800  0.75578100  0.99112000  1
  Li  Li5  1  0.74390000  0.75569100  0.49121600  1
  Li  Li6  1  0.90591700  0.08184900  0.66754600  1
  Li  Li7  1  0.40755400  0.08273300  0.16678800  1
  Li  Li8  1  0.42750800  0.58485800  0.66577200  1
  Li  Li9  1  0.92588100  0.58396100  0.16654300  1
  Li  Li10  1  0.06756800  0.41901400  0.83753200  1
  Li  Li11  1  0.57877200  0.41716800  0.33278700  1
  Li  Li12  1  0.26583900  0.24771900  0.49583300  1
  Li  Li13  1  0.75454100  0.24950600  0.00054400  1
  Mn  Mn14  1  0.82873200  0.16400200  0.33246400  1
  Mn  Mn15  1  0.33699200  0.16227700  0.83061600  1
  Mn  Mn16  1  0.50451100  0.50261300  0.00090000  1
  Mn  Mn17  1  0.99637500  0.50435900  0.50270500  1
  Mn  Mn18  1  0.00089000  0.99927300  0.00116400  1
  Mn  Mn19  1  0.50074000  0.00007200  0.50063300  1
  Mn  Mn20  1  0.83258800  0.66657600  0.83270700  1
  Mn  Mn21  1  0.33245400  0.66744300  0.33215200  1
  Co  Co22  1  0.66667400  0.33333700  0.66667200  1
  Co  Co23  1  0.16667400  0.33335900  0.16667600  1
  O  O24  1  0.37271600  0.87107100  0.26929200  1
  O  O25  1  0.87408500  0.87194800  0.76986400  1
  O  O26  1  0.45924900  0.79469800  0.56344100  1
  O  O27  1  0.96063900  0.79560100  0.06401000  1
  O  O28  1  0.23942800  0.04349500  0.58676300  1
  O  O29  1  0.74158700  0.04294000  0.08431300  1
  O  O30  1  0.09389200  0.62312900  0.74656600  1
  O  O31  1  0.59171900  0.62367600  0.24902700  1
  O  O32  1  0.56455300  0.69660500  0.91291300  1
  O  O33  1  0.06472400  0.69691900  0.41096300  1
  O  O34  1  0.26856700  0.96972500  0.92235600  1
  O  O35  1  0.76874900  0.97003200  0.42044800  1
  O  O36  1  0.20708100  0.53803900  0.09848600  1
  O  O37  1  0.70606800  0.53946700  0.60128300  1
  O  O38  1  0.12624200  0.12868000  0.23483100  1
  O  O39  1  0.62727200  0.12720700  0.73204400  1
  O  O40  1  0.40373300  0.36851100  0.75383700  1
  O  O41  1  0.87786300  0.37152100  0.26546000  1
  O  O42  1  0.92960200  0.29813700  0.57951800  1
  O  O43  1  0.45543900  0.29506600  0.06789600  1
  O  O44  1  0.04462000  0.20793300  0.93593500  1
  O  O45  1  0.53928700  0.20329400  0.43284800  1
  O  O46  1  0.28872400  0.45881500  0.39741400  1
  O  O47  1  0.79401400  0.46335400  0.90049400  1
