# generated using pymatgen
data_Li2FeCo3O8
_symmetry_space_group_name_H-M   'P 1'
_cell_length_a   5.81117750
_cell_length_b   5.77443080
_cell_length_c   10.20940869
_cell_angle_alpha   90.09430755
_cell_angle_beta   106.61010617
_cell_angle_gamma   119.55586746
_symmetry_Int_Tables_number   1
_chemical_formula_structural   Li2FeCo3O8
_chemical_formula_sum   'Li4 Fe2 Co6 O16'
_cell_volume   281.36193405
_cell_formula_units_Z   2
loop_
 _symmetry_equiv_pos_site_id
 _symmetry_equiv_pos_as_xyz
  1  'x, y, z'
loop_
 _atom_site_type_symbol
 _atom_site_label
 _atom_site_symmetry_multiplicity
 _atom_site_fract_x
 _atom_site_fract_y
 _atom_site_fract_z
 _atom_site_occupancy
  Li  Li0  1  0.88055600  0.44684000  0.31720500  1
  Li  Li1  1  0.86880500  0.93589300  0.81586300  1
  Li  Li2  1  0.13119700  0.06410700  0.18413800  1
  Li  Li3  1  0.11944300  0.55315900  0.68279400  1
  Fe  Fe4  1  0.50303900  0.75284400  0.25052300  1
  Fe  Fe5  1  0.49694900  0.24715200  0.74947500  1
  Co  Co6  1  0.50000200  0.99999800  0.50000000  1
  Co  Co7  1  0.50000200  0.50000000  0.49999900  1
  Co  Co8  1  0.99999700  0.99999700  0.49999800  1
  Co  Co9  1  0.50000300  0.50000000  0.00000000  1
  Co  Co10  1  0.50000300  0.00000300  0.99999900  1
  Co  Co11  1  0.99999900  0.49999800  0.99999900  1
  O  O12  1  0.26657900  0.13612300  0.39849800  1
  O  O13  1  0.27442900  0.63674000  0.89521400  1
  O  O14  1  0.72557900  0.36326300  0.10478900  1
  O  O15  1  0.73342200  0.86387200  0.60150300  1
  O  O16  1  0.74952300  0.10390300  0.39593300  1
  O  O17  1  0.72727200  0.59604900  0.88660700  1
  O  O18  1  0.75771300  0.66129900  0.38615400  1
  O  O19  1  0.72299300  0.12587600  0.88550500  1
  O  O20  1  0.29023000  0.66098800  0.38443800  1
  O  O21  1  0.29018500  0.14458200  0.89378800  1
  O  O22  1  0.70981700  0.85542300  0.10621400  1
  O  O23  1  0.70977100  0.33900700  0.61556400  1
  O  O24  1  0.27700200  0.87412600  0.11449300  1
  O  O25  1  0.24228700  0.33870600  0.61384200  1
  O  O26  1  0.27272800  0.40395300  0.11339600  1
  O  O27  1  0.25047700  0.89609700  0.60406900  1
