# generated using pymatgen
data_Li2CoSn(PO4)2
_symmetry_space_group_name_H-M   'P 1'
_cell_length_a   4.83822077
_cell_length_b   22.62931236
_cell_length_c   6.27073946
_cell_angle_alpha   90.00206530
_cell_angle_beta   89.94620617
_cell_angle_gamma   90.41493994
_symmetry_Int_Tables_number   1
_chemical_formula_structural   Li2CoSn(PO4)2
_chemical_formula_sum   'Li8 Co4 Sn4 P8 O32'
_cell_volume   686.53742295
_cell_formula_units_Z   4
loop_
 _symmetry_equiv_pos_site_id
 _symmetry_equiv_pos_as_xyz
  1  'x, y, z'
loop_
 _atom_site_type_symbol
 _atom_site_label
 _atom_site_symmetry_multiplicity
 _atom_site_fract_x
 _atom_site_fract_y
 _atom_site_fract_z
 _atom_site_occupancy
  Li  Li0  1  0.99445000  0.00159500  0.00323800  1
  Li  Li1  1  0.00584700  0.49827400  0.99650200  1
  Li  Li2  1  0.00640500  0.99836300  0.50344800  1
  Li  Li3  1  0.99247500  0.50187500  0.49599300  1
  Li  Li4  1  0.49998800  0.25000200  0.00001200  1
  Li  Li5  1  0.49997900  0.74998400  0.99999000  1
  Li  Li6  1  0.50002900  0.25001200  0.50001800  1
  Li  Li7  1  0.49996900  0.74998100  0.49999700  1
  Co  Co8  1  0.93580100  0.64680600  0.24991600  1
  Co  Co9  1  0.06435300  0.85320000  0.75004400  1
  Co  Co10  1  0.93564300  0.14679400  0.25005800  1
  Co  Co11  1  0.06436200  0.35320600  0.74999600  1
  Sn  Sn12  1  0.48496100  0.11258800  0.74979500  1
  Sn  Sn13  1  0.48500200  0.61260500  0.74993400  1
  Sn  Sn14  1  0.51500500  0.38741000  0.25028200  1
  Sn  Sn15  1  0.51518600  0.88739600  0.25003900  1
  P  P16  1  0.34777500  0.06070200  0.24972800  1
  P  P17  1  0.34763600  0.56070200  0.25056600  1
  P  P18  1  0.65218900  0.43927900  0.75037300  1
  P  P19  1  0.65240100  0.93928900  0.74942800  1
  P  P20  1  0.92041700  0.21263800  0.74998700  1
  P  P21  1  0.92045600  0.71265200  0.74997800  1
  P  P22  1  0.07956600  0.28736300  0.25004400  1
  P  P23  1  0.07964400  0.78735900  0.25000400  1
  O  O24  1  0.74480500  0.00505400  0.75130400  1
  O  O25  1  0.74424700  0.50507000  0.75001900  1
  O  O26  1  0.25501500  0.49495500  0.24871500  1
  O  O27  1  0.25561900  0.99492000  0.24981600  1
  O  O28  1  0.66216500  0.07020400  0.24819700  1
  O  O29  1  0.66220600  0.57007600  0.25298700  1
  O  O30  1  0.33782200  0.42975900  0.75216400  1
  O  O31  1  0.33789700  0.92986800  0.74717300  1
  O  O32  1  0.23872700  0.20771900  0.74976700  1
  O  O33  1  0.23880000  0.70773900  0.74988100  1
  O  O34  1  0.76125200  0.29228500  0.25027700  1
  O  O35  1  0.76131600  0.79225800  0.25010800  1
  O  O36  1  0.19176700  0.22328000  0.24997600  1
  O  O37  1  0.19193100  0.72328300  0.24941200  1
  O  O38  1  0.80819800  0.27671900  0.75006800  1
  O  O39  1  0.80819000  0.77671900  0.75058600  1
  O  O40  1  0.20014700  0.09049000  0.05296200  1
  O  O41  1  0.20362900  0.59114300  0.05375300  1
  O  O42  1  0.20217100  0.09064500  0.44705300  1
  O  O43  1  0.19900700  0.59012400  0.44774800  1
  O  O44  1  0.79758500  0.40927800  0.55308800  1
  O  O45  1  0.80101700  0.90989900  0.55219000  1
  O  O46  1  0.80005900  0.40957300  0.94719100  1
  O  O47  1  0.79665300  0.90887500  0.94620700  1
  O  O48  1  0.78597000  0.18119200  0.54942700  1
  O  O49  1  0.78640800  0.68133300  0.54913300  1
  O  O50  1  0.78596900  0.18120100  0.95062300  1
  O  O51  1  0.78578300  0.68105800  0.95035200  1
  O  O52  1  0.21398900  0.31879400  0.04939900  1
  O  O53  1  0.21434800  0.81893300  0.04962500  1
  O  O54  1  0.21404800  0.31881200  0.45058500  1
  O  O55  1  0.21372600  0.81866800  0.45084700  1
