# generated using pymatgen
data_Li7Mn2(CoO4)3
_symmetry_space_group_name_H-M   'P 1'
_cell_length_a   5.16704638
_cell_length_b   10.60776067
_cell_length_c   8.52613844
_cell_angle_alpha   66.29036513
_cell_angle_beta   89.99655439
_cell_angle_gamma   97.02178254
_symmetry_Int_Tables_number   1
_chemical_formula_structural   Li7Mn2(CoO4)3
_chemical_formula_sum   'Li14 Mn4 Co6 O24'
_cell_volume   424.04738992
_cell_formula_units_Z   2
loop_
 _symmetry_equiv_pos_site_id
 _symmetry_equiv_pos_as_xyz
  1  'x, y, z'
loop_
 _atom_site_type_symbol
 _atom_site_label
 _atom_site_symmetry_multiplicity
 _atom_site_fract_x
 _atom_site_fract_y
 _atom_site_fract_z
 _atom_site_occupancy
  Li  Li0  1  0.25006000  0.50012600  0.91659900  1
  Li  Li1  1  0.74994000  0.49985900  0.41674500  1
  Li  Li2  1  0.36761600  0.25819500  0.53745700  1
  Li  Li3  1  0.86786200  0.25806900  0.03793300  1
  Li  Li4  1  0.13212400  0.74193900  0.29640900  1
  Li  Li5  1  0.63231300  0.74176600  0.79579100  1
  Li  Li6  1  0.37510200  0.25406700  0.20065800  1
  Li  Li7  1  0.87207400  0.25405200  0.70126300  1
  Li  Li8  1  0.12780900  0.74593300  0.95526400  1
  Li  Li9  1  0.62445500  0.74594400  0.45488400  1
  Li  Li10  1  0.87187500  0.25394300  0.37767200  1
  Li  Li11  1  0.37436200  0.25445200  0.87812400  1
  Li  Li12  1  0.62615200  0.74547200  0.13279700  1
  Li  Li13  1  0.12811200  0.74611100  0.63152000  1
  Mn  Mn14  1  0.00002500  0.00009200  0.99954700  1
  Mn  Mn15  1  0.00007700  0.99989000  0.33537100  1
  Mn  Mn16  1  0.50016100  0.00019700  0.83265100  1
  Mn  Mn17  1  0.49986800  0.99988400  0.49929900  1
  Co  Co18  1  0.24977500  0.49997900  0.24498600  1
  Co  Co19  1  0.75025400  0.50001100  0.74496000  1
  Co  Co20  1  0.00000000  0.99999800  0.66731500  1
  Co  Co21  1  0.49997800  0.00000900  0.16590400  1
  Co  Co22  1  0.24996600  0.49993500  0.58842000  1
  Co  Co23  1  0.75006300  0.50006700  0.08834500  1
  O  O24  1  0.16625500  0.11964700  0.10749900  1
  O  O25  1  0.66389300  0.12084400  0.60546000  1
  O  O26  1  0.33609600  0.87917200  0.72674600  1
  O  O27  1  0.83372900  0.88032300  0.22711400  1
  O  O28  1  0.41085000  0.60791700  0.36267100  1
  O  O29  1  0.91110200  0.60788300  0.86276200  1
  O  O30  1  0.08893900  0.39211900  0.47063200  1
  O  O31  1  0.58915900  0.39208900  0.97058400  1
  O  O32  1  0.15925900  0.11755700  0.77213900  1
  O  O33  1  0.65963000  0.11777200  0.27096100  1
  O  O34  1  0.15873600  0.11758100  0.44474700  1
  O  O35  1  0.65930700  0.11774200  0.94295200  1
  O  O36  1  0.33997800  0.88180900  0.38935000  1
  O  O37  1  0.84091700  0.88253800  0.88981800  1
  O  O38  1  0.34108000  0.88272900  0.06081600  1
  O  O39  1  0.84106900  0.88231600  0.56256400  1
  O  O40  1  0.45501800  0.60824100  0.04474900  1
  O  O41  1  0.95529600  0.60820100  0.54488000  1
  O  O42  1  0.95497700  0.60833200  0.18027500  1
  O  O43  1  0.45533300  0.60818200  0.68033500  1
  O  O44  1  0.04459600  0.39176700  0.15310900  1
  O  O45  1  0.54503800  0.39182300  0.65289500  1
  O  O46  1  0.54462800  0.39173700  0.28845500  1
  O  O47  1  0.04508800  0.39168600  0.78857300  1
