# generated using pymatgen
data_Li3Yb2(BO3)3
_symmetry_space_group_name_H-M   'P 1'
_cell_length_a   13.62633600
_cell_length_b   5.89298400
_cell_length_c   9.44180925
_cell_angle_alpha   66.66595687
_cell_angle_beta   90.00000000
_cell_angle_gamma   90.00000000
_symmetry_Int_Tables_number   1
_chemical_formula_structural   Li3Yb2(BO3)3
_chemical_formula_sum   'Li12 Yb8 B12 O36'
_cell_volume   696.16496542
_cell_formula_units_Z   4
loop_
 _symmetry_equiv_pos_site_id
 _symmetry_equiv_pos_as_xyz
  1  'x, y, z'
loop_
 _atom_site_type_symbol
 _atom_site_label
 _atom_site_symmetry_multiplicity
 _atom_site_fract_x
 _atom_site_fract_y
 _atom_site_fract_z
 _atom_site_occupancy
  Li  Li0  1  0.33584200  0.91701400  0.01491400  1
  Li  Li1  1  0.66415800  0.08298600  0.98508600  1
  Li  Li2  1  0.83584200  0.08298600  0.48508600  1
  Li  Li3  1  0.16415800  0.91701400  0.51491400  1
  Li  Li4  1  0.78054200  0.92545000  0.28257600  1
  Li  Li5  1  0.21945800  0.07455000  0.71742400  1
  Li  Li6  1  0.28054200  0.07455000  0.21742400  1
  Li  Li7  1  0.71945800  0.92545000  0.78257600  1
  Li  Li8  1  0.88661900  0.54173200  0.29428600  1
  Li  Li9  1  0.11338100  0.45826800  0.70571400  1
  Li  Li10  1  0.38661900  0.45826800  0.20571400  1
  Li  Li11  1  0.61338100  0.54173200  0.79428600  1
  Yb  Yb12  1  0.65877400  0.42412500  0.21058800  1
  Yb  Yb13  1  0.34122600  0.57587500  0.78941200  1
  Yb  Yb14  1  0.15877400  0.57587500  0.28941200  1
  Yb  Yb15  1  0.84122600  0.42412500  0.71058800  1
  Yb  Yb16  1  0.50583600  0.83315100  0.33686600  1
  Yb  Yb17  1  0.49416400  0.16684900  0.66313400  1
  Yb  Yb18  1  0.00583600  0.16684900  0.16313400  1
  Yb  Yb19  1  0.99416400  0.83315100  0.83686600  1
  B  B20  1  0.98520000  0.76083200  0.48872100  1
  B  B21  1  0.01480000  0.23916800  0.51127900  1
  B  B22  1  0.48520000  0.23916800  0.01127900  1
  B  B23  1  0.51480000  0.76083200  0.98872100  1
  B  B24  1  0.83647000  0.88805300  0.03058800  1
  B  B25  1  0.16353000  0.11194700  0.96941200  1
  B  B26  1  0.33647000  0.11194700  0.46941200  1
  B  B27  1  0.66353000  0.88805300  0.53058800  1
  B  B28  1  0.82115500  0.38873600  0.02739200  1
  B  B29  1  0.17884500  0.61126400  0.97260800  1
  B  B30  1  0.32115500  0.61126400  0.47260800  1
  B  B31  1  0.67884500  0.38873600  0.52739200  1
  O  O32  1  0.89625800  0.81783000  0.41331800  1
  O  O33  1  0.10374200  0.18217000  0.58668200  1
  O  O34  1  0.39625800  0.18217000  0.08668200  1
  O  O35  1  0.60374200  0.81783000  0.91331800  1
  O  O36  1  0.59577500  0.46636800  0.43944300  1
  O  O37  1  0.40422500  0.53363200  0.56055700  1
  O  O38  1  0.09577500  0.53363200  0.06055700  1
  O  O39  1  0.90422500  0.46636800  0.93944300  1
  O  O40  1  0.75359200  0.80533000  0.12089200  1
  O  O41  1  0.24640800  0.19467000  0.87910800  1
  O  O42  1  0.25359200  0.19467000  0.37910800  1
  O  O43  1  0.74640800  0.80533000  0.62089200  1
  O  O44  1  0.56651700  0.18736100  0.10475600  1
  O  O45  1  0.43348300  0.81263900  0.89524400  1
  O  O46  1  0.06651700  0.81263900  0.39524400  1
  O  O47  1  0.93348300  0.18736100  0.60475600  1
  O  O48  1  0.92506100  0.85576500  0.10628700  1
  O  O49  1  0.07493900  0.14423500  0.89371300  1
  O  O50  1  0.42506100  0.14423500  0.39371300  1
  O  O51  1  0.57493900  0.85576500  0.60628700  1
  O  O52  1  0.82659600  0.28664200  0.18626800  1
  O  O53  1  0.17340400  0.71335800  0.81373200  1
  O  O54  1  0.32659600  0.71335800  0.31373200  1
  O  O55  1  0.67340400  0.28664200  0.68626800  1
  O  O56  1  0.50953200  0.66309800  0.14619000  1
  O  O57  1  0.49046800  0.33690200  0.85381000  1
  O  O58  1  0.00953200  0.33690200  0.35381000  1
  O  O59  1  0.99046800  0.66309800  0.64619000  1
  O  O60  1  0.76724700  0.40660000  0.45141100  1
  O  O61  1  0.23275300  0.59340000  0.54858900  1
  O  O62  1  0.26724700  0.59340000  0.04858900  1
  O  O63  1  0.73275300  0.40660000  0.95141100  1
  O  O64  1  0.66523600  0.99969100  0.37369200  1
  O  O65  1  0.33476400  0.00030900  0.62630800  1
  O  O66  1  0.16523600  0.00030900  0.12630800  1
  O  O67  1  0.83476400  0.99969100  0.87369200  1
