# generated using pymatgen
data_Li9Mn2Co5O16
_symmetry_space_group_name_H-M   'P 1'
_cell_length_a   5.82928600
_cell_length_b   6.49412263
_cell_length_c   7.69926930
_cell_angle_alpha   86.38469095
_cell_angle_beta   81.11131295
_cell_angle_gamma   76.87905947
_symmetry_Int_Tables_number   1
_chemical_formula_structural   Li9Mn2Co5O16
_chemical_formula_sum   'Li9 Mn2 Co5 O16'
_cell_volume   280.32746001
_cell_formula_units_Z   1
loop_
 _symmetry_equiv_pos_site_id
 _symmetry_equiv_pos_as_xyz
  1  'x, y, z'
loop_
 _atom_site_type_symbol
 _atom_site_label
 _atom_site_symmetry_multiplicity
 _atom_site_fract_x
 _atom_site_fract_y
 _atom_site_fract_z
 _atom_site_occupancy
  Li  Li0  1  0.80577300  0.63304600  0.12512200  1
  Li  Li1  1  0.55303500  0.12500300  0.62849900  1
  Li  Li2  1  0.44696500  0.87499700  0.37150100  1
  Li  Li3  1  0.19422700  0.36695400  0.87487800  1
  Li  Li4  1  0.06120000  0.12089500  0.62880500  1
  Li  Li5  1  0.68793100  0.37122600  0.87282300  1
  Li  Li6  1  0.31206900  0.62877400  0.12717700  1
  Li  Li7  1  0.93880000  0.87910500  0.37119500  1
  Li  Li8  1  0.50000000  0.00000000  0.00000000  1
  Mn  Mn9  1  0.86599900  0.75389600  0.75485900  1
  Mn  Mn10  1  0.13400100  0.24610400  0.24514100  1
  Co  Co11  1  0.62795900  0.25252400  0.24670800  1
  Co  Co12  1  0.37204100  0.74747600  0.75329200  1
  Co  Co13  1  0.24394800  0.49734800  0.50060000  1
  Co  Co14  1  0.00000000  0.00000000  0.00000000  1
  Co  Co15  1  0.75605200  0.50265200  0.49940000  1
  O  O16  1  0.06519600  0.70737300  0.93903500  1
  O  O17  1  0.85542400  0.19944100  0.41217200  1
  O  O18  1  0.73886500  0.96600000  0.17184300  1
  O  O19  1  0.46401200  0.45222500  0.68555700  1
  O  O20  1  0.33099100  0.18681000  0.42931500  1
  O  O21  1  0.96138300  0.45874200  0.69014600  1
  O  O22  1  0.59910900  0.69360900  0.91467900  1
  O  O23  1  0.20341900  0.95559800  0.17882100  1
  O  O24  1  0.53598800  0.54777500  0.31444300  1
  O  O25  1  0.26113500  0.03400000  0.82815700  1
  O  O26  1  0.14457600  0.80055900  0.58782800  1
  O  O27  1  0.93480400  0.29262700  0.06096500  1
  O  O28  1  0.79658100  0.04440200  0.82117900  1
  O  O29  1  0.40089100  0.30639100  0.08532100  1
  O  O30  1  0.03861700  0.54125800  0.30985400  1
  O  O31  1  0.66900900  0.81319000  0.57068500  1
