# generated using pymatgen
data_LiSiBiO4
_symmetry_space_group_name_H-M   'P 1'
_cell_length_a   10.37550251
_cell_length_b   14.89248851
_cell_length_c   5.39318782
_cell_angle_alpha   90.00000000
_cell_angle_beta   90.00000000
_cell_angle_gamma   90.00000000
_symmetry_Int_Tables_number   1
_chemical_formula_structural   LiSiBiO4
_chemical_formula_sum   'Li8 Si8 Bi8 O32'
_cell_volume   833.33948237
_cell_formula_units_Z   8
loop_
 _symmetry_equiv_pos_site_id
 _symmetry_equiv_pos_as_xyz
  1  'x, y, z'
loop_
 _atom_site_type_symbol
 _atom_site_label
 _atom_site_symmetry_multiplicity
 _atom_site_fract_x
 _atom_site_fract_y
 _atom_site_fract_z
 _atom_site_occupancy
  Li  Li0  1  0.02247840  0.75954683  0.02231139  1
  Li  Li1  1  0.22636480  0.99668157  0.49567268  1
  Li  Li2  1  0.27363520  0.49668157  0.49567268  1
  Li  Li3  1  0.47752160  0.25954683  0.02231139  1
  Li  Li4  1  0.52247840  0.75954683  0.97768861  1
  Li  Li5  1  0.72636480  0.99668157  0.50432732  1
  Li  Li6  1  0.77363520  0.49668157  0.50432732  1
  Li  Li7  1  0.97752160  0.25954683  0.97768861  1
  Si  Si8  1  0.02545401  0.37727110  0.46221027  1
  Si  Si9  1  0.23180071  0.12748315  0.01446111  1
  Si  Si10  1  0.26819929  0.62748315  0.01446111  1
  Si  Si11  1  0.47454599  0.87727110  0.46221027  1
  Si  Si12  1  0.52545401  0.37727110  0.53778973  1
  Si  Si13  1  0.73180071  0.12748315  0.98553889  1
  Si  Si14  1  0.76819929  0.62748315  0.98553889  1
  Si  Si15  1  0.97454599  0.87727110  0.53778973  1
  Bi  Bi16  1  0.03409747  0.51048499  0.96066423  1
  Bi  Bi17  1  0.22956700  0.74025575  0.51282808  1
  Bi  Bi18  1  0.27043300  0.24025575  0.51282808  1
  Bi  Bi19  1  0.46590253  0.01048499  0.96066423  1
  Bi  Bi20  1  0.53409747  0.51048499  0.03933577  1
  Bi  Bi21  1  0.72956700  0.74025575  0.48717192  1
  Bi  Bi22  1  0.77043300  0.24025575  0.48717192  1
  Bi  Bi23  1  0.96590253  0.01048499  0.03933577  1
  O  O24  1  0.99820289  0.87285524  0.83745123  1
  O  O25  1  0.95897142  0.46745354  0.58899500  1
  O  O26  1  0.03831121  0.78476486  0.40912751  1
  O  O27  1  0.07723307  0.14579019  0.04440518  1
  O  O28  1  0.18093459  0.37809766  0.52931518  1
  O  O29  1  0.23635425  0.54610534  0.81579837  1
  O  O30  1  0.30218554  0.22172560  0.91329880  1
  O  O31  1  0.30312670  0.09708417  0.27341510  1
  O  O32  1  0.19687330  0.59708417  0.27341510  1
  O  O33  1  0.19781446  0.72172560  0.91329880  1
  O  O34  1  0.26364575  0.04610534  0.81579837  1
  O  O35  1  0.31906541  0.87809766  0.52931518  1
  O  O36  1  0.42276693  0.64579019  0.04440518  1
  O  O37  1  0.46168879  0.28476486  0.40912751  1
  O  O38  1  0.54102858  0.96745354  0.58899500  1
  O  O39  1  0.50179711  0.37285524  0.83745123  1
  O  O40  1  0.49820289  0.87285524  0.16254877  1
  O  O41  1  0.45897142  0.46745354  0.41100500  1
  O  O42  1  0.53831121  0.78476486  0.59087249  1
  O  O43  1  0.57723307  0.14579019  0.95559482  1
  O  O44  1  0.68093459  0.37809766  0.47068482  1
  O  O45  1  0.73635425  0.54610534  0.18420163  1
  O  O46  1  0.80218554  0.22172560  0.08670120  1
  O  O47  1  0.80312670  0.09708417  0.72658490  1
  O  O48  1  0.69687330  0.59708417  0.72658490  1
  O  O49  1  0.69781446  0.72172560  0.08670120  1
  O  O50  1  0.76364575  0.04610534  0.18420163  1
  O  O51  1  0.81906541  0.87809766  0.47068482  1
  O  O52  1  0.92276693  0.64579019  0.95559482  1
  O  O53  1  0.96168879  0.28476486  0.59087249  1
  O  O54  1  0.04102858  0.96745354  0.41100500  1
  O  O55  1  0.00179711  0.37285524  0.16254877  1
