# generated using pymatgen
data_Li4MnCrO6
_symmetry_space_group_name_H-M   'P 1'
_cell_length_a   5.00452286
_cell_length_b   5.00451943
_cell_length_c   5.11410777
_cell_angle_alpha   99.90005629
_cell_angle_beta   99.89914310
_cell_angle_gamma   119.41151241
_symmetry_Int_Tables_number   1
_chemical_formula_structural   Li4MnCrO6
_chemical_formula_sum   'Li4 Mn1 Cr1 O6'
_cell_volume   104.89582272
_cell_formula_units_Z   1
loop_
 _symmetry_equiv_pos_site_id
 _symmetry_equiv_pos_as_xyz
  1  'x, y, z'
loop_
 _atom_site_type_symbol
 _atom_site_label
 _atom_site_symmetry_multiplicity
 _atom_site_fract_x
 _atom_site_fract_y
 _atom_site_fract_z
 _atom_site_occupancy
  Li  Li0  1  0.00160300  0.49839600  0.00000000  1
  Li  Li1  1  0.50330300  0.99670000  0.49999900  1
  Li  Li2  1  0.65872400  0.84127900  0.99999900  1
  Li  Li3  1  0.33813900  0.16186400  0.99999900  1
  Mn  Mn4  1  0.83210400  0.66789600  0.49999900  1
  Cr  Cr5  1  0.17076800  0.32924200  0.50000100  1
  O  O6  1  0.78218500  0.28346300  0.27270900  1
  O  O7  1  0.21653000  0.71780300  0.72728900  1
  O  O8  1  0.42923000  0.57063100  0.27220900  1
  O  O9  1  0.92936600  0.07077100  0.72779700  1
  O  O10  1  0.57433400  0.43628300  0.72249100  1
  O  O11  1  0.06371300  0.92567100  0.27750900  1
