# generated using pymatgen
data_Li9Co7O16
_symmetry_space_group_name_H-M   'P 1'
_cell_length_a   2.94181500
_cell_length_b   10.03008789
_cell_length_c   10.19155969
_cell_angle_alpha   108.05437328
_cell_angle_beta   91.02614449
_cell_angle_gamma   91.86215013
_symmetry_Int_Tables_number   1
_chemical_formula_structural   Li9Co7O16
_chemical_formula_sum   'Li9 Co7 O16'
_cell_volume   285.63748254
_cell_formula_units_Z   1
loop_
 _symmetry_equiv_pos_site_id
 _symmetry_equiv_pos_as_xyz
  1  'x, y, z'
loop_
 _atom_site_type_symbol
 _atom_site_label
 _atom_site_symmetry_multiplicity
 _atom_site_fract_x
 _atom_site_fract_y
 _atom_site_fract_z
 _atom_site_occupancy
  Li  Li0  1  0.49758400  0.00075700  0.75128300  1
  Li  Li1  1  0.99943800  0.24805600  0.25092300  1
  Li  Li2  1  0.49894000  0.50005000  0.74574200  1
  Li  Li3  1  0.99248600  0.25310800  0.75024000  1
  Li  Li4  1  0.50106000  0.49995000  0.25425800  1
  Li  Li5  1  0.00056200  0.75194400  0.74907700  1
  Li  Li6  1  0.00751400  0.74689200  0.24976000  1
  Li  Li7  1  0.50241600  0.99924300  0.24871700  1
  Li  Li8  1  0.00000000  0.50000000  0.50000000  1
  Co  Co9  1  0.50496700  0.74229800  0.50036300  1
  Co  Co10  1  0.49503300  0.25770200  0.49963700  1
  Co  Co11  1  0.00000000  0.00000000  0.00000000  1
  Co  Co12  1  0.00000000  0.50000000  0.00000000  1
  Co  Co13  1  0.49982200  0.24959200  0.00012000  1
  Co  Co14  1  0.50017800  0.75040800  0.99988000  1
  Co  Co15  1  0.00000000  0.00000000  0.50000000  1
  O  O16  1  0.96688000  0.87978000  0.61141300  1
  O  O17  1  0.50737500  0.12051700  0.11681500  1
  O  O18  1  0.96823100  0.36352700  0.61474100  1
  O  O19  1  0.48707800  0.12460900  0.60470400  1
  O  O20  1  0.99906300  0.36953800  0.11822500  1
  O  O21  1  0.49782900  0.64323300  0.61398000  1
  O  O22  1  0.49587200  0.61870000  0.11574900  1
  O  O23  1  0.99740600  0.86752600  0.11831300  1
  O  O24  1  0.00259400  0.13247400  0.88168700  1
  O  O25  1  0.50217100  0.35676700  0.38602000  1
  O  O26  1  0.00093700  0.63046200  0.88177500  1
  O  O27  1  0.50412800  0.38130000  0.88425100  1
  O  O28  1  0.03176900  0.63647300  0.38525900  1
  O  O29  1  0.49262500  0.87948300  0.88318500  1
  O  O30  1  0.51292200  0.87539100  0.39529600  1
  O  O31  1  0.03312000  0.12022000  0.38858700  1
