# generated using pymatgen
data_Li6MnV3(PO4)6
_symmetry_space_group_name_H-M   'P 1'
_cell_length_a   8.61141300
_cell_length_b   8.65152210
_cell_length_c   12.71822734
_cell_angle_alpha   105.84140001
_cell_angle_beta   106.15945121
_cell_angle_gamma   94.46358607
_symmetry_Int_Tables_number   1
_chemical_formula_structural   Li6MnV3(PO4)6
_chemical_formula_sum   'Li12 Mn2 V6 P12 O48'
_cell_volume   863.31752114
_cell_formula_units_Z   2
loop_
 _symmetry_equiv_pos_site_id
 _symmetry_equiv_pos_as_xyz
  1  'x, y, z'
loop_
 _atom_site_type_symbol
 _atom_site_label
 _atom_site_symmetry_multiplicity
 _atom_site_fract_x
 _atom_site_fract_y
 _atom_site_fract_z
 _atom_site_occupancy
  Li  Li0  1  0.99505300  0.00621000  0.12654700  1
  Li  Li1  1  0.99198300  0.00497300  0.62462000  1
  Li  Li2  1  0.71399400  0.28955400  0.37649000  1
  Li  Li3  1  0.50037400  0.50077600  0.25124300  1
  Li  Li4  1  0.71200800  0.28739900  0.87446400  1
  Li  Li5  1  0.50000000  0.50000000  0.50000000  1
  Li  Li6  1  0.28799200  0.71260100  0.12553600  1
  Li  Li7  1  0.49962600  0.49922400  0.74875700  1
  Li  Li8  1  0.50000000  0.50000000  0.00000000  1
  Li  Li9  1  0.28600600  0.71044600  0.62351000  1
  Li  Li10  1  0.00801700  0.99502700  0.37538000  1
  Li  Li11  1  0.00494700  0.99379000  0.87345300  1
  Mn  Mn12  1  0.94201400  0.62520400  0.68285100  1
  Mn  Mn13  1  0.05798600  0.37479600  0.31714900  1
  V  V14  1  0.94226300  0.62214600  0.18083600  1
  V  V15  1  0.62027700  0.94290400  0.43035100  1
  V  V16  1  0.38034200  0.05704200  0.07072600  1
  V  V17  1  0.61965800  0.94295800  0.92927400  1
  V  V18  1  0.37972300  0.05709600  0.56964900  1
  V  V19  1  0.05773700  0.37785400  0.81916400  1
  P  P20  1  0.71561900  0.28729500  0.12508200  1
  P  P21  1  0.86080600  0.66341500  0.43303400  1
  P  P22  1  0.66145100  0.86289900  0.18181800  1
  P  P23  1  0.71595000  0.28772300  0.62520800  1
  P  P24  1  0.86285100  0.66125200  0.93100200  1
  P  P25  1  0.66138200  0.86670100  0.68252300  1
  P  P26  1  0.33861800  0.13329900  0.31747700  1
  P  P27  1  0.13714900  0.33874800  0.06899800  1
  P  P28  1  0.28405000  0.71227700  0.37479200  1
  P  P29  1  0.33854900  0.13710100  0.81818200  1
  P  P30  1  0.13919400  0.33658500  0.56696600  1
  P  P31  1  0.28438100  0.71270500  0.87491800  1
  O  O32  1  0.98909600  0.65994600  0.04480500  1
  O  O33  1  0.94601100  0.61175500  0.33767900  1
  O  O34  1  0.74373600  0.17130300  0.01785000  1
  O  O35  1  0.98660700  0.66161000  0.54822300  1
  O  O36  1  0.83047200  0.26363500  0.23679700  1
  O  O37  1  0.84500500  0.84286900  0.19524700  1
  O  O38  1  0.73585400  0.46166500  0.11358500  1
  O  O39  1  0.84039500  0.84706300  0.45005700  1
  O  O40  1  0.95028600  0.59897600  0.83529300  1
  O  O41  1  0.74243900  0.17263000  0.51664400  1
  O  O42  1  0.82842600  0.25807400  0.73440000  1
  O  O43  1  0.84602500  0.85482800  0.69815200  1
  O  O44  1  0.70237000  0.54430100  0.39847200  1
  O  O45  1  0.60089100  0.94981100  0.08653100  1
  O  O46  1  0.66136700  0.98759200  0.29576900  1
  O  O47  1  0.54020900  0.26234600  0.13555400  1
  O  O48  1  0.74095700  0.46349800  0.61553300  1
  O  O49  1  0.54367300  0.70406100  0.14758300  1
  O  O50  1  0.84304500  0.84374400  0.94439900  1
  O  O51  1  0.70293400  0.54474800  0.89699300  1
  O  O52  1  0.59773500  0.95162400  0.58656900  1
  O  O53  1  0.45326600  0.29380900  0.35113800  1
  O  O54  1  0.65696800  0.99039500  0.79625000  1
  O  O55  1  0.53913200  0.26577400  0.63399800  1
  O  O56  1  0.46086800  0.73422600  0.36600200  1
  O  O57  1  0.34303200  0.00960500  0.20375000  1
  O  O58  1  0.54673400  0.70619100  0.64886200  1
  O  O59  1  0.40226500  0.04837600  0.41343100  1
  O  O60  1  0.29706600  0.45525200  0.10300700  1
  O  O61  1  0.15695500  0.15625600  0.05560100  1
  O  O62  1  0.45632700  0.29593900  0.85241700  1
  O  O63  1  0.25904300  0.53650200  0.38446700  1
  O  O64  1  0.45979100  0.73765400  0.86444600  1
  O  O65  1  0.33863300  0.01240800  0.70423100  1
  O  O66  1  0.39910900  0.05018900  0.91346900  1
  O  O67  1  0.29763000  0.45569900  0.60152800  1
  O  O68  1  0.15397500  0.14517200  0.30184800  1
  O  O69  1  0.17157400  0.74192600  0.26560000  1
  O  O70  1  0.25756100  0.82737000  0.48335600  1
  O  O71  1  0.04971400  0.40102400  0.16470700  1
  O  O72  1  0.15960500  0.15293700  0.54994300  1
  O  O73  1  0.26414600  0.53833500  0.88641500  1
  O  O74  1  0.15499500  0.15713100  0.80475300  1
  O  O75  1  0.16952800  0.73636500  0.76320300  1
  O  O76  1  0.01339300  0.33839000  0.45177700  1
  O  O77  1  0.25626400  0.82869700  0.98215000  1
  O  O78  1  0.05398900  0.38824500  0.66232100  1
  O  O79  1  0.01090400  0.34005400  0.95519500  1
