# generated using pymatgen
data_Li4Ni3Sb5O16
_symmetry_space_group_name_H-M   'P 1'
_cell_length_a   6.19741610
_cell_length_b   10.36444923
_cell_length_c   10.63456975
_cell_angle_alpha   89.83778097
_cell_angle_beta   90.00089584
_cell_angle_gamma   89.99977928
_symmetry_Int_Tables_number   1
_chemical_formula_structural   Li4Ni3Sb5O16
_chemical_formula_sum   'Li8 Ni6 Sb10 O32'
_cell_volume   683.08550183
_cell_formula_units_Z   2
loop_
 _symmetry_equiv_pos_site_id
 _symmetry_equiv_pos_as_xyz
  1  'x, y, z'
loop_
 _atom_site_type_symbol
 _atom_site_label
 _atom_site_symmetry_multiplicity
 _atom_site_fract_x
 _atom_site_fract_y
 _atom_site_fract_z
 _atom_site_occupancy
  Li  Li0  1  0.49996070  0.89154129  0.16568984  1
  Li  Li1  1  0.99998290  0.90144824  0.66037520  1
  Li  Li2  1  0.50008549  0.98725962  0.50251936  1
  Li  Li3  1  0.00014808  0.98159013  0.97705174  1
  Li  Li4  1  0.49990200  0.50528943  0.50289169  1
  Li  Li5  1  0.99995235  0.50341802  0.99487293  1
  Li  Li6  1  0.00005151  0.38517688  0.32026539  1
  Li  Li7  1  0.50012141  0.38822007  0.82016158  1
  Ni  Ni8  1  0.00023181  0.21126904  0.82451666  1
  Ni  Ni9  1  0.24630401  0.71719415  0.41979837  1
  Ni  Ni10  1  0.75319076  0.71700418  0.41981753  1
  Ni  Ni11  1  0.50013322  0.20722155  0.33083083  1
  Ni  Ni12  1  0.74723951  0.72414812  0.92142865  1
  Ni  Ni13  1  0.25276482  0.72409179  0.92149483  1
  Sb  Sb14  1  0.49994936  0.51730680  0.18055104  1
  Sb  Sb15  1  0.99992499  0.52202939  0.67946953  1
  Sb  Sb16  1  0.99990502  0.71855042  0.17389268  1
  Sb  Sb17  1  0.49991466  0.72904988  0.67256756  1
  Sb  Sb18  1  0.99992233  0.97148403  0.34704946  1
  Sb  Sb19  1  0.50006344  0.98319005  0.84291223  1
  Sb  Sb20  1  0.74658609  0.20770976  0.07829040  1
  Sb  Sb21  1  0.24684440  0.21325913  0.58509471  1
  Sb  Sb22  1  0.25367734  0.20772416  0.07834857  1
  Sb  Sb23  1  0.75340973  0.21324108  0.58515898  1
  O  O24  1  0.50009686  0.30609351  0.99597651  1
  O  O25  1  0.00006749  0.31049440  0.50255568  1
  O  O26  1  0.50013547  0.09900683  0.15440435  1
  O  O27  1  0.00016549  0.10417744  0.66151854  1
  O  O28  1  0.00018702  0.30957838  0.99337989  1
  O  O29  1  0.50016130  0.31578895  0.50747954  1
  O  O30  1  0.99996724  0.81135779  0.00962845  1
  O  O31  1  0.49973598  0.81381821  0.50708682  1
  O  O32  1  0.00013988  0.09480239  0.12540761  1
  O  O33  1  0.50010968  0.09469930  0.67160990  1
  O  O34  1  0.49965959  0.60272331  0.34736433  1
  O  O35  1  0.99996085  0.61167360  0.84411703  1
  O  O36  1  0.99971808  0.61034042  0.32904239  1
  O  O37  1  0.49996328  0.62756646  0.83044686  1
  O  O38  1  0.99970396  0.84204555  0.48671990  1
  O  O39  1  0.49998562  0.85699585  0.98208368  1
  O  O40  1  0.76605328  0.61010686  0.08815711  1
  O  O41  1  0.26834211  0.61642288  0.59456531  1
  O  O42  1  0.23386622  0.61008340  0.08817707  1
  O  O43  1  0.73137573  0.61640611  0.59449427  1
  O  O44  1  0.74291999  0.30703699  0.23316657  1
  O  O45  1  0.24010804  0.31682340  0.73789734  1
  O  O46  1  0.25738526  0.30708043  0.23322710  1
  O  O47  1  0.76023380  0.31675680  0.73800689  1
  O  O48  1  0.22255348  0.83637697  0.25642242  1
  O  O49  1  0.71668541  0.85991991  0.75637170  1
  O  O50  1  0.77727707  0.83644844  0.25637283  1
  O  O51  1  0.28331457  0.85996346  0.75640371  1
  O  O52  1  0.27809340  0.09948028  0.43972203  1
  O  O53  1  0.75106214  0.09186307  0.91665845  1
  O  O54  1  0.72211985  0.09944731  0.43978514  1
  O  O55  1  0.24918995  0.09188406  0.91670479  1
