# generated using pymatgen
data_Li2CoP2O7
_symmetry_space_group_name_H-M   'P 1'
_cell_length_a   4.81573930
_cell_length_b   11.79341155
_cell_length_c   9.21891405
_cell_angle_alpha   95.22749022
_cell_angle_beta   90.04396308
_cell_angle_gamma   89.98390731
_symmetry_Int_Tables_number   1
_chemical_formula_structural   Li2CoP2O7
_chemical_formula_sum   'Li8 Co4 P8 O28'
_cell_volume   521.40112779
_cell_formula_units_Z   4
loop_
 _symmetry_equiv_pos_site_id
 _symmetry_equiv_pos_as_xyz
  1  'x, y, z'
loop_
 _atom_site_type_symbol
 _atom_site_label
 _atom_site_symmetry_multiplicity
 _atom_site_fract_x
 _atom_site_fract_y
 _atom_site_fract_z
 _atom_site_occupancy
  Li  Li0  1  0.72765700  0.16061800  0.64685000  1
  Li  Li1  1  0.22919900  0.16206900  0.14606100  1
  Li  Li2  1  0.24491900  0.30959000  0.84908500  1
  Li  Li3  1  0.74721300  0.30704600  0.34688300  1
  Li  Li4  1  0.76144200  0.67447200  0.15000500  1
  Li  Li5  1  0.27126500  0.66507600  0.64701400  1
  Li  Li6  1  0.25347000  0.80652300  0.34689700  1
  Li  Li7  1  0.75494600  0.80628000  0.84618200  1
  Co  Co8  1  0.25024800  0.99566500  0.74946200  1
  Co  Co9  1  0.25167100  0.49706400  0.24829200  1
  Co  Co10  1  0.75189700  0.99788300  0.24911900  1
  Co  Co11  1  0.75180300  0.49656400  0.74819800  1
  P  P12  1  0.28855700  0.87119700  0.05296200  1
  P  P13  1  0.78671100  0.87244400  0.55274700  1
  P  P14  1  0.28358300  0.63216900  0.94613300  1
  P  P15  1  0.78271600  0.63294800  0.44672500  1
  P  P16  1  0.71479100  0.37269900  0.05354900  1
  P  P17  1  0.21384000  0.37240600  0.55377000  1
  P  P18  1  0.72061000  0.13337900  0.94731600  1
  P  P19  1  0.21895300  0.13286200  0.44693800  1
  O  O20  1  0.10812700  0.75299300  0.99967100  1
  O  O21  1  0.60742400  0.75318300  0.50147800  1
  O  O22  1  0.89394200  0.25361300  0.00131400  1
  O  O23  1  0.39248500  0.25279400  0.50219400  1
  O  O24  1  0.09034900  0.09735900  0.58738300  1
  O  O25  1  0.59364300  0.09901500  0.08862500  1
  O  O26  1  0.57873600  0.40289300  0.91192500  1
  O  O27  1  0.07887000  0.40203600  0.41169300  1
  O  O28  1  0.41083700  0.59930200  0.08810300  1
  O  O29  1  0.91132100  0.59908500  0.58798500  1
  O  O30  1  0.92178300  0.90171600  0.41084100  1
  O  O31  1  0.42476700  0.90278300  0.91209200  1
  O  O32  1  0.50511500  0.66318000  0.83470600  1
  O  O33  1  0.00299400  0.66362000  0.33469000  1
  O  O34  1  0.50288400  0.83824300  0.16719400  1
  O  O35  1  0.00006500  0.84079700  0.66796000  1
  O  O36  1  0.49909700  0.16278600  0.83535900  1
  O  O37  1  0.99784200  0.16276700  0.33457200  1
  O  O38  1  0.50167700  0.34070300  0.16851200  1
  O  O39  1  0.00076800  0.34063700  0.66890200  1
  O  O40  1  0.06251400  0.55644200  0.87550600  1
  O  O41  1  0.55962700  0.55763900  0.37702200  1
  O  O42  1  0.07322100  0.95305700  0.11930200  1
  O  O43  1  0.57039000  0.95433700  0.61729000  1
  O  O44  1  0.94614500  0.05892000  0.87882600  1
  O  O45  1  0.44311200  0.05819200  0.37687100  1
  O  O46  1  0.93270500  0.45413500  0.11796400  1
  O  O47  1  0.43121900  0.45439200  0.61798700  1
