# generated using pymatgen
data_Li9Mn2Co5O16
_symmetry_space_group_name_H-M   'P 1'
_cell_length_a   5.94525649
_cell_length_b   5.94525649
_cell_length_c   9.63830704
_cell_angle_alpha   83.47414407
_cell_angle_beta   83.47414407
_cell_angle_gamma   57.12844784
_symmetry_Int_Tables_number   1
_chemical_formula_structural   Li9Mn2Co5O16
_chemical_formula_sum   'Li9 Mn2 Co5 O16'
_cell_volume   283.72471801
_cell_formula_units_Z   1
loop_
 _symmetry_equiv_pos_site_id
 _symmetry_equiv_pos_as_xyz
  1  'x, y, z'
loop_
 _atom_site_type_symbol
 _atom_site_label
 _atom_site_symmetry_multiplicity
 _atom_site_fract_x
 _atom_site_fract_y
 _atom_site_fract_z
 _atom_site_occupancy
  Li  Li0  1  0.12912400  0.12912400  0.74305200  1
  Li  Li1  1  0.37479600  0.37479600  0.26069800  1
  Li  Li2  1  0.62520400  0.62520400  0.73930200  1
  Li  Li3  1  0.62367400  0.12281600  0.74759400  1
  Li  Li4  1  0.87718400  0.37632600  0.25240600  1
  Li  Li5  1  0.12281600  0.62367400  0.74759400  1
  Li  Li6  1  0.37632600  0.87718400  0.25240600  1
  Li  Li7  1  0.87087600  0.87087600  0.25694800  1
  Li  Li8  1  0.50000000  0.50000000  0.50000000  1
  Mn  Mn9  1  0.75007800  0.24992200  0.00000000  1
  Mn  Mn10  1  0.24992200  0.75007800  0.00000000  1
  Co  Co11  1  0.00000000  0.50000000  0.50000000  1
  Co  Co12  1  0.50000000  0.00000000  0.50000000  1
  Co  Co13  1  0.24972900  0.24972900  0.00075100  1
  Co  Co14  1  0.75027100  0.75027100  0.99924900  1
  Co  Co15  1  0.00000000  0.00000000  0.50000000  1
  O  O16  1  0.94744700  0.94744700  0.87926000  1
  O  O17  1  0.19960800  0.19960800  0.38216000  1
  O  O18  1  0.44822400  0.44822400  0.87816000  1
  O  O19  1  0.44826000  0.95043000  0.88464600  1
  O  O20  1  0.68501200  0.15454700  0.39955500  1
  O  O21  1  0.95043000  0.44826000  0.88464600  1
  O  O22  1  0.15454700  0.68501200  0.39955500  1
  O  O23  1  0.69640700  0.69640700  0.39083600  1
  O  O24  1  0.30359300  0.30359300  0.60916400  1
  O  O25  1  0.55177600  0.55177600  0.12184000  1
  O  O26  1  0.80039200  0.80039200  0.61784000  1
  O  O27  1  0.84545300  0.31498800  0.60044500  1
  O  O28  1  0.04957000  0.55174000  0.11535400  1
  O  O29  1  0.31498800  0.84545300  0.60044500  1
  O  O30  1  0.55174000  0.04957000  0.11535400  1
  O  O31  1  0.05255300  0.05255300  0.12074000  1
