# generated using pymatgen
data_Li2MnCoO4
_symmetry_space_group_name_H-M   'P 1'
_cell_length_a   2.97132467
_cell_length_b   2.97132462
_cell_length_c   19.49234011
_cell_angle_alpha   85.62880278
_cell_angle_beta   90.00000000
_cell_angle_gamma   120.00000042
_symmetry_Int_Tables_number   1
_chemical_formula_structural   Li2MnCoO4
_chemical_formula_sum   'Li4 Mn2 Co2 O8'
_cell_volume   148.45893869
_cell_formula_units_Z   2
loop_
 _symmetry_equiv_pos_site_id
 _symmetry_equiv_pos_as_xyz
  1  'x, y, z'
loop_
 _atom_site_type_symbol
 _atom_site_label
 _atom_site_symmetry_multiplicity
 _atom_site_fract_x
 _atom_site_fract_y
 _atom_site_fract_z
 _atom_site_occupancy
  Li  Li0  1  0.87614259  0.75228519  0.37157222  1
  Li  Li1  1  0.12500000  0.25000000  0.62500000  1
  Li  Li2  1  0.37385741  0.74771481  0.87842778  1
  Li  Li3  1  0.62500000  0.25000000  0.12500000  1
  Mn  Mn4  1  0.50015953  0.00031906  0.49952140  1
  Mn  Mn5  1  0.74984047  0.49968094  0.75047860  1
  Co  Co6  1  0.99984540  0.99969079  0.00046381  1
  Co  Co7  1  0.25015460  0.50030921  0.24953619  1
  O  O8  1  0.81415070  0.62830139  0.55754791  1
  O  O9  1  0.06409852  0.12819704  0.80770444  1
  O  O10  1  0.31483715  0.62967430  0.05548855  1
  O  O11  1  0.56486647  0.12973293  0.30540060  1
  O  O12  1  0.93516285  0.87032570  0.19451145  1
  O  O13  1  0.18590148  0.37180296  0.44229556  1
  O  O14  1  0.43584930  0.87169861  0.69245209  1
  O  O15  1  0.68513353  0.37026707  0.94459940  1
