# generated using pymatgen
data_Li3Cr2(PO4)3
_symmetry_space_group_name_H-M   'P 1'
_cell_length_a   9.10359858
_cell_length_b   9.10359858
_cell_length_c   16.36362691
_cell_angle_alpha   65.18496721
_cell_angle_beta   65.18496721
_cell_angle_gamma   58.08610828
_symmetry_Int_Tables_number   1
_chemical_formula_structural   Li3Cr2(PO4)3
_chemical_formula_sum   'Li12 Cr8 P12 O48'
_cell_volume   1009.83668477
_cell_formula_units_Z   4
loop_
 _symmetry_equiv_pos_site_id
 _symmetry_equiv_pos_as_xyz
  1  'x, y, z'
loop_
 _atom_site_type_symbol
 _atom_site_label
 _atom_site_symmetry_multiplicity
 _atom_site_fract_x
 _atom_site_fract_y
 _atom_site_fract_z
 _atom_site_occupancy
  Li  Li0  1  0.17773300  0.40290200  0.34887700  1
  Li  Li1  1  0.96728700  0.30736300  0.94351000  1
  Li  Li2  1  0.09898400  0.90101600  0.25000000  1
  Li  Li3  1  0.69263700  0.03271300  0.55649000  1
  Li  Li4  1  0.59709800  0.82226700  0.15112300  1
  Li  Li5  1  0.50000000  0.50000000  0.50000000  1
  Li  Li6  1  0.40290200  0.17773300  0.84887700  1
  Li  Li7  1  0.30736300  0.96728700  0.44351000  1
  Li  Li8  1  0.90101600  0.09898400  0.75000000  1
  Li  Li9  1  0.03271300  0.69263700  0.05649000  1
  Li  Li10  1  0.82226700  0.59709800  0.65112300  1
  Li  Li11  1  0.50000000  0.50000000  0.00000000  1
  Cr  Cr12  1  0.26004500  0.25257300  0.53094000  1
  Cr  Cr13  1  0.32962000  0.85504600  0.83544100  1
  Cr  Cr14  1  0.14495400  0.67038000  0.66455900  1
  Cr  Cr15  1  0.74742700  0.73995500  0.96906000  1
  Cr  Cr16  1  0.25257300  0.26004500  0.03094000  1
  Cr  Cr17  1  0.85504600  0.32962000  0.33544100  1
  Cr  Cr18  1  0.67038000  0.14495400  0.16455900  1
  Cr  Cr19  1  0.73995500  0.74742700  0.46906000  1
  P  P20  1  0.60381100  0.16559700  0.37296400  1
  P  P21  1  0.28276200  0.24553600  0.69035700  1
  P  P22  1  0.31237400  0.87626800  0.02966000  1
  P  P23  1  0.12373200  0.68762600  0.47034000  1
  P  P24  1  0.75446400  0.71723800  0.80964300  1
  P  P25  1  0.83440300  0.39618900  0.12703600  1
  P  P26  1  0.16559700  0.60381100  0.87296400  1
  P  P27  1  0.24553600  0.28276200  0.19035700  1
  P  P28  1  0.87626800  0.31237400  0.52966000  1
  P  P29  1  0.68762600  0.12373200  0.97034000  1
  P  P30  1  0.71723800  0.75446400  0.30964300  1
  P  P31  1  0.39618900  0.83440300  0.62703600  1
  O  O32  1  0.11151500  0.30494200  0.28788600  1
  O  O33  1  0.17444800  0.44104300  0.10692800  1
  O  O34  1  0.32294200  0.62424300  0.87358600  1
  O  O35  1  0.30419000  0.99954000  0.55306300  1
  O  O36  1  0.06054300  0.32514000  0.48033100  1
  O  O37  1  0.29941600  0.89462400  0.71763500  1
  O  O38  1  0.39968500  0.22137800  0.39883600  1
  O  O39  1  0.11617300  0.28981900  0.66325900  1
  O  O40  1  0.23082300  0.85110700  0.97061600  1
  O  O41  1  0.58780400  0.72055000  0.80363100  1
  O  O42  1  0.20249400  0.86071300  0.12952300  1
  O  O43  1  0.30494200  0.11151500  0.78788600  1
  O  O44  1  0.27252400  0.49081700  0.48376300  1
  O  O45  1  0.44104300  0.17444800  0.60692800  1
  O  O46  1  0.50918300  0.72747600  0.01623700  1
  O  O47  1  0.62424300  0.32294200  0.37358600  1
  O  O48  1  0.13928700  0.79750600  0.37047700  1
  O  O49  1  0.99954000  0.30419000  0.05306300  1
  O  O50  1  0.27945000  0.41219600  0.69636900  1
  O  O51  1  0.32514000  0.06054300  0.98033100  1
  O  O52  1  0.89462400  0.29941600  0.21763500  1
  O  O53  1  0.14889300  0.76917700  0.52938400  1
  O  O54  1  0.77862200  0.60031500  0.10116400  1
  O  O55  1  0.71018100  0.88382700  0.83674100  1
  O  O56  1  0.28981900  0.11617300  0.16325900  1
  O  O57  1  0.22137800  0.39968500  0.89883600  1
  O  O58  1  0.85110700  0.23082300  0.47061600  1
  O  O59  1  0.10537600  0.70058400  0.78236500  1
  O  O60  1  0.67486000  0.93945700  0.01966900  1
  O  O61  1  0.72055000  0.58780400  0.30363100  1
  O  O62  1  0.00046000  0.69581000  0.94693700  1
  O  O63  1  0.86071300  0.20249400  0.62952300  1
  O  O64  1  0.37575700  0.67705800  0.62641400  1
  O  O65  1  0.49081700  0.27252400  0.98376300  1
  O  O66  1  0.55895700  0.82555200  0.39307200  1
  O  O67  1  0.72747600  0.50918300  0.51623700  1
  O  O68  1  0.69505800  0.88848500  0.21211400  1
  O  O69  1  0.79750600  0.13928700  0.87047700  1
  O  O70  1  0.41219600  0.27945000  0.19636900  1
  O  O71  1  0.76917700  0.14889300  0.02938400  1
  O  O72  1  0.88382700  0.71018100  0.33674100  1
  O  O73  1  0.60031500  0.77862200  0.60116400  1
  O  O74  1  0.70058400  0.10537600  0.28236500  1
  O  O75  1  0.93945700  0.67486000  0.51966900  1
  O  O76  1  0.69581000  0.00046000  0.44693700  1
  O  O77  1  0.67705800  0.37575700  0.12641400  1
  O  O78  1  0.82555200  0.55895700  0.89307200  1
  O  O79  1  0.88848500  0.69505800  0.71211400  1
