# generated using pymatgen
data_Li2MnF4
_symmetry_space_group_name_H-M   'P 1'
_cell_length_a   6.47818800
_cell_length_b   5.23599600
_cell_length_c   10.54764407
_cell_angle_alpha   67.36200983
_cell_angle_beta   90.00000000
_cell_angle_gamma   90.00000000
_symmetry_Int_Tables_number   1
_chemical_formula_structural   Li2MnF4
_chemical_formula_sum   'Li8 Mn4 F16'
_cell_volume   330.20902820
_cell_formula_units_Z   4
loop_
 _symmetry_equiv_pos_site_id
 _symmetry_equiv_pos_as_xyz
  1  'x, y, z'
loop_
 _atom_site_type_symbol
 _atom_site_label
 _atom_site_symmetry_multiplicity
 _atom_site_fract_x
 _atom_site_fract_y
 _atom_site_fract_z
 _atom_site_occupancy
  Li  Li0  1  0.48217700  0.65787200  0.57631400  1
  Li  Li1  1  0.98217700  0.34212800  0.92368600  1
  Li  Li2  1  0.48167100  0.34018900  0.92476100  1
  Li  Li3  1  0.98167100  0.65981100  0.57523900  1
  Li  Li4  1  0.01832900  0.34018900  0.42476100  1
  Li  Li5  1  0.51832900  0.65981100  0.07523900  1
  Li  Li6  1  0.01782300  0.65787200  0.07631400  1
  Li  Li7  1  0.51782300  0.34212800  0.42368600  1
  Mn  Mn8  1  0.76315800  0.99894200  0.25056200  1
  Mn  Mn9  1  0.26315800  0.00105800  0.24943800  1
  Mn  Mn10  1  0.73684200  0.99894200  0.75056200  1
  Mn  Mn11  1  0.23684200  0.00105800  0.74943800  1
  F  F12  1  0.73191200  0.74994300  0.63891200  1
  F  F13  1  0.23156300  0.78231000  0.62239500  1
  F  F14  1  0.51435000  0.25687300  0.12335600  1
  F  F15  1  0.01135800  0.25562400  0.12261800  1
  F  F16  1  0.73156300  0.21769000  0.87760500  1
  F  F17  1  0.23191200  0.25005700  0.86108800  1
  F  F18  1  0.98565000  0.25687300  0.62335600  1
  F  F19  1  0.51135800  0.74437600  0.37738200  1
  F  F20  1  0.48864200  0.25562400  0.62261800  1
  F  F21  1  0.01435000  0.74312700  0.37664400  1
  F  F22  1  0.76808800  0.74994300  0.13891200  1
  F  F23  1  0.26843700  0.78231000  0.12239500  1
  F  F24  1  0.98864200  0.74437600  0.87738200  1
  F  F25  1  0.48565000  0.74312700  0.87664400  1
  F  F26  1  0.76843700  0.21769000  0.37760500  1
  F  F27  1  0.26808800  0.25005700  0.36108800  1
