# generated using pymatgen
data_Li3TiMn4O8
_symmetry_space_group_name_H-M   'P 1'
_cell_length_a   6.19473744
_cell_length_b   10.55372080
_cell_length_c   6.10716302
_cell_angle_alpha   73.03829861
_cell_angle_beta   60.38342749
_cell_angle_gamma   74.11278826
_symmetry_Int_Tables_number   1
_chemical_formula_structural   Li3TiMn4O8
_chemical_formula_sum   'Li6 Ti2 Mn8 O16'
_cell_volume   327.95259408
_cell_formula_units_Z   2
loop_
 _symmetry_equiv_pos_site_id
 _symmetry_equiv_pos_as_xyz
  1  'x, y, z'
loop_
 _atom_site_type_symbol
 _atom_site_label
 _atom_site_symmetry_multiplicity
 _atom_site_fract_x
 _atom_site_fract_y
 _atom_site_fract_z
 _atom_site_occupancy
  Li  Li0  1  0.73018300  0.24890400  0.74564400  1
  Li  Li1  1  0.26951700  0.75107100  0.25453100  1
  Li  Li2  1  0.75809400  0.23918800  0.25147700  1
  Li  Li3  1  0.24193800  0.76081000  0.74835500  1
  Li  Li4  1  0.24235700  0.25091200  0.74871700  1
  Li  Li5  1  0.75764000  0.74905200  0.25132600  1
  Ti  Ti6  1  0.49984400  0.00011900  0.49989400  1
  Ti  Ti7  1  0.00022100  0.50002100  0.99991400  1
  Mn  Mn8  1  0.50000900  0.49992800  0.49997300  1
  Mn  Mn9  1  0.24093600  0.24865400  0.25211200  1
  Mn  Mn10  1  0.75929200  0.75134600  0.74804800  1
  Mn  Mn11  1  0.00000300  0.99977700  0.00008300  1
  Mn  Mn12  1  0.00004600  0.99997400  0.49999000  1
  Mn  Mn13  1  0.49986600  0.50006500  0.99997500  1
  Mn  Mn14  1  0.49993500  0.99997000  0.99989600  1
  Mn  Mn15  1  0.99984900  0.50022600  0.50016500  1
  O  O16  1  0.89074200  0.39344400  0.85542400  1
  O  O17  1  0.38476700  0.88468700  0.38814700  1
  O  O18  1  0.61527500  0.11528700  0.61174400  1
  O  O19  1  0.10929200  0.60673000  0.14468100  1
  O  O20  1  0.33223900  0.38642200  0.38752000  1
  O  O21  1  0.88053900  0.88265500  0.88236100  1
  O  O22  1  0.11936700  0.11721500  0.11758300  1
  O  O23  1  0.66767800  0.61374700  0.61249100  1
  O  O24  1  0.87670800  0.37593700  0.34051300  1
  O  O25  1  0.39460900  0.87664500  0.84474500  1
  O  O26  1  0.34042800  0.38225500  0.88600100  1
  O  O27  1  0.85534100  0.88703400  0.36544400  1
  O  O28  1  0.14471500  0.11276200  0.63465800  1
  O  O29  1  0.65980900  0.61781600  0.11384600  1
  O  O30  1  0.60532200  0.12322700  0.15528300  1
  O  O31  1  0.12343800  0.62412000  0.65945700  1
