# generated using pymatgen
data_Li5Fe6P5O24
_symmetry_space_group_name_H-M   'P 1'
_cell_length_a   6.50359300
_cell_length_b   6.85825484
_cell_length_c   10.51741308
_cell_angle_alpha   106.91172827
_cell_angle_beta   107.58098046
_cell_angle_gamma   90.17997654
_symmetry_Int_Tables_number   1
_chemical_formula_structural   Li5Fe6P5O24
_chemical_formula_sum   'Li5 Fe6 P5 O24'
_cell_volume   425.72469434
_cell_formula_units_Z   1
loop_
 _symmetry_equiv_pos_site_id
 _symmetry_equiv_pos_as_xyz
  1  'x, y, z'
loop_
 _atom_site_type_symbol
 _atom_site_label
 _atom_site_symmetry_multiplicity
 _atom_site_fract_x
 _atom_site_fract_y
 _atom_site_fract_z
 _atom_site_occupancy
  Li  Li0  1  0.75404300  0.76511600  0.51599400  1
  Li  Li1  1  0.53149200  0.52022600  0.02008100  1
  Li  Li2  1  0.75924400  0.22502400  0.47519900  1
  Li  Li3  1  0.01535800  0.50353600  0.03490100  1
  Li  Li4  1  0.48412800  0.98762500  0.98161100  1
  Fe  Fe5  1  0.88888700  0.37944400  0.24311900  1
  Fe  Fe6  1  0.81322900  0.87353600  0.24368700  1
  Fe  Fe7  1  0.62988700  0.64962600  0.75391900  1
  Fe  Fe8  1  0.38455800  0.85338700  0.24392600  1
  Fe  Fe9  1  0.23234200  0.24492600  0.45728900  1
  Fe  Fe10  1  0.12443000  0.10929700  0.75637500  1
  P  P11  1  0.99631400  0.99437300  0.00110100  1
  P  P12  1  0.47910800  0.37916100  0.25556100  1
  P  P13  1  0.61983400  0.23732400  0.74712600  1
  P  P14  1  0.25078200  0.76273400  0.50884200  1
  P  P15  1  0.12606300  0.50982000  0.74979400  1
  O  O16  1  0.97351700  0.21885100  0.07532100  1
  O  O17  1  0.95152400  0.15664300  0.32833400  1
  O  O18  1  0.86735600  0.60102800  0.17633800  1
  O  O19  1  0.91465800  0.61275400  0.71542800  1
  O  O20  1  0.69178700  0.47485400  0.37891600  1
  O  O21  1  0.55759600  0.26852400  0.12874400  1
  O  O22  1  0.52883900  0.82534700  0.10646600  1
  O  O23  1  0.66793300  0.92085600  0.38426900  1
  O  O24  1  0.80244400  0.10672500  0.72017200  1
  O  O25  1  0.76080500  0.89180200  0.91130900  1
  O  O26  1  0.70379900  0.44620800  0.86654500  1
  O  O27  1  0.37092900  0.21830200  0.30258800  1
  O  O28  1  0.33293900  0.54217600  0.21397200  1
  O  O29  1  0.52270400  0.31037100  0.61136500  1
  O  O30  1  0.49139600  0.75124100  0.59060700  1
  O  O31  1  0.24622800  0.89860200  0.41054400  1
  O  O32  1  0.08867600  0.86649900  0.10161800  1
  O  O33  1  0.44663800  0.12855300  0.78175300  1
  O  O34  1  0.33066500  0.64637700  0.77517600  1
  O  O35  1  0.15530000  0.53375600  0.42955400  1
  O  O36  1  0.09891600  0.86094600  0.59359100  1
  O  O37  1  0.09430000  0.30523700  0.62098600  1
  O  O38  1  0.16135200  0.42071300  0.87530100  1
  O  O39  1  0.15000400  0.99848200  0.91257900  1
