# generated using pymatgen
data_Li7Mn2(CoO4)3
_symmetry_space_group_name_H-M   'P 1'
_cell_length_a   5.80250456
_cell_length_b   6.56916794
_cell_length_c   12.10715913
_cell_angle_alpha   80.06079805
_cell_angle_beta   102.18803597
_cell_angle_gamma   77.32560683
_symmetry_Int_Tables_number   1
_chemical_formula_structural   Li7Mn2(CoO4)3
_chemical_formula_sum   'Li14 Mn4 Co6 O24'
_cell_volume   428.34819717
_cell_formula_units_Z   2
loop_
 _symmetry_equiv_pos_site_id
 _symmetry_equiv_pos_as_xyz
  1  'x, y, z'
loop_
 _atom_site_type_symbol
 _atom_site_label
 _atom_site_symmetry_multiplicity
 _atom_site_fract_x
 _atom_site_fract_y
 _atom_site_fract_z
 _atom_site_occupancy
  Li  Li0  1  0.58316500  0.33314600  0.83305700  1
  Li  Li1  1  0.08351300  0.33361900  0.83363500  1
  Li  Li2  1  0.12516400  0.00277000  0.25212000  1
  Li  Li3  1  0.62349100  0.00364200  0.25226100  1
  Li  Li4  1  0.54150300  0.66371500  0.41460000  1
  Li  Li5  1  0.04319400  0.66293600  0.41443000  1
  Li  Li6  1  0.97353800  0.33320500  0.59294500  1
  Li  Li7  1  0.46890500  0.33554400  0.58942600  1
  Li  Li8  1  0.19783500  0.33089200  0.07731100  1
  Li  Li9  1  0.69326000  0.33322300  0.07377000  1
  Li  Li10  1  0.37303100  0.01759300  0.74980100  1
  Li  Li11  1  0.87238700  0.01742400  0.74979500  1
  Li  Li12  1  0.29358100  0.64932800  0.91682900  1
  Li  Li13  1  0.79411000  0.64954100  0.91684000  1
  Mn  Mn14  1  0.98731400  0.01441700  0.99499900  1
  Mn  Mn15  1  0.48707900  0.01404400  0.99507100  1
  Mn  Mn16  1  0.17963700  0.65273100  0.67158200  1
  Mn  Mn17  1  0.67939800  0.65227400  0.67164000  1
  Co  Co18  1  0.33329900  0.33330800  0.33333400  1
  Co  Co19  1  0.83332300  0.33331600  0.33332600  1
  Co  Co20  1  0.25903300  0.00151200  0.50083600  1
  Co  Co21  1  0.75863900  0.00069300  0.50173500  1
  Co  Co22  1  0.90798800  0.66602400  0.16491000  1
  Co  Co23  1  0.40764100  0.66509700  0.16583800  1
  O  O24  1  0.29307600  0.99582500  0.11080100  1
  O  O25  1  0.79345900  0.99610500  0.11130200  1
  O  O26  1  0.37366100  0.67082200  0.55587900  1
  O  O27  1  0.87322800  0.67052800  0.55532800  1
  O  O28  1  0.15505400  0.32926300  0.44891500  1
  O  O29  1  0.64478900  0.32957100  0.44686800  1
  O  O30  1  0.02182200  0.33705600  0.21978900  1
  O  O31  1  0.51153300  0.33737400  0.21774600  1
  O  O32  1  0.72920600  0.66653100  0.28296300  1
  O  O33  1  0.23195700  0.66248700  0.28351900  1
  O  O34  1  0.43468400  0.00410200  0.38314500  1
  O  O35  1  0.93743800  0.00006500  0.38370900  1
  O  O36  1  0.07907900  0.98504800  0.61986000  1
  O  O37  1  0.58055200  0.98415800  0.62002200  1
  O  O38  1  0.08612100  0.68256200  0.04663000  1
  O  O39  1  0.58751700  0.68167800  0.04679900  1
  O  O40  1  0.47282800  0.67020200  0.77725200  1
  O  O41  1  0.97285800  0.66991800  0.77733000  1
  O  O42  1  0.19385400  0.99653500  0.88934700  1
  O  O43  1  0.69383200  0.99682700  0.88934100  1
  O  O44  1  0.40034600  0.30688300  0.96317700  1
  O  O45  1  0.90084700  0.30705200  0.96353900  1
  O  O46  1  0.76593600  0.35959800  0.70314000  1
  O  O47  1  0.26629400  0.35981600  0.70350600  1
