# generated using pymatgen
data_LiCa2Pb
_symmetry_space_group_name_H-M   'P 1'
_cell_length_a   13.24339518
_cell_length_b   13.24339518
_cell_length_c   13.24339518
_cell_angle_alpha   121.00003779
_cell_angle_beta   119.63898048
_cell_angle_gamma   89.45155970
_symmetry_Int_Tables_number   1
_chemical_formula_structural   LiCa2Pb
_chemical_formula_sum   'Li1 Ca2 Pb1'
_cell_volume   1634.11076680
_cell_formula_units_Z   1
loop_
 _symmetry_equiv_pos_site_id
 _symmetry_equiv_pos_as_xyz
  1  'x, y, z'
loop_
 _atom_site_type_symbol
 _atom_site_label
 _atom_site_symmetry_multiplicity
 _atom_site_fract_x
 _atom_site_fract_y
 _atom_site_fract_z
 _atom_site_occupancy
  Li  Li0  1  0.00000000  0.00000000  0.00000000  1
  Ca  Ca1  1  0.00000000  0.26022700  0.26022700  1
  Ca  Ca2  1  0.00000000  0.73977300  0.73977300  1
  Pb  Pb3  1  0.00000000  0.50000000  0.50000000  1
