# generated using pymatgen
data_LiCoPO4
_symmetry_space_group_name_H-M   'P 1'
_cell_length_a   4.96747479
_cell_length_b   8.65101599
_cell_length_c   8.71963213
_cell_angle_alpha   110.61450047
_cell_angle_beta   91.32865147
_cell_angle_gamma   91.18755166
_symmetry_Int_Tables_number   1
_chemical_formula_structural   LiCoPO4
_chemical_formula_sum   'Li4 Co4 P4 O16'
_cell_volume   350.46062717
_cell_formula_units_Z   4
loop_
 _symmetry_equiv_pos_site_id
 _symmetry_equiv_pos_as_xyz
  1  'x, y, z'
loop_
 _atom_site_type_symbol
 _atom_site_label
 _atom_site_symmetry_multiplicity
 _atom_site_fract_x
 _atom_site_fract_y
 _atom_site_fract_z
 _atom_site_occupancy
  Li  Li0  1  0.03110400  0.50433800  0.46594100  1
  Li  Li1  1  0.53111800  0.50430600  0.96594900  1
  Li  Li2  1  0.96239000  0.00431000  0.03473700  1
  Li  Li3  1  0.46241400  0.00432400  0.53471100  1
  Co  Co4  1  0.97422600  0.24897100  0.77944200  1
  Co  Co5  1  0.03167700  0.74906600  0.22186800  1
  Co  Co6  1  0.47417300  0.24899600  0.27943800  1
  Co  Co7  1  0.53167700  0.74905700  0.72187700  1
  P  P8  1  0.97339900  0.12637900  0.40403800  1
  P  P9  1  0.47342200  0.12636700  0.90403500  1
  P  P10  1  0.52956700  0.62634900  0.34787700  1
  P  P11  1  0.02955800  0.62633200  0.84786600  1
  O  O12  1  0.29718200  0.15847400  0.05673100  1
  O  O13  1  0.79721800  0.15844500  0.55673900  1
  O  O14  1  0.65453700  0.65834600  0.19942100  1
  O  O15  1  0.15451500  0.65832500  0.69940900  1
  O  O16  1  0.78083500  0.09618000  0.25221000  1
  O  O17  1  0.28094500  0.09618300  0.75219800  1
  O  O18  1  0.22067300  0.59624000  0.31247200  1
  O  O19  1  0.72065500  0.59621400  0.81245700  1
  O  O20  1  0.16729000  0.27803700  0.43049600  1
  O  O21  1  0.66736500  0.27800400  0.93052000  1
  O  O22  1  0.09050300  0.77804100  0.00736700  1
  O  O23  1  0.59052000  0.77805200  0.50739200  1
  O  O24  1  0.64988400  0.47276300  0.37451400  1
  O  O25  1  0.14986300  0.47274900  0.87450700  1
  O  O26  1  0.15025000  0.97279000  0.37412900  1
  O  O27  1  0.65020400  0.97275600  0.87417700  1
