# generated using pymatgen
data_Li3Mn3TeO8
_symmetry_space_group_name_H-M   'P 1'
_cell_length_a   6.13022960
_cell_length_b   10.86287392
_cell_length_c   6.12845571
_cell_angle_alpha   90.93034753
_cell_angle_beta   62.41977985
_cell_angle_gamma   73.28440379
_symmetry_Int_Tables_number   1
_chemical_formula_structural   Li3Mn3TeO8
_chemical_formula_sum   'Li6 Mn6 Te2 O16'
_cell_volume   341.03715318
_cell_formula_units_Z   2
loop_
 _symmetry_equiv_pos_site_id
 _symmetry_equiv_pos_as_xyz
  1  'x, y, z'
loop_
 _atom_site_type_symbol
 _atom_site_label
 _atom_site_symmetry_multiplicity
 _atom_site_fract_x
 _atom_site_fract_y
 _atom_site_fract_z
 _atom_site_occupancy
  Li  Li0  1  0.46901000  0.01686700  0.03294500  1
  Li  Li1  1  0.53100900  0.48293200  0.46718100  1
  Li  Li2  1  0.98085000  0.98409600  0.51479400  1
  Li  Li3  1  0.01959200  0.51592700  0.98491500  1
  Li  Li4  1  0.00018400  0.74995800  0.74995800  1
  Li  Li5  1  0.99991800  0.24989500  0.25009700  1
  Mn  Mn6  1  0.50005100  0.24987000  0.24997000  1
  Mn  Mn7  1  0.49610400  0.99837200  0.50227000  1
  Mn  Mn8  1  0.50395700  0.50175600  0.99791300  1
  Mn  Mn9  1  0.99985700  0.24994200  0.75006400  1
  Mn  Mn10  1  0.00005800  0.75013300  0.25003600  1
  Mn  Mn11  1  0.50005100  0.75017200  0.74997400  1
  Te  Te12  1  0.99862700  0.99993900  0.00097500  1
  Te  Te13  1  0.00127500  0.50005500  0.49894900  1
  O  O14  1  0.22828700  0.64300300  0.92403100  1
  O  O15  1  0.28145600  0.14287900  0.37037000  1
  O  O16  1  0.77203600  0.85701600  0.57584700  1
  O  O17  1  0.71811500  0.35711200  0.12986300  1
  O  O18  1  0.22558200  0.38472000  0.17064400  1
  O  O19  1  0.21366800  0.89104500  0.66843800  1
  O  O20  1  0.78687100  0.88397500  0.10836100  1
  O  O21  1  0.77797800  0.39131400  0.60546700  1
  O  O22  1  0.77920700  0.60752900  0.37803500  1
  O  O23  1  0.77054900  0.10714200  0.88588500  1
  O  O24  1  0.77416300  0.11530300  0.32932000  1
  O  O25  1  0.78644800  0.60896700  0.83149400  1
  O  O26  1  0.21317000  0.61598900  0.39165400  1
  O  O27  1  0.22180500  0.10875300  0.89463100  1
  O  O28  1  0.22083000  0.89251400  0.12183700  1
  O  O29  1  0.22929200  0.39282000  0.61407400  1
