# generated using pymatgen
data_Li4V3P8O29
_symmetry_space_group_name_H-M   'P 1'
_cell_length_a   9.72816700
_cell_length_b   9.75932719
_cell_length_c   14.29341155
_cell_angle_alpha   90.95847869
_cell_angle_beta   90.11360223
_cell_angle_gamma   119.71860011
_symmetry_Int_Tables_number   1
_chemical_formula_structural   Li4V3P8O29
_chemical_formula_sum   'Li8 V6 P16 O58'
_cell_volume   1178.28608683
_cell_formula_units_Z   2
loop_
 _symmetry_equiv_pos_site_id
 _symmetry_equiv_pos_as_xyz
  1  'x, y, z'
loop_
 _atom_site_type_symbol
 _atom_site_label
 _atom_site_symmetry_multiplicity
 _atom_site_fract_x
 _atom_site_fract_y
 _atom_site_fract_z
 _atom_site_occupancy
  Li  Li0  1  0.68398100  0.91154900  0.55393500  1
  Li  Li1  1  0.09460800  0.32961800  0.06663100  1
  Li  Li2  1  0.76861200  0.66998400  0.43535000  1
  Li  Li3  1  0.24099400  0.34316000  0.55888700  1
  Li  Li4  1  0.89958500  0.66272200  0.94018800  1
  Li  Li5  1  0.76897800  0.08559400  0.94619600  1
  Li  Li6  1  0.04652700  0.98330400  0.01767100  1
  Li  Li7  1  0.06602500  0.02133400  0.48294800  1
  V  V8  1  0.56212500  0.56385900  0.24436000  1
  V  V9  1  0.43461700  0.43151700  0.75953500  1
  V  V10  1  0.00261400  0.56825600  0.74230100  1
  V  V11  1  0.99732800  0.43471100  0.25359800  1
  V  V12  1  0.43288800  0.00083200  0.25205200  1
  V  V13  1  0.55950900  0.00053400  0.74752000  1
  P  P14  1  0.21920500  0.91589600  0.84149300  1
  P  P15  1  0.08286800  0.78598900  0.33531900  1
  P  P16  1  0.69061900  0.91383300  0.34009700  1
  P  P17  1  0.32996600  0.66484400  0.13267200  1
  P  P18  1  0.33418600  0.65716800  0.63446800  1
  P  P19  1  0.69733700  0.78249400  0.83573800  1
  P  P20  1  0.76364500  0.67631800  0.65457900  1
  P  P21  1  0.08616400  0.32034100  0.84534900  1
  P  P22  1  0.90996400  0.68226900  0.15433400  1
  P  P23  1  0.22937600  0.31958700  0.34592900  1
  P  P24  1  0.29859300  0.21314800  0.16577300  1
  P  P25  1  0.66585400  0.33665600  0.36605600  1
  P  P26  1  0.67814100  0.34136300  0.86696800  1
  P  P27  1  0.30107700  0.08360800  0.65976400  1
  P  P28  1  0.91683000  0.21758500  0.66302700  1
  P  P29  1  0.77395700  0.08482600  0.15963600  1
  O  O30  1  0.21112600  0.00703000  0.57297300  1
  O  O31  1  0.25797100  0.92074700  0.33268600  1
  O  O32  1  0.97485400  0.75996000  0.06294800  1
  O  O33  1  0.07871600  0.74045800  0.83001300  1
  O  O34  1  0.37725000  0.91891800  0.82911900  1
  O  O35  1  0.33252800  0.81221800  0.17986700  1
  O  O36  1  0.53348600  0.91582000  0.32702200  1
  O  O37  1  0.77704200  0.00566800  0.06969900  1
  O  O38  1  0.66004800  0.91943900  0.83577400  1
  O  O39  1  0.18754200  0.66702900  0.67557600  1
  O  O40  1  0.07302800  0.62542300  0.33295800  1
  O  O41  1  0.48666500  0.81001000  0.66796100  1
  O  O42  1  0.33932700  0.66557600  0.02909700  1
  O  O43  1  0.32468800  0.62880800  0.53145800  1
  O  O44  1  0.48003200  0.66522700  0.17981900  1
  O  O45  1  0.09014100  0.47693700  0.82457200  1
  O  O46  1  0.18480000  0.51246900  0.16940700  1
  O  O47  1  0.65969800  0.74075200  0.33438600  1
  O  O48  1  0.78639700  0.79954900  0.73735300  1
  O  O49  1  0.75737900  0.74884000  0.56403600  1
  O  O50  1  0.80263600  0.79334100  0.91430300  1
  O  O51  1  0.53915700  0.62183700  0.82781600  1
  O  O52  1  0.32779600  0.51145700  0.68474300  1
  O  O53  1  0.73684500  0.64952500  0.16655600  1
  O  O54  1  0.38680900  0.47162700  0.32829200  1
  O  O55  1  0.09132000  0.35317600  0.33318200  1
  O  O56  1  0.00882600  0.80505300  0.23711100  1
  O  O57  1  0.99501100  0.81408500  0.41288100  1
  O  O58  1  0.01528000  0.20996900  0.58575800  1
  O  O59  1  0.90895200  0.65144600  0.66143400  1
  O  O60  1  0.61127600  0.52120700  0.67638300  1
  O  O61  1  0.25668900  0.34524300  0.83835600  1
  O  O62  1  0.66723500  0.48499000  0.32079100  1
  O  O63  1  0.45345900  0.37587200  0.17144800  1
  O  O64  1  0.18920500  0.19472200  0.08654500  1
  O  O65  1  0.22053900  0.24291400  0.43721600  1
  O  O66  1  0.20818400  0.19634300  0.26311700  1
  O  O67  1  0.33988600  0.25909600  0.66909600  1
  O  O68  1  0.81657200  0.48856000  0.81734400  1
  O  O69  1  0.91346700  0.52902900  0.17000500  1
  O  O70  1  0.52171600  0.33399200  0.82551500  1
  O  O71  1  0.69476800  0.36868300  0.97006600  1
  O  O72  1  0.66332300  0.35109900  0.46969700  1
  O  O73  1  0.51478700  0.18669000  0.32243700  1
  O  O74  1  0.91835700  0.37798100  0.67257400  1
  O  O75  1  0.80560200  0.32586000  0.32270500  1
  O  O76  1  0.33965700  0.07979700  0.16554000  1
  O  O77  1  0.19813800  0.00075800  0.75024600  1
  O  O78  1  0.19578100  0.98940800  0.92679500  1
  O  O79  1  0.46023500  0.08093200  0.67349600  1
  O  O80  1  0.67718300  0.19046300  0.83089800  1
  O  O81  1  0.61651100  0.08461300  0.17642100  1
  O  O82  1  0.91712400  0.25462300  0.16389600  1
  O  O83  1  0.00800900  0.24806700  0.93593800  1
  O  O84  1  0.98659200  0.19792600  0.76237100  1
  O  O85  1  0.74430600  0.07952900  0.65989900  1
  O  O86  1  0.77477000  0.98832700  0.43028600  1
  O  O87  1  0.79662700  0.99776200  0.24973600  1
