# generated using pymatgen
data_Li4V3P8O29
_symmetry_space_group_name_H-M   'P 1'
_cell_length_a   9.80098800
_cell_length_b   9.81006768
_cell_length_c   14.07767634
_cell_angle_alpha   89.82051716
_cell_angle_beta   89.80095751
_cell_angle_gamma   60.10872077
_symmetry_Int_Tables_number   1
_chemical_formula_structural   Li4V3P8O29
_chemical_formula_sum   'Li8 V6 P16 O58'
_cell_volume   1173.47820343
_cell_formula_units_Z   2
loop_
 _symmetry_equiv_pos_site_id
 _symmetry_equiv_pos_as_xyz
  1  'x, y, z'
loop_
 _atom_site_type_symbol
 _atom_site_label
 _atom_site_symmetry_multiplicity
 _atom_site_fract_x
 _atom_site_fract_y
 _atom_site_fract_z
 _atom_site_occupancy
  Li  Li0  1  0.77475100  0.91317700  0.55889300  1
  Li  Li1  1  0.91416000  0.77568600  0.05859700  1
  Li  Li2  1  0.77023300  0.32498900  0.06108700  1
  Li  Li3  1  0.09361200  0.68020000  0.44383800  1
  Li  Li4  1  0.90477800  0.32019100  0.55856500  1
  Li  Li5  1  0.09677700  0.22334500  0.94143500  1
  Li  Li6  1  0.22881900  0.08844800  0.43824000  1
  Li  Li7  1  0.68050100  0.09204400  0.94210500  1
  V  V8  1  0.99906800  0.56783100  0.24780200  1
  V  V9  1  0.99927500  0.43321300  0.75178400  1
  V  V10  1  0.43054700  0.56990500  0.74888700  1
  V  V11  1  0.56117400  0.43458100  0.25322400  1
  V  V12  1  0.43261600  0.99686200  0.24831800  1
  V  V13  1  0.56259600  0.00037200  0.74988700  1
  P  P14  1  0.31362800  0.91217200  0.83964000  1
  P  P15  1  0.31374000  0.76963700  0.34182600  1
  P  P16  1  0.76819500  0.91187700  0.34173200  1
  P  P17  1  0.66682800  0.66352400  0.12875200  1
  P  P18  1  0.66640800  0.66635800  0.62902900  1
  P  P19  1  0.90942600  0.76968300  0.84190200  1
  P  P20  1  0.08875100  0.67971700  0.66077700  1
  P  P21  1  0.76596500  0.31951500  0.84281500  1
  P  P22  1  0.23136100  0.68636500  0.15504000  1
  P  P23  1  0.90915200  0.31979500  0.33974100  1
  P  P24  1  0.08975400  0.22914200  0.15944200  1
  P  P25  1  0.32874000  0.33459200  0.37100600  1
  P  P26  1  0.33569200  0.33274900  0.87075700  1
  P  P27  1  0.22886800  0.08825600  0.65648400  1
  P  P28  1  0.68323000  0.23105700  0.65922400  1
  P  P29  1  0.67996000  0.08956400  0.16014500  1
  O  O30  1  0.24172100  0.01033500  0.56424500  1
  O  O31  1  0.33574300  0.91465900  0.34046400  1
  O  O32  1  0.23384200  0.76282800  0.06600800  1
  O  O33  1  0.34309900  0.74291700  0.83451700  1
  O  O34  1  0.47546500  0.90604100  0.82156400  1
  O  O35  1  0.52243600  0.80656600  0.17252900  1
  O  O36  1  0.61643700  0.90512800  0.32317200  1
  O  O37  1  0.76101300  0.00295500  0.07059600  1
  O  O38  1  0.74124700  0.91884400  0.83538900  1
  O  O39  1  0.51909900  0.66643700  0.67492100  1
  O  O40  1  0.47687500  0.61742500  0.32243900  1
  O  O41  1  0.66685600  0.81850900  0.67102100  1
  O  O42  1  0.68462600  0.65637600  0.02349700  1
  O  O43  1  0.66509900  0.67313800  0.52347600  1
  O  O44  1  0.82025900  0.66544100  0.17158500  1
  O  O45  1  0.61701100  0.47853500  0.82314000  1
  O  O46  1  0.67256500  0.50983600  0.16925300  1
  O  O47  1  0.91609600  0.74255300  0.33571500  1
  O  O48  1  0.99803500  0.79068100  0.75075000  1
  O  O49  1  0.00233200  0.75925900  0.57130400  1
  O  O50  1  0.98630700  0.76762300  0.93269000  1
  O  O51  1  0.89887300  0.62007900  0.82308000  1
  O  O52  1  0.81364200  0.51496600  0.66809500  1
  O  O53  1  0.08553400  0.65930300  0.16319600  1
  O  O54  1  0.90357900  0.47864700  0.32107400  1
  O  O55  1  0.74204000  0.34395100  0.33486700  1
  O  O56  1  0.20969600  0.79035100  0.24869000  1
  O  O57  1  0.23504000  0.75521600  0.42819800  1
  O  O58  1  0.77074200  0.23510400  0.57418200  1
  O  O59  1  0.25550200  0.65964200  0.66659900  1
  O  O60  1  0.09935400  0.51987400  0.67659700  1
  O  O61  1  0.91488400  0.33633100  0.84145700  1
  O  O62  1  0.18020600  0.48749400  0.32799900  1
  O  O63  1  0.09676200  0.38191300  0.17806000  1
  O  O64  1  0.00080100  0.24407200  0.06993300  1
  O  O65  1  0.99671700  0.24501800  0.42948300  1
  O  O66  1  0.99917400  0.20891500  0.24983100  1
  O  O67  1  0.08254500  0.25510700  0.66274000  1
  O  O68  1  0.33787500  0.47746000  0.82397100  1
  O  O69  1  0.38369700  0.52515900  0.17723200  1
  O  O70  1  0.18757400  0.32720500  0.83397500  1
  O  O71  1  0.34768300  0.32596100  0.97617900  1
  O  O72  1  0.32570100  0.34667400  0.47634400  1
  O  O73  1  0.32626100  0.18630100  0.33412700  1
  O  O74  1  0.52424000  0.38366800  0.67578600  1
  O  O75  1  0.47734000  0.33597300  0.32466800  1
  O  O76  1  0.25573900  0.08678100  0.16399700  1
  O  O77  1  0.21092300  0.99468300  0.74484100  1
  O  O78  1  0.23291300  0.00464900  0.92517300  1
  O  O79  1  0.38034600  0.09813600  0.67938900  1
  O  O80  1  0.48863700  0.18076600  0.82828500  1
  O  O81  1  0.51998700  0.10329900  0.17692500  1
  O  O82  1  0.66464900  0.25539400  0.16272400  1
  O  O83  1  0.75458700  0.24458300  0.93370400  1
  O  O84  1  0.78620900  0.20662000  0.75491800  1
  O  O85  1  0.65909800  0.08537000  0.66102000  1
  O  O86  1  0.76743200  0.98776700  0.43285000  1
  O  O87  1  0.79098100  0.99937000  0.25055800  1
