# generated using pymatgen
data_Li9Mn2Co5O16
_symmetry_space_group_name_H-M   'P 1'
_cell_length_a   2.97046300
_cell_length_b   9.98771053
_cell_length_c   10.01207601
_cell_angle_alpha   101.99656827
_cell_angle_beta   89.94815263
_cell_angle_gamma   90.58944318
_symmetry_Int_Tables_number   1
_chemical_formula_structural   Li9Mn2Co5O16
_chemical_formula_sum   'Li9 Mn2 Co5 O16'
_cell_volume   290.53658420
_cell_formula_units_Z   1
loop_
 _symmetry_equiv_pos_site_id
 _symmetry_equiv_pos_as_xyz
  1  'x, y, z'
loop_
 _atom_site_type_symbol
 _atom_site_label
 _atom_site_symmetry_multiplicity
 _atom_site_fract_x
 _atom_site_fract_y
 _atom_site_fract_z
 _atom_site_occupancy
  Li  Li0  1  0.99843200  0.26811700  0.87080700  1
  Li  Li1  1  0.49506200  0.74143900  0.86651300  1
  Li  Li2  1  0.50376200  0.25557700  0.63095800  1
  Li  Li3  1  0.99318900  0.73963400  0.61840400  1
  Li  Li4  1  0.00282700  0.26155300  0.38742600  1
  Li  Li5  1  0.50098400  0.72897600  0.37382200  1
  Li  Li6  1  0.49748200  0.27632600  0.12923200  1
  Li  Li7  1  0.00590900  0.72763000  0.12258300  1
  Li  Li8  1  0.99665000  0.50295600  0.24946100  1
  Mn  Mn9  1  0.99007000  0.00144400  0.99633000  1
  Mn  Mn10  1  0.50858000  0.99974500  0.25288100  1
  Co  Co11  1  0.50410100  0.49713200  0.01299700  1
  Co  Co12  1  0.47249500  0.00105800  0.73889100  1
  Co  Co13  1  0.00261700  0.50018100  0.75418500  1
  Co  Co14  1  0.02792600  0.99753000  0.50879800  1
  Co  Co15  1  0.49543200  0.49995700  0.49250100  1
  O  O16  1  0.49254400  0.10778100  0.94878700  1
  O  O17  1  0.00770400  0.62056900  0.92399100  1
  O  O18  1  0.99199000  0.12212500  0.69323400  1
  O  O19  1  0.49412300  0.61048900  0.67267600  1
  O  O20  1  0.52382200  0.10875100  0.42865800  1
  O  O21  1  0.96741200  0.61257900  0.44086000  1
  O  O22  1  0.00541900  0.10534200  0.18978800  1
  O  O23  1  0.49913100  0.62171000  0.17328200  1
  O  O24  1  0.50736300  0.38707700  0.81693200  1
  O  O25  1  0.97835500  0.89005100  0.82096500  1
  O  O26  1  0.03177600  0.38767800  0.57075700  1
  O  O27  1  0.50984800  0.87805600  0.56120400  1
  O  O28  1  0.49962700  0.38220100  0.33580700  1
  O  O29  1  0.00693900  0.89025000  0.29751300  1
  O  O30  1  0.99825400  0.37842300  0.06024500  1
  O  O31  1  0.49017700  0.89766400  0.05951200  1
