# generated using pymatgen
data_LiAlSiH2O5
_symmetry_space_group_name_H-M   'P 1'
_cell_length_a   5.12029400
_cell_length_b   7.99906000
_cell_length_c   10.61565700
_cell_angle_alpha   90.00000000
_cell_angle_beta   90.00000000
_cell_angle_gamma   90.00000000
_symmetry_Int_Tables_number   1
_chemical_formula_structural   LiAlSiH2O5
_chemical_formula_sum   'Li4 Al4 Si4 H8 O20'
_cell_volume   434.79118478
_cell_formula_units_Z   4
loop_
 _symmetry_equiv_pos_site_id
 _symmetry_equiv_pos_as_xyz
  1  'x, y, z'
loop_
 _atom_site_type_symbol
 _atom_site_label
 _atom_site_symmetry_multiplicity
 _atom_site_fract_x
 _atom_site_fract_y
 _atom_site_fract_z
 _atom_site_occupancy
  Li  Li0  1  0.76475100  0.15764600  0.68552100  1
  Li  Li1  1  0.26475100  0.84235400  0.31447900  1
  Li  Li2  1  0.26475100  0.65764600  0.81447900  1
  Li  Li3  1  0.76475100  0.34235400  0.18552100  1
  Al  Al4  1  0.76128700  0.56668300  0.66104300  1
  Al  Al5  1  0.26128700  0.43331700  0.33895700  1
  Al  Al6  1  0.26128700  0.06668300  0.83895700  1
  Al  Al7  1  0.76128700  0.93331700  0.16104300  1
  Si  Si8  1  0.76167500  0.85337700  0.86821000  1
  Si  Si9  1  0.26167500  0.14662300  0.13179000  1
  Si  Si10  1  0.26167500  0.35337700  0.63179000  1
  Si  Si11  1  0.76167500  0.64662300  0.36821000  1
  H  H12  1  0.86181200  0.61052900  0.05325700  1
  H  H13  1  0.36181200  0.38947100  0.94674300  1
  H  H14  1  0.36181200  0.11052900  0.44674300  1
  H  H15  1  0.86181200  0.88947100  0.55325700  1
  H  H16  1  0.34542800  0.53949700  0.03410000  1
  H  H17  1  0.84542800  0.46050300  0.96590000  1
  H  H18  1  0.84542800  0.03949700  0.46590000  1
  H  H19  1  0.34542800  0.96050300  0.53410000  1
  O  O20  1  0.81108900  0.67734700  0.51920500  1
  O  O21  1  0.31108900  0.32265300  0.48079500  1
  O  O22  1  0.31108900  0.17734700  0.98079500  1
  O  O23  1  0.81108900  0.82265300  0.01920500  1
  O  O24  1  0.87115700  0.69026700  0.78949600  1
  O  O25  1  0.37115700  0.30973300  0.21050400  1
  O  O26  1  0.37115700  0.19026700  0.71050400  1
  O  O27  1  0.87115700  0.80973300  0.28949600  1
  O  O28  1  0.42564200  0.51962700  0.67741700  1
  O  O29  1  0.92564200  0.48037300  0.32258300  1
  O  O30  1  0.92564200  0.01962700  0.82258300  1
  O  O31  1  0.42564200  0.98037300  0.17741700  1
  O  O32  1  0.94990200  0.37988500  0.66491500  1
  O  O33  1  0.44990200  0.62011500  0.33508500  1
  O  O34  1  0.44990200  0.87988500  0.83508500  1
  O  O35  1  0.94990200  0.12011500  0.16491500  1
  O  O36  1  0.88715700  0.48739300  0.05324200  1
  O  O37  1  0.38715700  0.51260700  0.94675800  1
  O  O38  1  0.38715700  0.98739300  0.44675800  1
  O  O39  1  0.88715700  0.01260700  0.55324200  1
