# generated using pymatgen
data_Li2Pd(N2O5)2
_symmetry_space_group_name_H-M   'P 1'
_cell_length_a   8.66708900
_cell_length_b   10.53062200
_cell_length_c   11.18186100
_cell_angle_alpha   90.00000000
_cell_angle_beta   90.00000000
_cell_angle_gamma   90.00000000
_symmetry_Int_Tables_number   1
_chemical_formula_structural   Li2Pd(N2O5)2
_chemical_formula_sum   'Li8 Pd4 N16 O40'
_cell_volume   1020.56664312
_cell_formula_units_Z   4
loop_
 _symmetry_equiv_pos_site_id
 _symmetry_equiv_pos_as_xyz
  1  'x, y, z'
loop_
 _atom_site_type_symbol
 _atom_site_label
 _atom_site_symmetry_multiplicity
 _atom_site_fract_x
 _atom_site_fract_y
 _atom_site_fract_z
 _atom_site_occupancy
  Li  Li0  1  0.14263900  0.12533800  0.12546800  1
  Li  Li1  1  0.82684600  0.12543000  0.92076600  1
  Li  Li2  1  0.32684600  0.87457000  0.07923400  1
  Li  Li3  1  0.64263900  0.87466200  0.87453200  1
  Li  Li4  1  0.82684600  0.37457000  0.42076600  1
  Li  Li5  1  0.14263900  0.37466200  0.62546800  1
  Li  Li6  1  0.64263900  0.62533800  0.37453200  1
  Li  Li7  1  0.32684600  0.62543000  0.57923400  1
  Pd  Pd8  1  0.50270700  0.33014800  0.99776600  1
  Pd  Pd9  1  0.00270700  0.66985200  0.00223400  1
  Pd  Pd10  1  0.50270700  0.16985200  0.49776600  1
  Pd  Pd11  1  0.00270700  0.83014800  0.50223400  1
  N  N12  1  0.50329800  0.52651700  0.99972100  1
  N  N13  1  0.00329800  0.47348300  0.00027900  1
  N  N14  1  0.50329800  0.97348300  0.49972100  1
  N  N15  1  0.00329800  0.02651700  0.50027900  1
  N  N16  1  0.49541700  0.13078500  0.99816600  1
  N  N17  1  0.99541700  0.86921500  0.00183400  1
  N  N18  1  0.49541700  0.36921500  0.49816600  1
  N  N19  1  0.99541700  0.63078500  0.50183400  1
  N  N20  1  0.37153200  0.33700800  0.15444600  1
  N  N21  1  0.63604900  0.33634600  0.84097400  1
  N  N22  1  0.13604900  0.66365400  0.15902600  1
  N  N23  1  0.87153200  0.66299200  0.84555400  1
  N  N24  1  0.63604900  0.16365400  0.34097400  1
  N  N25  1  0.37153200  0.16299200  0.65444600  1
  N  N26  1  0.87153200  0.83700800  0.34555400  1
  N  N27  1  0.13604900  0.83634600  0.65902600  1
  O  O28  1  0.42957000  0.39174100  0.24082300  1
  O  O29  1  0.57958100  0.39365000  0.75549000  1
  O  O30  1  0.07958100  0.60635000  0.24451000  1
  O  O31  1  0.92957000  0.60825900  0.75917700  1
  O  O32  1  0.57958100  0.10635000  0.25549000  1
  O  O33  1  0.42957000  0.10825900  0.74082300  1
  O  O34  1  0.92957000  0.89174100  0.25917700  1
  O  O35  1  0.07958100  0.89365000  0.74451000  1
  O  O36  1  0.41204000  0.57876200  0.93084500  1
  O  O37  1  0.59232400  0.57925400  0.06939700  1
  O  O38  1  0.09232400  0.42074600  0.93060300  1
  O  O39  1  0.91204000  0.42123800  0.06915500  1
  O  O40  1  0.59232400  0.92074600  0.56939700  1
  O  O41  1  0.41204000  0.92123800  0.43084500  1
  O  O42  1  0.91204000  0.07876200  0.56915500  1
  O  O43  1  0.09232400  0.07925400  0.43060300  1
  O  O44  1  0.23936100  0.29046300  0.15813300  1
  O  O45  1  0.76696100  0.28711600  0.83732500  1
  O  O46  1  0.26696100  0.71288400  0.16267500  1
  O  O47  1  0.73936100  0.70953700  0.84186700  1
  O  O48  1  0.76696100  0.21288400  0.33732500  1
  O  O49  1  0.23936100  0.20953700  0.65813300  1
  O  O50  1  0.73936100  0.79046300  0.34186700  1
  O  O51  1  0.26696100  0.78711600  0.66267500  1
  O  O52  1  0.37228300  0.07595500  0.02269500  1
  O  O53  1  0.61302900  0.06729200  0.97398800  1
  O  O54  1  0.11302900  0.93270800  0.02601200  1
  O  O55  1  0.87228300  0.92404500  0.97730500  1
  O  O56  1  0.61302900  0.43270800  0.47398800  1
  O  O57  1  0.37228300  0.42404500  0.52269500  1
  O  O58  1  0.87228300  0.57595500  0.47730500  1
  O  O59  1  0.11302900  0.56729200  0.52601200  1
  O  O60  1  0.25923600  0.99330300  0.21821300  1
  O  O61  1  0.75923600  0.00669700  0.78178700  1
  O  O62  1  0.75923600  0.49330300  0.28178700  1
  O  O63  1  0.25923600  0.50669700  0.71821300  1
  O  O64  1  0.43172800  0.84298700  0.92627300  1
  O  O65  1  0.93172800  0.15701300  0.07372700  1
  O  O66  1  0.43172800  0.65701300  0.42627300  1
  O  O67  1  0.93172800  0.34298700  0.57372700  1
