# generated using pymatgen
data_Li4MgNi3O8
_symmetry_space_group_name_H-M   'P 1'
_cell_length_a   5.78520780
_cell_length_b   10.06277880
_cell_length_c   5.85474120
_cell_angle_alpha   107.18646872
_cell_angle_beta   119.65201731
_cell_angle_gamma   90.01707059
_symmetry_Int_Tables_number   1
_chemical_formula_structural   Li4MgNi3O8
_chemical_formula_sum   'Li8 Mg2 Ni6 O16'
_cell_volume   278.53651893
_cell_formula_units_Z   2
loop_
 _symmetry_equiv_pos_site_id
 _symmetry_equiv_pos_as_xyz
  1  'x, y, z'
loop_
 _atom_site_type_symbol
 _atom_site_label
 _atom_site_symmetry_multiplicity
 _atom_site_fract_x
 _atom_site_fract_y
 _atom_site_fract_z
 _atom_site_occupancy
  Li  Li0  1  0.50001800  0.99999300  0.50001400  1
  Li  Li1  1  0.99998500  0.50000300  0.49999700  1
  Li  Li2  1  0.00000200  0.99999500  0.50001000  1
  Li  Li3  1  0.49997900  0.50000700  0.49999100  1
  Li  Li4  1  0.24367400  0.74585400  0.50096700  1
  Li  Li5  1  0.75632800  0.25414500  0.49906000  1
  Li  Li6  1  0.74188900  0.75480100  0.49835600  1
  Li  Li7  1  0.25811300  0.24517100  0.50165200  1
  Mg  Mg8  1  0.74790300  0.74995000  0.99960200  1
  Mg  Mg9  1  0.25210700  0.25004800  0.00041300  1
  Ni  Ni10  1  0.24571200  0.74997600  0.99971700  1
  Ni  Ni11  1  0.75422200  0.24998700  0.00025100  1
  Ni  Ni12  1  0.99995600  0.50003000  0.99995800  1
  Ni  Ni13  1  0.50001700  0.50003900  0.00001700  1
  Ni  Ni14  1  0.00007100  0.00006100  0.00005300  1
  Ni  Ni15  1  0.50001700  0.99998800  0.00001400  1
  O  O16  1  0.10453000  0.88282500  0.75639000  1
  O  O17  1  0.65179000  0.38270900  0.75658200  1
  O  O18  1  0.89551200  0.11714200  0.24359300  1
  O  O19  1  0.34818000  0.61730700  0.24341000  1
  O  O20  1  0.35514700  0.11154600  0.21852500  1
  O  O21  1  0.86322100  0.61164600  0.21815400  1
  O  O22  1  0.64487300  0.88843300  0.78146200  1
  O  O23  1  0.13673600  0.38835900  0.78183600  1
  O  O24  1  0.90189200  0.62210700  0.78421800  1
  O  O25  1  0.40820400  0.12611300  0.78434600  1
  O  O26  1  0.09809900  0.37790800  0.21577400  1
  O  O27  1  0.59182200  0.87388600  0.21567100  1
  O  O28  1  0.11760500  0.87769700  0.21538400  1
  O  O29  1  0.62434300  0.37387800  0.21606200  1
  O  O30  1  0.88242300  0.12227800  0.78460100  1
  O  O31  1  0.37563300  0.62611800  0.78391700  1
