# generated using pymatgen
data_Li5Mn2CoO8
_symmetry_space_group_name_H-M   'P 1'
_cell_length_a   5.11219170
_cell_length_b   7.71497836
_cell_length_c   7.64092898
_cell_angle_alpha   83.31960722
_cell_angle_beta   76.29313628
_cell_angle_gamma   103.40285379
_symmetry_Int_Tables_number   1
_chemical_formula_structural   Li5Mn2CoO8
_chemical_formula_sum   'Li10 Mn4 Co2 O16'
_cell_volume   280.08987320
_cell_formula_units_Z   2
loop_
 _symmetry_equiv_pos_site_id
 _symmetry_equiv_pos_as_xyz
  1  'x, y, z'
loop_
 _atom_site_type_symbol
 _atom_site_label
 _atom_site_symmetry_multiplicity
 _atom_site_fract_x
 _atom_site_fract_y
 _atom_site_fract_z
 _atom_site_occupancy
  Li  Li0  1  0.50002400  0.12488200  0.12500000  1
  Li  Li1  1  0.49906400  0.62436700  0.62580500  1
  Li  Li2  1  0.49705700  0.37410400  0.37412200  1
  Li  Li3  1  0.50232100  0.87542000  0.87594900  1
  Li  Li4  1  0.99978400  0.37367900  0.87536100  1
  Li  Li5  1  0.00029900  0.87674700  0.37448100  1
  Li  Li6  1  0.49819300  0.25602300  0.74925900  1
  Li  Li7  1  0.49516300  0.76122900  0.24956900  1
  Li  Li8  1  0.50464700  0.48966800  0.99963600  1
  Li  Li9  1  0.50337300  0.99327600  0.50158500  1
  Mn  Mn10  1  0.00261600  0.74998200  0.74850900  1
  Mn  Mn11  1  0.00815400  0.00033800  0.00113400  1
  Mn  Mn12  1  0.99704600  0.50117700  0.50127200  1
  Mn  Mn13  1  0.99203200  0.24901300  0.24828600  1
  Co  Co14  1  0.99945600  0.62472300  0.12540800  1
  Co  Co15  1  0.00077600  0.12570500  0.62486700  1
  O  O16  1  0.23208700  0.23485800  0.01497200  1
  O  O17  1  0.23327000  0.73344300  0.51486200  1
  O  O18  1  0.76656000  0.51697100  0.73570700  1
  O  O19  1  0.76815800  0.01452500  0.23464800  1
  O  O20  1  0.22495600  0.48990900  0.25683500  1
  O  O21  1  0.23880100  0.98489500  0.76108200  1
  O  O22  1  0.77402400  0.75939600  0.99329800  1
  O  O23  1  0.76288900  0.26575700  0.48811400  1
  O  O24  1  0.22703300  0.88042700  0.11763100  1
  O  O25  1  0.21111000  0.37170800  0.61534400  1
  O  O26  1  0.21842300  0.63131100  0.87799400  1
  O  O27  1  0.20678500  0.13385700  0.38236500  1
  O  O28  1  0.78082900  0.61873900  0.37207300  1
  O  O29  1  0.79354500  0.11597300  0.86755200  1
  O  O30  1  0.77304200  0.36916400  0.13239300  1
  O  O31  1  0.78848300  0.87873600  0.63488700  1
