# generated using pymatgen
data_Li4MnCo2O7
_symmetry_space_group_name_H-M   'P 1'
_cell_length_a   3.02205300
_cell_length_b   6.42927595
_cell_length_c   13.61020226
_cell_angle_alpha   83.35003276
_cell_angle_beta   86.91845545
_cell_angle_gamma   76.59048347
_symmetry_Int_Tables_number   1
_chemical_formula_structural   Li4MnCo2O7
_chemical_formula_sum   'Li8 Mn2 Co4 O14'
_cell_volume   255.40193574
_cell_formula_units_Z   2
loop_
 _symmetry_equiv_pos_site_id
 _symmetry_equiv_pos_as_xyz
  1  'x, y, z'
loop_
 _atom_site_type_symbol
 _atom_site_label
 _atom_site_symmetry_multiplicity
 _atom_site_fract_x
 _atom_site_fract_y
 _atom_site_fract_z
 _atom_site_occupancy
  Li  Li0  1  0.79714300  0.85404900  0.56785900  1
  Li  Li1  1  0.62997600  0.43978000  0.28671000  1
  Li  Li2  1  0.50000000  0.00000000  0.00000000  1
  Li  Li3  1  0.20285700  0.14595100  0.43214100  1
  Li  Li4  1  0.07090700  0.71110400  0.14429000  1
  Li  Li5  1  0.92909300  0.28889600  0.85571000  1
  Li  Li6  1  0.37002400  0.56022000  0.71329000  1
  Li  Li7  1  0.50000000  0.50000000  0.50000000  1
  Mn  Mn8  1  0.63267300  0.93040000  0.78360200  1
  Mn  Mn9  1  0.36732700  0.06960000  0.21639800  1
  Co  Co10  1  0.20834300  0.64152300  0.92882700  1
  Co  Co11  1  0.07999500  0.22611400  0.63532800  1
  Co  Co12  1  0.92000500  0.77388600  0.36467200  1
  Co  Co13  1  0.79165700  0.35847700  0.07117300  1
  O  O14  1  0.22923200  0.91589800  0.67747300  1
  O  O15  1  0.06033500  0.49336600  0.38747600  1
  O  O16  1  0.96524500  0.04956600  0.10882400  1
  O  O17  1  0.67355100  0.18148400  0.54416500  1
  O  O18  1  0.51878500  0.76231400  0.25501100  1
  O  O19  1  0.34254800  0.33744700  0.96739100  1
  O  O20  1  0.75301500  0.62087500  0.82589300  1
  O  O21  1  0.32644900  0.81851600  0.45583500  1
  O  O22  1  0.24698500  0.37912500  0.17410700  1
  O  O23  1  0.03475500  0.95043400  0.89117600  1
  O  O24  1  0.77076800  0.08410200  0.32252700  1
  O  O25  1  0.65745200  0.66255300  0.03260900  1
  O  O26  1  0.48121500  0.23768600  0.74498900  1
  O  O27  1  0.93966500  0.50663400  0.61252400  1
