# generated using pymatgen
data_Li9Mn7O16
_symmetry_space_group_name_H-M   'P 1'
_cell_length_a   5.09991051
_cell_length_b   5.09991051
_cell_length_c   21.38037027
_cell_angle_alpha   83.14487185
_cell_angle_beta   83.14487185
_cell_angle_gamma   32.79072107
_symmetry_Int_Tables_number   1
_chemical_formula_structural   Li9Mn7O16
_chemical_formula_sum   'Li9 Mn7 O16'
_cell_volume   298.81945679
_cell_formula_units_Z   1
loop_
 _symmetry_equiv_pos_site_id
 _symmetry_equiv_pos_as_xyz
  1  'x, y, z'
loop_
 _atom_site_type_symbol
 _atom_site_label
 _atom_site_symmetry_multiplicity
 _atom_site_fract_x
 _atom_site_fract_y
 _atom_site_fract_z
 _atom_site_occupancy
  Li  Li0  1  0.25184500  0.25184500  0.44040500  1
  Li  Li1  1  0.74815500  0.74815500  0.55959500  1
  Li  Li2  1  0.25662700  0.25662700  0.68265200  1
  Li  Li3  1  0.74877800  0.74877800  0.81264500  1
  Li  Li4  1  0.24985800  0.24985800  0.93742200  1
  Li  Li5  1  0.75014200  0.75014200  0.06257800  1
  Li  Li6  1  0.25122200  0.25122200  0.18735500  1
  Li  Li7  1  0.74337300  0.74337300  0.31734800  1
  Li  Li8  1  0.50000000  0.50000000  0.50000000  1
  Mn  Mn9  1  0.99034200  0.99034200  0.38329800  1
  Mn  Mn10  1  0.00965800  0.00965800  0.61670200  1
  Mn  Mn11  1  0.50469600  0.50469600  0.74544900  1
  Mn  Mn12  1  0.99972800  0.99972800  0.87345700  1
  Mn  Mn13  1  0.50000000  0.50000000  0.00000000  1
  Mn  Mn14  1  0.00027200  0.00027200  0.12654300  1
  Mn  Mn15  1  0.49530400  0.49530400  0.25455100  1
  O  O16  1  0.38303200  0.38303200  0.34943500  1
  O  O17  1  0.88417400  0.88417400  0.45919600  1
  O  O18  1  0.39114500  0.39114500  0.59709000  1
  O  O19  1  0.89343900  0.89343900  0.71468200  1
  O  O20  1  0.38306100  0.38306100  0.84671900  1
  O  O21  1  0.88326500  0.88326500  0.97358300  1
  O  O22  1  0.38420500  0.38420500  0.09948300  1
  O  O23  1  0.88224900  0.88224900  0.22491700  1
  O  O24  1  0.11582600  0.11582600  0.54080400  1
  O  O25  1  0.61696800  0.61696800  0.65056500  1
  O  O26  1  0.11775100  0.11775100  0.77508300  1
  O  O27  1  0.61579500  0.61579500  0.90051700  1
  O  O28  1  0.11673500  0.11673500  0.02641700  1
  O  O29  1  0.61693900  0.61693900  0.15328100  1
  O  O30  1  0.10656100  0.10656100  0.28531800  1
  O  O31  1  0.60885500  0.60885500  0.40291000  1
