# generated using pymatgen
data_Li2CoNiO4
_symmetry_space_group_name_H-M   'P 1'
_cell_length_a   2.97562307
_cell_length_b   5.05352989
_cell_length_c   5.05668703
_cell_angle_alpha   70.95803803
_cell_angle_beta   88.94933603
_cell_angle_gamma   90.56713036
_symmetry_Int_Tables_number   1
_chemical_formula_structural   Li2CoNiO4
_chemical_formula_sum   'Li2 Co1 Ni1 O4'
_cell_volume   71.85630952
_cell_formula_units_Z   1
loop_
 _symmetry_equiv_pos_site_id
 _symmetry_equiv_pos_as_xyz
  1  'x, y, z'
loop_
 _atom_site_type_symbol
 _atom_site_label
 _atom_site_symmetry_multiplicity
 _atom_site_fract_x
 _atom_site_fract_y
 _atom_site_fract_z
 _atom_site_occupancy
  Li  Li0  1  0.00000000  0.50000200  0.50000100  1
  Li  Li1  1  0.49999900  0.00000200  0.50000100  1
  Co  Co2  1  0.49999900  0.50000000  0.00000100  1
  Ni  Ni3  1  0.00000300  0.99998700  0.99999600  1
  O  O4  1  0.95746300  0.73856600  0.76041900  1
  O  O5  1  0.04253600  0.26143800  0.23958100  1
  O  O6  1  0.51221700  0.26895800  0.78585900  1
  O  O7  1  0.48778300  0.73104600  0.21414300  1
