# generated using pymatgen
data_Li9Mn2Co5O16
_symmetry_space_group_name_H-M   'P 1'
_cell_length_a   5.91326119
_cell_length_b   10.17394148
_cell_length_c   5.93526584
_cell_angle_alpha   88.98563384
_cell_angle_beta   120.16364204
_cell_angle_gamma   107.63320473
_symmetry_Int_Tables_number   1
_chemical_formula_structural   Li9Mn2Co5O16
_chemical_formula_sum   'Li9 Mn2 Co5 O16'
_cell_volume   290.27086124
_cell_formula_units_Z   1
loop_
 _symmetry_equiv_pos_site_id
 _symmetry_equiv_pos_as_xyz
  1  'x, y, z'
loop_
 _atom_site_type_symbol
 _atom_site_label
 _atom_site_symmetry_multiplicity
 _atom_site_fract_x
 _atom_site_fract_y
 _atom_site_fract_z
 _atom_site_occupancy
  Li  Li0  1  -0.00000000  0.00000000  0.50000000  1
  Li  Li1  1  0.00199094  0.25636147  0.25556297  1
  Li  Li2  1  -0.00000000  0.50000000  -0.00000000  1
  Li  Li3  1  0.50000000  0.00000000  -0.00000000  1
  Li  Li4  1  0.50587917  0.25488064  0.76188504  1
  Li  Li5  1  0.50000000  0.50000000  0.50000000  1
  Li  Li6  1  0.49412083  0.74511936  0.23811496  1
  Li  Li7  1  -0.00199094  0.74363853  0.74443703  1
  Li  Li8  1  -0.00000000  0.50000000  0.50000000  1
  Mn  Mn9  1  -0.00000000  0.00000000  -0.00000000  1
  Mn  Mn10  1  0.50000000  0.50000000  -0.00000000  1
  Co  Co11  1  0.99914199  0.25682882  0.75014794  1
  Co  Co12  1  0.00085801  0.74317118  0.24985206  1
  Co  Co13  1  0.50000000  0.00000000  0.50000000  1
  Co  Co14  1  0.51311107  0.25495256  0.25713846  1
  Co  Co15  1  0.48688893  0.74504744  0.74286154  1
  O  O16  1  0.77437392  0.87566728  0.11655274  1
  O  O17  1  0.76438864  0.11471358  0.87719621  1
  O  O18  1  0.75300108  0.35960800  0.62702646  1
  O  O19  1  0.26053842  0.87706367  0.61148890  1
  O  O20  1  0.24375659  0.12076244  0.34397703  1
  O  O21  1  0.26646630  0.38179279  0.11833429  1
  O  O22  1  0.28028609  0.62505837  0.87425106  1
  O  O23  1  0.73578948  0.61969895  0.34046990  1
  O  O24  1  0.22562608  0.12433272  0.88344726  1
  O  O25  1  0.26421052  0.38030105  0.65953010  1
  O  O26  1  0.24699892  0.64039200  0.37297354  1
  O  O27  1  0.73946158  0.12293633  0.38851110  1
  O  O28  1  0.71971391  0.37494163  0.12574894  1
  O  O29  1  0.73353370  0.61820721  0.88166571  1
  O  O30  1  0.75624341  0.87923756  0.65602297  1
  O  O31  1  0.23561136  0.88528642  0.12280379  1
