# generated using pymatgen
data_Li6Ca12W4N16O3
_symmetry_space_group_name_H-M   'P 1'
_cell_length_a   11.40762092
_cell_length_b   11.40762092
_cell_length_c   11.40762092
_cell_angle_alpha   109.47122065
_cell_angle_beta   109.47122064
_cell_angle_gamma   109.47122061
_symmetry_Int_Tables_number   1
_chemical_formula_structural   Li6Ca12W4N16O3
_chemical_formula_sum   'Li12 Ca24 W8 N32 O6'
_cell_volume   1142.78189793
_cell_formula_units_Z   2
loop_
 _symmetry_equiv_pos_site_id
 _symmetry_equiv_pos_as_xyz
  1  'x, y, z'
loop_
 _atom_site_type_symbol
 _atom_site_label
 _atom_site_symmetry_multiplicity
 _atom_site_fract_x
 _atom_site_fract_y
 _atom_site_fract_z
 _atom_site_occupancy
  Li  Li0  1  0.25000060  0.27397421  0.02397388  1
  Li  Li1  1  0.24999972  0.97602642  0.72602655  1
  Li  Li2  1  0.77397369  0.74999952  0.52397346  1
  Li  Li3  1  0.52397363  0.77397425  0.75000046  1
  Li  Li4  1  0.72602579  0.24999948  0.97602561  1
  Li  Li5  1  0.97602641  0.72602586  0.24999959  1
  Li  Li6  1  0.74999940  0.22602582  0.47602613  1
  Li  Li7  1  0.22602669  0.47602638  0.75000041  1
  Li  Li8  1  0.27397333  0.02397366  0.25000005  1
  Li  Li9  1  0.02397368  0.24999948  0.27397355  1
  Li  Li10  1  0.47602582  0.74999952  0.22602594  1
  Li  Li11  1  0.75000033  0.52397369  0.77397396  1
  N  N12  1  0.10922213  0.10922256  0.10922230  1
  N  N13  1  0.89077831  0.50000004  0.99999985  1
  N  N14  1  0.49999999  0.00000000  0.89077745  1
  N  N15  1  0.99999962  0.89077752  0.49999990  1
  N  N16  1  0.49999999  0.00000000  0.39077799  1
  N  N17  1  0.99999959  0.39077748  0.50000000  1
  N  N18  1  0.39077832  0.50000004  0.99999997  1
  N  N19  1  0.60922214  0.60922259  0.60922243  1
  N  N20  1  0.41858902  0.36674316  0.23407814  1
  N  N21  1  0.13325722  0.55184590  0.86733558  1
  N  N22  1  0.26592149  0.63266518  0.18451048  1
  N  N23  1  0.08141037  0.31548903  0.94815356  1
  N  N24  1  0.31548902  0.94815421  0.08141100  1
  N  N25  1  0.94815377  0.08141102  0.31548901  1
  N  N26  1  0.91858898  0.73407805  0.86674330  1
  N  N27  1  0.36733484  0.05184587  0.63325651  1
  N  N28  1  0.13266489  0.76592206  0.68451091  1
  N  N29  1  0.44815400  0.81548907  0.58141041  1
  N  N30  1  0.81548970  0.58141105  0.44815432  1
  N  N31  1  0.86674280  0.91858906  0.73407815  1
  N  N32  1  0.05184591  0.63325692  0.36733514  1
  N  N33  1  0.68451118  0.13266514  0.76592172  1
  N  N34  1  0.73407790  0.86674319  0.91858895  1
  N  N35  1  0.63325634  0.36733490  0.05184522  1
  N  N36  1  0.76592136  0.68451104  0.13266464  1
  N  N37  1  0.86733566  0.13325688  0.55184599  1
  N  N38  1  0.63266495  0.18451100  0.26592213  1
  N  N39  1  0.18451097  0.26592202  0.63266540  1
  N  N40  1  0.36674286  0.23407802  0.41858877  1
  N  N41  1  0.23407870  0.41858902  0.36674342  1
  N  N42  1  0.55184609  0.86733494  0.13325693  1
  N  N43  1  0.58141135  0.44815417  0.81548960  1
  O  O44  1  0.12499991  0.87499980  0.25000028  1
  O  O45  1  0.62499975  0.74999952  0.37500014  1
  O  O46  1  0.87499972  0.24999948  0.12500000  1
  O  O47  1  0.25000013  0.12500028  0.87500021  1
  O  O48  1  0.74999987  0.37499976  0.62499960  1
  O  O49  1  0.37500016  0.62500032  0.75000000  1
  Ca  Ca50  1  0.59336958  0.53748137  0.20805548  1
  Ca  Ca51  1  0.96251836  0.55588859  0.67057349  1
  Ca  Ca52  1  0.29194438  0.82942588  0.38531469  1
  Ca  Ca53  1  0.90662997  0.11468564  0.94411209  1
  Ca  Ca54  1  0.11468530  0.94411152  0.90663050  1
  Ca  Ca55  1  0.94411210  0.90663018  0.11468570  1
  Ca  Ca56  1  0.09336979  0.70805557  0.03748144  1
  Ca  Ca57  1  0.17057381  0.05588856  0.46251891  1
  Ca  Ca58  1  0.32942666  0.79194454  0.88531447  1
  Ca  Ca59  1  0.44411166  0.61468568  0.40663034  1
  Ca  Ca60  1  0.61468496  0.40663014  0.44411158  1
  Ca  Ca61  1  0.03748197  0.09336989  0.70805547  1
  Ca  Ca62  1  0.05588826  0.46251870  0.17057339  1
  Ca  Ca63  1  0.88531454  0.32942584  0.79194491  1
  Ca  Ca64  1  0.70805482  0.03748133  0.09336988  1
  Ca  Ca65  1  0.46251853  0.17057420  0.05588874  1
  Ca  Ca66  1  0.79194438  0.88531444  0.32942593  1
  Ca  Ca67  1  0.67057353  0.96251874  0.55588870  1
  Ca  Ca68  1  0.82942601  0.38531440  0.29194458  1
  Ca  Ca69  1  0.38531425  0.29194451  0.82942647  1
  Ca  Ca70  1  0.53748215  0.20805553  0.59336985  1
  Ca  Ca71  1  0.20805486  0.59336993  0.53748159  1
  Ca  Ca72  1  0.55588821  0.67057316  0.96251869  1
  Ca  Ca73  1  0.40662981  0.44411148  0.61468505  1
  W  W74  1  0.27560059  0.27560075  0.27560101  1
  W  W75  1  0.72439864  0.50000004  0.99999978  1
  W  W76  1  0.49999999  0.00000000  0.72439887  1
  W  W77  1  0.99999989  0.72439933  0.50000042  1
  W  W78  1  0.49999999  0.00000000  0.22439941  1
  W  W79  1  0.99999987  0.22439929  0.49999963  1
  W  W80  1  0.22439865  0.50000004  0.99999990  1
  W  W81  1  0.77560060  0.77560078  0.77560114  1
