# generated using pymatgen
data_Li9Mn2Co5O16
_symmetry_space_group_name_H-M   'P 1'
_cell_length_a   5.07238300
_cell_length_b   5.89583474
_cell_length_c   10.01012744
_cell_angle_alpha   91.76363245
_cell_angle_beta   99.42135843
_cell_angle_gamma   105.09156994
_symmetry_Int_Tables_number   1
_chemical_formula_structural   Li9Mn2Co5O16
_chemical_formula_sum   'Li9 Mn2 Co5 O16'
_cell_volume   284.29089498
_cell_formula_units_Z   1
loop_
 _symmetry_equiv_pos_site_id
 _symmetry_equiv_pos_as_xyz
  1  'x, y, z'
loop_
 _atom_site_type_symbol
 _atom_site_label
 _atom_site_symmetry_multiplicity
 _atom_site_fract_x
 _atom_site_fract_y
 _atom_site_fract_z
 _atom_site_occupancy
  Li  Li0  1  0.50022500  0.11968200  0.87690200  1
  Li  Li1  1  0.50247400  0.63119000  0.87111700  1
  Li  Li2  1  0.50083200  0.37696300  0.62133200  1
  Li  Li3  1  0.49892900  0.87291700  0.62299900  1
  Li  Li4  1  0.49838500  0.62429100  0.37328000  1
  Li  Li5  1  0.48759000  0.12477800  0.37705200  1
  Li  Li6  1  0.50493500  0.88021900  0.12914500  1
  Li  Li7  1  0.50700500  0.36386000  0.13054800  1
  Li  Li8  1  0.99816000  0.25311100  0.24959600  1
  Mn  Mn9  1  0.99481100  0.99517500  0.00447100  1
  Mn  Mn10  1  0.00006300  0.25279900  0.74910500  1
  Co  Co11  1  0.99257700  0.48974300  0.00488400  1
  Co  Co12  1  0.00485100  0.75162200  0.75133400  1
  Co  Co13  1  0.00827000  0.50072800  0.49283700  1
  Co  Co14  1  0.99992100  0.00766300  0.49456700  1
  Co  Co15  1  0.99985100  0.75169100  0.24802000  1
  O  O16  1  0.22130500  0.81211200  0.93138700  1
  O  O17  1  0.21695300  0.28591500  0.94773000  1
  O  O18  1  0.23020100  0.07614700  0.68198600  1
  O  O19  1  0.23605700  0.57667100  0.69102300  1
  O  O20  1  0.23639600  0.32165400  0.44103000  1
  O  O21  1  0.23063000  0.80775400  0.42400100  1
  O  O22  1  0.21321700  0.57357600  0.17576100  1
  O  O23  1  0.21832200  0.03244700  0.18310000  1
  O  O24  1  0.77375800  0.42532300  0.82461200  1
  O  O25  1  0.77392600  0.92540900  0.82088800  1
  O  O26  1  0.78600300  0.69253900  0.57123700  1
  O  O27  1  0.76307200  0.19524600  0.56210900  1
  O  O28  1  0.78190400  0.92850800  0.31764700  1
  O  O29  1  0.77856700  0.47968300  0.30667500  1
  O  O30  1  0.76116900  0.16974700  0.05961000  1
  O  O31  1  0.77963900  0.70083600  0.06401700  1
