# generated using pymatgen
data_Li3MnCoO5
_symmetry_space_group_name_H-M   'P 1'
_cell_length_a   2.95171740
_cell_length_b   2.95171815
_cell_length_c   24.62544296
_cell_angle_alpha   93.43593125
_cell_angle_beta   90.00000000
_cell_angle_gamma   119.99999156
_symmetry_Int_Tables_number   1
_chemical_formula_structural   Li3MnCoO5
_chemical_formula_sum   'Li6 Mn2 Co2 O10'
_cell_volume   185.36251989
_cell_formula_units_Z   2
loop_
 _symmetry_equiv_pos_site_id
 _symmetry_equiv_pos_as_xyz
  1  'x, y, z'
loop_
 _atom_site_type_symbol
 _atom_site_label
 _atom_site_symmetry_multiplicity
 _atom_site_fract_x
 _atom_site_fract_y
 _atom_site_fract_z
 _atom_site_occupancy
  Li  Li0  1  0.10294133  0.20588266  0.30882399  1
  Li  Li1  1  0.49876625  0.99753250  0.49629876  1
  Li  Li2  1  0.89977965  0.79955930  0.69933896  1
  Li  Li3  1  0.29854104  0.59708209  0.89562313  1
  Li  Li4  1  0.69984409  0.39968818  0.09953228  1
  Li  Li5  1  0.79985444  0.59970888  0.39956332  1
  Mn  Mn6  1  0.99990682  0.99981365  0.99972047  1
  Mn  Mn7  1  0.39994758  0.79989516  0.19984273  1
  Co  Co8  1  0.20028230  0.40056460  0.60084690  1
  Co  Co9  1  0.59965509  0.19931019  0.79896528  1
  O  O10  1  0.15091998  0.30183995  0.45275993  1
  O  O11  1  0.54829072  0.09658143  0.64487215  1
  O  O12  1  0.94787567  0.89575135  0.84362702  1
  O  O13  1  0.34874598  0.69749196  0.04623794  1
  O  O14  1  0.74709864  0.49419727  0.24129591  1
  O  O15  1  0.05128724  0.10257448  0.15386171  1
  O  O16  1  0.44940580  0.89881161  0.34821741  1
  O  O17  1  0.85368157  0.70736315  0.56104472  1
  O  O18  1  0.25172435  0.50344870  0.75517306  1
  O  O19  1  0.65145144  0.30290289  0.95435433  1
