# generated using pymatgen
data_Li4FeCo2Ni3(PO4)6
_symmetry_space_group_name_H-M   'P 1'
_cell_length_a   8.38089600
_cell_length_b   8.45358006
_cell_length_c   8.50610380
_cell_angle_alpha   62.71856214
_cell_angle_beta   62.99388632
_cell_angle_gamma   63.24245689
_symmetry_Int_Tables_number   1
_chemical_formula_structural   Li4FeCo2Ni3(PO4)6
_chemical_formula_sum   'Li4 Fe1 Co2 Ni3 P6 O24'
_cell_volume   454.35950750
_cell_formula_units_Z   1
loop_
 _symmetry_equiv_pos_site_id
 _symmetry_equiv_pos_as_xyz
  1  'x, y, z'
loop_
 _atom_site_type_symbol
 _atom_site_label
 _atom_site_symmetry_multiplicity
 _atom_site_fract_x
 _atom_site_fract_y
 _atom_site_fract_z
 _atom_site_occupancy
  Li  Li0  1  0.74761500  0.14490800  0.35575100  1
  Li  Li1  1  0.26490800  0.85641700  0.64356400  1
  Li  Li2  1  0.64290500  0.26365000  0.85565700  1
  Li  Li3  1  0.85581100  0.64357300  0.26542900  1
  Fe  Fe4  1  0.85109600  0.84934900  0.85226700  1
  Co  Co5  1  0.01111600  0.00446900  0.99395000  1
  Co  Co6  1  0.49127300  0.50235200  0.50026400  1
  Ni  Ni7  1  0.14389300  0.14454900  0.14469100  1
  Ni  Ni8  1  0.35675300  0.35678000  0.35633900  1
  Ni  Ni9  1  0.64626400  0.64539100  0.64872800  1
  P  P10  1  0.24913400  0.54635400  0.95466400  1
  P  P11  1  0.55091000  0.95530400  0.24990300  1
  P  P12  1  0.94898000  0.24857300  0.54472400  1
  P  P13  1  0.05393700  0.74781800  0.44858000  1
  P  P14  1  0.44552700  0.04950200  0.75086100  1
  P  P15  1  0.74898300  0.44634800  0.05101300  1
  O  O16  1  0.11158900  0.30850500  0.50332200  1
  O  O17  1  0.31271400  0.51202300  0.11046600  1
  O  O18  1  0.05048400  0.91615000  0.26193000  1
  O  O19  1  0.53689500  0.10575100  0.31145900  1
  O  O20  1  0.01198200  0.81323600  0.61043800  1
  O  O21  1  0.24861900  0.59779700  0.43261800  1
  O  O22  1  0.25105300  0.07018200  0.90458600  1
  O  O23  1  0.45325600  0.23845500  0.58732800  1
  O  O24  1  0.18382900  0.38994000  0.98721100  1
  O  O25  1  0.60033500  0.42952500  0.24921400  1
  O  O26  1  0.09445800  0.74720100  0.92979500  1
  O  O27  1  0.38874200  0.99912700  0.18877500  1
  O  O28  1  0.60727900  0.00686500  0.82068600  1
  O  O29  1  0.90129900  0.24861800  0.07419600  1
  O  O30  1  0.40276700  0.56776100  0.75543700  1
  O  O31  1  0.81832400  0.60611800  0.01107200  1
  O  O32  1  0.56745600  0.75459300  0.40450800  1
  O  O33  1  0.75201400  0.92724000  0.09270500  1
  O  O34  1  0.74953000  0.40443500  0.57173100  1
  O  O35  1  0.96490100  0.18612400  0.39459200  1
  O  O36  1  0.47468500  0.89360000  0.68554400  1
  O  O37  1  0.93018900  0.09195600  0.74554700  1
  O  O38  1  0.68275900  0.47460900  0.89675100  1
  O  O39  1  0.89573700  0.68185300  0.47670100  1
