# generated using pymatgen
data_Li7BiN4
_symmetry_space_group_name_H-M   'P 1'
_cell_length_a   10.12579000
_cell_length_b   10.12579000
_cell_length_c   10.12579000
_cell_angle_alpha   90.00000000
_cell_angle_beta   90.00000000
_cell_angle_gamma   90.00000000
_symmetry_Int_Tables_number   1
_chemical_formula_structural   Li7BiN4
_chemical_formula_sum   'Li56 Bi8 N32'
_cell_volume   1038.21368411
_cell_formula_units_Z   8
loop_
 _symmetry_equiv_pos_site_id
 _symmetry_equiv_pos_as_xyz
  1  'x, y, z'
loop_
 _atom_site_type_symbol
 _atom_site_label
 _atom_site_symmetry_multiplicity
 _atom_site_fract_x
 _atom_site_fract_y
 _atom_site_fract_z
 _atom_site_occupancy
  Li  Li0  1  0.00000000  0.00000000  0.50000000  1
  Li  Li1  1  0.00000000  0.50000000  0.00000000  1
  Li  Li2  1  0.50000000  0.00000000  0.00000000  1
  Li  Li3  1  0.50000000  0.00000000  0.50000000  1
  Li  Li4  1  0.50000000  0.50000000  0.00000000  1
  Li  Li5  1  0.00000000  0.50000000  0.50000000  1
  Li  Li6  1  0.00000000  0.50000000  0.25000000  1
  Li  Li7  1  0.50000000  0.75000000  0.00000000  1
  Li  Li8  1  0.25000000  0.00000000  0.50000000  1
  Li  Li9  1  0.50000000  0.25000000  0.00000000  1
  Li  Li10  1  0.75000000  0.00000000  0.50000000  1
  Li  Li11  1  0.00000000  0.50000000  0.75000000  1
  Li  Li12  1  0.25387500  0.74612500  0.25387500  1
  Li  Li13  1  0.74612500  0.25387500  0.25387500  1
  Li  Li14  1  0.25387500  0.25387500  0.74612500  1
  Li  Li15  1  0.74612500  0.74612500  0.74612500  1
  Li  Li16  1  0.75387500  0.75387500  0.24612500  1
  Li  Li17  1  0.24612500  0.75387500  0.75387500  1
  Li  Li18  1  0.75387500  0.24612500  0.75387500  1
  Li  Li19  1  0.24612500  0.24612500  0.24612500  1
  Li  Li20  1  0.50000000  0.50000000  0.22961100  1
  Li  Li21  1  0.50000000  0.77038900  0.50000000  1
  Li  Li22  1  0.22961100  0.50000000  0.50000000  1
  Li  Li23  1  0.50000000  0.22961100  0.50000000  1
  Li  Li24  1  0.77038900  0.50000000  0.50000000  1
  Li  Li25  1  0.50000000  0.50000000  0.77038900  1
  Li  Li26  1  0.00000000  0.72961100  0.00000000  1
  Li  Li27  1  0.00000000  0.00000000  0.27038900  1
  Li  Li28  1  0.72961100  0.00000000  0.00000000  1
  Li  Li29  1  0.00000000  0.00000000  0.72961100  1
  Li  Li30  1  0.27038900  0.00000000  0.00000000  1
  Li  Li31  1  0.00000000  0.27038900  0.00000000  1
  Li  Li32  1  0.50446000  0.73015300  0.25127900  1
  Li  Li33  1  0.26984700  0.74872100  0.50446000  1
  Li  Li34  1  0.25127900  0.49554000  0.26984700  1
  Li  Li35  1  0.49554000  0.26984700  0.25127900  1
  Li  Li36  1  0.73015300  0.25127900  0.50446000  1
  Li  Li37  1  0.74872100  0.50446000  0.26984700  1
  Li  Li38  1  0.50446000  0.26984700  0.74872100  1
  Li  Li39  1  0.26984700  0.25127900  0.49554000  1
  Li  Li40  1  0.25127900  0.50446000  0.73015300  1
  Li  Li41  1  0.49554000  0.73015300  0.74872100  1
  Li  Li42  1  0.73015300  0.74872100  0.49554000  1
  Li  Li43  1  0.74872100  0.49554000  0.73015300  1
  Li  Li44  1  0.00446000  0.75127900  0.23015300  1
  Li  Li45  1  0.76984700  0.00446000  0.24872100  1
  Li  Li46  1  0.75127900  0.76984700  0.99554000  1
  Li  Li47  1  0.99554000  0.75127900  0.76984700  1
  Li  Li48  1  0.23015300  0.00446000  0.75127900  1
  Li  Li49  1  0.24872100  0.76984700  0.00446000  1
  Li  Li50  1  0.00446000  0.24872100  0.76984700  1
  Li  Li51  1  0.76984700  0.99554000  0.75127900  1
  Li  Li52  1  0.75127900  0.23015300  0.00446000  1
  Li  Li53  1  0.99554000  0.24872100  0.23015300  1
  Li  Li54  1  0.23015300  0.99554000  0.24872100  1
  Li  Li55  1  0.24872100  0.23015300  0.99554000  1
  Bi  Bi56  1  0.50000000  0.50000000  0.50000000  1
  Bi  Bi57  1  0.00000000  0.00000000  0.00000000  1
  Bi  Bi58  1  0.50000000  0.00000000  0.25000000  1
  Bi  Bi59  1  0.00000000  0.75000000  0.50000000  1
  Bi  Bi60  1  0.25000000  0.50000000  0.00000000  1
  Bi  Bi61  1  0.00000000  0.25000000  0.50000000  1
  Bi  Bi62  1  0.75000000  0.50000000  0.00000000  1
  Bi  Bi63  1  0.50000000  0.00000000  0.75000000  1
  N  N64  1  0.37662100  0.62337900  0.37662100  1
  N  N65  1  0.62337900  0.37662100  0.37662100  1
  N  N66  1  0.37662100  0.37662100  0.62337900  1
  N  N67  1  0.62337900  0.62337900  0.62337900  1
  N  N68  1  0.87662100  0.87662100  0.12337900  1
  N  N69  1  0.12337900  0.87662100  0.87662100  1
  N  N70  1  0.87662100  0.12337900  0.87662100  1
  N  N71  1  0.12337900  0.12337900  0.12337900  1
  N  N72  1  0.37718400  0.87478200  0.12730200  1
  N  N73  1  0.12521800  0.87269800  0.37718400  1
  N  N74  1  0.12730200  0.62281600  0.12521800  1
  N  N75  1  0.62281600  0.12521800  0.12730200  1
  N  N76  1  0.87478200  0.12730200  0.37718400  1
  N  N77  1  0.87269800  0.37718400  0.12521800  1
  N  N78  1  0.37718400  0.12521800  0.87269800  1
  N  N79  1  0.12521800  0.12730200  0.62281600  1
  N  N80  1  0.12730200  0.37718400  0.87478200  1
  N  N81  1  0.62281600  0.87478200  0.87269800  1
  N  N82  1  0.87478200  0.87269800  0.62281600  1
  N  N83  1  0.87269800  0.62281600  0.87478200  1
  N  N84  1  0.87718400  0.62730200  0.37478200  1
  N  N85  1  0.62521800  0.87718400  0.37269800  1
  N  N86  1  0.62730200  0.62521800  0.12281600  1
  N  N87  1  0.12281600  0.62730200  0.62521800  1
  N  N88  1  0.37478200  0.87718400  0.62730200  1
  N  N89  1  0.37269800  0.62521800  0.87718400  1
  N  N90  1  0.87718400  0.37269800  0.62521800  1
  N  N91  1  0.62521800  0.12281600  0.62730200  1
  N  N92  1  0.62730200  0.37478200  0.87718400  1
  N  N93  1  0.12281600  0.37269800  0.37478200  1
  N  N94  1  0.37478200  0.12281600  0.37269800  1
  N  N95  1  0.37269800  0.37478200  0.12281600  1
