# generated using pymatgen
data_Li9Mn7O16
_symmetry_space_group_name_H-M   'P 1'
_cell_length_a   5.75304700
_cell_length_b   5.84548900
_cell_length_c   8.82584533
_cell_angle_alpha   89.48297812
_cell_angle_beta   90.00000000
_cell_angle_gamma   90.00000000
_symmetry_Int_Tables_number   1
_chemical_formula_structural   Li9Mn7O16
_chemical_formula_sum   'Li9 Mn7 O16'
_cell_volume   296.79556020
_cell_formula_units_Z   1
loop_
 _symmetry_equiv_pos_site_id
 _symmetry_equiv_pos_as_xyz
  1  'x, y, z'
loop_
 _atom_site_type_symbol
 _atom_site_label
 _atom_site_symmetry_multiplicity
 _atom_site_fract_x
 _atom_site_fract_y
 _atom_site_fract_z
 _atom_site_occupancy
  Li  Li0  1  0.74558300  0.75204800  0.24093400  1
  Li  Li1  1  0.74558300  0.24795200  0.75906600  1
  Li  Li2  1  0.50000000  0.00000000  0.50000000  1
  Li  Li3  1  0.50000000  0.50000000  0.00000000  1
  Li  Li4  1  0.25441700  0.24795200  0.75906600  1
  Li  Li5  1  0.25441700  0.75204800  0.24093400  1
  Li  Li6  1  0.00000000  0.50000000  0.00000000  1
  Li  Li7  1  0.00000000  0.00000000  0.50000000  1
  Li  Li8  1  0.50000000  0.00000000  0.00000000  1
  Mn  Mn9  1  0.00000000  0.00000000  0.00000000  1
  Mn  Mn10  1  0.25118900  0.24636000  0.24063900  1
  Mn  Mn11  1  0.00000000  0.50000000  0.50000000  1
  Mn  Mn12  1  0.74881100  0.24636000  0.24063900  1
  Mn  Mn13  1  0.74881100  0.75364000  0.75936100  1
  Mn  Mn14  1  0.50000000  0.50000000  0.50000000  1
  Mn  Mn15  1  0.25118900  0.75364000  0.75936100  1
  O  O16  1  0.76146100  0.76425500  0.98713500  1
  O  O17  1  0.74927400  0.27230200  0.49423500  1
  O  O18  1  0.50000000  0.02417100  0.25526700  1
  O  O19  1  0.50000000  0.51915200  0.75591500  1
  O  O20  1  0.25072600  0.27230200  0.49423500  1
  O  O21  1  0.23853900  0.76425500  0.98713500  1
  O  O22  1  0.00000000  0.52581500  0.74998900  1
  O  O23  1  0.00000000  0.01647400  0.25710200  1
  O  O24  1  0.74927400  0.72769800  0.50576500  1
  O  O25  1  0.76146100  0.23574500  0.01286500  1
  O  O26  1  0.50000000  0.97582900  0.74473300  1
  O  O27  1  0.50000000  0.48084800  0.24408500  1
  O  O28  1  0.23853900  0.23574500  0.01286500  1
  O  O29  1  0.25072600  0.72769800  0.50576500  1
  O  O30  1  0.00000000  0.47418500  0.25001100  1
  O  O31  1  0.00000000  0.98352600  0.74289800  1
