# generated using pymatgen
data_Li4Cr3NiO8
_symmetry_space_group_name_H-M   'P 1'
_cell_length_a   5.90928966
_cell_length_b   5.92129176
_cell_length_c   10.23840849
_cell_angle_alpha   106.65077302
_cell_angle_beta   89.97627104
_cell_angle_gamma   59.92634027
_symmetry_Int_Tables_number   1
_chemical_formula_structural   Li4Cr3NiO8
_chemical_formula_sum   'Li8 Cr6 Ni2 O16'
_cell_volume   292.50773896
_cell_formula_units_Z   2
loop_
 _symmetry_equiv_pos_site_id
 _symmetry_equiv_pos_as_xyz
  1  'x, y, z'
loop_
 _atom_site_type_symbol
 _atom_site_label
 _atom_site_symmetry_multiplicity
 _atom_site_fract_x
 _atom_site_fract_y
 _atom_site_fract_z
 _atom_site_occupancy
  Li  Li0  1  0.50143400  0.00555400  0.49941600  1
  Li  Li1  1  0.49768300  0.50400300  0.00227000  1
  Li  Li2  1  0.99862800  0.99449200  0.00058000  1
  Li  Li3  1  0.00232800  0.49603900  0.49773300  1
  Li  Li4  1  0.99155200  0.00815000  0.50320400  1
  Li  Li5  1  0.99691300  0.50883600  0.00008000  1
  Li  Li6  1  0.50848700  0.99185800  0.99677300  1
  Li  Li7  1  0.50312000  0.49113400  0.49986300  1
  Cr  Cr8  1  0.24992100  0.50005600  0.25003800  1
  Cr  Cr9  1  0.25004600  0.99994100  0.74995700  1
  Cr  Cr10  1  0.24998600  0.00000500  0.25004400  1
  Cr  Cr11  1  0.24990900  0.49999800  0.75000500  1
  Cr  Cr12  1  0.75001800  0.50002000  0.25006000  1
  Cr  Cr13  1  0.75011600  0.99987000  0.74998100  1
  Ni  Ni14  1  0.74985500  0.50007300  0.74999400  1
  Ni  Ni15  1  0.74985700  0.00005300  0.25004100  1
  O  O16  1  0.62230200  0.74132100  0.13664100  1
  O  O17  1  0.61885100  0.25342200  0.63513500  1
  O  O18  1  0.87764300  0.25873300  0.36336800  1
  O  O19  1  0.88117800  0.74646500  0.86481700  1
  O  O20  1  0.11891400  0.25968900  0.13732500  1
  O  O21  1  0.12255000  0.75963200  0.63654800  1
  O  O22  1  0.38106200  0.74036900  0.36269700  1
  O  O23  1  0.37758200  0.24028400  0.86341300  1
  O  O24  1  0.37385900  0.24438600  0.36374700  1
  O  O25  1  0.36319800  0.75849500  0.86210900  1
  O  O26  1  0.87730400  0.72536200  0.36208700  1
  O  O27  1  0.89773800  0.22365000  0.86128600  1
  O  O28  1  0.12608300  0.75568200  0.13630500  1
  O  O29  1  0.13677000  0.24147900  0.63787100  1
  O  O30  1  0.62267700  0.27465900  0.13795200  1
  O  O31  1  0.60243300  0.77628700  0.63866200  1
