# generated using pymatgen
data_Li2TiFeO4
_symmetry_space_group_name_H-M   'P 1'
_cell_length_a   5.34153403
_cell_length_b   7.80724188
_cell_length_c   8.10826669
_cell_angle_alpha   106.72212894
_cell_angle_beta   87.27246170
_cell_angle_gamma   107.24456440
_symmetry_Int_Tables_number   1
_chemical_formula_structural   Li2TiFeO4
_chemical_formula_sum   'Li8 Ti4 Fe4 O16'
_cell_volume   309.01682177
_cell_formula_units_Z   4
loop_
 _symmetry_equiv_pos_site_id
 _symmetry_equiv_pos_as_xyz
  1  'x, y, z'
loop_
 _atom_site_type_symbol
 _atom_site_label
 _atom_site_symmetry_multiplicity
 _atom_site_fract_x
 _atom_site_fract_y
 _atom_site_fract_z
 _atom_site_occupancy
  Li  Li0  1  0.31102200  0.43720000  0.62147700  1
  Li  Li1  1  0.06028500  0.68656700  0.12150100  1
  Li  Li2  1  0.81066700  0.93740000  0.62153300  1
  Li  Li3  1  0.56060300  0.18677900  0.12167300  1
  Li  Li4  1  0.78990300  0.24683100  0.52586600  1
  Li  Li5  1  0.53840300  0.49437900  0.02617500  1
  Li  Li6  1  0.29022900  0.74674600  0.52610000  1
  Li  Li7  1  0.03873000  0.99455500  0.02640900  1
  Ti  Ti8  1  0.34251600  0.13105000  0.76834600  1
  Ti  Ti9  1  0.10924400  0.39737600  0.26782300  1
  Ti  Ti10  1  0.84231500  0.63098500  0.76824100  1
  Ti  Ti11  1  0.60937300  0.89733400  0.26781600  1
  Fe  Fe12  1  0.69358900  0.56023500  0.37296500  1
  Fe  Fe13  1  0.44234500  0.80984000  0.87318600  1
  Fe  Fe14  1  0.94276100  0.30987400  0.87295700  1
  Fe  Fe15  1  0.19323800  0.06000200  0.37276800  1
  O  O16  1  0.13939300  0.56996900  0.84615200  1
  O  O17  1  0.88792300  0.81819700  0.34609900  1
  O  O18  1  0.63958800  0.07001000  0.84595800  1
  O  O19  1  0.38805400  0.31825800  0.34622700  1
  O  O20  1  0.09785100  0.18012600  0.63151500  1
  O  O21  1  0.84375800  0.42661800  0.13123800  1
  O  O22  1  0.59772200  0.68032400  0.63168900  1
  O  O23  1  0.34380800  0.92673900  0.13129000  1
  O  O24  1  0.62204100  0.37833100  0.74743600  1
  O  O25  1  0.36740300  0.62331400  0.24698100  1
  O  O26  1  0.12205500  0.87822100  0.74739400  1
  O  O27  1  0.86727800  0.12334700  0.24706900  1
  O  O28  1  0.50302500  0.99560000  0.48616100  1
  O  O29  1  0.25089500  0.24391500  0.98677900  1
  O  O30  1  0.00316200  0.49570000  0.48622800  1
  O  O31  1  0.75081700  0.74417800  0.98695100  1
