# generated using pymatgen
data_LiMnN
_symmetry_space_group_name_H-M   'P 1'
_cell_length_a   6.78792405
_cell_length_b   3.14736724
_cell_length_c   4.96616442
_cell_angle_alpha   90.00000000
_cell_angle_beta   90.00000000
_cell_angle_gamma   90.00000000
_symmetry_Int_Tables_number   1
_chemical_formula_structural   LiMnN
_chemical_formula_sum   'Li4 Mn4 N4'
_cell_volume   106.09758254
_cell_formula_units_Z   4
loop_
 _symmetry_equiv_pos_site_id
 _symmetry_equiv_pos_as_xyz
  1  'x, y, z'
loop_
 _atom_site_type_symbol
 _atom_site_label
 _atom_site_symmetry_multiplicity
 _atom_site_fract_x
 _atom_site_fract_y
 _atom_site_fract_z
 _atom_site_occupancy
  Li  Li0  1  0.60365823  0.25000000  0.89580936  1
  Li  Li1  1  0.10365823  0.25000000  0.60419064  1
  Li  Li2  1  0.39634177  0.75000000  0.10419064  1
  Li  Li3  1  0.89634177  0.75000000  0.39580936  1
  Mn  Mn4  1  0.62590319  0.25000000  0.41537812  1
  Mn  Mn5  1  0.12590319  0.25000000  0.08462188  1
  Mn  Mn6  1  0.37409681  0.75000000  0.58462188  1
  Mn  Mn7  1  0.87409681  0.75000000  0.91537812  1
  N  N8  1  0.84365010  0.25000000  0.14594055  1
  N  N9  1  0.34365010  0.25000000  0.35405945  1
  N  N10  1  0.15634990  0.75000000  0.85405945  1
  N  N11  1  0.65634990  0.75000000  0.64594055  1
