# generated using pymatgen
data_Li2V5O10
_symmetry_space_group_name_H-M   'P 1'
_cell_length_a   5.15552046
_cell_length_b   15.30986469
_cell_length_c   5.18850181
_cell_angle_alpha   79.75920612
_cell_angle_beta   103.66877716
_cell_angle_gamma   101.15510240
_symmetry_Int_Tables_number   1
_chemical_formula_structural   Li2V5O10
_chemical_formula_sum   'Li4 V10 O20'
_cell_volume   386.64879677
_cell_formula_units_Z   2
loop_
 _symmetry_equiv_pos_site_id
 _symmetry_equiv_pos_as_xyz
  1  'x, y, z'
loop_
 _atom_site_type_symbol
 _atom_site_label
 _atom_site_symmetry_multiplicity
 _atom_site_fract_x
 _atom_site_fract_y
 _atom_site_fract_z
 _atom_site_occupancy
  Li  Li0  1  0.74627700  0.19662200  0.00490700  1
  Li  Li1  1  0.24088000  0.69980500  0.51276300  1
  Li  Li2  1  0.75357300  0.30357000  0.49665000  1
  Li  Li3  1  0.25915300  0.79978300  0.98550000  1
  V  V4  1  0.99941100  0.50118200  0.50075200  1
  V  V5  1  0.50063500  0.99857700  0.00243400  1
  V  V6  1  0.35790400  0.34243800  0.79544500  1
  V  V7  1  0.85291500  0.84268200  0.28523400  1
  V  V8  1  0.14139400  0.15750800  0.70542400  1
  V  V9  1  0.64701600  0.65712200  0.21348100  1
  V  V10  1  0.40316900  0.44702100  0.24601000  1
  V  V11  1  0.90895200  0.94837700  0.74688100  1
  V  V12  1  0.09895400  0.05289700  0.25582300  1
  V  V13  1  0.58947400  0.55121600  0.75239600  1
  O  O14  1  0.64261500  0.43001100  0.61741600  1
  O  O15  1  0.15099100  0.93625100  0.13306800  1
  O  O16  1  0.85656700  0.06923200  0.88283900  1
  O  O17  1  0.35096900  0.56367300  0.36681000  1
  O  O18  1  0.03291200  0.25511900  0.80367000  1
  O  O19  1  0.53341300  0.75248000  0.31235000  1
  O  O20  1  0.46629800  0.24507300  0.69652800  1
  O  O21  1  0.96715500  0.74769300  0.18696800  1
  O  O22  1  0.24993700  0.46611300  0.85515100  1
  O  O23  1  0.76565300  0.97699900  0.34507900  1
  O  O24  1  0.24914200  0.03411800  0.64573600  1
  O  O25  1  0.73544600  0.52318800  0.15324100  1
  O  O26  1  0.37558100  0.10939700  0.09017300  1
  O  O27  1  0.88532900  0.60910900  0.57167100  1
  O  O28  1  0.12275500  0.39140700  0.40806700  1
  O  O29  1  0.61501400  0.89063800  0.92704500  1
  O  O30  1  0.50863000  0.34262000  0.14281800  1
  O  O31  1  0.00611200  0.84482500  0.63322800  1
  O  O32  1  0.99211000  0.15738100  0.35782500  1
  O  O33  1  0.49366800  0.65587400  0.86661600  1
