# generated using pymatgen
data_Li2VPO5
_symmetry_space_group_name_H-M   'P 1'
_cell_length_a   7.19506200
_cell_length_b   7.32928484
_cell_length_c   7.86840692
_cell_angle_alpha   90.12572357
_cell_angle_beta   90.45850034
_cell_angle_gamma   116.16719197
_symmetry_Int_Tables_number   1
_chemical_formula_structural   Li2VPO5
_chemical_formula_sum   'Li8 V4 P4 O20'
_cell_volume   372.39171611
_cell_formula_units_Z   4
loop_
 _symmetry_equiv_pos_site_id
 _symmetry_equiv_pos_as_xyz
  1  'x, y, z'
loop_
 _atom_site_type_symbol
 _atom_site_label
 _atom_site_symmetry_multiplicity
 _atom_site_fract_x
 _atom_site_fract_y
 _atom_site_fract_z
 _atom_site_occupancy
  Li  Li0  1  0.50000000  0.50000000  0.50000000  1
  Li  Li1  1  0.50000000  0.00000000  0.00000000  1
  Li  Li2  1  0.25933000  0.12302500  0.55841200  1
  Li  Li3  1  0.74067000  0.87697500  0.44158800  1
  Li  Li4  1  0.82068600  0.36146900  0.94388900  1
  Li  Li5  1  0.17931400  0.63853100  0.05611100  1
  Li  Li6  1  0.14194700  0.40733300  0.56020100  1
  Li  Li7  1  0.85805300  0.59266700  0.43979900  1
  V  V8  1  0.00727100  0.76641100  0.75729800  1
  V  V9  1  0.99272900  0.23358900  0.24270200  1
  V  V10  1  0.50505100  0.74831600  0.75360100  1
  V  V11  1  0.49494900  0.25168400  0.24639900  1
  P  P12  1  0.74639300  0.23187100  0.61494900  1
  P  P13  1  0.25360700  0.76812900  0.38505100  1
  P  P14  1  0.24514200  0.26836500  0.88627800  1
  P  P15  1  0.75485800  0.73163500  0.11372200  1
  O  O16  1  0.09547700  0.56032400  0.30734800  1
  O  O17  1  0.90452300  0.43967600  0.69265200  1
  O  O18  1  0.64899200  0.07646800  0.75719300  1
  O  O19  1  0.35100800  0.92353200  0.24280700  1
  O  O20  1  0.41745600  0.72975200  0.49046000  1
  O  O21  1  0.58254400  0.27024800  0.50954000  1
  O  O22  1  0.87253900  0.16296400  0.49424500  1
  O  O23  1  0.12746100  0.83703600  0.50575500  1
  O  O24  1  0.73638000  0.23143500  0.15938100  1
  O  O25  1  0.26362000  0.76856500  0.84061900  1
  O  O26  1  0.11375100  0.07222000  0.78288300  1
  O  O27  1  0.88624900  0.92778000  0.21711700  1
  O  O28  1  0.41363000  0.24308500  0.99136700  1
  O  O29  1  0.58637000  0.75691500  0.00863300  1
  O  O30  1  0.74087200  0.72079600  0.64346100  1
  O  O31  1  0.25912800  0.27920400  0.35653900  1
  O  O32  1  0.65725200  0.56895200  0.25773400  1
  O  O33  1  0.34274800  0.43104800  0.74226600  1
  O  O34  1  0.11039900  0.33445600  0.00058900  1
  O  O35  1  0.88960100  0.66554400  0.99941100  1
