# generated using pymatgen
data_Li6Zn3(PS4)4
_symmetry_space_group_name_H-M   'P 1'
_cell_length_a   9.25880100
_cell_length_b   11.63772600
_cell_length_c   23.21425785
_cell_angle_alpha   89.92894502
_cell_angle_beta   90.00000000
_cell_angle_gamma   90.00000000
_symmetry_Int_Tables_number   1
_chemical_formula_structural   Li6Zn3(PS4)4
_chemical_formula_sum   'Li24 Zn12 P16 S64'
_cell_volume   2501.36660752
_cell_formula_units_Z   4
loop_
 _symmetry_equiv_pos_site_id
 _symmetry_equiv_pos_as_xyz
  1  'x, y, z'
loop_
 _atom_site_type_symbol
 _atom_site_label
 _atom_site_symmetry_multiplicity
 _atom_site_fract_x
 _atom_site_fract_y
 _atom_site_fract_z
 _atom_site_occupancy
  Li  Li0  1  0.25322300  0.75338100  0.99740500  1
  Li  Li1  1  0.25322300  0.24661900  0.00259500  1
  Li  Li2  1  0.75119700  0.49181100  0.12289500  1
  Li  Li3  1  0.75119700  0.50818900  0.87710500  1
  Li  Li4  1  0.49436900  0.75209200  0.62374400  1
  Li  Li5  1  0.49949900  0.24990200  0.62469400  1
  Li  Li6  1  0.49949900  0.75009800  0.37530600  1
  Li  Li7  1  0.49436900  0.24790800  0.37625600  1
  Li  Li8  1  0.99718200  0.50000000  0.50000000  1
  Li  Li9  1  0.99945600  0.00000000  0.50000000  1
  Li  Li10  1  0.50378100  0.75167200  0.12714200  1
  Li  Li11  1  0.49992100  0.24672500  0.12483000  1
  Li  Li12  1  0.00314700  0.49924800  0.25254900  1
  Li  Li13  1  0.99669200  0.99962500  0.25053000  1
  Li  Li14  1  0.49992100  0.75327500  0.87517000  1
  Li  Li15  1  0.50378100  0.24832800  0.87285800  1
  Li  Li16  1  0.00940000  0.50000000  0.00000000  1
  Li  Li17  1  0.98514900  0.00000000  0.00000000  1
  Li  Li18  1  0.00314700  0.50075200  0.74745100  1
  Li  Li19  1  0.99669200  0.00037500  0.74947000  1
  Li  Li20  1  0.51830400  0.00000000  0.00000000  1
  Li  Li21  1  0.49632500  0.50000000  0.00000000  1
  Li  Li22  1  0.00102200  0.24967700  0.12787800  1
  Li  Li23  1  0.00102200  0.75032300  0.87212200  1
  Zn  Zn24  1  0.49925900  0.99896100  0.75132000  1
  Zn  Zn25  1  0.49297300  0.50177300  0.74775200  1
  Zn  Zn26  1  0.49993100  0.00000000  0.50000000  1
  Zn  Zn27  1  0.50186300  0.50000000  0.50000000  1
  Zn  Zn28  1  0.99958300  0.75045700  0.62473200  1
  Zn  Zn29  1  0.00083900  0.24933900  0.62454000  1
  Zn  Zn30  1  0.49925900  0.00103900  0.24868000  1
  Zn  Zn31  1  0.49297300  0.49822700  0.25224800  1
  Zn  Zn32  1  0.00083900  0.75066100  0.37546000  1
  Zn  Zn33  1  0.99958300  0.24954300  0.37526800  1
  Zn  Zn34  1  0.00044300  0.75022000  0.12503700  1
  Zn  Zn35  1  0.00044300  0.24978000  0.87496300  1
  P  P36  1  0.24985600  0.00076100  0.62505700  1
  P  P37  1  0.24899100  0.49990400  0.62413300  1
  P  P38  1  0.24985600  0.99923900  0.37494300  1
  P  P39  1  0.24899100  0.50009600  0.37586700  1
  P  P40  1  0.74991900  0.75026500  0.49984700  1
  P  P41  1  0.74991900  0.24973500  0.50015300  1
  P  P42  1  0.24977100  0.00264200  0.12697800  1
  P  P43  1  0.25120600  0.50632200  0.12328200  1
  P  P44  1  0.75218400  0.74921200  0.25005400  1
  P  P45  1  0.74554600  0.25550600  0.25141000  1
  P  P46  1  0.24977100  0.99735800  0.87302200  1
  P  P47  1  0.25120600  0.49367800  0.87671800  1
  P  P48  1  0.75114900  0.74836400  0.00050400  1
  P  P49  1  0.75114900  0.25163600  0.99949600  1
  P  P50  1  0.74554600  0.74449400  0.74859000  1
  P  P51  1  0.75218400  0.25078800  0.74994600  1
  S  S52  1  0.13003800  0.89623900  0.82190900  1
  S  S53  1  0.12991100  0.39065400  0.82262300  1
  S  S54  1  0.13539300  0.88942700  0.57301400  1
  S  S55  1  0.13327000  0.38938400  0.57229600  1
  S  S56  1  0.62629300  0.63884600  0.69531200  1
  S  S57  1  0.63343200  0.14122000  0.69918500  1
  S  S58  1  0.13515100  0.88819200  0.32291900  1
  S  S59  1  0.13748900  0.38758900  0.32370000  1
  S  S60  1  0.63602000  0.63879700  0.44773000  1
  S  S61  1  0.63530100  0.13878000  0.44808200  1
  S  S62  1  0.13065900  0.89065800  0.07282200  1
  S  S63  1  0.13227100  0.39467200  0.07378700  1
  S  S64  1  0.63125000  0.63623500  0.19922000  1
  S  S65  1  0.63537000  0.14264800  0.19862300  1
  S  S66  1  0.63005000  0.64097600  0.94815800  1
  S  S67  1  0.63194100  0.15053600  0.94740200  1
  S  S68  1  0.36466500  0.60322800  0.56861100  1
  S  S69  1  0.36437200  0.10451200  0.56910400  1
  S  S70  1  0.36061800  0.60586700  0.31994300  1
  S  S71  1  0.36522200  0.10264100  0.31944100  1
  S  S72  1  0.86486700  0.35365100  0.44462100  1
  S  S73  1  0.86410300  0.85457600  0.44412500  1
  S  S74  1  0.37330400  0.61089500  0.07155700  1
  S  S75  1  0.37077600  0.10060000  0.07115900  1
  S  S76  1  0.86701000  0.35798200  0.19821100  1
  S  S77  1  0.86278900  0.85323600  0.19379200  1
  S  S78  1  0.36982700  0.59906500  0.82223900  1
  S  S79  1  0.36919100  0.10510700  0.82035500  1
  S  S80  1  0.87350700  0.36104300  0.94425300  1
  S  S81  1  0.87946400  0.84467600  0.94933700  1
  S  S82  1  0.86572300  0.35432000  0.69404000  1
  S  S83  1  0.86234700  0.85024500  0.69423300  1
  S  S84  1  0.13515100  0.11180800  0.67708100  1
  S  S85  1  0.13748900  0.61241100  0.67630000  1
  S  S86  1  0.13539300  0.11057300  0.42698600  1
  S  S87  1  0.13327000  0.61061600  0.42770400  1
  S  S88  1  0.63530100  0.86122000  0.55191800  1
  S  S89  1  0.63602000  0.36120300  0.55227000  1
  S  S90  1  0.13003800  0.10376100  0.17809100  1
  S  S91  1  0.12991100  0.60934600  0.17737700  1
  S  S92  1  0.63343200  0.85878000  0.30081500  1
  S  S93  1  0.62629300  0.36115400  0.30468800  1
  S  S94  1  0.13065900  0.10934200  0.92717800  1
  S  S95  1  0.13227100  0.60532800  0.92621300  1
  S  S96  1  0.63194100  0.84946400  0.05259800  1
  S  S97  1  0.63005000  0.35902400  0.05184200  1
  S  S98  1  0.63537000  0.85735200  0.80137700  1
  S  S99  1  0.63125000  0.36376500  0.80078000  1
  S  S100  1  0.36522200  0.89735900  0.68055900  1
  S  S101  1  0.36061800  0.39413300  0.68005700  1
  S  S102  1  0.36437200  0.89548800  0.43089600  1
  S  S103  1  0.36466500  0.39677200  0.43138900  1
  S  S104  1  0.86486700  0.64634900  0.55537900  1
  S  S105  1  0.86410300  0.14542400  0.55587500  1
  S  S106  1  0.36919100  0.89489300  0.17964500  1
  S  S107  1  0.36982700  0.40093500  0.17776100  1
  S  S108  1  0.86572300  0.64568000  0.30596000  1
  S  S109  1  0.86234700  0.14975500  0.30576700  1
  S  S110  1  0.37077600  0.89940000  0.92884100  1
  S  S111  1  0.37330400  0.38910500  0.92844300  1
  S  S112  1  0.87350700  0.63895700  0.05574700  1
  S  S113  1  0.87946400  0.15532400  0.05066300  1
  S  S114  1  0.86701000  0.64201800  0.80178900  1
  S  S115  1  0.86278900  0.14676400  0.80620800  1
