# generated using pymatgen
data_Li4V3OF11
_symmetry_space_group_name_H-M   'P 1'
_cell_length_a   5.19947600
_cell_length_b   5.46884006
_cell_length_c   16.45949216
_cell_angle_alpha   98.77095986
_cell_angle_beta   90.28196703
_cell_angle_gamma   90.30416302
_symmetry_Int_Tables_number   1
_chemical_formula_structural   Li4V3OF11
_chemical_formula_sum   'Li8 V6 O2 F22'
_cell_volume   462.53984702
_cell_formula_units_Z   2
loop_
 _symmetry_equiv_pos_site_id
 _symmetry_equiv_pos_as_xyz
  1  'x, y, z'
loop_
 _atom_site_type_symbol
 _atom_site_label
 _atom_site_symmetry_multiplicity
 _atom_site_fract_x
 _atom_site_fract_y
 _atom_site_fract_z
 _atom_site_occupancy
  Li  Li0  1  0.67537600  0.68548400  0.82590300  1
  Li  Li1  1  0.04527400  0.35986500  0.45813900  1
  Li  Li2  1  0.99899200  0.18928900  0.22801800  1
  Li  Li3  1  0.47565500  0.98863400  0.11751000  1
  Li  Li4  1  0.18381600  0.14774400  0.84197100  1
  Li  Li5  1  0.45903400  0.87322400  0.45753100  1
  Li  Li6  1  0.50037400  0.65119300  0.23116700  1
  Li  Li7  1  0.96484700  0.87600800  0.55090000  1
  V  V8  1  0.47473100  0.17457600  0.32732800  1
  V  V9  1  0.99748200  0.00319300  0.00229100  1
  V  V10  1  0.99601700  0.33872000  0.66721000  1
  V  V11  1  0.02385700  0.67587800  0.32667600  1
  V  V12  1  0.49703100  0.50106500  0.00226700  1
  V  V13  1  0.49222500  0.83555400  0.66598900  1
  O  O14  1  0.19976200  0.94093700  0.29432000  1
  O  O15  1  0.30199700  0.44301400  0.29786200  1
  F  F16  1  0.16849700  0.64185600  0.63317100  1
  F  F17  1  0.31645100  0.81471700  0.97736300  1
  F  F18  1  0.68466200  0.54103100  0.70097800  1
  F  F19  1  0.12518600  0.09041300  0.11309300  1
  F  F20  1  0.09591700  0.40207000  0.78059000  1
  F  F21  1  0.36358800  0.20658000  0.44564200  1
  F  F22  1  0.90488200  0.23879300  0.55218900  1
  F  F23  1  0.59469300  0.43474800  0.88866600  1
  F  F24  1  0.64552400  0.05547700  0.21651200  1
  F  F25  1  0.30171200  0.13208500  0.63772200  1
  F  F26  1  0.18937300  0.29593700  0.96771300  1
  F  F27  1  0.68826700  0.87526100  0.36525300  1
  F  F28  1  0.81091100  0.70443900  0.02734600  1
  F  F29  1  0.82005700  0.02761400  0.68879400  1
  F  F30  1  0.40931100  0.61907100  0.11421000  1
  F  F31  1  0.40795500  0.90448300  0.78371500  1
  F  F32  1  0.12276000  0.72263200  0.45327400  1
  F  F33  1  0.61613100  0.77288700  0.55179600  1
  F  F34  1  0.90564100  0.93269000  0.88656900  1
  F  F35  1  0.84914400  0.54199900  0.22313800  1
  F  F36  1  0.81457600  0.37317900  0.36702000  1
  F  F37  1  0.67756900  0.19269600  0.03414100  1
