# generated using pymatgen
data_LiMg2
_symmetry_space_group_name_H-M   'P 1'
_cell_length_a   5.38732759
_cell_length_b   5.38732759
_cell_length_c   5.90248090
_cell_angle_alpha   65.06832892
_cell_angle_beta   65.06832892
_cell_angle_gamma   61.57928286
_symmetry_Int_Tables_number   1
_chemical_formula_structural   LiMg2
_chemical_formula_sum   'Li2 Mg4'
_cell_volume   131.27667031
_cell_formula_units_Z   2
loop_
 _symmetry_equiv_pos_site_id
 _symmetry_equiv_pos_as_xyz
  1  'x, y, z'
loop_
 _atom_site_type_symbol
 _atom_site_label
 _atom_site_symmetry_multiplicity
 _atom_site_fract_x
 _atom_site_fract_y
 _atom_site_fract_z
 _atom_site_occupancy
  Li  Li0  1  0.08507100  0.91492900  0.25000000  1
  Li  Li1  1  0.91492900  0.08507100  0.75000000  1
  Mg  Mg2  1  0.24626600  0.41778300  0.74990100  1
  Mg  Mg3  1  0.58221700  0.75373400  0.75009900  1
  Mg  Mg4  1  0.41778300  0.24626600  0.24990100  1
  Mg  Mg5  1  0.75373400  0.58221700  0.25009900  1
