# generated using pymatgen
data_Li2CuN
_symmetry_space_group_name_H-M   'P 1'
_cell_length_a   4.96455470
_cell_length_b   7.01997640
_cell_length_c   5.20013358
_cell_angle_alpha   90.00000000
_cell_angle_beta   90.00000000
_cell_angle_gamma   90.00000000
_symmetry_Int_Tables_number   1
_chemical_formula_structural   Li2CuN
_chemical_formula_sum   'Li8 Cu4 N4'
_cell_volume   181.23015092
_cell_formula_units_Z   4
loop_
 _symmetry_equiv_pos_site_id
 _symmetry_equiv_pos_as_xyz
  1  'x, y, z'
loop_
 _atom_site_type_symbol
 _atom_site_label
 _atom_site_symmetry_multiplicity
 _atom_site_fract_x
 _atom_site_fract_y
 _atom_site_fract_z
 _atom_site_occupancy
  Li  Li0  1  0.25006553  0.62216764  0.93726497  1
  Li  Li1  1  0.74993447  0.37783236  0.43726497  1
  Li  Li2  1  0.24993447  0.62216764  0.43726497  1
  Li  Li3  1  0.75006553  0.37783236  0.93726497  1
  Li  Li4  1  0.86002688  0.06445030  0.18823263  1
  Li  Li5  1  0.13997312  0.93554970  0.68823263  1
  Li  Li6  1  0.63997312  0.06445030  0.68823263  1
  Li  Li7  1  0.36002688  0.93554970  0.18823263  1
  Cu  Cu8  1  0.75010575  0.75352423  0.43733053  1
  Cu  Cu9  1  0.24989425  0.24647577  0.93733053  1
  Cu  Cu10  1  0.74989425  0.75352423  0.93733053  1
  Cu  Cu11  1  0.25010575  0.24647577  0.43733053  1
  N  N12  1  0.47901853  0.76952791  0.68717187  1
  N  N13  1  0.52098147  0.23047209  0.18717187  1
  N  N14  1  0.02098147  0.76952791  0.18717187  1
  N  N15  1  0.97901853  0.23047209  0.68717187  1
