# generated using pymatgen
data_Li3V(H4O3)4
_symmetry_space_group_name_H-M   'P 1'
_cell_length_a   6.54378800
_cell_length_b   7.35232800
_cell_length_c   13.05830458
_cell_angle_alpha   68.13429999
_cell_angle_beta   90.00000000
_cell_angle_gamma   90.00000000
_symmetry_Int_Tables_number   1
_chemical_formula_structural   Li3V(H4O3)4
_chemical_formula_sum   'Li6 V2 H32 O24'
_cell_volume   583.06456865
_cell_formula_units_Z   2
loop_
 _symmetry_equiv_pos_site_id
 _symmetry_equiv_pos_as_xyz
  1  'x, y, z'
loop_
 _atom_site_type_symbol
 _atom_site_label
 _atom_site_symmetry_multiplicity
 _atom_site_fract_x
 _atom_site_fract_y
 _atom_site_fract_z
 _atom_site_occupancy
  Li  Li0  1  0.14373800  0.74966600  0.44400400  1
  Li  Li1  1  0.85626200  0.74966600  0.94400400  1
  Li  Li2  1  0.65155200  0.61378500  0.14347000  1
  Li  Li3  1  0.34844800  0.61378500  0.64347000  1
  Li  Li4  1  0.54654800  0.26491400  0.38825800  1
  Li  Li5  1  0.45345200  0.26491400  0.88825800  1
  V  V6  1  0.04606300  0.08413000  0.20617800  1
  V  V7  1  0.95393700  0.08413000  0.70617800  1
  H  H8  1  0.09938400  0.67334800  0.28812600  1
  H  H9  1  0.90061600  0.67334800  0.78812600  1
  H  H10  1  0.14010800  0.45682900  0.38191200  1
  H  H11  1  0.85989200  0.45682900  0.88191200  1
  H  H12  1  0.03707200  0.51518700  0.12179200  1
  H  H13  1  0.96292800  0.51518700  0.62179200  1
  H  H14  1  0.02888100  0.73264600  0.12544100  1
  H  H15  1  0.97111900  0.73264600  0.62544100  1
  H  H16  1  0.52949500  0.83000300  0.46759900  1
  H  H17  1  0.47050500  0.83000300  0.96759900  1
  H  H18  1  0.51736100  0.62043100  0.46054600  1
  H  H19  1  0.48263900  0.62043100  0.96054600  1
  H  H20  1  0.41611200  0.83408300  0.20111900  1
  H  H21  1  0.58388800  0.83408300  0.70111900  1
  H  H22  1  0.64347700  0.91524000  0.19603100  1
  H  H23  1  0.35652300  0.91524000  0.69603100  1
  H  H24  1  0.41027600  0.32674100  0.19845500  1
  H  H25  1  0.58972400  0.32674100  0.69845500  1
  H  H26  1  0.64328500  0.25458000  0.20131100  1
  H  H27  1  0.35671500  0.25458000  0.70131100  1
  H  H28  1  0.20118600  0.51536400  0.90060100  1
  H  H29  1  0.79881400  0.51536400  0.40060100  1
  H  H30  1  0.26805000  0.38600400  0.02218600  1
  H  H31  1  0.73195000  0.38600400  0.52218600  1
  H  H32  1  0.17543000  0.01168900  0.91027000  1
  H  H33  1  0.82457000  0.01168900  0.41027000  1
  H  H34  1  0.25085100  0.98091900  0.03151300  1
  H  H35  1  0.74914900  0.98091900  0.53151300  1
  H  H36  1  0.23542100  0.18666300  0.51782900  1
  H  H37  1  0.76457900  0.18666300  0.01782900  1
  H  H38  1  0.17830700  0.14757600  0.40618600  1
  H  H39  1  0.82169300  0.14757600  0.90618600  1
  O  O40  1  0.20445000  0.12170500  0.65851900  1
  O  O41  1  0.79555000  0.12170500  0.15851900  1
  O  O42  1  0.18052900  0.30428800  0.14809000  1
  O  O43  1  0.81947100  0.30428800  0.64809000  1
  O  O44  1  0.15443600  0.89803800  0.16864800  1
  O  O45  1  0.84556400  0.89803800  0.66864800  1
  O  O46  1  0.04891300  0.01106500  0.35016600  1
  O  O47  1  0.95108700  0.01106500  0.85016600  1
  O  O48  1  0.06164900  0.58218300  0.36343700  1
  O  O49  1  0.93835100  0.58218300  0.86343700  1
  O  O50  1  0.04843300  0.63723200  0.60185300  1
  O  O51  1  0.95156700  0.63723200  0.10185300  1
  O  O52  1  0.43635200  0.71461800  0.48354600  1
  O  O53  1  0.56364800  0.71461800  0.98354600  1
  O  O54  1  0.56192300  0.79351400  0.21057600  1
  O  O55  1  0.43807700  0.79351400  0.71057600  1
  O  O56  1  0.55143800  0.34292400  0.22493800  1
  O  O57  1  0.44856200  0.34292400  0.72493800  1
  O  O58  1  0.32291800  0.44996400  0.94443200  1
  O  O59  1  0.67708200  0.44996400  0.44443200  1
  O  O60  1  0.30134400  0.01417200  0.95436300  1
  O  O61  1  0.69865600  0.01417200  0.45436300  1
  O  O62  1  0.25885600  0.23407200  0.43604300  1
  O  O63  1  0.74114400  0.23407200  0.93604300  1
