# generated using pymatgen
data_Li4MnCo2O7
_symmetry_space_group_name_H-M   'P 1'
_cell_length_a   4.98741100
_cell_length_b   5.96916127
_cell_length_c   8.70501983
_cell_angle_alpha   88.99660718
_cell_angle_beta   86.48694168
_cell_angle_gamma   77.55629953
_symmetry_Int_Tables_number   1
_chemical_formula_structural   Li4MnCo2O7
_chemical_formula_sum   'Li8 Mn2 Co4 O14'
_cell_volume   252.58818108
_cell_formula_units_Z   2
loop_
 _symmetry_equiv_pos_site_id
 _symmetry_equiv_pos_as_xyz
  1  'x, y, z'
loop_
 _atom_site_type_symbol
 _atom_site_label
 _atom_site_symmetry_multiplicity
 _atom_site_fract_x
 _atom_site_fract_y
 _atom_site_fract_z
 _atom_site_occupancy
  Li  Li0  1  0.56904800  0.36165000  0.84770300  1
  Li  Li1  1  0.14627700  0.20586300  0.70512600  1
  Li  Li2  1  0.99623900  0.50861700  0.00316100  1
  Li  Li3  1  0.43074500  0.64019100  0.14480800  1
  Li  Li4  1  0.71104600  0.07240800  0.57136300  1
  Li  Li5  1  0.29002500  0.92574900  0.43064700  1
  Li  Li6  1  0.85485000  0.78098800  0.29524000  1
  Li  Li7  1  0.70849700  0.57365900  0.57085100  1
  Mn  Mn8  1  0.00064500  0.00023700  0.00097200  1
  Mn  Mn9  1  0.57793500  0.85008100  0.85297700  1
  Co  Co10  1  0.14208600  0.70870600  0.70871100  1
  Co  Co11  1  0.28345100  0.44117300  0.43373900  1
  Co  Co12  1  0.85575500  0.29002800  0.28912900  1
  Co  Co13  1  0.43361500  0.14151500  0.14525500  1
  O  O14  1  0.84115900  0.03986900  0.79936500  1
  O  O15  1  0.42160400  0.88567400  0.65856100  1
  O  O16  1  0.31004800  0.14345700  0.93485200  1
  O  O17  1  0.70523900  0.31366200  0.08785700  1
  O  O18  1  0.01482000  0.74378300  0.51386100  1
  O  O19  1  0.53710500  0.59396500  0.36336800  1
  O  O20  1  0.12661400  0.45615500  0.22642200  1
  O  O21  1  0.30067800  0.67792900  0.91047900  1
  O  O22  1  0.84381400  0.57686600  0.79067000  1
  O  O23  1  0.72446100  0.82293900  0.05872600  1
  O  O24  1  0.16144600  0.97323500  0.20068600  1
  O  O25  1  0.41046500  0.39286700  0.62877200  1
  O  O26  1  0.01916300  0.26220300  0.48158300  1
  O  O27  1  0.58316800  0.11653100  0.34511400  1
