# generated using pymatgen
data_Li8Mn5Fe3(BO3)8
_symmetry_space_group_name_H-M   'P 1'
_cell_length_a   5.23326400
_cell_length_b   6.01316316
_cell_length_c   16.20709484
_cell_angle_alpha   81.99514531
_cell_angle_beta   88.81319911
_cell_angle_gamma   89.42751512
_symmetry_Int_Tables_number   1
_chemical_formula_structural   Li8Mn5Fe3(BO3)8
_chemical_formula_sum   'Li8 Mn5 Fe3 B8 O24'
_cell_volume   504.92170793
_cell_formula_units_Z   1
loop_
 _symmetry_equiv_pos_site_id
 _symmetry_equiv_pos_as_xyz
  1  'x, y, z'
loop_
 _atom_site_type_symbol
 _atom_site_label
 _atom_site_symmetry_multiplicity
 _atom_site_fract_x
 _atom_site_fract_y
 _atom_site_fract_z
 _atom_site_occupancy
  Li  Li0  1  0.84774200  0.06129400  0.39064000  1
  Li  Li1  1  0.14959000  0.43712900  0.10947000  1
  Li  Li2  1  0.65033700  0.18755900  0.85895800  1
  Li  Li3  1  0.34924300  0.31273800  0.63966800  1
  Li  Li4  1  0.65095100  0.68828700  0.35933400  1
  Li  Li5  1  0.34945200  0.81232100  0.14126900  1
  Li  Li6  1  0.84946200  0.56257100  0.89100800  1
  Li  Li7  1  0.14994900  0.93919900  0.60844700  1
  Mn  Mn8  1  0.66706300  0.27436900  0.04071300  1
  Mn  Mn9  1  0.16638400  0.02627300  0.78970000  1
  Mn  Mn10  1  0.16600200  0.52345500  0.29033500  1
  Mn  Mn11  1  0.83266900  0.47682200  0.70935900  1
  Mn  Mn12  1  0.33341300  0.72373100  0.96015300  1
  Fe  Fe13  1  0.34106500  0.22420700  0.45987400  1
  Fe  Fe14  1  0.66098300  0.77618400  0.53927800  1
  Fe  Fe15  1  0.84016200  0.97299900  0.20960200  1
  B  B16  1  0.33080600  0.03673600  0.29854800  1
  B  B17  1  0.82945800  0.28776100  0.54671000  1
  B  B18  1  0.66973600  0.46328300  0.20242200  1
  B  B19  1  0.16890300  0.21450500  0.95194200  1
  B  B20  1  0.83153800  0.78540800  0.04941100  1
  B  B21  1  0.33083400  0.53526100  0.79802500  1
  B  B22  1  0.17131000  0.71226300  0.45330300  1
  B  B23  1  0.66791700  0.96482800  0.70061600  1
  O  O24  1  0.58967300  0.01488600  0.30969800  1
  O  O25  1  0.18167800  0.16808500  0.34682800  1
  O  O26  1  0.70926500  0.16894200  0.49007100  1
  O  O27  1  0.28342800  0.33467500  0.00868000  1
  O  O28  1  0.78312000  0.08294700  0.75784600  1
  O  O29  1  0.82223200  0.32721200  0.15724900  1
  O  O30  1  0.32227300  0.07992000  0.90642600  1
  O  O31  1  0.08821500  0.26472300  0.55915700  1
  O  O32  1  0.41084400  0.48394600  0.18783800  1
  O  O33  1  0.91025500  0.23360000  0.93762500  1
  O  O34  1  0.67938900  0.42219100  0.59304400  1
  O  O35  1  0.21656500  0.41538000  0.74115700  1
  O  O36  1  0.78385900  0.58455100  0.25884800  1
  O  O37  1  0.32040500  0.57851800  0.40632100  1
  O  O38  1  0.09032300  0.76665600  0.06300600  1
  O  O39  1  0.58935500  0.51625200  0.81258900  1
  O  O40  1  0.91209200  0.73509200  0.44071700  1
  O  O41  1  0.67944600  0.91897200  0.09613900  1
  O  O42  1  0.17730400  0.66981200  0.84358900  1
  O  O43  1  0.20857100  0.92164300  0.24125600  1
  O  O44  1  0.71656400  0.66697300  0.99232800  1
  O  O45  1  0.29161600  0.83028900  0.50986300  1
  O  O46  1  0.81955400  0.83128100  0.65387200  1
  O  O47  1  0.40900600  0.98426900  0.68707000  1
