# generated using pymatgen
data_Li9Mn2Co5O16
_symmetry_space_group_name_H-M   'P 1'
_cell_length_a   3.02604200
_cell_length_b   5.06099681
_cell_length_c   19.12790150
_cell_angle_alpha   91.98859530
_cell_angle_beta   92.45990388
_cell_angle_gamma   91.39025902
_symmetry_Int_Tables_number   1
_chemical_formula_structural   Li9Mn2Co5O16
_chemical_formula_sum   'Li9 Mn2 Co5 O16'
_cell_volume   292.39627631
_cell_formula_units_Z   1
loop_
 _symmetry_equiv_pos_site_id
 _symmetry_equiv_pos_as_xyz
  1  'x, y, z'
loop_
 _atom_site_type_symbol
 _atom_site_label
 _atom_site_symmetry_multiplicity
 _atom_site_fract_x
 _atom_site_fract_y
 _atom_site_fract_z
 _atom_site_occupancy
  Li  Li0  1  0.00036000  0.62464800  0.87409800  1
  Li  Li1  1  0.50423700  0.74849900  0.74902100  1
  Li  Li2  1  0.00728100  0.87102900  0.62489200  1
  Li  Li3  1  0.50024300  0.99975100  0.50008200  1
  Li  Li4  1  0.99252200  0.12925200  0.37489000  1
  Li  Li5  1  0.49759400  0.25094600  0.25071100  1
  Li  Li6  1  0.99986600  0.37492100  0.12575500  1
  Li  Li7  1  0.50020900  0.50018200  0.00060800  1
  Li  Li8  1  0.99953800  0.50033200  0.49992200  1
  Mn  Mn9  1  0.99121700  0.99867200  0.00106200  1
  Mn  Mn10  1  0.50870700  0.12645600  0.87325600  1
  Co  Co11  1  0.00507300  0.25680100  0.74692400  1
  Co  Co12  1  0.50140600  0.37402000  0.61893700  1
  Co  Co13  1  0.49896400  0.62514700  0.38048200  1
  Co  Co14  1  0.00055600  0.74701900  0.25218100  1
  Co  Co15  1  0.49420200  0.87185700  0.12750700  1
  O  O16  1  0.53149200  0.83103200  0.93637600  1
  O  O17  1  0.04149200  0.95906200  0.80915200  1
  O  O18  1  0.49255800  0.09762600  0.68489600  1
  O  O19  1  0.02573500  0.19832500  0.56687700  1
  O  O20  1  0.50039800  0.34514500  0.42968000  1
  O  O21  1  0.03617100  0.46008300  0.31320200  1
  O  O22  1  0.49726800  0.58117300  0.18831700  1
  O  O23  1  0.98354400  0.70739300  0.06427900  1
  O  O24  1  0.51137800  0.41927200  0.81085600  1
  O  O25  1  0.96457400  0.54193000  0.68618700  1
  O  O26  1  0.49874400  0.65544100  0.56971800  1
  O  O27  1  0.97230400  0.80141700  0.43259600  1
  O  O28  1  0.51097200  0.90329500  0.31455900  1
  O  O29  1  0.00500600  0.03961300  0.19013600  1
  O  O30  1  0.45740900  0.16620000  0.06498900  1
  O  O31  1  0.96898800  0.29346500  0.93784600  1
