# generated using pymatgen
data_Ba2Li3La3(MoO4)8
_symmetry_space_group_name_H-M   'P 1'
_cell_length_a   5.41076800
_cell_length_b   7.12630652
_cell_length_c   19.50864220
_cell_angle_alpha   89.28252640
_cell_angle_beta   89.65150307
_cell_angle_gamma   68.11374492
_symmetry_Int_Tables_number   1
_chemical_formula_structural   Ba2Li3La3(MoO4)8
_chemical_formula_sum   'Ba2 Li3 La3 Mo8 O32'
_cell_volume   697.95770265
_cell_formula_units_Z   1
loop_
 _symmetry_equiv_pos_site_id
 _symmetry_equiv_pos_as_xyz
  1  'x, y, z'
loop_
 _atom_site_type_symbol
 _atom_site_label
 _atom_site_symmetry_multiplicity
 _atom_site_fract_x
 _atom_site_fract_y
 _atom_site_fract_z
 _atom_site_occupancy
  Ba  Ba0  1  0.96767300  0.05690000  0.76536000  1
  Ba  Ba1  1  0.02963900  0.94466500  0.23815500  1
  Li  Li2  1  0.68884200  0.62656200  0.75815900  1
  Li  Li3  1  0.31283700  0.37083200  0.24314300  1
  Li  Li4  1  0.85041600  0.28934000  0.96308100  1
  La  La5  1  0.85724000  0.29388400  0.53678400  1
  La  La6  1  0.14705600  0.70879000  0.02827700  1
  La  La7  1  0.14292100  0.70655900  0.46502600  1
  Mo  Mo8  1  0.56239500  0.88335000  0.90549500  1
  Mo  Mo9  1  0.55634700  0.87749200  0.59540600  1
  Mo  Mo10  1  0.43446400  0.12082800  0.09340900  1
  Mo  Mo11  1  0.44434600  0.12228500  0.40481900  1
  Mo  Mo12  1  0.27383400  0.47475400  0.65688100  1
  Mo  Mo13  1  0.26189200  0.47153300  0.84636000  1
  Mo  Mo14  1  0.72742800  0.52487500  0.34416300  1
  Mo  Mo15  1  0.74078200  0.52453600  0.15445500  1
  O  O16  1  0.29094400  0.70948500  0.67925100  1
  O  O17  1  0.00100100  0.69459000  0.81560600  1
  O  O18  1  0.70746600  0.29190800  0.32037400  1
  O  O19  1  0.99825000  0.30055700  0.18516600  1
  O  O20  1  0.60609300  0.28731900  0.63837000  1
  O  O21  1  0.11221000  0.28817800  0.85748700  1
  O  O22  1  0.39450500  0.71173700  0.36138400  1
  O  O23  1  0.89673600  0.70813000  0.14171300  1
  O  O24  1  0.10225400  0.51327800  0.57174900  1
  O  O25  1  0.39127700  0.51703100  0.92732700  1
  O  O26  1  0.90002300  0.48636200  0.42848400  1
  O  O27  1  0.60725600  0.48858600  0.07401200  1
  O  O28  1  0.06145900  0.39776000  0.71018200  1
  O  O29  1  0.51847600  0.40270500  0.77936600  1
  O  O30  1  0.93478500  0.60234400  0.28892900  1
  O  O31  1  0.47811100  0.59742100  0.21909300  1
  O  O32  1  0.45479100  0.82802100  0.82335900  1
  O  O33  1  0.71943500  0.82166900  0.67470900  1
  O  O34  1  0.54438900  0.17217400  0.17573000  1
  O  O35  1  0.28104000  0.17785600  0.32517500  1
  O  O36  1  0.69160000  0.07792600  0.89174500  1
  O  O37  1  0.23525700  0.07432900  0.60621300  1
  O  O38  1  0.30237300  0.92272600  0.10847000  1
  O  O39  1  0.76560100  0.92544500  0.39353300  1
  O  O40  1  0.27193200  0.96216300  0.96102900  1
  O  O41  1  0.76843000  0.96296100  0.53870400  1
  O  O42  1  0.72755000  0.03041900  0.04050500  1
  O  O43  1  0.23224800  0.03666800  0.46098200  1
  O  O44  1  0.81231200  0.67213300  0.94998000  1
  O  O45  1  0.52857000  0.66273700  0.54799300  1
  O  O46  1  0.19326500  0.34091100  0.05276600  1
  O  O47  1  0.47225200  0.33728600  0.45163900  1
