# generated using pymatgen
data_LiAlSiH2O5
_symmetry_space_group_name_H-M   'P 1'
_cell_length_a   5.04929374
_cell_length_b   8.44725446
_cell_length_c   11.43488023
_cell_angle_alpha   90.00000000
_cell_angle_beta   90.00000000
_cell_angle_gamma   90.00000000
_symmetry_Int_Tables_number   1
_chemical_formula_structural   LiAlSiH2O5
_chemical_formula_sum   'Li4 Al4 Si4 H8 O20'
_cell_volume   487.72816225
_cell_formula_units_Z   4
loop_
 _symmetry_equiv_pos_site_id
 _symmetry_equiv_pos_as_xyz
  1  'x, y, z'
loop_
 _atom_site_type_symbol
 _atom_site_label
 _atom_site_symmetry_multiplicity
 _atom_site_fract_x
 _atom_site_fract_y
 _atom_site_fract_z
 _atom_site_occupancy
  Li  Li0  1  0.10121231  0.70762168  0.61981480  1
  Li  Li1  1  0.60121231  0.20762168  0.88018520  1
  Li  Li2  1  0.60121231  0.29237832  0.38018520  1
  Li  Li3  1  0.10121231  0.79237832  0.11981480  1
  Al  Al4  1  0.72995774  0.64480110  0.35251615  1
  Al  Al5  1  0.22995774  0.14480110  0.14748385  1
  Al  Al6  1  0.72995774  0.85519890  0.85251615  1
  Al  Al7  1  0.22995774  0.35519890  0.64748385  1
  Si  Si8  1  0.19918789  0.46883848  0.27114629  1
  Si  Si9  1  0.69918789  0.96883848  0.22885371  1
  Si  Si10  1  0.69918789  0.53116152  0.72885371  1
  Si  Si11  1  0.19918789  0.03116152  0.77114629  1
  H  H12  1  0.00424349  0.98137245  0.59894113  1
  H  H13  1  0.50424349  0.48137245  0.90105887  1
  H  H14  1  0.50424349  0.01862755  0.40105887  1
  H  H15  1  0.30699508  0.15463461  0.52380677  1
  H  H16  1  0.80699508  0.84536539  0.47619323  1
  H  H17  1  0.80699508  0.65463461  0.97619323  1
  H  H18  1  0.00424349  0.51862755  0.09894113  1
  H  H19  1  0.30699508  0.34536539  0.02380677  1
  O  O20  1  0.40160398  0.53418403  0.67329553  1
  O  O21  1  0.90160398  0.03418403  0.82670447  1
  O  O22  1  0.33056219  0.23175334  0.01308332  1
  O  O23  1  0.17220989  0.94992385  0.63371873  1
  O  O24  1  0.89991407  0.08153437  0.15747951  1
  O  O25  1  0.89991407  0.41846563  0.65747951  1
  O  O26  1  0.81341137  0.70989904  0.74574191  1
  O  O27  1  0.81341137  0.79010096  0.24574191  1
  O  O28  1  0.39991407  0.58153437  0.34252049  1
  O  O29  1  0.39991407  0.91846563  0.84252049  1
  O  O30  1  0.83056219  0.76824666  0.98691668  1
  O  O31  1  0.33056219  0.26824666  0.51308332  1
  O  O32  1  0.83056219  0.73175334  0.48691668  1
  O  O33  1  0.31341137  0.20989904  0.75425809  1
  O  O34  1  0.90160398  0.46581597  0.32670447  1
  O  O35  1  0.17220989  0.55007615  0.13371873  1
  O  O36  1  0.67220989  0.05007615  0.36628127  1
  O  O37  1  0.31341137  0.29010096  0.25425809  1
  O  O38  1  0.40160398  0.96581597  0.17329553  1
  O  O39  1  0.67220989  0.44992385  0.86628127  1
