# generated using pymatgen
data_Li2B2H9N
_symmetry_space_group_name_H-M   'P 1'
_cell_length_a   7.54817100
_cell_length_b   9.18647800
_cell_length_c   13.89989600
_cell_angle_alpha   90.00000000
_cell_angle_beta   90.00000000
_cell_angle_gamma   90.00000000
_symmetry_Int_Tables_number   1
_chemical_formula_structural   Li2B2H9N
_chemical_formula_sum   'Li16 B16 H72 N8'
_cell_volume   963.83417349
_cell_formula_units_Z   8
loop_
 _symmetry_equiv_pos_site_id
 _symmetry_equiv_pos_as_xyz
  1  'x, y, z'
loop_
 _atom_site_type_symbol
 _atom_site_label
 _atom_site_symmetry_multiplicity
 _atom_site_fract_x
 _atom_site_fract_y
 _atom_site_fract_z
 _atom_site_occupancy
  Li  Li0  1  0.12968500  0.20457700  0.71923900  1
  Li  Li1  1  0.87031500  0.70457700  0.78076100  1
  Li  Li2  1  0.37031500  0.79542300  0.21923900  1
  Li  Li3  1  0.62968500  0.29542300  0.28076100  1
  Li  Li4  1  0.87031500  0.79542300  0.28076100  1
  Li  Li5  1  0.12968500  0.29542300  0.21923900  1
  Li  Li6  1  0.62968500  0.20457700  0.78076100  1
  Li  Li7  1  0.37031500  0.70457700  0.71923900  1
  Li  Li8  1  0.09804600  0.85745600  0.55004300  1
  Li  Li9  1  0.90195400  0.35745600  0.94995700  1
  Li  Li10  1  0.40195400  0.14254400  0.05004300  1
  Li  Li11  1  0.59804600  0.64254400  0.44995700  1
  Li  Li12  1  0.90195400  0.14254400  0.44995700  1
  Li  Li13  1  0.09804600  0.64254400  0.05004300  1
  Li  Li14  1  0.59804600  0.85745600  0.94995700  1
  Li  Li15  1  0.40195400  0.35745600  0.55004300  1
  B  B16  1  0.11460900  0.87244400  0.72685800  1
  B  B17  1  0.88539100  0.37244400  0.77314200  1
  B  B18  1  0.38539100  0.12755600  0.22685800  1
  B  B19  1  0.61460900  0.62755600  0.27314200  1
  B  B20  1  0.88539100  0.12755600  0.27314200  1
  B  B21  1  0.11460900  0.62755600  0.22685800  1
  B  B22  1  0.61460900  0.87244400  0.77314200  1
  B  B23  1  0.38539100  0.37244400  0.72685800  1
  B  B24  1  0.31644400  0.66537900  0.52425700  1
  B  B25  1  0.68355600  0.16537900  0.97574300  1
  B  B26  1  0.18355600  0.33462100  0.02425700  1
  B  B27  1  0.81644400  0.83462100  0.47574300  1
  B  B28  1  0.68355600  0.33462100  0.47574300  1
  B  B29  1  0.31644400  0.83462100  0.02425700  1
  B  B30  1  0.81644400  0.66537900  0.97574300  1
  B  B31  1  0.18355600  0.16537900  0.52425700  1
  H  H32  1  0.22132000  0.00950500  0.83365200  1
  H  H33  1  0.77868000  0.50950500  0.66634800  1
  H  H34  1  0.27868000  0.99049500  0.33365200  1
  H  H35  1  0.72132000  0.49049500  0.16634800  1
  H  H36  1  0.77868000  0.99049500  0.16634800  1
  H  H37  1  0.22132000  0.49049500  0.33365200  1
  H  H38  1  0.72132000  0.00950500  0.66634800  1
  H  H39  1  0.27868000  0.50950500  0.83365200  1
  H  H40  1  0.00749700  0.01537500  0.83270400  1
  H  H41  1  0.99250300  0.51537500  0.66729600  1
  H  H42  1  0.49250300  0.98462500  0.33270400  1
  H  H43  1  0.50749700  0.48462500  0.16729600  1
  H  H44  1  0.99250300  0.98462500  0.16729600  1
  H  H45  1  0.00749700  0.48462500  0.33270400  1
  H  H46  1  0.50749700  0.01537500  0.66729600  1
  H  H47  1  0.49250300  0.51537500  0.83270400  1
  H  H48  1  0.12612700  0.75663100  0.77368900  1
  H  H49  1  0.87387300  0.25663100  0.72631100  1
  H  H50  1  0.37387300  0.24336900  0.27368900  1
  H  H51  1  0.62612700  0.74336900  0.22631100  1
  H  H52  1  0.87387300  0.24336900  0.22631100  1
  H  H53  1  0.12612700  0.74336900  0.27368900  1
  H  H54  1  0.62612700  0.75663100  0.72631100  1
  H  H55  1  0.37387300  0.25663100  0.77368900  1
  H  H56  1  0.97873100  0.86327700  0.67753800  1
  H  H57  1  0.02126900  0.36327700  0.82246200  1
  H  H58  1  0.52126900  0.13672300  0.17753800  1
  H  H59  1  0.47873100  0.63672300  0.32246200  1
  H  H60  1  0.02126900  0.13672300  0.32246200  1
  H  H61  1  0.97873100  0.63672300  0.17753800  1
  H  H62  1  0.47873100  0.86327700  0.82246200  1
  H  H63  1  0.52126900  0.36327700  0.67753800  1
  H  H64  1  0.24230300  0.87478000  0.67050300  1
  H  H65  1  0.75769700  0.37478000  0.82949700  1
  H  H66  1  0.25769700  0.12522000  0.17050300  1
  H  H67  1  0.74230300  0.62522000  0.32949700  1
  H  H68  1  0.75769700  0.12522000  0.32949700  1
  H  H69  1  0.24230300  0.62522000  0.17050300  1
  H  H70  1  0.74230300  0.87478000  0.82949700  1
  H  H71  1  0.25769700  0.37478000  0.67050300  1
  H  H72  1  0.33793400  0.55623700  0.47407200  1
  H  H73  1  0.66206600  0.05623700  0.02592800  1
  H  H74  1  0.16206600  0.44376300  0.97407200  1
  H  H75  1  0.83793400  0.94376300  0.52592800  1
  H  H76  1  0.66206600  0.44376300  0.52592800  1
  H  H77  1  0.33793400  0.94376300  0.97407200  1
  H  H78  1  0.83793400  0.55623700  0.02592800  1
  H  H79  1  0.16206600  0.05623700  0.47407200  1
  H  H80  1  0.29897600  0.76993300  0.46991500  1
  H  H81  1  0.70102400  0.26993300  0.03008500  1
  H  H82  1  0.20102400  0.23006700  0.96991500  1
  H  H83  1  0.79897600  0.73006700  0.53008500  1
  H  H84  1  0.70102400  0.23006700  0.53008500  1
  H  H85  1  0.29897600  0.73006700  0.96991500  1
  H  H86  1  0.79897600  0.76993300  0.03008500  1
  H  H87  1  0.20102400  0.26993300  0.46991500  1
  H  H88  1  0.44752000  0.68703200  0.57496500  1
  H  H89  1  0.55248000  0.18703200  0.92503500  1
  H  H90  1  0.05248000  0.31296800  0.07496500  1
  H  H91  1  0.94752000  0.81296800  0.42503500  1
  H  H92  1  0.55248000  0.31296800  0.42503500  1
  H  H93  1  0.44752000  0.81296800  0.07496500  1
  H  H94  1  0.94752000  0.68703200  0.92503500  1
  H  H95  1  0.05248000  0.18703200  0.57496500  1
  H  H96  1  0.18529400  0.64607800  0.57395500  1
  H  H97  1  0.81470600  0.14607800  0.92604500  1
  H  H98  1  0.31470600  0.35392200  0.07395500  1
  H  H99  1  0.68529400  0.85392200  0.42604500  1
  H  H100  1  0.81470600  0.35392200  0.42604500  1
  H  H101  1  0.18529400  0.85392200  0.07395500  1
  H  H102  1  0.68529400  0.64607800  0.92604500  1
  H  H103  1  0.31470600  0.14607800  0.57395500  1
  N  N104  1  0.11559500  0.01193800  0.78793900  1
  N  N105  1  0.88440500  0.51193800  0.71206100  1
  N  N106  1  0.38440500  0.98806200  0.28793900  1
  N  N107  1  0.61559500  0.48806200  0.21206100  1
  N  N108  1  0.88440500  0.98806200  0.21206100  1
  N  N109  1  0.11559500  0.48806200  0.28793900  1
  N  N110  1  0.61559500  0.01193800  0.71206100  1
  N  N111  1  0.38440500  0.51193800  0.78793900  1
