# generated using pymatgen
data_Li4UF8
_symmetry_space_group_name_H-M   'P 1'
_cell_length_a   5.89348300
_cell_length_b   9.96480300
_cell_length_c   10.12788500
_cell_angle_alpha   90.00000000
_cell_angle_beta   90.00000000
_cell_angle_gamma   90.00000000
_symmetry_Int_Tables_number   1
_chemical_formula_structural   Li4UF8
_chemical_formula_sum   'Li16 U4 F32'
_cell_volume   594.78432396
_cell_formula_units_Z   4
loop_
 _symmetry_equiv_pos_site_id
 _symmetry_equiv_pos_as_xyz
  1  'x, y, z'
loop_
 _atom_site_type_symbol
 _atom_site_label
 _atom_site_symmetry_multiplicity
 _atom_site_fract_x
 _atom_site_fract_y
 _atom_site_fract_z
 _atom_site_occupancy
  Li  Li0  1  0.12953200  0.10053900  0.57962800  1
  Li  Li1  1  0.62953200  0.39946100  0.42037200  1
  Li  Li2  1  0.87046800  0.89946100  0.07962800  1
  Li  Li3  1  0.37046800  0.60053900  0.92037200  1
  Li  Li4  1  0.12953200  0.10053900  0.92037200  1
  Li  Li5  1  0.62953200  0.39946100  0.07962800  1
  Li  Li6  1  0.62122400  0.12793900  0.55401400  1
  Li  Li7  1  0.12122400  0.37206100  0.44598600  1
  Li  Li8  1  0.37877600  0.87206100  0.05401400  1
  Li  Li9  1  0.87877600  0.62793900  0.94598600  1
  Li  Li10  1  0.37877600  0.87206100  0.44598600  1
  Li  Li11  1  0.87877600  0.62793900  0.55401400  1
  Li  Li12  1  0.62122400  0.12793900  0.94598600  1
  Li  Li13  1  0.12122400  0.37206100  0.05401400  1
  Li  Li14  1  0.87046800  0.89946100  0.42037200  1
  Li  Li15  1  0.37046800  0.60053900  0.57962800  1
  U  U16  1  0.13116300  0.63712300  0.25000000  1
  U  U17  1  0.63116300  0.86287700  0.75000000  1
  U  U18  1  0.86883700  0.36287700  0.75000000  1
  U  U19  1  0.36883700  0.13712300  0.25000000  1
  F  F20  1  0.88959500  0.51817500  0.38411700  1
  F  F21  1  0.88959500  0.51817500  0.11588300  1
  F  F22  1  0.61040500  0.01817500  0.38411700  1
  F  F23  1  0.11040500  0.48182500  0.61588300  1
  F  F24  1  0.37420000  0.23802000  0.03148400  1
  F  F25  1  0.87420000  0.26198000  0.96851600  1
  F  F26  1  0.62580000  0.76198000  0.53148400  1
  F  F27  1  0.38959500  0.98182500  0.88411700  1
  F  F28  1  0.62580000  0.76198000  0.96851600  1
  F  F29  1  0.12580000  0.73802000  0.03148400  1
  F  F30  1  0.37420000  0.23802000  0.46851600  1
  F  F31  1  0.87420000  0.26198000  0.53148400  1
  F  F32  1  0.12186700  0.30226500  0.25000000  1
  F  F33  1  0.62186700  0.19773500  0.75000000  1
  F  F34  1  0.87813300  0.69773500  0.75000000  1
  F  F35  1  0.37813300  0.80226500  0.25000000  1
  F  F36  1  0.62456100  0.29797800  0.25000000  1
  F  F37  1  0.12456100  0.20202200  0.75000000  1
  F  F38  1  0.37543900  0.70202200  0.75000000  1
  F  F39  1  0.87543900  0.79797800  0.25000000  1
  F  F40  1  0.11040500  0.48182500  0.88411700  1
  F  F41  1  0.61040500  0.01817500  0.11588300  1
  F  F42  1  0.63780700  0.48393000  0.61065100  1
  F  F43  1  0.13780700  0.01607000  0.38934900  1
  F  F44  1  0.36219300  0.51607000  0.11065100  1
  F  F45  1  0.86219300  0.98393000  0.88934900  1
  F  F46  1  0.36219300  0.51607000  0.38934900  1
  F  F47  1  0.86219300  0.98393000  0.61065100  1
  F  F48  1  0.63780700  0.48393000  0.88934900  1
  F  F49  1  0.13780700  0.01607000  0.11065100  1
  F  F50  1  0.12580000  0.73802000  0.46851600  1
  F  F51  1  0.38959500  0.98182500  0.61588300  1
