# generated using pymatgen
data_Li2O
_symmetry_space_group_name_H-M   'P 1'
_cell_length_a   9.57315286
_cell_length_b   10.14605383
_cell_length_c   10.10366734
_cell_angle_alpha   86.13106151
_cell_angle_beta   89.99998415
_cell_angle_gamma   90.33052090
_symmetry_Int_Tables_number   1
_chemical_formula_structural   Li2O
_chemical_formula_sum   'Li68 O34'
_cell_volume   979.11352719
_cell_formula_units_Z   34
loop_
 _symmetry_equiv_pos_site_id
 _symmetry_equiv_pos_as_xyz
  1  'x, y, z'
loop_
 _atom_site_type_symbol
 _atom_site_label
 _atom_site_symmetry_multiplicity
 _atom_site_fract_x
 _atom_site_fract_y
 _atom_site_fract_z
 _atom_site_occupancy
  Li  Li0  1  0.73560908  0.29166008  0.43267115  1
  Li  Li1  1  0.20629024  0.34873444  0.63873289  1
  Li  Li2  1  0.94032393  0.84400431  0.96894748  1
  Li  Li3  1  0.15756814  0.96613111  0.14521224  1
  Li  Li4  1  0.73986111  0.82144348  0.19359324  1
  Li  Li5  1  0.85200229  0.49104745  0.54629977  1
  Li  Li6  1  0.19748958  0.77097772  0.85251615  1
  Li  Li7  1  0.88449082  0.33612881  0.24700920  1
  Li  Li8  1  0.19586111  0.39531912  0.20868636  1
  Li  Li9  1  0.10491843  0.61031564  0.53174961  1
  Li  Li10  1  0.49804186  0.55274811  0.95210907  1
  Li  Li11  1  0.28896269  0.57858347  0.06008354  1
  Li  Li12  1  0.61624961  0.70587514  0.52385217  1
  Li  Li13  1  0.94950075  0.31040812  0.47409336  1
  Li  Li14  1  0.42386403  0.45646851  0.76033902  1
  Li  Li15  1  0.41879963  0.23724819  0.64591817  1
  Li  Li16  1  0.82236106  0.54171990  0.17188932  1
  Li  Li17  1  0.26622267  0.28053413  0.96522068  1
  Li  Li18  1  0.16025723  0.97731679  0.92442625  1
  Li  Li19  1  0.25953570  0.39177286  0.42295591  1
  Li  Li20  1  0.64952824  0.30222776  0.12963388  1
  Li  Li21  1  0.23883834  0.82554851  0.62125879  1
  Li  Li22  1  0.42589440  0.56939302  0.42158661  1
  Li  Li23  1  0.82321418  0.66230458  0.39400621  1
  Li  Li24  1  0.04931695  0.15984933  0.87881377  1
  Li  Li25  1  0.51926175  0.89463195  0.10857961  1
  Li  Li26  1  0.44639353  0.81259402  0.35060482  1
  Li  Li27  1  0.86607861  0.12929650  0.68354573  1
  Li  Li28  1  0.68689096  0.64255292  0.74819160  1
  Li  Li29  1  0.73774341  0.94756469  0.79701355  1
  Li  Li30  1  0.45903947  0.81310572  0.85733373  1
  Li  Li31  1  0.44906487  0.23464325  0.39711780  1
  Li  Li32  1  0.71828948  0.29431426  0.81188303  1
  Li  Li33  1  0.26602523  0.05943012  0.62655039  1
  Li  Li34  1  0.18057021  0.84821497  0.39523796  1
  Li  Li35  1  0.64697348  0.51141752  0.30316009  1
  Li  Li36  1  0.95446740  0.62912652  0.73491819  1
  Li  Li37  1  0.15228937  0.52006415  0.83081230  1
  Li  Li38  1  0.06968007  0.99685021  0.70682615  1
  Li  Li39  1  0.61667488  0.40933190  0.64264798  1
  Li  Li40  1  0.53676033  0.09949205  0.19652798  1
  Li  Li41  1  0.96022959  0.35152378  0.00415571  1
  Li  Li42  1  0.33005009  0.04572179  0.38582615  1
  Li  Li43  1  0.66502138  0.67730668  0.02836642  1
  Li  Li44  1  0.11757198  0.14598141  0.42539831  1
  Li  Li45  1  0.01287817  0.73785254  0.17724102  1
  Li  Li46  1  0.62142151  0.06010643  0.44767869  1
  Li  Li47  1  0.30875486  0.13978134  0.15715224  1
  Li  Li48  1  0.07713245  0.20132041  0.20462788  1
  Li  Li49  1  0.74999905  0.45215017  0.94787722  1
  Li  Li50  1  0.49765198  0.62704952  0.18778815  1
  Li  Li51  1  0.00816032  0.51288618  0.33923358  1
  Li  Li52  1  0.31003204  0.81250257  0.09863129  1
  Li  Li53  1  0.36454849  0.09988081  0.83560867  1
  Li  Li54  1  0.96321160  0.37288662  0.71533164  1
  Li  Li55  1  0.31418099  0.60875934  0.62133145  1
  Li  Li56  1  0.22453622  0.64945966  0.32647197  1
  Li  Li57  1  0.98371993  0.58352471  0.01125681  1
  Li  Li58  1  0.98591953  0.79581866  0.52986619  1
  Li  Li59  1  0.77845704  0.11389310  0.24203368  1
  Li  Li60  1  0.83788217  0.07745775  0.00487114  1
  Li  Li61  1  0.60597765  0.13784318  0.97638739  1
  Li  Li62  1  0.50289395  0.33014866  0.91742616  1
  Li  Li63  1  0.75293590  0.84393815  0.62005261  1
  Li  Li64  1  0.91853922  0.03278616  0.46289640  1
  Li  Li65  1  0.63243726  0.14222441  0.64098271  1
  Li  Li66  1  0.44556361  0.38410566  0.16565018  1
  Li  Li67  1  0.47940244  0.94145302  0.66468274  1
  O  O68  1  0.13140875  0.81076207  0.03360157  1
  O  O69  1  0.08160148  0.43094250  0.51986934  1
  O  O70  1  0.14072865  0.13227200  0.04505263  1
  O  O71  1  0.45519984  0.22401988  0.06728594  1
  O  O72  1  0.79773605  0.30601058  0.62651726  1
  O  O73  1  0.62345555  0.20892607  0.31524635  1
  O  O74  1  0.33402396  0.52029698  0.25355542  1
  O  O75  1  0.78560597  0.25796594  0.99699301  1
  O  O76  1  0.03630097  0.71095683  0.36309007  1
  O  O77  1  0.01714270  0.44685321  0.15495314  1
  O  O78  1  0.81699202  0.46272880  0.36656004  1
  O  O79  1  0.62432287  0.49336839  0.11372842  1
  O  O80  1  0.61011266  0.69896521  0.33683653  1
  O  O81  1  0.11162746  0.96835216  0.52178764  1
  O  O82  1  0.76582068  0.01935344  0.57644849  1
  O  O83  1  0.95713752  0.48274803  0.85956423  1
  O  O84  1  0.54232700  0.18895933  0.79339824  1
  O  O85  1  0.46365769  0.73136280  0.02967840  1
  O  O86  1  0.81998357  0.67467694  0.59015328  1
  O  O87  1  0.68521814  0.99327673  0.11955306  1
  O  O88  1  0.92889630  0.00555429  0.84500549  1
  O  O89  1  0.30032873  0.92479781  0.78107057  1
  O  O90  1  0.60764041  0.81277312  0.73771829  1
  O  O91  1  0.25764382  0.22951479  0.31845016  1
  O  O92  1  0.34659507  0.94134263  0.23065049  1
  O  O93  1  0.60978220  0.48021854  0.81242959  1
  O  O94  1  0.44644657  0.08778334  0.53530579  1
  O  O95  1  0.94007143  0.17702904  0.34024647  1
  O  O96  1  0.40356923  0.42561545  0.57556957  1
  O  O97  1  0.84703366  0.71122484  0.08042888  1
  O  O98  1  0.31902304  0.46434734  0.91813693  1
  O  O99  1  0.32437768  0.72430025  0.47262150  1
  O  O100  1  0.18517274  0.19078312  0.73889910  1
  O  O101  1  0.14464406  0.67363657  0.70441599  1
