# generated using pymatgen
data_Li4Co3O7
_symmetry_space_group_name_H-M   'P 1'
_cell_length_a   14.52875085
_cell_length_b   14.52875085
_cell_length_c   5.91719072
_cell_angle_alpha   83.62483654
_cell_angle_beta   83.62483654
_cell_angle_gamma   11.64478697
_symmetry_Int_Tables_number   1
_chemical_formula_structural   Li4Co3O7
_chemical_formula_sum   'Li8 Co6 O14'
_cell_volume   250.53298191
_cell_formula_units_Z   2
loop_
 _symmetry_equiv_pos_site_id
 _symmetry_equiv_pos_as_xyz
  1  'x, y, z'
loop_
 _atom_site_type_symbol
 _atom_site_label
 _atom_site_symmetry_multiplicity
 _atom_site_fract_x
 _atom_site_fract_y
 _atom_site_fract_z
 _atom_site_occupancy
  Li  Li0  1  0.50000000  0.50000000  0.50000000  1
  Li  Li1  1  0.35857800  0.35857800  0.07195300  1
  Li  Li2  1  0.21490500  0.21490500  0.64198600  1
  Li  Li3  1  0.92995800  0.92995800  0.78926900  1
  Li  Li4  1  0.78509500  0.78509500  0.35801400  1
  Li  Li5  1  0.64142200  0.64142200  0.92804700  1
  Li  Li6  1  0.07004200  0.07004200  0.21073100  1
  Li  Li7  1  0.50000000  0.50000000  0.00000000  1
  Co  Co8  1  0.06750800  0.06750800  0.72487800  1
  Co  Co9  1  0.93249200  0.93249200  0.27512200  1
  Co  Co10  1  0.78599400  0.78599400  0.85421900  1
  Co  Co11  1  0.64035700  0.64035700  0.42710200  1
  Co  Co12  1  0.35964300  0.35964300  0.57289800  1
  Co  Co13  1  0.21400600  0.21400600  0.14578100  1
  O  O14  1  0.57163900  0.57163900  0.47630000  1
  O  O15  1  0.42875900  0.42875900  0.05310300  1
  O  O16  1  0.28759900  0.28759900  0.61918400  1
  O  O17  1  0.00749900  0.00749900  0.74625600  1
  O  O18  1  0.86416300  0.86416300  0.33433700  1
  O  O19  1  0.71524000  0.71524000  0.90924100  1
  O  O20  1  0.14405400  0.14405400  0.19912700  1
  O  O21  1  0.42836100  0.42836100  0.52370000  1
  O  O22  1  0.28476000  0.28476000  0.09075900  1
  O  O23  1  0.13583700  0.13583700  0.66566300  1
  O  O24  1  0.85594600  0.85594600  0.80087300  1
  O  O25  1  0.71240100  0.71240100  0.38081600  1
  O  O26  1  0.57124100  0.57124100  0.94689700  1
  O  O27  1  0.99250100  0.99250100  0.25374400  1
