# generated using pymatgen
data_Li9Mn2Co5O16
_symmetry_space_group_name_H-M   'P 1'
_cell_length_a   9.80518013
_cell_length_b   9.80518013
_cell_length_c   10.12783133
_cell_angle_alpha   84.90000816
_cell_angle_beta   84.90000816
_cell_angle_gamma   17.08995468
_symmetry_Int_Tables_number   1
_chemical_formula_structural   Li9Mn2Co5O16
_chemical_formula_sum   'Li9 Mn2 Co5 O16'
_cell_volume   284.98704896
_cell_formula_units_Z   1
loop_
 _symmetry_equiv_pos_site_id
 _symmetry_equiv_pos_as_xyz
  1  'x, y, z'
loop_
 _atom_site_type_symbol
 _atom_site_label
 _atom_site_symmetry_multiplicity
 _atom_site_fract_x
 _atom_site_fract_y
 _atom_site_fract_z
 _atom_site_occupancy
  Li  Li0  1  0.37763400  0.37763400  0.68213200  1
  Li  Li1  1  0.12148900  0.12148900  0.55497400  1
  Li  Li2  1  0.87851100  0.87851100  0.44502600  1
  Li  Li3  1  0.62236600  0.62236600  0.31786800  1
  Li  Li4  1  0.37516800  0.37516800  0.18774300  1
  Li  Li5  1  0.12559500  0.12559500  0.06030400  1
  Li  Li6  1  0.87440500  0.87440500  0.93969600  1
  Li  Li7  1  0.62483200  0.62483200  0.81225700  1
  Li  Li8  1  0.50000000  0.50000000  0.50000000  1
  Mn  Mn9  1  0.99895500  0.99895500  0.74609800  1
  Mn  Mn10  1  0.00104500  0.00104500  0.25390200  1
  Co  Co11  1  0.74975200  0.74975200  0.62518600  1
  Co  Co12  1  0.25024800  0.25024800  0.37481400  1
  Co  Co13  1  0.75011700  0.75011700  0.12503000  1
  Co  Co14  1  0.50000000  0.50000000  0.00000000  1
  Co  Co15  1  0.24988300  0.24988300  0.87497000  1
  O  O16  1  0.44691600  0.44691600  0.84582600  1
  O  O17  1  0.19185000  0.19185000  0.71416100  1
  O  O18  1  0.94166000  0.94166000  0.61187000  1
  O  O19  1  0.69192800  0.69192800  0.46479800  1
  O  O20  1  0.44433900  0.44433900  0.32975800  1
  O  O21  1  0.19317000  0.19317000  0.21271800  1
  O  O22  1  0.94712200  0.94712200  0.08933600  1
  O  O23  1  0.69117800  0.69117800  0.96523800  1
  O  O24  1  0.30807200  0.30807200  0.53520200  1
  O  O25  1  0.05834000  0.05834000  0.38813000  1
  O  O26  1  0.80815000  0.80815000  0.28583900  1
  O  O27  1  0.55308400  0.55308400  0.15417400  1
  O  O28  1  0.30882200  0.30882200  0.03476200  1
  O  O29  1  0.05287800  0.05287800  0.91066400  1
  O  O30  1  0.80683000  0.80683000  0.78728200  1
  O  O31  1  0.55566100  0.55566100  0.67024200  1
