# generated using pymatgen
data_Li8CoO5F
_symmetry_space_group_name_H-M   'P 1'
_cell_length_a   5.55934700
_cell_length_b   5.57443161
_cell_length_c   10.93905473
_cell_angle_alpha   90.36202003
_cell_angle_beta   89.83441951
_cell_angle_gamma   119.55400127
_symmetry_Int_Tables_number   1
_chemical_formula_structural   Li8CoO5F
_chemical_formula_sum   'Li16 Co2 O10 F2'
_cell_volume   294.89025606
_cell_formula_units_Z   2
loop_
 _symmetry_equiv_pos_site_id
 _symmetry_equiv_pos_as_xyz
  1  'x, y, z'
loop_
 _atom_site_type_symbol
 _atom_site_label
 _atom_site_symmetry_multiplicity
 _atom_site_fract_x
 _atom_site_fract_y
 _atom_site_fract_z
 _atom_site_occupancy
  Li  Li0  1  0.68586200  0.97554200  0.22774200  1
  Li  Li1  1  0.63787100  0.02115600  0.87892400  1
  Li  Li2  1  0.35747600  0.97802400  0.38081200  1
  Li  Li3  1  0.31154400  0.02255000  0.72677300  1
  Li  Li4  1  0.66445100  0.32849600  0.58690800  1
  Li  Li5  1  0.66954200  0.33218800  0.07623500  1
  Li  Li6  1  0.28915000  0.31008800  0.22751600  1
  Li  Li7  1  0.38596400  0.36659100  0.87763000  1
  Li  Li8  1  0.61563700  0.63476400  0.37790800  1
  Li  Li9  1  0.97951600  0.29129000  0.72804800  1
  Li  Li10  1  0.71375100  0.68889600  0.72740000  1
  Li  Li11  1  0.01958700  0.38500200  0.37806700  1
  Li  Li12  1  0.32993300  0.66533400  0.08691900  1
  Li  Li13  1  0.33675900  0.66970900  0.57612200  1
  Li  Li14  1  0.97973300  0.62002700  0.88053000  1
  Li  Li15  1  0.02260800  0.71290500  0.22685500  1
  Co  Co16  1  0.00220200  0.00658800  0.01218700  1
  Co  Co17  1  0.99198700  0.99978800  0.51239200  1
  O  O18  1  0.67475100  0.99351900  0.05196900  1
  O  O19  1  0.32098100  0.99753800  0.55305300  1
  O  O20  1  0.66839800  0.33458300  0.78659100  1
  O  O21  1  0.99843200  0.00150800  0.32848900  1
  O  O22  1  0.00220900  0.00277300  0.82847400  1
  O  O23  1  0.32337100  0.31836700  0.05099400  1
  O  O24  1  0.00859500  0.32586700  0.55187000  1
  O  O25  1  0.68288100  0.67631900  0.55114900  1
  O  O26  1  0.33220000  0.66542800  0.28654100  1
  O  O27  1  0.99363100  0.67569300  0.05308700  1
  F  F28  1  0.66520200  0.33303500  0.28870800  1
  F  F29  1  0.33577900  0.66623500  0.78885200  1
