# generated using pymatgen
data_Li9Mn7O16
_symmetry_space_group_name_H-M   'P 1'
_cell_length_a   3.02123000
_cell_length_b   6.50296103
_cell_length_c   15.72148632
_cell_angle_alpha   87.68139610
_cell_angle_beta   85.12212558
_cell_angle_gamma   76.74245269
_symmetry_Int_Tables_number   1
_chemical_formula_structural   Li9Mn7O16
_chemical_formula_sum   'Li9 Mn7 O16'
_cell_volume   299.48837179
_cell_formula_units_Z   1
loop_
 _symmetry_equiv_pos_site_id
 _symmetry_equiv_pos_as_xyz
  1  'x, y, z'
loop_
 _atom_site_type_symbol
 _atom_site_label
 _atom_site_symmetry_multiplicity
 _atom_site_fract_x
 _atom_site_fract_y
 _atom_site_fract_z
 _atom_site_occupancy
  Li  Li0  1  0.55050200  0.87906400  0.68485600  1
  Li  Li1  1  0.81246600  0.37487800  0.43694000  1
  Li  Li2  1  0.03972200  0.88069100  0.17903500  1
  Li  Li3  1  0.18753400  0.62512200  0.56306000  1
  Li  Li4  1  0.44949800  0.12093600  0.31514400  1
  Li  Li5  1  0.70082300  0.64137600  0.06581700  1
  Li  Li6  1  0.29917700  0.35862400  0.93418300  1
  Li  Li7  1  0.96027800  0.11930900  0.82096500  1
  Li  Li8  1  0.00000000  0.00000000  0.00000000  1
  Mn  Mn9  1  0.62909400  0.75745000  0.88036000  1
  Mn  Mn10  1  0.37090600  0.24255000  0.11964000  1
  Mn  Mn11  1  0.87869300  0.25205100  0.62576500  1
  Mn  Mn12  1  0.12130700  0.74794900  0.37423500  1
  Mn  Mn13  1  0.50000000  0.00000000  0.50000000  1
  Mn  Mn14  1  0.73125300  0.50359300  0.24624100  1
  Mn  Mn15  1  0.26874700  0.49640700  0.75375900  1
  O  O16  1  0.14056000  0.79181100  0.79324500  1
  O  O17  1  0.31963900  0.29809400  0.53183000  1
  O  O18  1  0.56671100  0.79894000  0.28375300  1
  O  O19  1  0.70114300  0.55091200  0.65969700  1
  O  O20  1  0.94370300  0.04837300  0.40642400  1
  O  O21  1  0.18627400  0.54797900  0.15682100  1
  O  O22  1  0.86935100  0.30643200  0.04406700  1
  O  O23  1  0.47558000  0.04024000  0.90208900  1
  O  O24  1  0.05629700  0.95162700  0.59357600  1
  O  O25  1  0.29885700  0.44908800  0.34030300  1
  O  O26  1  0.52442000  0.95976000  0.09791100  1
  O  O27  1  0.68036100  0.70190600  0.46817000  1
  O  O28  1  0.85944000  0.20818900  0.20675500  1
  O  O29  1  0.13064900  0.69356800  0.95593300  1
  O  O30  1  0.81372600  0.45202100  0.84317900  1
  O  O31  1  0.43328900  0.20106000  0.71624700  1
