# generated using pymatgen
data_Li4MnCo2O7
_symmetry_space_group_name_H-M   'P 1'
_cell_length_a   3.02920300
_cell_length_b   7.79574031
_cell_length_c   11.14985522
_cell_angle_alpha   79.56287174
_cell_angle_beta   83.40665545
_cell_angle_gamma   83.34820798
_symmetry_Int_Tables_number   1
_chemical_formula_structural   Li4MnCo2O7
_chemical_formula_sum   'Li8 Mn2 Co4 O14'
_cell_volume   256.01336623
_cell_formula_units_Z   2
loop_
 _symmetry_equiv_pos_site_id
 _symmetry_equiv_pos_as_xyz
  1  'x, y, z'
loop_
 _atom_site_type_symbol
 _atom_site_label
 _atom_site_symmetry_multiplicity
 _atom_site_fract_x
 _atom_site_fract_y
 _atom_site_fract_z
 _atom_site_occupancy
  Li  Li0  1  0.77939600  0.36057700  0.07805300  1
  Li  Li1  1  0.93027900  0.78659800  0.35412300  1
  Li  Li2  1  0.07108800  0.21337000  0.64023500  1
  Li  Li3  1  0.21592600  0.64248000  0.92881100  1
  Li  Li4  1  0.35343300  0.07119500  0.21896600  1
  Li  Li5  1  0.50395300  0.49598900  0.49670100  1
  Li  Li6  1  0.64707800  0.92863300  0.78322100  1
  Li  Li7  1  0.14360500  0.42721500  0.28629000  1
  Mn  Mn8  1  0.00301500  0.99593100  0.00276000  1
  Mn  Mn9  1  0.42450200  0.28997900  0.85627400  1
  Co  Co10  1  0.28648000  0.85740700  0.56891800  1
  Co  Co11  1  0.58159800  0.69954100  0.14909500  1
  Co  Co12  1  0.71375600  0.15487300  0.42470000  1
  Co  Co13  1  0.84969100  0.57473200  0.71139900  1
  O  O14  1  0.36692900  0.17812000  0.03040100  1
  O  O15  1  0.53126800  0.61978400  0.30614500  1
  O  O16  1  0.69699700  0.03573700  0.59184100  1
  O  O17  1  0.80029200  0.46643000  0.88093000  1
  O  O18  1  0.94901800  0.88361000  0.17178300  1
  O  O19  1  0.09995100  0.30708900  0.46116000  1
  O  O20  1  0.21330300  0.74935200  0.73909500  1
  O  O21  1  0.19643300  0.54822100  0.11101200  1
  O  O22  1  0.34591100  0.96942400  0.40212300  1
  O  O23  1  0.48389700  0.40187300  0.68556200  1
  O  O24  1  0.62638400  0.81793400  0.97956700  1
  O  O25  1  0.75430800  0.23469200  0.26771200  1
  O  O26  1  0.86515200  0.68302100  0.54404000  1
  O  O27  1  0.06635500  0.10619400  0.82908400  1
