# generated using pymatgen
data_Li9Mn2Co5O16
_symmetry_space_group_name_H-M   'P 1'
_cell_length_a   6.57124931
_cell_length_b   6.57124931
_cell_length_c   10.13592925
_cell_angle_alpha   59.61274123
_cell_angle_beta   59.61274123
_cell_angle_gamma   52.76850934
_symmetry_Int_Tables_number   1
_chemical_formula_structural   Li9Mn2Co5O16
_chemical_formula_sum   'Li9 Mn2 Co5 O16'
_cell_volume   287.61027487
_cell_formula_units_Z   1
loop_
 _symmetry_equiv_pos_site_id
 _symmetry_equiv_pos_as_xyz
  1  'x, y, z'
loop_
 _atom_site_type_symbol
 _atom_site_label
 _atom_site_symmetry_multiplicity
 _atom_site_fract_x
 _atom_site_fract_y
 _atom_site_fract_z
 _atom_site_occupancy
  Li  Li0  1  0.49794200  0.99546600  0.25758400  1
  Li  Li1  1  0.00453400  0.50205800  0.74241600  1
  Li  Li2  1  0.25508600  0.25508600  0.49458000  1
  Li  Li3  1  0.74958000  0.74958000  0.00030600  1
  Li  Li4  1  0.25042000  0.25042000  0.99969400  1
  Li  Li5  1  0.74491400  0.74491400  0.50542000  1
  Li  Li6  1  0.99546600  0.49794200  0.25758400  1
  Li  Li7  1  0.50205800  0.00453400  0.74241600  1
  Li  Li8  1  0.50000000  0.50000000  0.50000000  1
  Mn  Mn9  1  0.00000000  0.00000000  0.00000000  1
  Mn  Mn10  1  0.00000000  0.00000000  0.50000000  1
  Co  Co11  1  0.74128100  0.25578400  0.25879200  1
  Co  Co12  1  0.25871900  0.74421600  0.74120800  1
  Co  Co13  1  0.74421600  0.25871900  0.74120800  1
  Co  Co14  1  0.25578400  0.74128100  0.25879200  1
  Co  Co15  1  0.50000000  0.50000000  0.00000000  1
  O  O16  1  0.64696500  0.12870500  0.99693800  1
  O  O17  1  0.11964700  0.65202500  0.49133600  1
  O  O18  1  0.38394800  0.38394800  0.24342600  1
  O  O19  1  0.88566500  0.88566500  0.73106200  1
  O  O20  1  0.38279300  0.38279300  0.75809800  1
  O  O21  1  0.89450100  0.89450100  0.23283300  1
  O  O22  1  0.12870500  0.64696500  0.99693800  1
  O  O23  1  0.65202500  0.11964700  0.49133600  1
  O  O24  1  0.34797500  0.88035300  0.50866400  1
  O  O25  1  0.87129500  0.35303500  0.00306200  1
  O  O26  1  0.10549900  0.10549900  0.76716700  1
  O  O27  1  0.61720700  0.61720700  0.24190200  1
  O  O28  1  0.11433500  0.11433500  0.26893800  1
  O  O29  1  0.61605200  0.61605200  0.75657400  1
  O  O30  1  0.88035300  0.34797500  0.50866400  1
  O  O31  1  0.35303500  0.87129500  0.00306200  1
