# generated using pymatgen
data_Sr2LiO12
_symmetry_space_group_name_H-M   'P 1'
_cell_length_a   5.82260484
_cell_length_b   5.10532585
_cell_length_c   8.17544747
_cell_angle_alpha   104.46929504
_cell_angle_beta   72.24027925
_cell_angle_gamma   108.51285411
_symmetry_Int_Tables_number   1
_chemical_formula_structural   Sr2LiO12
_chemical_formula_sum   'Sr2 Li1 O12'
_cell_volume   216.29428656
_cell_formula_units_Z   1
loop_
 _symmetry_equiv_pos_site_id
 _symmetry_equiv_pos_as_xyz
  1  'x, y, z'
loop_
 _atom_site_type_symbol
 _atom_site_label
 _atom_site_symmetry_multiplicity
 _atom_site_fract_x
 _atom_site_fract_y
 _atom_site_fract_z
 _atom_site_occupancy
  Sr  Sr0  1  0.80867500  0.89037500  0.77626700  1
  Sr  Sr1  1  0.16550400  0.10980800  0.25042700  1
  Li  Li2  1  0.49800600  0.04478800  0.50884600  1
  O  O3  1  0.34706600  0.97381800  0.89370100  1
  O  O4  1  0.84447100  0.20337100  0.55263800  1
  O  O5  1  0.81504600  0.02490700  0.10209700  1
  O  O6  1  0.14281600  0.81393200  0.47895300  1
  O  O7  1  0.28839000  0.09223700  0.79160400  1
  O  O8  1  0.88853700  0.39344300  0.69537500  1
  O  O9  1  0.59955400  0.98615100  0.22595900  1
  O  O10  1  0.10862500  0.62079300  0.33650000  1
  O  O11  1  0.50728200  0.65832200  0.55522100  1
  O  O12  1  0.43175400  0.48559600  0.92033700  1
  O  O13  1  0.46189600  0.41472100  0.45669600  1
  O  O14  1  0.50487800  0.38773800  0.01966600  1
