# generated using pymatgen
data_Li9Mn2Co5O16
_symmetry_space_group_name_H-M   'P 1'
_cell_length_a   5.02819900
_cell_length_b   5.92262301
_cell_length_c   10.15453205
_cell_angle_alpha   104.88178895
_cell_angle_beta   99.65063334
_cell_angle_gamma   92.25218717
_symmetry_Int_Tables_number   1
_chemical_formula_structural   Li9Mn2Co5O16
_chemical_formula_sum   'Li9 Mn2 Co5 O16'
_cell_volume   287.04571934
_cell_formula_units_Z   1
loop_
 _symmetry_equiv_pos_site_id
 _symmetry_equiv_pos_as_xyz
  1  'x, y, z'
loop_
 _atom_site_type_symbol
 _atom_site_label
 _atom_site_symmetry_multiplicity
 _atom_site_fract_x
 _atom_site_fract_y
 _atom_site_fract_z
 _atom_site_occupancy
  Li  Li0  1  0.25844100  0.86592200  0.72978500  1
  Li  Li1  1  0.25576700  0.39376200  0.26395500  1
  Li  Li2  1  0.75154700  0.61908600  0.73393900  1
  Li  Li3  1  0.75581700  0.13764100  0.26440000  1
  Li  Li4  1  0.24630400  0.35556200  0.73408900  1
  Li  Li5  1  0.25835700  0.87665500  0.26595400  1
  Li  Li6  1  0.74200400  0.11457100  0.73692000  1
  Li  Li7  1  0.73818100  0.63795000  0.27008600  1
  Li  Li8  1  0.50149100  0.74834300  0.50117500  1
  Mn  Mn9  1  0.00070600  0.00243300  0.99965300  1
  Mn  Mn10  1  0.50166600  0.74919700  0.00170300  1
  Co  Co11  1  0.00590300  0.50512300  0.50151000  1
  Co  Co12  1  0.49476000  0.25208600  0.50100300  1
  Co  Co13  1  0.00167100  0.49804500  0.00024600  1
  Co  Co14  1  0.98623500  0.99110200  0.49662300  1
  Co  Co15  1  0.49823600  0.24643500  0.99819200  1
  O  O16  1  0.13943000  0.18173300  0.88639500  1
  O  O17  1  0.10508700  0.68029000  0.38578100  1
  O  O18  1  0.64263500  0.92427700  0.88474300  1
  O  O19  1  0.64492400  0.43179500  0.38981300  1
  O  O20  1  0.12475200  0.70861300  0.89782500  1
  O  O21  1  0.12218800  0.21569700  0.38724600  1
  O  O22  1  0.64438600  0.42175200  0.88839400  1
  O  O23  1  0.63711000  0.94714700  0.38119600  1
  O  O24  1  0.34704600  0.54923700  0.61374400  1
  O  O25  1  0.35568100  0.08210200  0.11378300  1
  O  O26  1  0.87953900  0.31732200  0.61441300  1
  O  O27  1  0.86804100  0.82412200  0.11473200  1
  O  O28  1  0.36894200  0.07082100  0.61267900  1
  O  O29  1  0.35916900  0.56855900  0.11453300  1
  O  O30  1  0.89454000  0.79093000  0.61326600  1
  O  O31  1  0.86944200  0.29168800  0.10222200  1
