# generated using pymatgen
data_Li7Mn4(P2O7)4
_symmetry_space_group_name_H-M   'P 1'
_cell_length_a   9.91918700
_cell_length_b   9.93181683
_cell_length_c   11.38174979
_cell_angle_alpha   102.61875249
_cell_angle_beta   90.26042002
_cell_angle_gamma   90.35979788
_symmetry_Int_Tables_number   1
_chemical_formula_structural   Li7Mn4(P2O7)4
_chemical_formula_sum   'Li14 Mn8 P16 O56'
_cell_volume   1094.15348124
_cell_formula_units_Z   2
loop_
 _symmetry_equiv_pos_site_id
 _symmetry_equiv_pos_as_xyz
  1  'x, y, z'
loop_
 _atom_site_type_symbol
 _atom_site_label
 _atom_site_symmetry_multiplicity
 _atom_site_fract_x
 _atom_site_fract_y
 _atom_site_fract_z
 _atom_site_occupancy
  Li  Li0  1  0.28881500  0.11485700  0.45019200  1
  Li  Li1  1  0.89509300  0.08668000  0.02650200  1
  Li  Li2  1  0.59483500  0.15749300  0.04399600  1
  Li  Li3  1  0.38744900  0.41286400  0.97177400  1
  Li  Li4  1  0.07747000  0.32957900  0.45613400  1
  Li  Li5  1  0.77567800  0.38033900  0.55362200  1
  Li  Li6  1  0.22151800  0.61131400  0.44830900  1
  Li  Li7  1  0.92189500  0.67072500  0.54594900  1
  Li  Li8  1  0.60635700  0.58404500  0.02895400  1
  Li  Li9  1  0.40693700  0.84743400  0.95465200  1
  Li  Li10  1  0.91092500  0.64994700  0.04151800  1
  Li  Li11  1  0.10801500  0.91496300  0.97050500  1
  Li  Li12  1  0.42707100  0.83879800  0.46107000  1
  Li  Li13  1  0.72045700  0.89737000  0.55301400  1
  Mn  Mn14  1  0.08356500  0.20631800  0.68170200  1
  Mn  Mn15  1  0.78737900  0.25771600  0.82324300  1
  Mn  Mn16  1  0.28273300  0.24271000  0.17264900  1
  Mn  Mn17  1  0.57375900  0.29552100  0.33408300  1
  Mn  Mn18  1  0.42082400  0.70367100  0.67750500  1
  Mn  Mn19  1  0.71512600  0.75567700  0.82379400  1
  Mn  Mn20  1  0.21518400  0.74158600  0.17439000  1
  Mn  Mn21  1  0.92155800  0.79889900  0.32562500  1
  P  P22  1  0.54827800  0.02534400  0.75826300  1
  P  P23  1  0.29590300  0.11819700  0.89004200  1
  P  P24  1  0.06937600  0.05814700  0.24357300  1
  P  P25  1  0.84925000  0.12456900  0.42410300  1
  P  P26  1  0.35078200  0.37766400  0.57151900  1
  P  P27  1  0.56822900  0.44149700  0.75835400  1
  P  P28  1  0.95065200  0.52415200  0.75917900  1
  P  P29  1  0.79208600  0.38026200  0.10838500  1
  P  P30  1  0.20481400  0.61758300  0.89128300  1
  P  P31  1  0.04776100  0.47439400  0.24208100  1
  P  P32  1  0.43330400  0.55753200  0.24411400  1
  P  P33  1  0.64946200  0.62261100  0.42643100  1
  P  P34  1  0.14990800  0.87903400  0.57449900  1
  P  P35  1  0.93244500  0.94077900  0.75547200  1
  P  P36  1  0.70393900  0.88135200  0.10848900  1
  P  P37  1  0.45285400  0.97309100  0.23813400  1
  O  O38  1  0.58423200  0.01722600  0.62977300  1
  O  O39  1  0.16018800  0.02639400  0.55623400  1
  O  O40  1  0.91302800  0.08647000  0.73111800  1
  O  O41  1  0.64404400  0.11668000  0.85311000  1
  O  O42  1  0.40288700  0.09600900  0.77882100  1
  O  O43  1  0.17390600  0.17573400  0.83938700  1
  O  O44  1  0.36587800  0.22216900  0.99724800  1
  O  O45  1  0.72412400  0.01914900  0.07556000  1
  O  O46  1  0.92381900  0.11242900  0.29488200  1
  O  O47  1  0.06587800  0.06209800  0.11154300  1
  O  O48  1  0.46407600  0.12481800  0.21608300  1
  O  O49  1  0.71450200  0.19313600  0.41036900  1
  O  O50  1  0.17538700  0.16361700  0.31099500  1
  O  O51  1  0.93612000  0.22305900  0.51758700  1
  O  O52  1  0.42666300  0.28057500  0.47251300  1
  O  O53  1  0.68273300  0.34445300  0.69997700  1
  O  O54  1  0.21034000  0.31509400  0.58410100  1
  O  O55  1  0.95572900  0.37210700  0.77907500  1
  O  O56  1  0.42660900  0.38149500  0.69855300  1
  O  O57  1  0.55786500  0.43932000  0.89015300  1
  O  O58  1  0.23028500  0.48269400  0.92335500  1
  O  O59  1  0.84800900  0.27141000  0.99975900  1
  O  O60  1  0.66857600  0.32084800  0.15980100  1
  O  O61  1  0.90234000  0.39907100  0.21738500  1
  O  O62  1  0.41713400  0.41062300  0.26983000  1
  O  O63  1  0.14803100  0.39023000  0.15483800  1
  O  O64  1  0.91266300  0.52561600  0.63031300  1
  O  O65  1  0.65748700  0.47435800  0.44498200  1
  O  O66  1  0.33986100  0.52746100  0.55793900  1
  O  O67  1  0.07784000  0.47907000  0.37402700  1
  O  O68  1  0.86223900  0.61248200  0.85641600  1
  O  O69  1  0.58585100  0.58649400  0.73085300  1
  O  O70  1  0.09969700  0.58938700  0.77633900  1
  O  O71  1  0.32484700  0.68800600  0.84368700  1
  O  O72  1  0.13374400  0.72246100  0.99548800  1
  O  O73  1  0.77560200  0.51883500  0.07652200  1
  O  O74  1  0.43599900  0.56208300  0.11261500  1
  O  O75  1  0.58029100  0.61379900  0.29589100  1
  O  O76  1  0.03386200  0.62174400  0.21552200  1
  O  O77  1  0.78991200  0.68516800  0.41827400  1
  O  O78  1  0.32774400  0.65943900  0.31217100  1
  O  O79  1  0.56407200  0.72281000  0.51755200  1
  O  O80  1  0.06333400  0.77771900  0.48258500  1
  O  O81  1  0.82809300  0.83586200  0.68560600  1
  O  O82  1  0.28921500  0.81403800  0.58214000  1
  O  O83  1  0.53463200  0.88002800  0.79174600  1
  O  O84  1  0.93512200  0.93513600  0.88715700  1
  O  O85  1  0.07958400  0.88664700  0.70430400  1
  O  O86  1  0.27726800  0.98098600  0.92493800  1
  O  O87  1  0.63348600  0.77646600  0.00396800  1
  O  O88  1  0.82810800  0.81711400  0.15399200  1
  O  O89  1  0.60147400  0.90707300  0.22353200  1
  O  O90  1  0.36401400  0.88547300  0.13928800  1
  O  O91  1  0.08887600  0.91306300  0.26904500  1
  O  O92  1  0.83731800  0.97701400  0.44245100  1
  O  O93  1  0.41036700  0.97145500  0.36483200  1
