# generated using pymatgen
data_Li2VFe(P2O7)2
_symmetry_space_group_name_H-M   'P 1'
_cell_length_a   9.58643296
_cell_length_b   9.58688206
_cell_length_c   7.15268492
_cell_angle_alpha   79.29095947
_cell_angle_beta   79.30527161
_cell_angle_gamma   118.76781987
_symmetry_Int_Tables_number   1
_chemical_formula_structural   Li2VFe(P2O7)2
_chemical_formula_sum   'Li4 V2 Fe2 P8 O28'
_cell_volume   536.55568558
_cell_formula_units_Z   2
loop_
 _symmetry_equiv_pos_site_id
 _symmetry_equiv_pos_as_xyz
  1  'x, y, z'
loop_
 _atom_site_type_symbol
 _atom_site_label
 _atom_site_symmetry_multiplicity
 _atom_site_fract_x
 _atom_site_fract_y
 _atom_site_fract_z
 _atom_site_occupancy
  Li  Li0  1  0.06814275  0.43140045  0.32408346  1
  Li  Li1  1  0.31803420  0.18130351  0.67645321  1
  Li  Li2  1  0.56906023  0.93216291  0.32297327  1
  Li  Li3  1  0.81843803  0.68153615  0.67645844  1
  V  V4  1  0.75683842  0.75623405  0.27145008  1
  V  V5  1  0.49403159  0.99325548  0.72855463  1
  Fe  Fe6  1  0.25780151  0.25706725  0.26794483  1
  Fe  Fe7  1  0.99246675  0.49183537  0.73210929  1
  P  P8  1  0.34816591  0.52868592  0.52203719  1
  P  P9  1  0.84949032  0.02985870  0.52119959  1
  P  P10  1  0.67139773  0.45492961  0.08545880  1
  P  P11  1  0.17125445  0.95522040  0.08566933  1
  P  P12  1  0.29490159  0.57823059  0.91472686  1
  P  P13  1  0.79505869  0.07896383  0.91418299  1
  P  P14  1  0.22017580  0.90132840  0.47838243  1
  P  P15  1  0.72117961  0.40107710  0.47832976  1
  O  O16  1  0.19054737  0.12407158  0.08428676  1
  O  O17  1  0.01524759  0.19342892  0.39411597  1
  O  O18  1  0.20786072  0.05322957  0.49195890  1
  O  O19  1  0.27905793  0.47290755  0.11614048  1
  O  O20  1  0.48880679  0.31306777  0.14645936  1
  O  O21  1  0.33360854  0.37145905  0.48230131  1
  O  O22  1  0.19704004  0.54244986  0.50790647  1
  O  O23  1  0.69846316  0.04224968  0.50577760  1
  O  O24  1  0.55683070  0.23510205  0.60508819  1
  O  O25  1  0.05675095  0.73553439  0.60570322  1
  O  O26  1  0.62592439  0.05994213  0.91730565  1
  O  O27  1  0.12596857  0.55877161  0.91692587  1
  O  O28  1  0.34414167  0.49706576  0.75380611  1
  O  O29  1  0.75283799  0.40571765  0.24629354  1
  O  O30  1  0.25283338  0.90600745  0.24654392  1
  O  O31  1  0.69071674  0.62404684  0.08139979  1
  O  O32  1  0.51405471  0.69297196  0.39504037  1
  O  O33  1  0.70750151  0.55124196  0.49435010  1
  O  O34  1  0.87872878  0.41579613  0.51776370  1
  O  O35  1  0.37828383  0.91674593  0.51769851  1
  O  O36  1  0.93712105  0.26205648  0.85229300  1
  O  O37  1  0.43768811  0.76046222  0.85286530  1
  O  O38  1  0.27470592  0.97102334  0.88471188  1
  O  O39  1  0.77724394  0.47096397  0.88410058  1
  O  O40  1  0.77935361  0.97525228  0.11491416  1
  O  O41  1  0.98863825  0.81209959  0.14852352  1
  O  O42  1  0.83379526  0.87151982  0.48237728  1
  O  O43  1  0.84422888  0.99730472  0.75333528  1
