# generated using pymatgen
data_Li6Co6O5F11
_symmetry_space_group_name_H-M   'P 1'
_cell_length_a   6.04888338
_cell_length_b   6.04427718
_cell_length_c   10.41929062
_cell_angle_alpha   106.37696295
_cell_angle_beta   106.48993383
_cell_angle_gamma   59.64786528
_symmetry_Int_Tables_number   1
_chemical_formula_structural   Li6Co6O5F11
_chemical_formula_sum   'Li6 Co6 O5 F11'
_cell_volume   310.75853406
_cell_formula_units_Z   1
loop_
 _symmetry_equiv_pos_site_id
 _symmetry_equiv_pos_as_xyz
  1  'x, y, z'
loop_
 _atom_site_type_symbol
 _atom_site_label
 _atom_site_symmetry_multiplicity
 _atom_site_fract_x
 _atom_site_fract_y
 _atom_site_fract_z
 _atom_site_occupancy
  Li  Li0  1  0.63018261  0.61842682  0.87281291  1
  Li  Li1  1  0.80520945  0.82571017  0.44163079  1
  Li  Li2  1  0.50617607  0.50465485  0.50583532  1
  Li  Li3  1  0.12768041  0.11439428  0.37682033  1
  Li  Li4  1  0.56612785  0.06233374  0.19348152  1
  Li  Li5  1  0.99650731  0.00834484  0.99450774  1
  Co  Co6  1  0.08272015  0.52768093  0.68745171  1
  Co  Co7  1  0.31681356  0.28498382  0.91541457  1
  Co  Co8  1  0.05344603  0.56919442  0.18871384  1
  Co  Co9  1  0.52894662  0.08193752  0.68973890  1
  Co  Co10  1  0.07070849  0.06895484  0.68713143  1
  Co  Co11  1  0.57418065  0.57455087  0.17971685  1
  O  O12  1  0.43163628  0.95528701  0.81300232  1
  O  O13  1  0.41161952  0.43658183  0.81228576  1
  O  O14  1  0.96754698  0.42222777  0.80982619  1
  O  O15  1  0.68991777  0.67195670  0.08142123  1
  O  O16  1  0.18565046  0.20005202  0.57091545  1
  F  F17  1  0.92652597  0.93018341  0.79580850  1
  F  F18  1  0.70397275  0.70336480  0.57074527  1
  F  F19  1  0.16859044  0.69743496  0.56662991  1
  F  F20  1  0.92604722  0.92162245  0.30801744  1
  F  F21  1  0.45559213  0.91737450  0.30795246  1
  F  F22  1  0.92121894  0.45157875  0.31118415  1
  F  F23  1  0.20458796  0.67153916  0.06911512  1
  F  F24  1  0.43607048  0.45004786  0.29444270  1
  F  F25  1  0.69408325  0.16802499  0.56664797  1
  F  F26  1  0.20164629  0.20653716  0.06888841  1
  F  F27  1  0.66659436  0.20502053  0.06985922  1
