# generated using pymatgen
data_Li7Mn4CoO12
_symmetry_space_group_name_H-M   'P 1'
_cell_length_a   5.93419415
_cell_length_b   11.91231312
_cell_length_c   6.42040453
_cell_angle_alpha   102.98290932
_cell_angle_beta   76.97345286
_cell_angle_gamma   86.85329697
_symmetry_Int_Tables_number   1
_chemical_formula_structural   Li7Mn4CoO12
_chemical_formula_sum   'Li14 Mn8 Co2 O24'
_cell_volume   428.20481386
_cell_formula_units_Z   2
loop_
 _symmetry_equiv_pos_site_id
 _symmetry_equiv_pos_as_xyz
  1  'x, y, z'
loop_
 _atom_site_type_symbol
 _atom_site_label
 _atom_site_symmetry_multiplicity
 _atom_site_fract_x
 _atom_site_fract_y
 _atom_site_fract_z
 _atom_site_occupancy
  Li  Li0  1  0.83335800  0.08332000  0.66669100  1
  Li  Li1  1  0.83327900  0.58333500  0.66658800  1
  Li  Li2  1  0.83394300  0.33277900  0.66670600  1
  Li  Li3  1  0.83269500  0.83382300  0.66666900  1
  Li  Li4  1  0.33407700  0.33340000  0.66691000  1
  Li  Li5  1  0.33255600  0.83325100  0.66643600  1
  Li  Li6  1  0.48667200  0.48863900  0.98746600  1
  Li  Li7  1  0.48510500  0.98868100  0.98758300  1
  Li  Li8  1  0.18167200  0.17794300  0.34585300  1
  Li  Li9  1  0.17975900  0.67795100  0.34584500  1
  Li  Li10  1  0.50157500  0.24931400  0.98544300  1
  Li  Li11  1  0.49989900  0.74956300  0.98524800  1
  Li  Li12  1  0.16675500  0.41708600  0.34800400  1
  Li  Li13  1  0.16515200  0.91733700  0.34791700  1
  Mn  Mn14  1  0.00692200  0.49937400  0.99278000  1
  Mn  Mn15  1  0.00645800  0.99938700  0.99283300  1
  Mn  Mn16  1  0.66032900  0.16729100  0.34054900  1
  Mn  Mn17  1  0.65960100  0.66733200  0.34044400  1
  Mn  Mn18  1  0.01108000  0.25222000  0.99467400  1
  Mn  Mn19  1  0.00991000  0.75208600  0.99434900  1
  Mn  Mn20  1  0.65669300  0.41458200  0.33904900  1
  Mn  Mn21  1  0.65565800  0.91446400  0.33870800  1
  Co  Co22  1  0.33331000  0.58333900  0.66663400  1
  Co  Co23  1  0.33338300  0.08333000  0.66670100  1
  O  O24  1  0.21931500  0.37053700  0.00055400  1
  O  O25  1  0.21813600  0.87043700  0.00025200  1
  O  O26  1  0.44858700  0.29621700  0.33309100  1
  O  O27  1  0.44727300  0.79620200  0.33276900  1
  O  O28  1  0.88329000  0.03211100  0.31943900  1
  O  O29  1  0.88385200  0.53241100  0.31944600  1
  O  O30  1  0.78349700  0.13455900  0.01395600  1
  O  O31  1  0.78267500  0.63433000  0.01372200  1
  O  O32  1  0.57863600  0.46156700  0.65064100  1
  O  O33  1  0.57798500  0.96139900  0.65036100  1
  O  O34  1  0.08877000  0.20525500  0.68303400  1
  O  O35  1  0.08801100  0.70511400  0.68266900  1
  O  O36  1  0.25078200  0.13480600  0.99082500  1
  O  O37  1  0.24984700  0.63502300  0.99075400  1
  O  O38  1  0.41598600  0.03187800  0.34258400  1
  O  O39  1  0.41676200  0.53162900  0.34253700  1
  O  O40  1  0.56632200  0.19460800  0.65088400  1
  O  O41  1  0.56555600  0.69475100  0.65066200  1
  O  O42  1  0.10105300  0.47192800  0.68254300  1
  O  O43  1  0.10044900  0.97207000  0.68249400  1
  O  O44  1  0.91414100  0.29899800  0.32360500  1
  O  O45  1  0.91279400  0.79901400  0.32322300  1
  O  O46  1  0.75387700  0.36762500  0.01009500  1
  O  O47  1  0.75256700  0.86770800  0.00977900  1
