# generated using pymatgen
data_Li7Mn4(P2O7)4
_symmetry_space_group_name_H-M   'P 1'
_cell_length_a   9.91641600
_cell_length_b   9.92817668
_cell_length_c   11.35069327
_cell_angle_alpha   102.78305101
_cell_angle_beta   90.10627093
_cell_angle_gamma   90.67388109
_symmetry_Int_Tables_number   1
_chemical_formula_structural   Li7Mn4(P2O7)4
_chemical_formula_sum   'Li14 Mn8 P16 O56'
_cell_volume   1089.71355360
_cell_formula_units_Z   2
loop_
 _symmetry_equiv_pos_site_id
 _symmetry_equiv_pos_as_xyz
  1  'x, y, z'
loop_
 _atom_site_type_symbol
 _atom_site_label
 _atom_site_symmetry_multiplicity
 _atom_site_fract_x
 _atom_site_fract_y
 _atom_site_fract_z
 _atom_site_occupancy
  Li  Li0  1  0.28927700  0.11394600  0.44869500  1
  Li  Li1  1  0.89006900  0.08708600  0.02790800  1
  Li  Li2  1  0.09488400  0.34215800  0.95854400  1
  Li  Li3  1  0.39202000  0.41388300  0.97276300  1
  Li  Li4  1  0.07997400  0.32737800  0.45208600  1
  Li  Li5  1  0.77496400  0.37764100  0.55110500  1
  Li  Li6  1  0.22163200  0.61189100  0.44844300  1
  Li  Li7  1  0.92042800  0.67056000  0.54820200  1
  Li  Li8  1  0.60754600  0.58513100  0.03046200  1
  Li  Li9  1  0.41301500  0.85273000  0.95657200  1
  Li  Li10  1  0.90765800  0.65334600  0.04356500  1
  Li  Li11  1  0.10631800  0.91481400  0.97168800  1
  Li  Li12  1  0.42854700  0.83787800  0.46270900  1
  Li  Li13  1  0.71984700  0.89620400  0.55237800  1
  Mn  Mn14  1  0.08037200  0.20174800  0.67296200  1
  Mn  Mn15  1  0.78370100  0.25552000  0.82409100  1
  Mn  Mn16  1  0.28810500  0.24147400  0.17481600  1
  Mn  Mn17  1  0.57582900  0.29300400  0.32725700  1
  Mn  Mn18  1  0.42234800  0.70367400  0.67745400  1
  Mn  Mn19  1  0.71461100  0.75950000  0.82681100  1
  Mn  Mn20  1  0.21642800  0.74669100  0.17781200  1
  Mn  Mn21  1  0.91962500  0.79772900  0.32433600  1
  P  P22  1  0.54588200  0.02519400  0.75538900  1
  P  P23  1  0.29432100  0.11974200  0.89094100  1
  P  P24  1  0.06918700  0.05937600  0.24364300  1
  P  P25  1  0.84821300  0.12466300  0.42439400  1
  P  P26  1  0.35271800  0.37769300  0.56994200  1
  P  P27  1  0.56912700  0.44218800  0.75793800  1
  P  P28  1  0.95010000  0.52471700  0.76162800  1
  P  P29  1  0.79149600  0.37971000  0.11142600  1
  P  P30  1  0.20355800  0.61831400  0.89163100  1
  P  P31  1  0.04903400  0.47346500  0.23868200  1
  P  P32  1  0.43200500  0.55882200  0.24401600  1
  P  P33  1  0.64809100  0.61962400  0.42444100  1
  P  P34  1  0.15074500  0.87697300  0.57305100  1
  P  P35  1  0.93240600  0.94119300  0.75517100  1
  P  P36  1  0.70542800  0.88167400  0.10925400  1
  P  P37  1  0.45538700  0.97558500  0.24158100  1
  O  O38  1  0.57563600  0.01218500  0.62406900  1
  O  O39  1  0.16257900  0.02304800  0.55190000  1
  O  O40  1  0.91308700  0.08732100  0.73155800  1
  O  O41  1  0.64900300  0.11223700  0.84446300  1
  O  O42  1  0.40205500  0.10031000  0.78036100  1
  O  O43  1  0.16951500  0.17898800  0.84124700  1
  O  O44  1  0.35353500  0.22856100  0.99808900  1
  O  O45  1  0.73110900  0.01708200  0.07656400  1
  O  O46  1  0.92325400  0.11255500  0.29501900  1
  O  O47  1  0.06602100  0.06412900  0.11096800  1
  O  O48  1  0.46632100  0.13010400  0.22650200  1
  O  O49  1  0.71465400  0.19461000  0.41136500  1
  O  O50  1  0.17476200  0.16455000  0.31281900  1
  O  O51  1  0.93616100  0.22410900  0.51823200  1
  O  O52  1  0.42985600  0.28156600  0.47027000  1
  O  O53  1  0.68351900  0.34422800  0.70004600  1
  O  O54  1  0.21232500  0.31380400  0.58170300  1
  O  O55  1  0.95891100  0.37555400  0.78863700  1
  O  O56  1  0.42710200  0.38147000  0.69807200  1
  O  O57  1  0.55798400  0.44121200  0.89034300  1
  O  O58  1  0.22313700  0.48021400  0.92393200  1
  O  O59  1  0.85872600  0.27592300  0.00208000  1
  O  O60  1  0.67021100  0.32282500  0.16551100  1
  O  O61  1  0.90201800  0.40205100  0.22149500  1
  O  O62  1  0.41503000  0.41349300  0.27061000  1
  O  O63  1  0.14070700  0.38420600  0.14385400  1
  O  O64  1  0.91215700  0.52135900  0.63139900  1
  O  O65  1  0.65375300  0.46845400  0.43902800  1
  O  O66  1  0.34068100  0.52819100  0.55808900  1
  O  O67  1  0.08662600  0.47599300  0.36915100  1
  O  O68  1  0.86283800  0.61586100  0.85815600  1
  O  O69  1  0.58786700  0.58685400  0.72951700  1
  O  O70  1  0.10042500  0.59110200  0.77588700  1
  O  O71  1  0.32830900  0.68346100  0.84657600  1
  O  O72  1  0.13374200  0.72239900  0.99643000  1
  O  O73  1  0.77557200  0.51733300  0.07616600  1
  O  O74  1  0.43383500  0.56393700  0.11186400  1
  O  O75  1  0.58035300  0.61543500  0.29442800  1
  O  O76  1  0.03712900  0.62091900  0.21270500  1
  O  O77  1  0.78974100  0.68120200  0.41955900  1
  O  O78  1  0.32804300  0.66180900  0.31334500  1
  O  O79  1  0.56335900  0.71790600  0.51814400  1
  O  O80  1  0.06351800  0.77452800  0.48200600  1
  O  O81  1  0.82785400  0.83602800  0.68479300  1
  O  O82  1  0.28954800  0.81230900  0.58292100  1
  O  O83  1  0.53117100  0.88048600  0.79094600  1
  O  O84  1  0.93504400  0.93535700  0.88741800  1
  O  O85  1  0.07993700  0.88829700  0.70401100  1
  O  O86  1  0.27469500  0.98055400  0.92218600  1
  O  O87  1  0.63202800  0.77609900  0.00502200  1
  O  O88  1  0.82570100  0.81198500  0.15597600  1
  O  O89  1  0.60192500  0.90820200  0.22538900  1
  O  O90  1  0.36445100  0.89353100  0.14004800  1
  O  O91  1  0.08858400  0.91393800  0.26814800  1
  O  O92  1  0.83582400  0.97785200  0.44431600  1
  O  O93  1  0.40970600  0.96879100  0.36696000  1
