# generated using pymatgen
data_Li9Mn2Co5O16
_symmetry_space_group_name_H-M   'P 1'
_cell_length_a   5.79700200
_cell_length_b   6.57915918
_cell_length_c   7.71111736
_cell_angle_alpha   86.28117635
_cell_angle_beta   80.48379077
_cell_angle_gamma   77.26850484
_symmetry_Int_Tables_number   1
_chemical_formula_structural   Li9Mn2Co5O16
_chemical_formula_sum   'Li9 Mn2 Co5 O16'
_cell_volume   282.79542732
_cell_formula_units_Z   1
loop_
 _symmetry_equiv_pos_site_id
 _symmetry_equiv_pos_as_xyz
  1  'x, y, z'
loop_
 _atom_site_type_symbol
 _atom_site_label
 _atom_site_symmetry_multiplicity
 _atom_site_fract_x
 _atom_site_fract_y
 _atom_site_fract_z
 _atom_site_occupancy
  Li  Li0  1  0.94208000  0.87890300  0.37554000  1
  Li  Li1  1  0.67873300  0.37310700  0.87009900  1
  Li  Li2  1  0.55476200  0.11934900  0.63492200  1
  Li  Li3  1  0.31681700  0.62573500  0.12344000  1
  Li  Li4  1  0.19704100  0.36806700  0.87788300  1
  Li  Li5  1  0.80634400  0.63376500  0.12012600  1
  Li  Li6  1  0.43414300  0.87739100  0.37079900  1
  Li  Li7  1  0.05650700  0.11992500  0.62829000  1
  Li  Li8  1  0.49375400  0.00086400  0.00198200  1
  Mn  Mn9  1  0.00411100  0.99980100  0.00229200  1
  Mn  Mn10  1  0.62745000  0.24601400  0.24567500  1
  Co  Co11  1  0.75692600  0.50178900  0.49984800  1
  Co  Co12  1  0.25351100  0.50200600  0.50359300  1
  Co  Co13  1  0.37561400  0.75777600  0.75646200  1
  Co  Co14  1  0.13236000  0.24739700  0.24722000  1
  Co  Co15  1  0.86064500  0.76162500  0.75377100  1
  O  O16  1  0.20415900  0.95862700  0.18049500  1
  O  O17  1  0.95978100  0.45377100  0.67969600  1
  O  O18  1  0.85464500  0.20060800  0.41577200  1
  O  O19  1  0.58602000  0.68300000  0.92341900  1
  O  O20  1  0.46347200  0.43782100  0.67464100  1
  O  O21  1  0.08273300  0.71151800  0.94183400  1
  O  O22  1  0.73086400  0.96032100  0.18011800  1
  O  O23  1  0.35767300  0.19398400  0.41291900  1
  O  O24  1  0.64919900  0.80679200  0.56743200  1
  O  O25  1  0.40572800  0.30701400  0.08344700  1
  O  O26  1  0.25855200  0.05676700  0.82486100  1
  O  O27  1  0.04770700  0.53665000  0.32016300  1
  O  O28  1  0.90803500  0.29264500  0.07515100  1
  O  O29  1  0.54785100  0.54115500  0.31594600  1
  O  O30  1  0.15915400  0.79996600  0.57186400  1
  O  O31  1  0.79362600  0.04584700  0.82030100  1
