# generated using pymatgen
data_Li9Mn2Co5O16
_symmetry_space_group_name_H-M   'P 1'
_cell_length_a   4.99871000
_cell_length_b   5.95275327
_cell_length_c   9.81268553
_cell_angle_alpha   99.28283710
_cell_angle_beta   93.52700849
_cell_angle_gamma   90.56484787
_symmetry_Int_Tables_number   1
_chemical_formula_structural   Li9Mn2Co5O16
_chemical_formula_sum   'Li9 Mn2 Co5 O16'
_cell_volume   287.55947614
_cell_formula_units_Z   1
loop_
 _symmetry_equiv_pos_site_id
 _symmetry_equiv_pos_as_xyz
  1  'x, y, z'
loop_
 _atom_site_type_symbol
 _atom_site_label
 _atom_site_symmetry_multiplicity
 _atom_site_fract_x
 _atom_site_fract_y
 _atom_site_fract_z
 _atom_site_occupancy
  Li  Li0  1  0.86574500  0.81557500  0.24902800  1
  Li  Li1  1  0.12999500  0.68689600  0.74941400  1
  Li  Li2  1  0.37800500  0.56147900  0.24445800  1
  Li  Li3  1  0.86863000  0.31576000  0.24838700  1
  Li  Li4  1  0.13044400  0.18637200  0.75182700  1
  Li  Li5  1  0.37136300  0.05937600  0.24395400  1
  Li  Li6  1  0.63034400  0.92935900  0.75587300  1
  Li  Li7  1  0.62543900  0.44143400  0.75708400  1
  Li  Li8  1  0.49971500  0.74862300  0.00002100  1
  Mn  Mn9  1  0.99977900  0.00012300  0.00014400  1
  Mn  Mn10  1  0.25055700  0.87432500  0.49771700  1
  Co  Co11  1  0.74664200  0.62522600  0.50450600  1
  Co  Co12  1  0.00116600  0.51178600  0.99989100  1
  Co  Co13  1  0.24909200  0.37480900  0.49973500  1
  Co  Co14  1  0.50041000  0.24505000  0.99992000  1
  Co  Co15  1  0.75283200  0.12641700  0.49808700  1
  O  O16  1  0.68671400  0.04851400  0.10744300  1
  O  O17  1  0.94650800  0.90579000  0.61399800  1
  O  O18  1  0.15701400  0.79705000  0.11544100  1
  O  O19  1  0.68653100  0.50141400  0.10724600  1
  O  O20  1  0.94935300  0.40388700  0.61801100  1
  O  O21  1  0.19311300  0.26930200  0.11099100  1
  O  O22  1  0.44109100  0.14402200  0.61145500  1
  O  O23  1  0.45690700  0.64357800  0.62459200  1
  O  O24  1  0.05799200  0.60385900  0.38629300  1
  O  O25  1  0.31689400  0.44479100  0.89414100  1
  O  O26  1  0.55034200  0.34947600  0.38552100  1
  O  O27  1  0.03906900  0.10933700  0.37815900  1
  O  O28  1  0.31118500  0.99162300  0.89139300  1
  O  O29  1  0.55600200  0.84176300  0.38179100  1
  O  O30  1  0.84278200  0.73383400  0.88475000  1
  O  O31  1  0.80834500  0.20915100  0.88872600  1
