# generated using pymatgen
data_Li7Mn4CoO12
_symmetry_space_group_name_H-M   'P 1'
_cell_length_a   5.07557958
_cell_length_b   5.22042602
_cell_length_c   16.53631014
_cell_angle_alpha   92.32747579
_cell_angle_beta   89.12724110
_cell_angle_gamma   97.20877131
_symmetry_Int_Tables_number   1
_chemical_formula_structural   Li7Mn4CoO12
_chemical_formula_sum   'Li14 Mn8 Co2 O24'
_cell_volume   434.31271789
_cell_formula_units_Z   2
loop_
 _symmetry_equiv_pos_site_id
 _symmetry_equiv_pos_as_xyz
  1  'x, y, z'
loop_
 _atom_site_type_symbol
 _atom_site_label
 _atom_site_symmetry_multiplicity
 _atom_site_fract_x
 _atom_site_fract_y
 _atom_site_fract_z
 _atom_site_occupancy
  Li  Li0  1  0.58289900  0.49846600  0.41724900  1
  Li  Li1  1  0.08373000  0.50148600  0.91607800  1
  Li  Li2  1  0.02590600  0.25258800  0.45583600  1
  Li  Li3  1  0.52494600  0.24844900  0.95579900  1
  Li  Li4  1  0.14174000  0.75153700  0.37753200  1
  Li  Li5  1  0.64078900  0.74744500  0.87749900  1
  Li  Li6  1  0.46618800  0.76498800  0.03998000  1
  Li  Li7  1  0.96811100  0.76474600  0.54127800  1
  Li  Li8  1  0.20047100  0.23500800  0.29334900  1
  Li  Li9  1  0.69854200  0.23525500  0.79204900  1
  Li  Li10  1  0.29874600  0.75236400  0.21022400  1
  Li  Li11  1  0.80478200  0.77311100  0.70946300  1
  Li  Li12  1  0.36790200  0.24764000  0.12312200  1
  Li  Li13  1  0.86191600  0.22688500  0.62387400  1
  Mn  Mn14  1  0.49822900  0.99986900  0.50043100  1
  Mn  Mn15  1  0.16843800  0.00014700  0.83289900  1
  Mn  Mn16  1  0.41740100  0.49918700  0.58164400  1
  Mn  Mn17  1  0.24927200  0.50082000  0.75168000  1
  Mn  Mn18  1  0.99717000  0.00219200  0.99782900  1
  Mn  Mn19  1  0.66954700  0.99781900  0.33550600  1
  Mn  Mn20  1  0.91491300  0.49776100  0.08082300  1
  Mn  Mn21  1  0.75173300  0.50222400  0.25251300  1
  Co  Co22  1  0.33332100  0.99999400  0.66665900  1
  Co  Co23  1  0.83328500  0.99999300  0.16667100  1
  O  O24  1  0.79330300  0.89516700  0.43694300  1
  O  O25  1  0.29218300  0.89467000  0.93489600  1
  O  O26  1  0.37451200  0.10535000  0.39843600  1
  O  O27  1  0.87340100  0.10484500  0.89640200  1
  O  O28  1  0.19239000  0.34669300  0.02081100  1
  O  O29  1  0.69433200  0.34414600  0.52230600  1
  O  O30  1  0.47428300  0.65331500  0.31252500  1
  O  O31  1  0.97234000  0.65587200  0.81102300  1
  O  O32  1  0.87090500  0.34481400  0.34840700  1
  O  O33  1  0.37111700  0.34689300  0.84752600  1
  O  O34  1  0.29556400  0.65312800  0.48580300  1
  O  O35  1  0.79579700  0.65520000  0.98493100  1
  O  O36  1  0.96732500  0.88686000  0.27437900  1
  O  O37  1  0.46310400  0.89201900  0.76910700  1
  O  O38  1  0.69933000  0.11311900  0.05895700  1
  O  O39  1  0.20354200  0.10798500  0.56421200  1
  O  O40  1  0.03945900  0.37514600  0.18524000  1
  O  O41  1  0.52521000  0.35180200  0.68393700  1
  O  O42  1  0.62718700  0.62482900  0.14810100  1
  O  O43  1  0.14143300  0.64818000  0.64938400  1
  O  O44  1  0.12844200  0.89549100  0.10167800  1
  O  O45  1  0.62880400  0.88964600  0.60236800  1
  O  O46  1  0.53821000  0.10450300  0.23167400  1
  O  O47  1  0.03785200  0.11035500  0.73096300  1
