# generated using pymatgen
data_Li7V4(PO4)6
_symmetry_space_group_name_H-M   'P 1'
_cell_length_a   8.72676700
_cell_length_b   8.75502286
_cell_length_c   8.76014699
_cell_angle_alpha   60.97293235
_cell_angle_beta   60.76729928
_cell_angle_gamma   60.79459798
_symmetry_Int_Tables_number   1
_chemical_formula_structural   Li7V4(PO4)6
_chemical_formula_sum   'Li7 V4 P6 O24'
_cell_volume   482.28109022
_cell_formula_units_Z   1
loop_
 _symmetry_equiv_pos_site_id
 _symmetry_equiv_pos_as_xyz
  1  'x, y, z'
loop_
 _atom_site_type_symbol
 _atom_site_label
 _atom_site_symmetry_multiplicity
 _atom_site_fract_x
 _atom_site_fract_y
 _atom_site_fract_z
 _atom_site_occupancy
  Li  Li0  1  0.23083800  0.70942200  0.88478200  1
  Li  Li1  1  0.28573900  0.11540700  0.77077400  1
  Li  Li2  1  0.11458900  0.76776000  0.28595600  1
  Li  Li3  1  0.49830200  0.49916500  0.49390800  1
  Li  Li4  1  0.88373600  0.23140700  0.70799400  1
  Li  Li5  1  0.70929200  0.88392100  0.22865700  1
  Li  Li6  1  0.76765600  0.28612400  0.11444600  1
  V  V7  1  0.64251400  0.64131400  0.64143900  1
  V  V8  1  0.35643600  0.35686300  0.35828400  1
  V  V9  1  0.85303100  0.85230100  0.85377600  1
  V  V10  1  0.14635400  0.14704200  0.14575000  1
  P  P11  1  0.04217100  0.45363300  0.75192300  1
  P  P12  1  0.54510700  0.24864900  0.95394800  1
  P  P13  1  0.24979400  0.95457000  0.54549200  1
  P  P14  1  0.75144400  0.04342600  0.45407900  1
  P  P15  1  0.45455800  0.75158400  0.04385300  1
  P  P16  1  0.95499900  0.54611100  0.24843400  1
  O  O17  1  0.47837600  0.68872600  0.89343200  1
  O  O18  1  0.62874400  0.77835100  0.01334800  1
  O  O19  1  0.03267400  0.28065500  0.93244700  1
  O  O20  1  0.89176400  0.47708200  0.68856000  1
  O  O21  1  0.00773800  0.62526700  0.78461800  1
  O  O22  1  0.69243600  0.89311000  0.47174300  1
  O  O23  1  0.06512300  0.96059100  0.71731000  1
  O  O24  1  0.36984500  0.22306300  0.98489900  1
  O  O25  1  0.24233200  0.39978000  0.61521500  1
  O  O26  1  0.71767500  0.06581900  0.96215300  1
  O  O27  1  0.60228800  0.38459600  0.75450600  1
  O  O28  1  0.23065400  0.98798100  0.36728100  1
  O  O29  1  0.38612900  0.75396200  0.60313000  1
  O  O30  1  0.61639300  0.24297000  0.39554700  1
  O  O31  1  0.77180600  0.01092500  0.63155200  1
  O  O32  1  0.28176500  0.93447000  0.03338100  1
  O  O33  1  0.39735900  0.61681500  0.24290800  1
  O  O34  1  0.75360600  0.59990800  0.38665800  1
  O  O35  1  0.93685400  0.03414100  0.28268600  1
  O  O36  1  0.30836900  0.10239300  0.53151500  1
  O  O37  1  0.98936600  0.37304400  0.21799800  1
  O  O38  1  0.10246600  0.52535000  0.31193000  1
  O  O39  1  0.96261800  0.71933100  0.06803400  1
  O  O40  1  0.52420300  0.31024700  0.10282900  1
