# generated using pymatgen
data_Li6Mn3Co(PO4)6
_symmetry_space_group_name_H-M   'P 1'
_cell_length_a   8.50678500
_cell_length_b   8.53489256
_cell_length_c   8.55515111
_cell_angle_alpha   62.52890478
_cell_angle_beta   61.64000897
_cell_angle_gamma   61.86073051
_symmetry_Int_Tables_number   1
_chemical_formula_structural   Li6Mn3Co(PO4)6
_chemical_formula_sum   'Li6 Mn3 Co1 P6 O24'
_cell_volume   458.90133138
_cell_formula_units_Z   1
loop_
 _symmetry_equiv_pos_site_id
 _symmetry_equiv_pos_as_xyz
  1  'x, y, z'
loop_
 _atom_site_type_symbol
 _atom_site_label
 _atom_site_symmetry_multiplicity
 _atom_site_fract_x
 _atom_site_fract_y
 _atom_site_fract_z
 _atom_site_occupancy
  Li  Li0  1  0.99095400  0.00777800  0.00686800  1
  Li  Li1  1  0.34871200  0.75073400  0.14892300  1
  Li  Li2  1  0.50712500  0.47248400  0.50865000  1
  Li  Li3  1  0.66257800  0.21819300  0.85216300  1
  Li  Li4  1  0.83372600  0.66275400  0.22523500  1
  Li  Li5  1  0.22389700  0.84940700  0.65772400  1
  Mn  Mn6  1  0.14043100  0.14384700  0.13942200  1
  Mn  Mn7  1  0.35402800  0.36037700  0.36175900  1
  Mn  Mn8  1  0.64677800  0.64090300  0.65247000  1
  Co  Co9  1  0.85307700  0.85496500  0.85020600  1
  P  P10  1  0.44821900  0.05299200  0.74691200  1
  P  P11  1  0.75124800  0.44321000  0.05974700  1
  P  P12  1  0.04693300  0.74419100  0.45555800  1
  P  P13  1  0.96245000  0.25110900  0.53815000  1
  P  P14  1  0.25462400  0.55086400  0.96532100  1
  P  P15  1  0.53173600  0.96389700  0.24516000  1
  O  O16  1  0.47865300  0.13643000  0.29737700  1
  O  O17  1  0.11624200  0.32398600  0.49857300  1
  O  O18  1  0.25984500  0.05618600  0.91486900  1
  O  O19  1  0.30839900  0.53599000  0.12364800  1
  O  O20  1  0.42827900  0.24156300  0.58491400  1
  O  O21  1  0.60709100  0.03569700  0.79812400  1
  O  O22  1  0.91039900  0.25176500  0.07949800  1
  O  O23  1  0.57843300  0.43944200  0.24863500  1
  O  O24  1  0.24444200  0.58121800  0.43943700  1
  O  O25  1  0.99801500  0.19220500  0.37825600  1
  O  O26  1  0.95325600  0.09101100  0.72648100  1
  O  O27  1  0.21826200  0.37887200  0.00166400  1
  O  O28  1  0.80327000  0.60482700  0.03562300  1
  O  O29  1  0.07200200  0.88585800  0.25865200  1
  O  O30  1  0.02812800  0.80585900  0.60719200  1
  O  O31  1  0.76198100  0.40590300  0.56673200  1
  O  O32  1  0.41484400  0.57591200  0.76717500  1
  O  O33  1  0.08832200  0.73707700  0.94632100  1
  O  O34  1  0.37480000  0.97506900  0.19248300  1
  O  O35  1  0.56351300  0.77368500  0.39947300  1
  O  O36  1  0.69516100  0.47103000  0.90119700  1
  O  O37  1  0.72272300  0.95813800  0.08094700  1
  O  O38  1  0.88138300  0.68531500  0.49896900  1
  O  O39  1  0.48704400  0.88925700  0.68849400  1
