# generated using pymatgen
data_Li9Mg3P4O16F3
_symmetry_space_group_name_H-M   'P 1'
_cell_length_a   12.76103706
_cell_length_b   12.76103706
_cell_length_c   5.06920600
_cell_angle_alpha   90.00000000
_cell_angle_beta   90.00000000
_cell_angle_gamma   119.99999512
_symmetry_Int_Tables_number   1
_chemical_formula_structural   Li9Mg3P4O16F3
_chemical_formula_sum   'Li18 Mg6 P8 O32 F6'
_cell_volume   714.89545015
_cell_formula_units_Z   2
loop_
 _symmetry_equiv_pos_site_id
 _symmetry_equiv_pos_as_xyz
  1  'x, y, z'
loop_
 _atom_site_type_symbol
 _atom_site_label
 _atom_site_symmetry_multiplicity
 _atom_site_fract_x
 _atom_site_fract_y
 _atom_site_fract_z
 _atom_site_occupancy
  Li  Li0  1  0.16843100  0.08342600  0.84706900  1
  Li  Li1  1  0.91499500  0.83156900  0.84706900  1
  Li  Li2  1  0.91657400  0.08500500  0.84706900  1
  Li  Li3  1  0.83156900  0.91657400  0.34706900  1
  Li  Li4  1  0.08500500  0.16843100  0.34706900  1
  Li  Li5  1  0.08342600  0.91499500  0.34706900  1
  Li  Li6  1  0.39509400  0.56965700  0.80083400  1
  Li  Li7  1  0.17456300  0.60490600  0.80083400  1
  Li  Li8  1  0.43034300  0.82543700  0.80083400  1
  Li  Li9  1  0.60490600  0.43034300  0.30083400  1
  Li  Li10  1  0.82543700  0.39509400  0.30083400  1
  Li  Li11  1  0.56965700  0.17456300  0.30083400  1
  Li  Li12  1  0.33408200  0.42047200  0.27002000  1
  Li  Li13  1  0.08638900  0.66591800  0.27002000  1
  Li  Li14  1  0.57952800  0.91361100  0.27002000  1
  Li  Li15  1  0.66591800  0.57952800  0.77002000  1
  Li  Li16  1  0.91361100  0.33408200  0.77002000  1
  Li  Li17  1  0.42047200  0.08638900  0.77002000  1
  Mg  Mg18  1  0.42520000  0.35780800  0.76899700  1
  Mg  Mg19  1  0.93260900  0.57480000  0.76899700  1
  Mg  Mg20  1  0.64219200  0.06739100  0.76899700  1
  Mg  Mg21  1  0.57480000  0.64219200  0.26899700  1
  Mg  Mg22  1  0.06739100  0.42520000  0.26899700  1
  Mg  Mg23  1  0.35780800  0.93260900  0.26899700  1
  P  P24  1  0.15323200  0.31928900  0.75420000  1
  P  P25  1  0.16605600  0.84676800  0.75420000  1
  P  P26  1  0.68071100  0.83394400  0.75420000  1
  P  P27  1  0.84676800  0.68071100  0.25420000  1
  P  P28  1  0.83394400  0.15323200  0.25420000  1
  P  P29  1  0.31928900  0.16605600  0.25420000  1
  P  P30  1  0.33333300  0.66666700  0.29512500  1
  P  P31  1  0.66666700  0.33333300  0.79512500  1
  O  O32  1  0.20242500  0.59818800  0.18566000  1
  O  O33  1  0.39576300  0.79757500  0.18566000  1
  O  O34  1  0.40181200  0.60423700  0.18566000  1
  O  O35  1  0.79757500  0.40181200  0.68566000  1
  O  O36  1  0.60423700  0.20242500  0.68566000  1
  O  O37  1  0.59818800  0.39576300  0.68566000  1
  O  O38  1  0.09149100  0.17787100  0.75251800  1
  O  O39  1  0.08638000  0.90850900  0.75251800  1
  O  O40  1  0.82212900  0.91362000  0.75251800  1
  O  O41  1  0.90850900  0.82212900  0.25251800  1
  O  O42  1  0.91362000  0.09149100  0.25251800  1
  O  O43  1  0.17787100  0.08638000  0.25251800  1
  O  O44  1  0.28097600  0.37867500  0.88161200  1
  O  O45  1  0.09769900  0.71902400  0.88161200  1
  O  O46  1  0.62132500  0.90230100  0.88161200  1
  O  O47  1  0.71902400  0.62132500  0.38161200  1
  O  O48  1  0.90230100  0.28097600  0.38161200  1
  O  O49  1  0.37867500  0.09769900  0.38161200  1
  O  O50  1  0.07376600  0.35806500  0.90596800  1
  O  O51  1  0.28429900  0.92623400  0.90596800  1
  O  O52  1  0.64193500  0.71570100  0.90596800  1
  O  O53  1  0.92623400  0.64193500  0.40596800  1
  O  O54  1  0.71570100  0.07376600  0.40596800  1
  O  O55  1  0.35806500  0.28429900  0.40596800  1
  O  O56  1  0.16637200  0.35960700  0.45787700  1
  O  O57  1  0.19323500  0.83362800  0.45787700  1
  O  O58  1  0.64039300  0.80676500  0.45787700  1
  O  O59  1  0.83362800  0.64039300  0.95787700  1
  O  O60  1  0.80676500  0.16637200  0.95787700  1
  O  O61  1  0.35960700  0.19323500  0.95787700  1
  O  O62  1  0.33333300  0.66666700  0.60378500  1
  O  O63  1  0.66666700  0.33333300  0.10378500  1
  F  F64  1  0.48346900  0.52284800  0.57394300  1
  F  F65  1  0.03937800  0.51653100  0.57394300  1
  F  F66  1  0.47715200  0.96062200  0.57394300  1
  F  F67  1  0.51653100  0.47715200  0.07394300  1
  F  F68  1  0.96062200  0.48346900  0.07394300  1
  F  F69  1  0.52284800  0.03937800  0.07394300  1
