# generated using pymatgen
data_Li6V3P8O29
_symmetry_space_group_name_H-M   'P 1'
_cell_length_a   9.79311300
_cell_length_b   9.80380881
_cell_length_c   14.00748549
_cell_angle_alpha   89.35155243
_cell_angle_beta   89.55255412
_cell_angle_gamma   60.03647082
_symmetry_Int_Tables_number   1
_chemical_formula_structural   Li6V3P8O29
_chemical_formula_sum   'Li12 V6 P16 O58'
_cell_volume   1165.02900875
_cell_formula_units_Z   2
loop_
 _symmetry_equiv_pos_site_id
 _symmetry_equiv_pos_as_xyz
  1  'x, y, z'
loop_
 _atom_site_type_symbol
 _atom_site_label
 _atom_site_symmetry_multiplicity
 _atom_site_fract_x
 _atom_site_fract_y
 _atom_site_fract_z
 _atom_site_occupancy
  Li  Li0  1  0.90481800  0.33160000  0.56179600  1
  Li  Li1  1  0.67107000  0.64444600  0.89035600  1
  Li  Li2  1  0.31875200  0.91333200  0.06257100  1
  Li  Li3  1  0.90618600  0.77299400  0.06339900  1
  Li  Li4  1  0.23877900  0.09695100  0.43952700  1
  Li  Li5  1  0.76602700  0.90456200  0.56019000  1
  Li  Li6  1  0.66420600  0.10121400  0.94401300  1
  Li  Li7  1  0.67005700  0.23250100  0.43654300  1
  Li  Li8  1  0.10073300  0.66161500  0.43936100  1
  Li  Li9  1  0.23380500  0.66661400  0.93939700  1
  Li  Li10  1  0.98646500  0.08067900  0.98755500  1
  Li  Li11  1  0.05851900  0.95444300  0.51044900  1
  V  V12  1  0.43317400  0.00116900  0.24992000  1
  V  V13  1  0.56136300  0.00067900  0.74960000  1
  V  V14  1  0.00464900  0.43276800  0.75460800  1
  V  V15  1  0.00062800  0.56290000  0.24962600  1
  V  V16  1  0.56480900  0.43767900  0.24783000  1
  V  V17  1  0.43716400  0.56420800  0.74517400  1
  P  P18  1  0.77958300  0.30676800  0.83852100  1
  P  P19  1  0.91452200  0.31273600  0.34448600  1
  P  P20  1  0.30531700  0.77688300  0.33965500  1
  P  P21  1  0.66339500  0.67098600  0.13001800  1
  P  P22  1  0.67343000  0.66383400  0.63152800  1
  P  P23  1  0.31135800  0.90881800  0.84348000  1
  P  P24  1  0.22394100  0.08551600  0.65774200  1
  P  P25  1  0.90659200  0.77411300  0.84278600  1
  P  P26  1  0.08432000  0.22588600  0.15878300  1
  P  P27  1  0.77257000  0.90922200  0.34160900  1
  P  P28  1  0.68572600  0.09005600  0.15895000  1
  P  P29  1  0.33473300  0.33237800  0.36946700  1
  P  P30  1  0.33607700  0.33461400  0.86974900  1
  P  P31  1  0.68559100  0.22844800  0.65369700  1
  P  P32  1  0.08575600  0.68968000  0.65864800  1
  P  P33  1  0.22881000  0.68483500  0.15581500  1
  O  O34  1  0.77055800  0.22820200  0.56291100  1
  O  O35  1  0.74841500  0.33399900  0.34280700  1
  O  O36  1  0.99774200  0.21321500  0.07630700  1
  O  O37  1  0.91832800  0.33715100  0.84133000  1
  O  O38  1  0.62504300  0.46838100  0.83301600  1
  O  O39  1  0.66627900  0.52342000  0.17773800  1
  O  O40  1  0.45802600  0.61851200  0.33438800  1
  O  O41  1  0.23136300  0.76519000  0.06365000  1
  O  O42  1  0.33528200  0.74111100  0.84191400  1
  O  O43  1  0.81737700  0.51072900  0.67416700  1
  O  O44  1  0.90799000  0.47235000  0.32768200  1
  O  O45  1  0.52444600  0.66744800  0.67840600  1
  O  O46  1  0.66014900  0.66973200  0.02273300  1
  O  O47  1  0.67742300  0.66166400  0.52549100  1
  O  O48  1  0.50770900  0.81623200  0.16692600  1
  O  O49  1  0.88744600  0.62727700  0.83003000  1
  O  O50  1  0.80931300  0.67889400  0.16681100  1
  O  O51  1  0.33682500  0.91730900  0.34074000  1
  O  O52  1  0.20639200  0.99702800  0.75076200  1
  O  O53  1  0.21616100  0.00711600  0.56796900  1
  O  O54  1  0.22638600  0.99375900  0.93237000  1
  O  O55  1  0.47668500  0.89363500  0.82900600  1
  O  O56  1  0.67716300  0.81229400  0.67156700  1
  O  O57  1  0.25681900  0.08460400  0.16110500  1
  O  O58  1  0.61983300  0.90426900  0.32811000  1
  O  O59  1  0.91826100  0.74102400  0.34194500  1
  O  O60  1  0.00928100  0.20153900  0.25694700  1
  O  O61  1  0.00181200  0.23109000  0.43519100  1
  O  O62  1  0.00033500  0.78432800  0.56988000  1
  O  O63  1  0.08403500  0.25472600  0.66161600  1
  O  O64  1  0.38274200  0.08275800  0.66943000  1
  O  O65  1  0.74026100  0.92134200  0.84436300  1
  O  O66  1  0.32333200  0.18854400  0.33074300  1
  O  O67  1  0.52913500  0.09005300  0.17303900  1
  O  O68  1  0.77049800  0.00280600  0.06928000  1
  O  O69  1  0.77112100  0.99637200  0.43055800  1
  O  O70  1  0.79648500  0.99487600  0.24965700  1
  O  O71  1  0.66713700  0.08083800  0.65931800  1
  O  O72  1  0.18828100  0.33567300  0.82561000  1
  O  O73  1  0.08328400  0.38269000  0.16920400  1
  O  O74  1  0.48566700  0.18306800  0.82964100  1
  O  O75  1  0.33856700  0.33964300  0.97562900  1
  O  O76  1  0.33341500  0.33349900  0.47617000  1
  O  O77  1  0.48920000  0.32341900  0.32820200  1
  O  O78  1  0.08086700  0.53636900  0.66804300  1
  O  O79  1  0.18987600  0.48756500  0.32815600  1
  O  O80  1  0.66104700  0.25553500  0.16225300  1
  O  O81  1  0.79859700  0.21305100  0.74043700  1
  O  O82  1  0.78690400  0.20025000  0.91867700  1
  O  O83  1  0.52666200  0.37976600  0.66699000  1
  O  O84  1  0.33423000  0.48346800  0.82512500  1
  O  O85  1  0.37736200  0.52468900  0.17158100  1
  O  O86  1  0.07991100  0.66682200  0.16049800  1
  O  O87  1  0.99922600  0.76297800  0.93097700  1
  O  O88  1  0.99255200  0.79595600  0.75098000  1
  O  O89  1  0.25158000  0.66491200  0.66248600  1
  O  O90  1  0.19511900  0.79324400  0.41982900  1
  O  O91  1  0.20956100  0.80155100  0.24070700  1
