# generated using pymatgen
data_Li2TiV3O8
_symmetry_space_group_name_H-M   'P 1'
_cell_length_a   8.45487800
_cell_length_b   8.45487800
_cell_length_c   8.48189300
_cell_angle_alpha   90.00000000
_cell_angle_beta   90.00000000
_cell_angle_gamma   90.00000000
_symmetry_Int_Tables_number   1
_chemical_formula_structural   Li2TiV3O8
_chemical_formula_sum   'Li8 Ti4 V12 O32'
_cell_volume   606.32779875
_cell_formula_units_Z   4
loop_
 _symmetry_equiv_pos_site_id
 _symmetry_equiv_pos_as_xyz
  1  'x, y, z'
loop_
 _atom_site_type_symbol
 _atom_site_label
 _atom_site_symmetry_multiplicity
 _atom_site_fract_x
 _atom_site_fract_y
 _atom_site_fract_z
 _atom_site_occupancy
  Li  Li0  1  0.75532500  0.00008800  0.62436800  1
  Li  Li1  1  0.99991200  0.24467500  0.87563200  1
  Li  Li2  1  0.00008800  0.75532500  0.37563200  1
  Li  Li3  1  0.24467500  0.99991200  0.12436800  1
  Li  Li4  1  0.25532500  0.49991200  0.62563200  1
  Li  Li5  1  0.49991200  0.25532500  0.37436800  1
  Li  Li6  1  0.50008800  0.74467500  0.87436800  1
  Li  Li7  1  0.74467500  0.50008800  0.12563200  1
  Ti  Ti8  1  0.87363200  0.87363200  0.00000000  1
  Ti  Ti9  1  0.12636800  0.12636800  0.50000000  1
  Ti  Ti10  1  0.37363200  0.62636800  0.25000000  1
  Ti  Ti11  1  0.62636800  0.37363200  0.75000000  1
  V  V12  1  0.87770200  0.12229800  0.25000000  1
  V  V13  1  0.87541000  0.37457800  0.50015700  1
  V  V14  1  0.87457800  0.62459000  0.75015700  1
  V  V15  1  0.12542200  0.37541000  0.25015700  1
  V  V16  1  0.12459000  0.62542200  0.00015700  1
  V  V17  1  0.12229800  0.87770200  0.75000000  1
  V  V18  1  0.37770200  0.37770200  0.00000000  1
  V  V19  1  0.37541000  0.12542200  0.74984300  1
  V  V20  1  0.37457800  0.87541000  0.49984300  1
  V  V21  1  0.62542200  0.12459000  0.99984300  1
  V  V22  1  0.62459000  0.87457800  0.24984300  1
  V  V23  1  0.62229800  0.62229800  0.50000000  1
  O  O24  1  0.86772600  0.11279800  0.01633200  1
  O  O25  1  0.87943400  0.89203500  0.23575200  1
  O  O26  1  0.85973400  0.61556900  0.50670200  1
  O  O27  1  0.88720200  0.13227400  0.48366800  1
  O  O28  1  0.86039600  0.38427700  0.74003600  1
  O  O29  1  0.88443100  0.35973400  0.25670200  1
  O  O30  1  0.88427700  0.63960400  0.99003600  1
  O  O31  1  0.89203500  0.87943400  0.76424800  1
  O  O32  1  0.10796500  0.12056600  0.26424800  1
  O  O33  1  0.11572300  0.36039600  0.49003600  1
  O  O34  1  0.11556900  0.64026600  0.75670200  1
  O  O35  1  0.13960400  0.61572300  0.24003600  1
  O  O36  1  0.11279800  0.86772600  0.98366800  1
  O  O37  1  0.14026600  0.38443100  0.00670200  1
  O  O38  1  0.12056600  0.10796500  0.73575200  1
  O  O39  1  0.13227400  0.88720200  0.51633200  1
  O  O40  1  0.36772600  0.38720200  0.23366800  1
  O  O41  1  0.37943400  0.60796500  0.01424800  1
  O  O42  1  0.35973400  0.88443100  0.74329800  1
  O  O43  1  0.38720200  0.36772600  0.76633200  1
  O  O44  1  0.36039600  0.11572300  0.50996400  1
  O  O45  1  0.38443100  0.14026600  0.99329800  1
  O  O46  1  0.38427700  0.86039600  0.25996400  1
  O  O47  1  0.39203500  0.62056600  0.48575200  1
  O  O48  1  0.60796500  0.37943400  0.98575200  1
  O  O49  1  0.61572300  0.13960400  0.75996400  1
  O  O50  1  0.61556900  0.85973400  0.49329800  1
  O  O51  1  0.63960400  0.88427700  0.00996400  1
  O  O52  1  0.61279800  0.63227400  0.26633200  1
  O  O53  1  0.64026600  0.11556900  0.24329800  1
  O  O54  1  0.62056600  0.39203500  0.51424800  1
  O  O55  1  0.63227400  0.61279800  0.73366800  1
