# generated using pymatgen
data_Li2V3SnO8
_symmetry_space_group_name_H-M   'P 1'
_cell_length_a   6.06440771
_cell_length_b   6.06691127
_cell_length_c   8.51999801
_cell_angle_alpha   90.55054725
_cell_angle_beta   89.99229535
_cell_angle_gamma   90.73076001
_symmetry_Int_Tables_number   1
_chemical_formula_structural   Li2V3SnO8
_chemical_formula_sum   'Li4 V6 Sn2 O16'
_cell_volume   313.42970523
_cell_formula_units_Z   2
loop_
 _symmetry_equiv_pos_site_id
 _symmetry_equiv_pos_as_xyz
  1  'x, y, z'
loop_
 _atom_site_type_symbol
 _atom_site_label
 _atom_site_symmetry_multiplicity
 _atom_site_fract_x
 _atom_site_fract_y
 _atom_site_fract_z
 _atom_site_occupancy
  Li  Li0  1  0.00589700  0.23623200  0.12945100  1
  Li  Li1  1  0.50712800  0.73696200  0.62967300  1
  Li  Li2  1  0.99659900  0.00177300  0.49587500  1
  Li  Li3  1  0.49639600  0.50157400  0.99593600  1
  V  V4  1  0.50309300  0.02471600  0.99096500  1
  V  V5  1  0.73923300  0.25294900  0.75209400  1
  V  V6  1  0.75973900  0.75322500  0.25446600  1
  V  V7  1  0.00371700  0.52525900  0.49119700  1
  V  V8  1  0.23887700  0.75234400  0.25197600  1
  V  V9  1  0.26023300  0.25360700  0.75422600  1
  Sn  Sn10  1  0.99860900  0.76632000  0.87938300  1
  Sn  Sn11  1  0.49935800  0.26592700  0.37959600  1
  O  O12  1  0.99662200  0.51053900  0.26381300  1
  O  O13  1  0.49691000  0.01104100  0.76335000  1
  O  O14  1  0.00048900  0.49428100  0.73991700  1
  O  O15  1  0.50045600  0.99404300  0.23990700  1
  O  O16  1  0.22958800  0.72264900  0.49013300  1
  O  O17  1  0.72976400  0.22195200  0.98989100  1
  O  O18  1  0.76851900  0.72329900  0.48648800  1
  O  O19  1  0.26833800  0.22233300  0.98647900  1
  O  O20  1  0.00384900  0.96413400  0.25218300  1
  O  O21  1  0.50413600  0.46486600  0.75247100  1
  O  O22  1  0.99638200  0.03029400  0.74309500  1
  O  O23  1  0.49615500  0.52981800  0.24322500  1
  O  O24  1  0.22744800  0.26009500  0.51169100  1
  O  O25  1  0.72676200  0.75974300  0.01153500  1
  O  O26  1  0.77314800  0.26031500  0.51066800  1
  O  O27  1  0.27255600  0.75971200  0.01031800  1
