# generated using pymatgen
data_Li2Mn3TeO8
_symmetry_space_group_name_H-M   'P 1'
_cell_length_a   6.12991720
_cell_length_b   6.12850672
_cell_length_c   10.90494151
_cell_angle_alpha   89.59335963
_cell_angle_beta   73.51723232
_cell_angle_gamma   120.87295609
_symmetry_Int_Tables_number   1
_chemical_formula_structural   Li2Mn3TeO8
_chemical_formula_sum   'Li4 Mn6 Te2 O16'
_cell_volume   331.31861804
_cell_formula_units_Z   2
loop_
 _symmetry_equiv_pos_site_id
 _symmetry_equiv_pos_as_xyz
  1  'x, y, z'
loop_
 _atom_site_type_symbol
 _atom_site_label
 _atom_site_symmetry_multiplicity
 _atom_site_fract_x
 _atom_site_fract_y
 _atom_site_fract_z
 _atom_site_occupancy
  Li  Li0  1  0.86699700  0.93933800  0.21043500  1
  Li  Li1  1  0.86844800  0.43100700  0.71038900  1
  Li  Li2  1  0.13154200  0.56902100  0.28953600  1
  Li  Li3  1  0.13301000  0.06077400  0.78951200  1
  Mn  Mn4  1  0.49998200  0.49990100  0.00000400  1
  Mn  Mn5  1  0.50009900  0.50015000  0.50001900  1
  Mn  Mn6  1  0.50012900  0.99960200  0.00011400  1
  Mn  Mn7  1  0.99998000  0.99987200  0.50001200  1
  Mn  Mn8  1  0.00008400  0.50026800  0.99995500  1
  Mn  Mn9  1  0.50006000  0.99983200  0.50009100  1
  Te  Te10  1  0.50375500  0.74217500  0.75012600  1
  Te  Te11  1  0.49612900  0.25787200  0.24994100  1
  O  O12  1  0.74328200  0.85425600  0.40774800  1
  O  O13  1  0.74158600  0.39470400  0.90861100  1
  O  O14  1  0.25847600  0.60506900  0.09136600  1
  O  O15  1  0.25679200  0.14588100  0.59217000  1
  O  O16  1  0.71802100  0.08463000  0.64220700  1
  O  O17  1  0.71758400  0.59999700  0.13823300  1
  O  O18  1  0.75036900  0.65654200  0.63089500  1
  O  O19  1  0.74125000  0.16833700  0.13434100  1
  O  O20  1  0.28688900  0.61931200  0.63305100  1
  O  O21  1  0.28027900  0.14839100  0.13348000  1
  O  O22  1  0.71963300  0.85136600  0.86653600  1
  O  O23  1  0.71317600  0.38097300  0.36688100  1
  O  O24  1  0.25869800  0.83179800  0.86572200  1
  O  O25  1  0.24956100  0.34345700  0.36907700  1
  O  O26  1  0.28235000  0.40008400  0.86172700  1
  O  O27  1  0.28184000  0.91539500  0.35782100  1
