# generated using pymatgen
data_Li2Ti2Mn3O10
_symmetry_space_group_name_H-M   'P 1'
_cell_length_a   5.15602021
_cell_length_b   10.10570592
_cell_length_c   8.21016477
_cell_angle_alpha   113.57040246
_cell_angle_beta   97.85012983
_cell_angle_gamma   98.47890582
_symmetry_Int_Tables_number   1
_chemical_formula_structural   Li2Ti2Mn3O10
_chemical_formula_sum   'Li4 Ti4 Mn6 O20'
_cell_volume   378.68670117
_cell_formula_units_Z   2
loop_
 _symmetry_equiv_pos_site_id
 _symmetry_equiv_pos_as_xyz
  1  'x, y, z'
loop_
 _atom_site_type_symbol
 _atom_site_label
 _atom_site_symmetry_multiplicity
 _atom_site_fract_x
 _atom_site_fract_y
 _atom_site_fract_z
 _atom_site_occupancy
  Li  Li0  1  0.23972300  0.45874300  0.40275600  1
  Li  Li1  1  0.23949600  0.95876600  0.40271000  1
  Li  Li2  1  0.76746300  0.03872600  0.59350000  1
  Li  Li3  1  0.76690500  0.53884800  0.59310000  1
  Ti  Ti4  1  0.13050000  0.34281600  0.68159700  1
  Ti  Ti5  1  0.13110800  0.84264800  0.68177900  1
  Ti  Ti6  1  0.86089500  0.15213600  0.32014000  1
  Ti  Ti7  1  0.86129900  0.65225100  0.32022400  1
  Mn  Mn8  1  0.99563100  0.74905800  0.99692100  1
  Mn  Mn9  1  0.69382500  0.94278900  0.89683000  1
  Mn  Mn10  1  0.30390400  0.56038900  0.10495500  1
  Mn  Mn11  1  0.99561800  0.24904900  0.99702600  1
  Mn  Mn12  1  0.69342000  0.44280200  0.89685600  1
  Mn  Mn13  1  0.30423000  0.06056800  0.10502000  1
  O  O14  1  0.00894000  0.04054300  0.85063000  1
  O  O15  1  0.00865300  0.54060400  0.85083400  1
  O  O16  1  0.95451900  0.45786900  0.12550100  1
  O  O17  1  0.95464900  0.95777400  0.12528700  1
  O  O18  1  0.35192900  0.36429900  0.93545400  1
  O  O19  1  0.35222000  0.86438000  0.93552000  1
  O  O20  1  0.64999000  0.13445900  0.06553100  1
  O  O21  1  0.64972800  0.63456700  0.06585500  1
  O  O22  1  0.09496200  0.14546800  0.51712700  1
  O  O23  1  0.09526200  0.64537300  0.51719900  1
  O  O24  1  0.92310600  0.35622300  0.48446000  1
  O  O25  1  0.92387500  0.85618100  0.48480100  1
  O  O26  1  0.17830800  0.24106000  0.21063200  1
  O  O27  1  0.17827400  0.74106400  0.21060300  1
  O  O28  1  0.81793400  0.26457400  0.78252800  1
  O  O29  1  0.81794800  0.76453500  0.78250100  1
  O  O30  1  0.47492800  0.43618500  0.68746800  1
  O  O31  1  0.47526300  0.93623300  0.68761400  1
  O  O32  1  0.55257800  0.06450200  0.34350100  1
  O  O33  1  0.55291800  0.56452000  0.34353700  1
