# generated using pymatgen
data_Li10Zn(PS4)4
_symmetry_space_group_name_H-M   'P 1'
_cell_length_a   6.18418300
_cell_length_b   10.23460996
_cell_length_c   10.27875122
_cell_angle_alpha   78.84645003
_cell_angle_beta   89.75015815
_cell_angle_gamma   89.92417185
_symmetry_Int_Tables_number   1
_chemical_formula_structural   Li10Zn(PS4)4
_chemical_formula_sum   'Li10 Zn1 P4 S16'
_cell_volume   638.27601285
_cell_formula_units_Z   1
loop_
 _symmetry_equiv_pos_site_id
 _symmetry_equiv_pos_as_xyz
  1  'x, y, z'
loop_
 _atom_site_type_symbol
 _atom_site_label
 _atom_site_symmetry_multiplicity
 _atom_site_fract_x
 _atom_site_fract_y
 _atom_site_fract_z
 _atom_site_occupancy
  Li  Li0  1  0.00553900  0.53595800  0.22071600  1
  Li  Li1  1  0.49513100  0.21313100  0.53339000  1
  Li  Li2  1  0.49818100  0.72055800  0.02864600  1
  Li  Li3  1  0.49314300  0.97954100  0.26657700  1
  Li  Li4  1  0.49810900  0.46251700  0.79448900  1
  Li  Li5  1  0.99579400  0.78135500  0.45537600  1
  Li  Li6  1  0.99573400  0.27006700  0.97242200  1
  Li  Li7  1  0.48902600  0.57075300  0.43054700  1
  Li  Li8  1  0.99475900  0.17063800  0.31498600  1
  Li  Li9  1  0.98749200  0.67534000  0.82392700  1
  Zn  Zn10  1  0.99467000  0.03356700  0.73035000  1
  P  P11  1  0.00342000  0.40706100  0.59967100  1
  P  P12  1  0.00802500  0.90738900  0.08122200  1
  P  P13  1  0.48554800  0.84032100  0.65476000  1
  P  P14  1  0.49812400  0.34720200  0.16471700  1
  S  S15  1  0.89085200  0.55082800  0.44758900  1
  S  S16  1  0.86610100  0.05498400  0.93719600  1
  S  S17  1  0.33474400  0.40032800  0.60389600  1
  S  S18  1  0.33310400  0.91633100  0.07692200  1
  S  S19  1  0.89202100  0.22324800  0.56283800  1
  S  S20  1  0.89530400  0.72590300  0.04983900  1
  S  S21  1  0.37757900  0.01825100  0.69598200  1
  S  S22  1  0.39855100  0.52840800  0.20532500  1
  S  S23  1  0.82779900  0.85387000  0.64765700  1
  S  S24  1  0.83308900  0.34908200  0.15638400  1
  S  S25  1  0.39355100  0.19466100  0.31480400  1
  S  S26  1  0.39092800  0.68911100  0.80427800  1
  S  S27  1  0.39269100  0.80556300  0.47320600  1
  S  S28  1  0.38292200  0.31220500  0.99123400  1
  S  S29  1  0.88737100  0.94473300  0.25925000  1
  S  S30  1  0.89118100  0.44142400  0.77747700  1
