# generated using pymatgen
data_Li5Fe3(SbO5)2
_symmetry_space_group_name_H-M   'P 1'
_cell_length_a   6.92868480
_cell_length_b   8.17646298
_cell_length_c   8.26959198
_cell_angle_alpha   95.33417681
_cell_angle_beta   65.47914548
_cell_angle_gamma   91.33032548
_symmetry_Int_Tables_number   1
_chemical_formula_structural   Li5Fe3(SbO5)2
_chemical_formula_sum   'Li10 Fe6 Sb4 O20'
_cell_volume   424.33013616
_cell_formula_units_Z   2
loop_
 _symmetry_equiv_pos_site_id
 _symmetry_equiv_pos_as_xyz
  1  'x, y, z'
loop_
 _atom_site_type_symbol
 _atom_site_label
 _atom_site_symmetry_multiplicity
 _atom_site_fract_x
 _atom_site_fract_y
 _atom_site_fract_z
 _atom_site_occupancy
  Li  Li0  1  0.99963000  0.00199300  0.50076000  1
  Li  Li1  1  0.51234300  0.50408600  0.49434700  1
  Li  Li2  1  0.16007400  0.33186700  0.39964600  1
  Li  Li3  1  0.65365800  0.84325500  0.41271700  1
  Li  Li4  1  0.83670700  0.67001000  0.59692400  1
  Li  Li5  1  0.33618700  0.17807900  0.59542100  1
  Li  Li6  1  0.54357800  0.95256000  0.80237400  1
  Li  Li7  1  0.05583100  0.43948400  0.80937800  1
  Li  Li8  1  0.46117200  0.05749400  0.17870400  1
  Li  Li9  1  0.95155500  0.54195900  0.21177700  1
  Fe  Fe10  1  0.75204500  0.75161000  0.00561700  1
  Fe  Fe11  1  0.90959800  0.09952300  0.88547300  1
  Fe  Fe12  1  0.59494400  0.40169800  0.10966300  1
  Fe  Fe13  1  0.25039600  0.25049000  0.99645500  1
  Fe  Fe14  1  0.39937800  0.59564300  0.89605300  1
  Fe  Fe15  1  0.09792700  0.89815600  0.10683100  1
  Sb  Sb16  1  0.71153600  0.30339000  0.70379400  1
  Sb  Sb17  1  0.20591600  0.79829700  0.70035500  1
  Sb  Sb18  1  0.29521200  0.69875200  0.30298100  1
  Sb  Sb19  1  0.79534800  0.19954600  0.29517100  1
  O  O20  1  0.22729100  0.00418900  0.84554200  1
  O  O21  1  0.71271200  0.53262300  0.88049300  1
  O  O22  1  0.78669700  0.98684500  0.14062400  1
  O  O23  1  0.27460000  0.48734300  0.16866800  1
  O  O24  1  0.57640300  0.16786600  0.94054700  1
  O  O25  1  0.08761100  0.68225800  0.92614100  1
  O  O26  1  0.41373400  0.81760400  0.07706100  1
  O  O27  1  0.91071500  0.31472100  0.06652500  1
  O  O28  1  0.69628800  0.07569200  0.51301100  1
  O  O29  1  0.18300500  0.59369000  0.54145000  1
  O  O30  1  0.31021400  0.90393600  0.46326200  1
  O  O31  1  0.82232100  0.41416100  0.42200000  1
  O  O32  1  0.10461000  0.13726800  0.23616500  1
  O  O33  1  0.59411100  0.64139700  0.25972400  1
  O  O34  1  0.90469000  0.86134800  0.74897300  1
  O  O35  1  0.34520400  0.37628100  0.77834500  1
  O  O36  1  0.02285900  0.22008200  0.65585000  1
  O  O37  1  0.50241300  0.73233500  0.65880300  1
  O  O38  1  0.00388000  0.76956500  0.33781300  1
  O  O39  1  0.49760300  0.26290600  0.33456500  1
