# generated using pymatgen
data_Li3MnV(PO4)3
_symmetry_space_group_name_H-M   'P 1'
_cell_length_a   8.66114100
_cell_length_b   8.69008813
_cell_length_c   12.64106087
_cell_angle_alpha   105.60465511
_cell_angle_beta   105.95923871
_cell_angle_gamma   95.73643500
_symmetry_Int_Tables_number   1
_chemical_formula_structural   Li3MnV(PO4)3
_chemical_formula_sum   'Li12 Mn4 V4 P12 O48'
_cell_volume   865.37646851
_cell_formula_units_Z   4
loop_
 _symmetry_equiv_pos_site_id
 _symmetry_equiv_pos_as_xyz
  1  'x, y, z'
loop_
 _atom_site_type_symbol
 _atom_site_label
 _atom_site_symmetry_multiplicity
 _atom_site_fract_x
 _atom_site_fract_y
 _atom_site_fract_z
 _atom_site_occupancy
  Li  Li0  1  0.00359600  0.00097400  0.12470600  1
  Li  Li1  1  0.99547100  0.99387000  0.62538700  1
  Li  Li2  1  0.71159400  0.29201000  0.37608200  1
  Li  Li3  1  0.49949800  0.50017900  0.25118100  1
  Li  Li4  1  0.71229000  0.29104600  0.87551000  1
  Li  Li5  1  0.50185200  0.50077600  0.49936800  1
  Li  Li6  1  0.29058800  0.71051300  0.12475700  1
  Li  Li7  1  0.50129700  0.50174500  0.74920800  1
  Li  Li8  1  0.50017600  0.49991800  0.00116200  1
  Li  Li9  1  0.28774900  0.70691400  0.62297700  1
  Li  Li10  1  0.00483700  0.00071500  0.37331000  1
  Li  Li11  1  0.99710000  0.00669400  0.87406100  1
  Mn  Mn12  1  0.94094800  0.63299900  0.68474000  1
  Mn  Mn13  1  0.37386600  0.05412300  0.06467500  1
  Mn  Mn14  1  0.05545800  0.37430000  0.31529300  1
  Mn  Mn15  1  0.05723700  0.37106200  0.81422700  1
  V  V16  1  0.94151100  0.62314600  0.18083600  1
  V  V17  1  0.62182100  0.94328700  0.43018500  1
  V  V18  1  0.62302600  0.94260900  0.93136400  1
  V  V19  1  0.38027400  0.05559700  0.56869400  1
  P  P20  1  0.71081800  0.28701900  0.12519200  1
  P  P21  1  0.85964600  0.66496900  0.43366300  1
  P  P22  1  0.66720800  0.86085500  0.18273800  1
  P  P23  1  0.71547400  0.29169600  0.62446500  1
  P  P24  1  0.85998400  0.66684000  0.93057800  1
  P  P25  1  0.66333700  0.87019400  0.68327500  1
  P  P26  1  0.33778700  0.13279700  0.31527500  1
  P  P27  1  0.13304400  0.33848800  0.06719100  1
  P  P28  1  0.28605200  0.70940300  0.37462100  1
  P  P29  1  0.33668800  0.13227900  0.81863100  1
  P  P30  1  0.14229900  0.33401300  0.56752200  1
  P  P31  1  0.28562600  0.70976800  0.87440400  1
  O  O32  1  0.98557400  0.66227900  0.04424900  1
  O  O33  1  0.94743000  0.61527300  0.33979800  1
  O  O34  1  0.74004300  0.17653700  0.01668600  1
  O  O35  1  0.98504100  0.66212600  0.54942500  1
  O  O36  1  0.82612600  0.26709300  0.23859200  1
  O  O37  1  0.85110300  0.84180000  0.20205000  1
  O  O38  1  0.73127700  0.46297300  0.11697000  1
  O  O39  1  0.84083700  0.84811600  0.45358100  1
  O  O40  1  0.94653800  0.61545200  0.83522100  1
  O  O41  1  0.74100000  0.17580900  0.51620800  1
  O  O42  1  0.82626300  0.26866500  0.73789600  1
  O  O43  1  0.84771400  0.86127400  0.69886600  1
  O  O44  1  0.70073200  0.54470300  0.39823100  1
  O  O45  1  0.61594100  0.94641400  0.08756100  1
  O  O46  1  0.66434000  0.98657700  0.29617400  1
  O  O47  1  0.53568900  0.25572900  0.13538200  1
  O  O48  1  0.74107800  0.46595400  0.61383800  1
  O  O49  1  0.54635600  0.70268400  0.14856800  1
  O  O50  1  0.84196600  0.84980000  0.94896500  1
  O  O51  1  0.70090400  0.54691700  0.89608500  1
  O  O52  1  0.59915800  0.95506000  0.58756600  1
  O  O53  1  0.45234600  0.29505600  0.35097800  1
  O  O54  1  0.65973700  0.99317400  0.79747600  1
  O  O55  1  0.53884900  0.26508700  0.63251400  1
  O  O56  1  0.46380900  0.73315000  0.36878600  1
  O  O57  1  0.34000300  0.01114300  0.19904300  1
  O  O58  1  0.55048800  0.70719600  0.64950700  1
  O  O59  1  0.40107700  0.04491800  0.40973300  1
  O  O60  1  0.29636900  0.45197500  0.10322900  1
  O  O61  1  0.14184800  0.15559200  0.05297500  1
  O  O62  1  0.45036700  0.29494600  0.85356500  1
  O  O63  1  0.25814000  0.53361200  0.38409200  1
  O  O64  1  0.46135700  0.73363500  0.86567100  1
  O  O65  1  0.34100800  0.01096000  0.70432200  1
  O  O66  1  0.40274500  0.04521900  0.91425800  1
  O  O67  1  0.30101600  0.45484900  0.60325000  1
  O  O68  1  0.15379200  0.14257900  0.29993700  1
  O  O69  1  0.17623300  0.73622700  0.26379500  1
  O  O70  1  0.26125900  0.82358800  0.48425600  1
  O  O71  1  0.04415600  0.40271800  0.16175600  1
  O  O72  1  0.16156000  0.15127500  0.54920400  1
  O  O73  1  0.25751800  0.53658900  0.88669700  1
  O  O74  1  0.15316800  0.14103800  0.80499200  1
  O  O75  1  0.17396500  0.73406300  0.76230800  1
  O  O76  1  0.01694900  0.33674300  0.45224400  1
  O  O77  1  0.26323300  0.82583600  0.98544600  1
  O  O78  1  0.05409700  0.38454000  0.66207200  1
  O  O79  1  0.01164800  0.34225800  0.95070500  1
