# generated using pymatgen
data_LiMg14BO15
_symmetry_space_group_name_H-M   'P 1'
_cell_length_a   4.28609200
_cell_length_b   8.40067200
_cell_length_c   8.58108000
_cell_angle_alpha   90.00000000
_cell_angle_beta   90.00000000
_cell_angle_gamma   90.00000000
_symmetry_Int_Tables_number   1
_chemical_formula_structural   LiMg14BO15
_chemical_formula_sum   'Li1 Mg14 B1 O15'
_cell_volume   308.97082174
_cell_formula_units_Z   1
loop_
 _symmetry_equiv_pos_site_id
 _symmetry_equiv_pos_as_xyz
  1  'x, y, z'
loop_
 _atom_site_type_symbol
 _atom_site_label
 _atom_site_symmetry_multiplicity
 _atom_site_fract_x
 _atom_site_fract_y
 _atom_site_fract_z
 _atom_site_occupancy
  Li  Li0  1  0.00000000  0.00000000  0.00850600  1
  Mg  Mg1  1  0.00000000  0.50000000  0.00153000  1
  Mg  Mg2  1  0.00000000  0.00000000  0.50873700  1
  Mg  Mg3  1  0.50000000  0.75609200  0.99994900  1
  Mg  Mg4  1  0.50000000  0.24390800  0.99994900  1
  Mg  Mg5  1  0.50000000  0.73509000  0.49923900  1
  Mg  Mg6  1  0.50000000  0.26491000  0.49923900  1
  Mg  Mg7  1  0.50000000  0.00000000  0.75308000  1
  Mg  Mg8  1  0.50000000  0.50000000  0.74515000  1
  Mg  Mg9  1  0.50000000  0.00000000  0.24732400  1
  Mg  Mg10  1  0.50000000  0.50000000  0.24915600  1
  Mg  Mg11  1  0.00000000  0.73523700  0.75691100  1
  Mg  Mg12  1  0.00000000  0.26476300  0.75691100  1
  Mg  Mg13  1  0.00000000  0.75746600  0.24236500  1
  Mg  Mg14  1  0.00000000  0.24253400  0.24236500  1
  B  B15  1  0.00000000  0.50000000  0.44074500  1
  O  O16  1  0.00000000  0.50000000  0.77229800  1
  O  O17  1  0.00000000  0.00000000  0.27309000  1
  O  O18  1  0.00000000  0.50000000  0.26756000  1
  O  O19  1  0.50000000  0.74836500  0.74584600  1
  O  O20  1  0.50000000  0.25163500  0.74584600  1
  O  O21  1  0.50000000  0.75121900  0.25271400  1
  O  O22  1  0.50000000  0.24878100  0.25271400  1
  O  O23  1  0.50000000  0.00000000  0.99789600  1
  O  O24  1  0.50000000  0.50000000  0.01076600  1
  O  O25  1  0.50000000  0.00000000  0.49979000  1
  O  O26  1  0.50000000  0.50000000  0.48756100  1
  O  O27  1  0.00000000  0.74645400  0.00500100  1
  O  O28  1  0.00000000  0.25354600  0.00500100  1
  O  O29  1  0.00000000  0.67084200  0.49138200  1
  O  O30  1  0.00000000  0.32915800  0.49138200  1
