# generated using pymatgen
data_Li5MnO3F
_symmetry_space_group_name_H-M   'P 1'
_cell_length_a   4.74680033
_cell_length_b   6.78557362
_cell_length_c   13.47365458
_cell_angle_alpha   94.01241710
_cell_angle_beta   98.73117026
_cell_angle_gamma   78.69003062
_symmetry_Int_Tables_number   1
_chemical_formula_structural   Li5MnO3F
_chemical_formula_sum   'Li20 Mn4 O12 F4'
_cell_volume   420.26193206
_cell_formula_units_Z   4
loop_
 _symmetry_equiv_pos_site_id
 _symmetry_equiv_pos_as_xyz
  1  'x, y, z'
loop_
 _atom_site_type_symbol
 _atom_site_label
 _atom_site_symmetry_multiplicity
 _atom_site_fract_x
 _atom_site_fract_y
 _atom_site_fract_z
 _atom_site_occupancy
  Li  Li0  1  0.73070800  0.48638800  0.24094200  1
  Li  Li1  1  0.25254400  0.47724500  0.74056100  1
  Li  Li2  1  0.14435600  0.76359300  0.38406100  1
  Li  Li3  1  0.62244100  0.77272800  0.88443900  1
  Li  Li4  1  0.50304600  0.97297000  0.26588700  1
  Li  Li5  1  0.02036400  0.96746600  0.77208500  1
  Li  Li6  1  0.14392800  0.71493500  0.13813900  1
  Li  Li7  1  0.65023200  0.70914200  0.64165000  1
  Li  Li8  1  0.37201500  0.27698300  0.35910500  1
  Li  Li9  1  0.85462200  0.28253700  0.85292300  1
  Li  Li10  1  0.73103100  0.53508900  0.48685700  1
  Li  Li11  1  0.22477200  0.54085900  0.98335200  1
  Li  Li12  1  0.59245800  0.78543100  0.10002200  1
  Li  Li13  1  0.10413500  0.77695900  0.60672800  1
  Li  Li14  1  0.89123700  0.20868300  0.39045700  1
  Li  Li15  1  0.37868000  0.20473300  0.89032900  1
  Li  Li16  1  0.77088700  0.47302700  0.01828100  1
  Li  Li17  1  0.28250100  0.46459800  0.52496200  1
  Li  Li18  1  0.98381600  0.04129600  0.23455100  1
  Li  Li19  1  0.49631700  0.04524700  0.73468300  1
  Mn  Mn20  1  0.89214700  0.24709500  0.62632100  1
  Mn  Mn21  1  0.98277800  0.00294000  0.99869000  1
  Mn  Mn22  1  0.41612900  0.23978000  0.11779400  1
  Mn  Mn23  1  0.45890300  0.01016900  0.50720900  1
  O  O24  1  0.24062000  0.97706500  0.13000800  1
  O  O25  1  0.78066100  0.98224600  0.64052200  1
  O  O26  1  0.63427000  0.27298700  0.49499500  1
  O  O27  1  0.09440500  0.26774000  0.98446800  1
  O  O28  1  0.63926700  0.22587400  0.26353400  1
  O  O29  1  0.13562400  0.22287500  0.75674800  1
  O  O30  1  0.48887400  0.52852500  0.10935300  1
  O  O31  1  0.98847600  0.51148800  0.61481000  1
  O  O32  1  0.88647900  0.73852200  0.01018000  1
  O  O33  1  0.38605100  0.72149400  0.51566400  1
  O  O34  1  0.23584500  0.02406000  0.36146400  1
  O  O35  1  0.73930100  0.02714800  0.86825900  1
  F  F36  1  0.85760500  0.76884700  0.23915300  1
  F  F37  1  0.37313100  0.76975500  0.74137300  1
  F  F38  1  0.01745700  0.48114300  0.38580800  1
  F  F39  1  0.50188500  0.48033900  0.88363200  1
