# generated using pymatgen
data_Li4MnCo2O7
_symmetry_space_group_name_H-M   'P 1'
_cell_length_a   5.00387800
_cell_length_b   5.09205835
_cell_length_c   10.68810235
_cell_angle_alpha   85.39412122
_cell_angle_beta   76.76833447
_cell_angle_gamma   72.27822003
_symmetry_Int_Tables_number   1
_chemical_formula_structural   Li4MnCo2O7
_chemical_formula_sum   'Li8 Mn2 Co4 O14'
_cell_volume   252.50665534
_cell_formula_units_Z   2
loop_
 _symmetry_equiv_pos_site_id
 _symmetry_equiv_pos_as_xyz
  1  'x, y, z'
loop_
 _atom_site_type_symbol
 _atom_site_label
 _atom_site_symmetry_multiplicity
 _atom_site_fract_x
 _atom_site_fract_y
 _atom_site_fract_z
 _atom_site_occupancy
  Li  Li0  1  0.07312000  0.50632400  0.84499700  1
  Li  Li1  1  0.64911900  0.49905100  0.70408200  1
  Li  Li2  1  0.21459900  0.49773600  0.57277500  1
  Li  Li3  1  0.78148500  0.50073000  0.43426000  1
  Li  Li4  1  0.34887900  0.50176300  0.29299700  1
  Li  Li5  1  0.92756300  0.49869500  0.14863100  1
  Li  Li6  1  0.50645500  0.49795900  0.99864800  1
  Li  Li7  1  0.14137200  0.00201600  0.71149200  1
  Mn  Mn8  1  0.00485700  0.99444200  0.99721700  1
  Mn  Mn9  1  0.57559300  0.99837300  0.85395800  1
  Co  Co10  1  0.70684000  0.00395200  0.57882300  1
  Co  Co11  1  0.27944400  0.00344700  0.43474500  1
  Co  Co12  1  0.85849700  0.00196400  0.28916500  1
  Co  Co13  1  0.42845900  0.99790100  0.14247000  1
  O  O14  1  0.76312000  0.76876400  0.99045100  1
  O  O15  1  0.31371200  0.78033700  0.86968500  1
  O  O16  1  0.85462600  0.76893100  0.72673200  1
  O  O17  1  0.47232800  0.77225500  0.56653700  1
  O  O18  1  0.03404800  0.77241300  0.42694600  1
  O  O19  1  0.60035000  0.77689300  0.27339800  1
  O  O20  1  0.17727300  0.77629200  0.13758800  1
  O  O21  1  0.41341800  0.23517300  0.72631100  1
  O  O22  1  0.95790900  0.23269800  0.56687000  1
  O  O23  1  0.53348200  0.23293900  0.42378900  1
  O  O24  1  0.10198800  0.23745400  0.28200500  1
  O  O25  1  0.69560600  0.20968100  0.13431400  1
  O  O26  1  0.26598100  0.21151700  0.00074000  1
  O  O27  1  0.81987700  0.22030400  0.87037400  1
