# generated using pymatgen
data_Ba2Li3Y3(MoO4)8
_symmetry_space_group_name_H-M   'P 1'
_cell_length_a   5.29310600
_cell_length_b   6.97660703
_cell_length_c   19.32710549
_cell_angle_alpha   89.05269416
_cell_angle_beta   88.90205182
_cell_angle_gamma   68.04069445
_symmetry_Int_Tables_number   1
_chemical_formula_structural   Ba2Li3Y3(MoO4)8
_chemical_formula_sum   'Ba2 Li3 Y3 Mo8 O32'
_cell_volume   661.77464367
_cell_formula_units_Z   1
loop_
 _symmetry_equiv_pos_site_id
 _symmetry_equiv_pos_as_xyz
  1  'x, y, z'
loop_
 _atom_site_type_symbol
 _atom_site_label
 _atom_site_symmetry_multiplicity
 _atom_site_fract_x
 _atom_site_fract_y
 _atom_site_fract_z
 _atom_site_occupancy
  Ba  Ba0  1  0.02850300  0.94159100  0.73737800  1
  Ba  Ba1  1  0.96943000  0.05953800  0.26569300  1
  Li  Li2  1  0.30914200  0.37063800  0.74236200  1
  Li  Li3  1  0.69408000  0.62611200  0.25894800  1
  Li  Li4  1  0.84984000  0.29258700  0.46483900  1
  Y  Y5  1  0.85689000  0.29527300  0.03348900  1
  Y  Y6  1  0.15108900  0.70659600  0.52830400  1
  Y  Y7  1  0.14286900  0.70520600  0.96777400  1
  Mo  Mo8  1  0.73452900  0.52445800  0.65016800  1
  Mo  Mo9  1  0.73608900  0.52131000  0.84977500  1
  Mo  Mo10  1  0.26709300  0.47388900  0.35072400  1
  Mo  Mo11  1  0.26437500  0.47914700  0.15057700  1
  Mo  Mo12  1  0.42917100  0.11785500  0.58993000  1
  Mo  Mo13  1  0.45235600  0.12033700  0.90834900  1
  Mo  Mo14  1  0.56854400  0.88351800  0.40841000  1
  Mo  Mo15  1  0.54823200  0.87917800  0.09182300  1
  O  O16  1  0.47593900  0.59830800  0.71842000  1
  O  O17  1  0.93232000  0.60288300  0.78947700  1
  O  O18  1  0.52309800  0.40395800  0.28126400  1
  O  O19  1  0.06570900  0.39702300  0.20957300  1
  O  O20  1  0.30265400  0.90959800  0.60586100  1
  O  O21  1  0.77471300  0.91035900  0.89719100  1
  O  O22  1  0.68166200  0.09210100  0.39367400  1
  O  O23  1  0.22654700  0.08891700  0.10234000  1
  O  O24  1  0.90662900  0.70415500  0.63531800  1
  O  O25  1  0.39103800  0.70396000  0.86813200  1
  O  O26  1  0.10653600  0.29139100  0.36282400  1
  O  O27  1  0.60935300  0.29527100  0.13171900  1
  O  O28  1  0.58591400  0.48579100  0.57135300  1
  O  O29  1  0.92615400  0.48034200  0.93275200  1
  O  O30  1  0.40147900  0.52695400  0.43096600  1
  O  O31  1  0.07578000  0.51922800  0.06737700  1
  O  O32  1  0.73510300  0.02686100  0.53790100  1
  O  O33  1  0.22194500  0.03767300  0.96364900  1
  O  O34  1  0.26994900  0.95561700  0.46509900  1
  O  O35  1  0.77812100  0.96164000  0.03604500  1
  O  O36  1  0.17992200  0.34207700  0.54863400  1
  O  O37  1  0.48956100  0.33774000  0.95653600  1
  O  O38  1  0.83368100  0.67491100  0.45385200  1
  O  O39  1  0.51188200  0.66156400  0.04307600  1
  O  O40  1  0.53864400  0.16725700  0.67383900  1
  O  O41  1  0.29072900  0.17569000  0.82755000  1
  O  O42  1  0.45856300  0.83028300  0.32534000  1
  O  O43  1  0.70982900  0.82404700  0.17226600  1
  O  O44  1  0.99523500  0.29623000  0.68211200  1
  O  O45  1  0.72026200  0.28367800  0.82421800  1
  O  O46  1  0.00016600  0.69942100  0.31790600  1
  O  O47  1  0.27865200  0.71784000  0.17519300  1
