# generated using pymatgen
data_Li7Mn4CoO12
_symmetry_space_group_name_H-M   'P 1'
_cell_length_a   5.70523149
_cell_length_b   8.06780116
_cell_length_c   10.45708745
_cell_angle_alpha   68.54182377
_cell_angle_beta   98.39166855
_cell_angle_gamma   100.29925959
_symmetry_Int_Tables_number   1
_chemical_formula_structural   Li7Mn4CoO12
_chemical_formula_sum   'Li14 Mn8 Co2 O24'
_cell_volume   439.03692088
_cell_formula_units_Z   2
loop_
 _symmetry_equiv_pos_site_id
 _symmetry_equiv_pos_as_xyz
  1  'x, y, z'
loop_
 _atom_site_type_symbol
 _atom_site_label
 _atom_site_symmetry_multiplicity
 _atom_site_fract_x
 _atom_site_fract_y
 _atom_site_fract_z
 _atom_site_occupancy
  Li  Li0  1  0.83333000  0.33333100  0.99999900  1
  Li  Li1  1  0.83333300  0.83333100  0.50000100  1
  Li  Li2  1  0.75025100  0.25333800  0.76209900  1
  Li  Li3  1  0.75065400  0.75306700  0.26239800  1
  Li  Li4  1  0.91641000  0.41332600  0.23790000  1
  Li  Li5  1  0.91601100  0.91359800  0.73760100  1
  Li  Li6  1  0.59224200  0.61777700  0.73351800  1
  Li  Li7  1  0.59229800  0.11767000  0.23365400  1
  Li  Li8  1  0.07436500  0.54899200  0.76634700  1
  Li  Li9  1  0.07442200  0.04889000  0.26647800  1
  Li  Li10  1  0.41899000  0.41044000  0.24709000  1
  Li  Li11  1  0.41769400  0.91093500  0.74704900  1
  Li  Li12  1  0.24767400  0.25622500  0.75290700  1
  Li  Li13  1  0.24896700  0.75572700  0.25294800  1
  Mn  Mn14  1  0.50039600  0.50010300  0.50433100  1
  Mn  Mn15  1  0.50034800  0.99965800  0.00478000  1
  Mn  Mn16  1  0.16631700  0.66700900  0.99521800  1
  Mn  Mn17  1  0.16626300  0.16656800  0.49567900  1
  Mn  Mn18  1  0.99770600  0.00819400  0.00084200  1
  Mn  Mn19  1  0.99772100  0.50844800  0.50047300  1
  Mn  Mn20  1  0.66896200  0.65848100  0.99915600  1
  Mn  Mn21  1  0.66894800  0.15822000  0.49952900  1
  Co  Co22  1  0.33333500  0.83333500  0.49999800  1
  Co  Co23  1  0.33333200  0.33333600  0.99999700  1
  O  O24  1  0.70743300  0.47102700  0.38578800  1
  O  O25  1  0.70633500  0.97184100  0.88584000  1
  O  O26  1  0.96033600  0.69482500  0.11416600  1
  O  O27  1  0.95924600  0.19564300  0.61421200  1
  O  O28  1  0.51960900  0.24931900  0.90236500  1
  O  O29  1  0.52140200  0.74824800  0.40146200  1
  O  O30  1  0.14705200  0.41734500  0.09763100  1
  O  O31  1  0.14526600  0.91841800  0.59853400  1
  O  O32  1  0.37787400  0.63941100  0.87721700  1
  O  O33  1  0.37800600  0.13813300  0.37810200  1
  O  O34  1  0.28867600  0.52853200  0.62189800  1
  O  O35  1  0.28879600  0.02725300  0.12278900  1
  O  O36  1  0.20833100  0.43795800  0.39486900  1
  O  O37  1  0.20795800  0.93865300  0.89507400  1
  O  O38  1  0.45870600  0.72801100  0.10492600  1
  O  O39  1  0.45834200  0.22871100  0.60513500  1
  O  O40  1  0.05765600  0.28936200  0.88608100  1
  O  O41  1  0.05932500  0.78927400  0.38637500  1
  O  O42  1  0.60900700  0.37730200  0.11391700  1
  O  O43  1  0.60734200  0.87739700  0.61362200  1
  O  O44  1  0.88469800  0.64102700  0.87623800  1
  O  O45  1  0.88517900  0.14065600  0.37651600  1
  O  O46  1  0.78148800  0.52601400  0.62349200  1
  O  O47  1  0.78196600  0.02563800  0.12376000  1
