# generated using pymatgen
data_LiOsO3
_symmetry_space_group_name_H-M   'P 1'
_cell_length_a   5.29594771
_cell_length_b   5.29594771
_cell_length_c   5.29594771
_cell_angle_alpha   58.43829598
_cell_angle_beta   58.43829598
_cell_angle_gamma   58.43829429
_symmetry_Int_Tables_number   1
_chemical_formula_structural   LiOsO3
_chemical_formula_sum   'Li2 Os2 O6'
_cell_volume   101.27710179
_cell_formula_units_Z   2
loop_
 _symmetry_equiv_pos_site_id
 _symmetry_equiv_pos_as_xyz
  1  'x, y, z'
loop_
 _atom_site_type_symbol
 _atom_site_label
 _atom_site_symmetry_multiplicity
 _atom_site_fract_x
 _atom_site_fract_y
 _atom_site_fract_z
 _atom_site_occupancy
  Li  Li0  1  0.25000000  0.25000000  0.25000000  1
  Li  Li1  1  0.75000000  0.75000000  0.75000000  1
  Os  Os2  1  0.50000000  0.50000000  0.50000000  1
  Os  Os3  1  0.00000000  0.00000000  0.00000000  1
  O  O4  1  0.62355700  0.87644300  0.25000000  1
  O  O5  1  0.25000000  0.62355700  0.87644300  1
  O  O6  1  0.87644300  0.25000000  0.62355700  1
  O  O7  1  0.75000000  0.37644300  0.12355700  1
  O  O8  1  0.12355700  0.75000000  0.37644300  1
  O  O9  1  0.37644300  0.12355700  0.75000000  1
