# generated using pymatgen
data_Li3Ti2(PO4)3
_symmetry_space_group_name_H-M   'P 1'
_cell_length_a   8.90834000
_cell_length_b   8.48878900
_cell_length_c   12.42124891
_cell_angle_alpha   86.36044389
_cell_angle_beta   90.00000000
_cell_angle_gamma   90.00000000
_symmetry_Int_Tables_number   1
_chemical_formula_structural   Li3Ti2(PO4)3
_chemical_formula_sum   'Li12 Ti8 P12 O48'
_cell_volume   937.41304391
_cell_formula_units_Z   4
loop_
 _symmetry_equiv_pos_site_id
 _symmetry_equiv_pos_as_xyz
  1  'x, y, z'
loop_
 _atom_site_type_symbol
 _atom_site_label
 _atom_site_symmetry_multiplicity
 _atom_site_fract_x
 _atom_site_fract_y
 _atom_site_fract_z
 _atom_site_occupancy
  Li  Li0  1  0.19467100  0.71148300  0.95173900  1
  Li  Li1  1  0.59655900  0.50000000  0.75000000  1
  Li  Li2  1  0.19467100  0.28851700  0.54826100  1
  Li  Li3  1  0.50000000  0.50000000  0.50000000  1
  Li  Li4  1  0.00000000  0.00000000  0.50000000  1
  Li  Li5  1  0.80532900  0.71148300  0.45173900  1
  Li  Li6  1  0.40344100  0.50000000  0.25000000  1
  Li  Li7  1  0.90567800  0.00000000  0.75000000  1
  Li  Li8  1  0.09432200  0.00000000  0.25000000  1
  Li  Li9  1  0.50000000  0.50000000  0.00000000  1
  Li  Li10  1  0.00000000  0.00000000  0.00000000  1
  Li  Li11  1  0.80532900  0.28851700  0.04826100  1
  Ti  Ti12  1  0.50112400  0.78983200  0.85404400  1
  Ti  Ti13  1  0.00507600  0.71346500  0.64163600  1
  Ti  Ti14  1  0.00507600  0.28653500  0.85836400  1
  Ti  Ti15  1  0.50112400  0.21016800  0.64595600  1
  Ti  Ti16  1  0.49887600  0.78983200  0.35404400  1
  Ti  Ti17  1  0.99492400  0.71346500  0.14163600  1
  Ti  Ti18  1  0.99492400  0.28653500  0.35836400  1
  Ti  Ti19  1  0.49887600  0.21016800  0.14595600  1
  P  P20  1  0.29604900  0.50000000  0.75000000  1
  P  P21  1  0.85156400  0.64984600  0.89707100  1
  P  P22  1  0.64629900  0.84411700  0.60250700  1
  P  P23  1  0.19971400  0.00000000  0.75000000  1
  P  P24  1  0.14843600  0.64984600  0.39707100  1
  P  P25  1  0.64629900  0.15588300  0.89749300  1
  P  P26  1  0.85156400  0.35015400  0.60292900  1
  P  P27  1  0.35370100  0.84411700  0.10250700  1
  P  P28  1  0.35370100  0.15588300  0.39749300  1
  P  P29  1  0.14843600  0.35015400  0.10292900  1
  P  P30  1  0.70395100  0.50000000  0.25000000  1
  P  P31  1  0.80028600  0.00000000  0.25000000  1
  O  O32  1  0.29356200  0.87017700  0.80918400  1
  O  O33  1  0.58546800  0.98696400  0.89906000  1
  O  O34  1  0.09068900  0.93627200  0.66325600  1
  O  O35  1  0.40177800  0.56977300  0.83539300  1
  O  O36  1  0.19689800  0.37847500  0.81274300  1
  O  O37  1  0.67850800  0.65043200  0.91067600  1
  O  O38  1  0.93412300  0.74992500  0.98012000  1
  O  O39  1  0.19689800  0.62152500  0.68725700  1
  O  O40  1  0.09068900  0.06372800  0.83674400  1
  O  O41  1  0.06587700  0.74992500  0.48012000  1
  O  O42  1  0.59287800  0.25411300  0.99215000  1
  O  O43  1  0.59994400  0.75171400  0.70821700  1
  O  O44  1  0.41453200  0.98696400  0.39906000  1
  O  O45  1  0.89565000  0.47258600  0.91155400  1
  O  O46  1  0.90258300  0.72396800  0.78595400  1
  O  O47  1  0.40177800  0.43022700  0.66460700  1
  O  O48  1  0.09741700  0.72396800  0.28595400  1
  O  O49  1  0.59994400  0.24828600  0.79178300  1
  O  O50  1  0.82125500  0.85768400  0.58797900  1
  O  O51  1  0.59287800  0.74588700  0.50785000  1
  O  O52  1  0.29356200  0.12982300  0.69081600  1
  O  O53  1  0.10435000  0.47258600  0.41155400  1
  O  O54  1  0.32149200  0.65043200  0.41067600  1
  O  O55  1  0.82125500  0.14231600  0.91202100  1
  O  O56  1  0.67850800  0.34956800  0.58932400  1
  O  O57  1  0.17874500  0.85768400  0.08797900  1
  O  O58  1  0.70643800  0.87017700  0.30918400  1
  O  O59  1  0.89565000  0.52741400  0.58844600  1
  O  O60  1  0.17874500  0.14231600  0.41202100  1
  O  O61  1  0.40712200  0.25411300  0.49215000  1
  O  O62  1  0.40005600  0.75171400  0.20821700  1
  O  O63  1  0.90258300  0.27603200  0.71404600  1
  O  O64  1  0.59822200  0.56977300  0.33539300  1
  O  O65  1  0.09741700  0.27603200  0.21404600  1
  O  O66  1  0.10435000  0.52741400  0.08844600  1
  O  O67  1  0.58546800  0.01303600  0.60094000  1
  O  O68  1  0.40005600  0.24828600  0.29178300  1
  O  O69  1  0.40712200  0.74588700  0.00785000  1
  O  O70  1  0.93412300  0.25007500  0.51988000  1
  O  O71  1  0.90931100  0.93627200  0.16325600  1
  O  O72  1  0.80310200  0.37847500  0.31274300  1
  O  O73  1  0.32149200  0.34956800  0.08932400  1
  O  O74  1  0.06587700  0.25007500  0.01988000  1
  O  O75  1  0.80310200  0.62152500  0.18725700  1
  O  O76  1  0.59822200  0.43022700  0.16460700  1
  O  O77  1  0.90931100  0.06372800  0.33674400  1
  O  O78  1  0.41453200  0.01303600  0.10094000  1
  O  O79  1  0.70643800  0.12982300  0.19081600  1
