# generated using pymatgen
data_Li4Fe3Cu(PO4)4
_symmetry_space_group_name_H-M   'P 1'
_cell_length_a   6.09773300
_cell_length_b   4.75713500
_cell_length_c   10.33610631
_cell_angle_alpha   88.87389076
_cell_angle_beta   90.00000000
_cell_angle_gamma   90.00000000
_symmetry_Int_Tables_number   1
_chemical_formula_structural   Li4Fe3Cu(PO4)4
_chemical_formula_sum   'Li4 Fe3 Cu1 P4 O16'
_cell_volume   299.76916645
_cell_formula_units_Z   1
loop_
 _symmetry_equiv_pos_site_id
 _symmetry_equiv_pos_as_xyz
  1  'x, y, z'
loop_
 _atom_site_type_symbol
 _atom_site_label
 _atom_site_symmetry_multiplicity
 _atom_site_fract_x
 _atom_site_fract_y
 _atom_site_fract_z
 _atom_site_occupancy
  Li  Li0  1  0.25009600  0.99675500  0.00379500  1
  Li  Li1  1  0.74990400  0.99675500  0.00379500  1
  Li  Li2  1  0.74852700  0.50067000  0.49791400  1
  Li  Li3  1  0.25147300  0.50067000  0.49791400  1
  Fe  Fe4  1  0.00000000  0.47370900  0.78198500  1
  Fe  Fe5  1  0.50000000  0.51915700  0.21986700  1
  Fe  Fe6  1  0.50000000  0.97295200  0.71908400  1
  Cu  Cu7  1  0.00000000  0.04857300  0.28601900  1
  P  P8  1  0.50000000  0.07869500  0.40634000  1
  P  P9  1  0.50000000  0.41346400  0.90537400  1
  P  P10  1  0.00000000  0.58340400  0.09905000  1
  P  P11  1  0.00000000  0.92358400  0.59083000  1
  O  O12  1  0.50000000  0.20536300  0.54373500  1
  O  O13  1  0.29980800  0.21649000  0.33302900  1
  O  O14  1  0.70019200  0.21649000  0.33302900  1
  O  O15  1  0.00000000  0.24598200  0.59433700  1
  O  O16  1  0.00000000  0.25589200  0.10714000  1
  O  O17  1  0.29744700  0.28270400  0.83402300  1
  O  O18  1  0.70255300  0.28270400  0.83402300  1
  O  O19  1  0.50000000  0.28600800  0.04414600  1
  O  O20  1  0.00000000  0.69796000  0.95664700  1
  O  O21  1  0.79434800  0.71401000  0.16436200  1
  O  O22  1  0.20565200  0.71401000  0.16436200  1
  O  O23  1  0.50000000  0.73717000  0.90216900  1
  O  O24  1  0.50000000  0.75732600  0.40620100  1
  O  O25  1  0.79793200  0.78439000  0.66075700  1
  O  O26  1  0.20206800  0.78439000  0.66075700  1
  O  O27  1  0.00000000  0.81072000  0.44931600  1
