# generated using pymatgen
data_Li9Mn2Co5O16
_symmetry_space_group_name_H-M   'P 1'
_cell_length_a   5.18509552
_cell_length_b   10.26424121
_cell_length_c   5.90643159
_cell_angle_alpha   104.02375294
_cell_angle_beta   70.64591489
_cell_angle_gamma   84.58148681
_symmetry_Int_Tables_number   1
_chemical_formula_structural   Li9Mn2Co5O16
_chemical_formula_sum   'Li9 Mn2 Co5 O16'
_cell_volume   282.45154188
_cell_formula_units_Z   1
loop_
 _symmetry_equiv_pos_site_id
 _symmetry_equiv_pos_as_xyz
  1  'x, y, z'
loop_
 _atom_site_type_symbol
 _atom_site_label
 _atom_site_symmetry_multiplicity
 _atom_site_fract_x
 _atom_site_fract_y
 _atom_site_fract_z
 _atom_site_occupancy
  Li  Li0  1  0.50206920  0.12466493  0.93545240  1
  Li  Li1  1  0.49793848  0.37607600  0.30866719  1
  Li  Li2  1  0.50039566  0.63101339  0.68544682  1
  Li  Li3  1  0.50601115  0.86720484  0.05670551  1
  Li  Li4  1  0.50006151  0.12510766  0.44245828  1
  Li  Li5  1  0.49944614  0.37407875  0.81486313  1
  Li  Li6  1  0.49360169  0.63118788  0.20088346  1
  Li  Li7  1  0.49714358  0.86902959  0.55393901  1
  Li  Li8  1  0.00295450  0.74933380  0.62365681  1
  Mn  Mn9  1  0.99547873  0.99919162  0.99626410  1
  Mn  Mn10  1  0.00030709  0.50333033  0.74981394  1
  Co  Co11  1  0.99983295  0.25005975  0.37644473  1
  Co  Co12  1  0.99947895  0.75068524  0.12247068  1
  Co  Co13  1  0.00087762  0.99620766  0.49719125  1
  Co  Co14  1  -0.00006180  0.24971896  0.87555462  1
  Co  Co15  1  0.00523851  0.50382023  0.25622533  1
  O  O16  1  0.23405950  0.06963280  0.74280160  1
  O  O17  1  0.21995076  0.32043039  0.12041808  1
  O  O18  1  0.24144948  0.55694660  0.48272484  1
  O  O19  1  0.22665322  0.82064203  0.86988788  1
  O  O20  1  0.20722768  0.06425289  0.21740509  1
  O  O21  1  0.23304472  0.31531791  0.61575821  1
  O  O22  1  0.21361747  0.56127037  0.96590341  1
  O  O23  1  0.22914425  0.82500741  0.35368826  1
  O  O24  1  0.76660084  0.18435599  0.13985455  1
  O  O25  1  0.78994849  0.43816445  0.53503616  1
  O  O26  1  0.76047855  0.67381504  0.89548889  1
  O  O27  1  0.76319057  0.93404239  0.26007003  1
  O  O28  1  0.77851628  0.18059712  0.63152516  1
  O  O29  1  0.77156727  0.42774138  0.00933227  1
  O  O30  1  0.77966797  0.67955635  0.37499812  1
  O  O31  1  0.78410900  0.94751621  0.78907017  1
