# generated using pymatgen
data_Li2PtO2
_symmetry_space_group_name_H-M   'P 1'
_cell_length_a   5.16249740
_cell_length_b   5.16249740
_cell_length_c   5.16249740
_cell_angle_alpha   144.84095424
_cell_angle_beta   135.90205746
_cell_angle_gamma   57.60806084
_symmetry_Int_Tables_number   1
_chemical_formula_structural   Li2PtO2
_chemical_formula_sum   'Li2 Pt1 O2'
_cell_volume   54.67903348
_cell_formula_units_Z   1
loop_
 _symmetry_equiv_pos_site_id
 _symmetry_equiv_pos_as_xyz
  1  'x, y, z'
loop_
 _atom_site_type_symbol
 _atom_site_label
 _atom_site_symmetry_multiplicity
 _atom_site_fract_x
 _atom_site_fract_y
 _atom_site_fract_z
 _atom_site_occupancy
  Li  Li0  1  0.68928000  0.68928000  0.00000000  1
  Li  Li1  1  0.31072000  0.31072000  0.00000000  1
  Pt  Pt2  1  0.00000000  0.00000000  0.00000000  1
  O  O3  1  0.84979300  0.34979300  0.50000000  1
  O  O4  1  0.15020700  0.65020700  0.50000000  1
