# generated using pymatgen
data_Li5Mn4(P2O7)4
_symmetry_space_group_name_H-M   'P 1'
_cell_length_a   9.75150100
_cell_length_b   9.84925003
_cell_length_c   11.27997910
_cell_angle_alpha   78.38601497
_cell_angle_beta   89.91940986
_cell_angle_gamma   89.96321738
_symmetry_Int_Tables_number   1
_chemical_formula_structural   Li5Mn4(P2O7)4
_chemical_formula_sum   'Li10 Mn8 P16 O56'
_cell_volume   1061.20307269
_cell_formula_units_Z   2
loop_
 _symmetry_equiv_pos_site_id
 _symmetry_equiv_pos_as_xyz
  1  'x, y, z'
loop_
 _atom_site_type_symbol
 _atom_site_label
 _atom_site_symmetry_multiplicity
 _atom_site_fract_x
 _atom_site_fract_y
 _atom_site_fract_z
 _atom_site_occupancy
  Li  Li0  1  0.47375300  0.88451200  0.49789800  1
  Li  Li1  1  0.10713100  0.91281100  0.01958800  1
  Li  Li2  1  0.58958400  0.58553700  0.97541200  1
  Li  Li3  1  0.92282200  0.64984900  0.46933900  1
  Li  Li4  1  0.21265800  0.59665500  0.55188300  1
  Li  Li5  1  0.57744000  0.15259100  0.95560100  1
  Li  Li6  1  0.11696000  0.36097400  0.04527300  1
  Li  Li7  1  0.88945900  0.08965500  0.97017400  1
  Li  Li8  1  0.59654600  0.17961700  0.44797700  1
  Li  Li9  1  0.28119100  0.11200400  0.55210800  1
  Mn  Mn10  1  0.92116800  0.79561400  0.67897500  1
  Mn  Mn11  1  0.22140100  0.73652100  0.83172200  1
  Mn  Mn12  1  0.71644200  0.77144100  0.16950900  1
  Mn  Mn13  1  0.42727800  0.68678600  0.33207800  1
  Mn  Mn14  1  0.58006500  0.29470700  0.67127500  1
  Mn  Mn15  1  0.28459300  0.25321000  0.82882600  1
  Mn  Mn16  1  0.77553500  0.28431200  0.16646600  1
  Mn  Mn17  1  0.07112200  0.18932200  0.33256900  1
  P  P18  1  0.45048500  0.97780700  0.75543800  1
  P  P19  1  0.70459100  0.87937600  0.89362400  1
  P  P20  1  0.93540900  0.93771000  0.24016600  1
  P  P21  1  0.15633600  0.86597300  0.42432700  1
  P  P22  1  0.64481000  0.61940300  0.57363200  1
  P  P23  1  0.42367600  0.56785700  0.75399900  1
  P  P24  1  0.04258100  0.47877600  0.75888000  1
  P  P25  1  0.21222200  0.62031600  0.12105600  1
  P  P26  1  0.78400000  0.38634600  0.88902800  1
  P  P27  1  0.93846000  0.53560500  0.24001300  1
  P  P28  1  0.57059400  0.43433500  0.24302300  1
  P  P29  1  0.34436700  0.36537100  0.41832400  1
  P  P30  1  0.85974500  0.11647200  0.57159900  1
  P  P31  1  0.07461900  0.06041700  0.75562700  1
  P  P32  1  0.28906300  0.11348300  0.12178700  1
  P  P33  1  0.55686400  0.02680900  0.24592500  1
  O  O34  1  0.42635600  0.97971900  0.62259000  1
  O  O35  1  0.85601500  0.95979300  0.56937500  1
  O  O36  1  0.08190300  0.91085800  0.72946900  1
  O  O37  1  0.34044500  0.90660800  0.84238800  1
  O  O38  1  0.58977700  0.89251100  0.78823800  1
  O  O39  1  0.82879400  0.82759300  0.83584100  1
  O  O40  1  0.64744100  0.77120100  0.00420600  1
  O  O41  1  0.24687000  0.97464000  0.10329400  1
  O  O42  1  0.07767900  0.87510300  0.29708900  1
  O  O43  1  0.93667100  0.93965500  0.10607800  1
  O  O44  1  0.55622900  0.88040500  0.21134100  1
  O  O45  1  0.30127100  0.80813200  0.40788600  1
  O  O46  1  0.82148200  0.83612700  0.29939500  1
  O  O47  1  0.07332400  0.76363600  0.51703900  1
  O  O48  1  0.55814000  0.70756100  0.47042300  1
  O  O49  1  0.30870600  0.65956900  0.68491800  1
  O  O50  1  0.78676700  0.68133100  0.58624600  1
  O  O51  1  0.02593300  0.63348200  0.77847100  1
  O  O52  1  0.56817600  0.63076000  0.69753400  1
  O  O53  1  0.42171100  0.58727300  0.88327900  1
  O  O54  1  0.75452100  0.52539200  0.91473500  1
  O  O55  1  0.16396600  0.72795400  0.00887100  1
  O  O56  1  0.32699500  0.68702200  0.18596400  1
  O  O57  1  0.08757100  0.60414100  0.21896300  1
  O  O58  1  0.58115100  0.58233400  0.27085000  1
  O  O59  1  0.84155200  0.62816500  0.14853100  1
  O  O60  1  0.07996100  0.47161400  0.63180400  1
  O  O61  1  0.32923000  0.51320900  0.43878500  1
  O  O62  1  0.65087600  0.46683800  0.56511300  1
  O  O63  1  0.90564700  0.52569600  0.37009000  1
  O  O64  1  0.13801200  0.40334300  0.86002300  1
  O  O65  1  0.41683500  0.41684600  0.73291800  1
  O  O66  1  0.89744900  0.40018000  0.78361100  1
  O  O67  1  0.66756600  0.30771400  0.84137800  1
  O  O68  1  0.84896500  0.28245200  0.00318400  1
  O  O69  1  0.24166300  0.48183500  0.09358900  1
  O  O70  1  0.59113600  0.42876400  0.11144300  1
  O  O71  1  0.42384200  0.37610600  0.28977100  1
  O  O72  1  0.94479000  0.38982800  0.19987500  1
  O  O73  1  0.20744500  0.29625000  0.40341300  1
  O  O74  1  0.67847900  0.32814500  0.31068300  1
  O  O75  1  0.43358100  0.26996500  0.51226000  1
  O  O76  1  0.93799200  0.20078200  0.46337300  1
  O  O77  1  0.19396600  0.15093400  0.69715700  1
  O  O78  1  0.71598300  0.17433900  0.58391900  1
  O  O79  1  0.47379900  0.12852200  0.78006600  1
  O  O80  1  0.06110300  0.06714000  0.88807600  1
  O  O81  1  0.93538200  0.13056300  0.69454200  1
  O  O82  1  0.71779100  0.01866100  0.92955900  1
  O  O83  1  0.35203700  0.20776200  0.00903600  1
  O  O84  1  0.17477700  0.19539300  0.17747000  1
  O  O85  1  0.40589900  0.09093200  0.22648200  1
  O  O86  1  0.65182900  0.12318500  0.15536800  1
  O  O87  1  0.92261400  0.08566300  0.26918200  1
  O  O88  1  0.16741400  0.01330600  0.44610800  1
  O  O89  1  0.58204500  0.02019200  0.37876400  1
