# generated using pymatgen
data_Li9Mn2Co5O16
_symmetry_space_group_name_H-M   'P 1'
_cell_length_a   7.77417284
_cell_length_b   7.77417284
_cell_length_c   13.13118943
_cell_angle_alpha   86.77487278
_cell_angle_beta   86.77487278
_cell_angle_gamma   21.44145841
_symmetry_Int_Tables_number   1
_chemical_formula_structural   Li9Mn2Co5O16
_chemical_formula_sum   'Li9 Mn2 Co5 O16'
_cell_volume   289.63203568
_cell_formula_units_Z   1
loop_
 _symmetry_equiv_pos_site_id
 _symmetry_equiv_pos_as_xyz
  1  'x, y, z'
loop_
 _atom_site_type_symbol
 _atom_site_label
 _atom_site_symmetry_multiplicity
 _atom_site_fract_x
 _atom_site_fract_y
 _atom_site_fract_z
 _atom_site_occupancy
  Li  Li0  1  0.43631600  0.43631600  0.19402200  1
  Li  Li1  1  0.31415200  0.31415200  0.56999300  1
  Li  Li2  1  0.18613900  0.18613900  0.92737200  1
  Li  Li3  1  0.06411600  0.06411600  0.31549700  1
  Li  Li4  1  0.93175600  0.93175600  0.68758700  1
  Li  Li5  1  0.81129400  0.81129400  0.06158300  1
  Li  Li6  1  0.68659800  0.68659800  0.44072500  1
  Li  Li7  1  0.56506800  0.56506800  0.80541500  1
  Li  Li8  1  0.75079700  0.75079700  0.74720200  1
  Mn  Mn9  1  0.00035500  0.00035500  0.99718100  1
  Mn  Mn10  1  0.37018800  0.37018800  0.86492400  1
  Co  Co11  1  0.87589000  0.87589000  0.37830900  1
  Co  Co12  1  0.62557600  0.62557600  0.12876400  1
  Co  Co13  1  0.50300200  0.50300200  0.50033300  1
  Co  Co14  1  0.25076800  0.25076800  0.25371700  1
  Co  Co15  1  0.13067000  0.13067000  0.63686000  1
  O  O16  1  0.41202800  0.41202800  0.01833700  1
  O  O17  1  0.28785600  0.28785600  0.40248500  1
  O  O18  1  0.15204600  0.15204600  0.77159200  1
  O  O19  1  0.04138800  0.04138800  0.15357100  1
  O  O20  1  0.91119700  0.91119700  0.52829300  1
  O  O21  1  0.78984500  0.78984500  0.90409300  1
  O  O22  1  0.66427400  0.66427400  0.28069700  1
  O  O23  1  0.54301500  0.54301500  0.64840400  1
  O  O24  1  0.46374000  0.46374000  0.34945700  1
  O  O25  1  0.34551300  0.34551300  0.73003700  1
  O  O26  1  0.20927600  0.20927600  0.10131700  1
  O  O27  1  0.08704000  0.08704000  0.47281200  1
  O  O28  1  0.95627800  0.95627800  0.84270100  1
  O  O29  1  0.83980000  0.83980000  0.22262600  1
  O  O30  1  0.70859000  0.70859000  0.59544200  1
  O  O31  1  0.58542700  0.58542700  0.96865100  1
