# generated using pymatgen
data_Li2Mn3WO8
_symmetry_space_group_name_H-M   'P 1'
_cell_length_a   6.09707105
_cell_length_b   6.21734542
_cell_length_c   8.70644757
_cell_angle_alpha   88.31813266
_cell_angle_beta   90.00471890
_cell_angle_gamma   89.99461340
_symmetry_Int_Tables_number   1
_chemical_formula_structural   Li2Mn3WO8
_chemical_formula_sum   'Li4 Mn6 W2 O16'
_cell_volume   329.89831888
_cell_formula_units_Z   2
loop_
 _symmetry_equiv_pos_site_id
 _symmetry_equiv_pos_as_xyz
  1  'x, y, z'
loop_
 _atom_site_type_symbol
 _atom_site_label
 _atom_site_symmetry_multiplicity
 _atom_site_fract_x
 _atom_site_fract_y
 _atom_site_fract_z
 _atom_site_occupancy
  Li  Li0  1  0.99999500  0.26976700  0.13496200  1
  Li  Li1  1  0.49999700  0.76974400  0.63498300  1
  Li  Li2  1  0.99999800  0.73023400  0.86504000  1
  Li  Li3  1  0.49999800  0.23025300  0.36501700  1
  Mn  Mn4  1  0.00004400  0.50001200  0.49999200  1
  Mn  Mn5  1  0.50001600  0.00001500  0.99996400  1
  Mn  Mn6  1  0.25013100  0.75035200  0.25009500  1
  Mn  Mn7  1  0.74985700  0.24964300  0.74991300  1
  Mn  Mn8  1  0.74987500  0.75033800  0.25011100  1
  Mn  Mn9  1  0.25014300  0.24963500  0.74992700  1
  W  W10  1  0.49999800  0.50000800  0.99999700  1
  W  W11  1  0.00000500  0.00000300  0.49999600  1
  O  O12  1  0.00001100  0.54614300  0.27352200  1
  O  O13  1  0.50002000  0.04603000  0.77347600  1
  O  O14  1  0.99997200  0.45384600  0.72647900  1
  O  O15  1  0.49998700  0.95397700  0.22652300  1
  O  O16  1  0.22437000  0.77286300  0.49877600  1
  O  O17  1  0.72438300  0.27284700  0.99874200  1
  O  O18  1  0.77564200  0.77283800  0.49872600  1
  O  O19  1  0.27563500  0.27282200  0.99869800  1
  O  O20  1  0.00001500  0.99779100  0.27426000  1
  O  O21  1  0.50001900  0.49774100  0.77424800  1
  O  O22  1  0.99997400  0.00220200  0.72573900  1
  O  O23  1  0.49998000  0.50225500  0.22574900  1
  O  O24  1  0.22434800  0.22716400  0.50127500  1
  O  O25  1  0.72435800  0.72718200  0.00130500  1
  O  O26  1  0.77561900  0.22713600  0.50123100  1
  O  O27  1  0.27561400  0.72715500  0.00125400  1
