# generated using pymatgen
data_LiV2P4(HO8)2
_symmetry_space_group_name_H-M   'P 1'
_cell_length_a   9.31943438
_cell_length_b   9.26990854
_cell_length_c   7.74729368
_cell_angle_alpha   78.18447610
_cell_angle_beta   78.19582910
_cell_angle_gamma   116.71566358
_symmetry_Int_Tables_number   1
_chemical_formula_structural   LiV2P4(HO8)2
_chemical_formula_sum   'Li2 V4 P8 H4 O32'
_cell_volume   550.47138439
_cell_formula_units_Z   2
loop_
 _symmetry_equiv_pos_site_id
 _symmetry_equiv_pos_as_xyz
  1  'x, y, z'
loop_
 _atom_site_type_symbol
 _atom_site_label
 _atom_site_symmetry_multiplicity
 _atom_site_fract_x
 _atom_site_fract_y
 _atom_site_fract_z
 _atom_site_occupancy
  Li  Li0  1  0.46018981  0.09282909  0.34761363  1
  Li  Li1  1  0.04222517  0.41149188  0.65267781  1
  V  V2  1  0.24855708  0.24930941  0.50037682  1
  V  V3  1  0.49930671  0.99766675  0.99488520  1
  V  V4  1  0.99654534  0.50054605  0.01477498  1
  V  V5  1  0.75512128  0.75352929  0.49719391  1
  P  P6  1  0.25968635  0.60645628  0.26779104  1
  P  P7  1  0.75470188  0.10485793  0.26911172  1
  P  P8  1  0.64365621  0.49853807  0.22758783  1
  P  P9  1  0.14601153  0.00039788  0.22733708  1
  P  P10  1  0.35566243  0.50642281  0.76545475  1
  P  P11  1  0.85217821  0.00527686  0.76770210  1
  P  P12  1  0.74058535  0.39626453  0.73793559  1
  P  P13  1  0.24057085  0.89309763  0.73972824  1
  H  H14  1  0.75749416  0.26652211  0.51381779  1
  H  H15  1  0.25409694  0.76256044  0.51068240  1
  H  H16  1  0.48642208  0.49536048  0.98776437  1
  H  H17  1  0.98485030  0.99132582  0.98850655  1
  O  O18  1  0.11668738  0.06432930  0.05248481  1
  O  O19  1  0.17243535  0.11865899  0.35136166  1
  O  O20  1  0.01069320  0.18552659  0.64364161  1
  O  O21  1  0.22420659  0.05070447  0.68717538  1
  O  O22  1  0.62897942  0.07660510  0.15648940  1
  O  O23  1  0.13349373  0.57785175  0.14867487  1
  O  O24  1  0.27182996  0.44491779  0.31449658  1
  O  O25  1  0.49241547  0.31651147  0.35695305  1
  O  O26  1  0.68078858  0.13548602  0.44122301  1
  O  O27  1  0.18296664  0.62838161  0.44673115  1
  O  O28  1  0.32563954  0.38279058  0.64941667  1
  O  O29  1  0.19078706  0.51716350  0.81438636  1
  O  O30  1  0.69524744  0.02446939  0.81460559  1
  O  O31  1  0.62250935  0.56742937  0.04906740  1
  O  O32  1  0.93014760  0.26838657  0.13631325  1
  O  O33  1  0.43140934  0.76433096  0.13773870  1
  O  O34  1  0.56670202  0.23889692  0.86176998  1
  O  O35  1  0.06760668  0.72793080  0.86236110  1
  O  O36  1  0.37671915  0.43397101  0.94751160  1
  O  O37  1  0.80979192  0.48133532  0.17378614  1
  O  O38  1  0.30512176  0.98134722  0.19156743  1
  O  O39  1  0.67627883  0.61701992  0.34860560  1
  O  O40  1  0.82283285  0.37229606  0.55801255  1
  O  O41  1  0.31513176  0.87196240  0.55419002  1
  O  O42  1  0.51827125  0.68050239  0.63653363  1
  O  O43  1  0.72987330  0.55962390  0.67635503  1
  O  O44  1  0.87158132  0.42499375  0.84355773  1
  O  O45  1  0.36385412  0.91609391  0.85192065  1
  O  O46  1  0.77511884  0.94612545  0.32040462  1
  O  O47  1  0.98063560  0.82273611  0.36261135  1
  O  O48  1  0.82827447  0.88533353  0.64713027  1
  O  O49  1  0.87564883  0.92913054  0.94644501  1
