# generated using pymatgen
data_Li2VF6
_symmetry_space_group_name_H-M   'P 1'
_cell_length_a   8.59770500
_cell_length_b   8.63922101
_cell_length_c   10.25748280
_cell_angle_alpha   84.47356974
_cell_angle_beta   84.15471294
_cell_angle_gamma   60.98494294
_symmetry_Int_Tables_number   1
_chemical_formula_structural   Li2VF6
_chemical_formula_sum   'Li12 V6 F36'
_cell_volume   661.84708709
_cell_formula_units_Z   6
loop_
 _symmetry_equiv_pos_site_id
 _symmetry_equiv_pos_as_xyz
  1  'x, y, z'
loop_
 _atom_site_type_symbol
 _atom_site_label
 _atom_site_symmetry_multiplicity
 _atom_site_fract_x
 _atom_site_fract_y
 _atom_site_fract_z
 _atom_site_occupancy
  Li  Li0  1  0.06091300  0.33409100  0.07511200  1
  Li  Li1  1  0.12328500  0.54282700  0.54286700  1
  Li  Li2  1  0.54062900  0.13671000  0.05001800  1
  Li  Li3  1  0.33788000  0.62220100  0.02880600  1
  Li  Li4  1  0.37015000  0.66943300  0.47462900  1
  Li  Li5  1  0.71348600  0.00540900  0.77183500  1
  Li  Li6  1  0.79970500  0.19728500  0.25479200  1
  Li  Li7  1  0.45314900  0.88046600  0.95524900  1
  Li  Li8  1  0.87072300  0.44866300  0.45249100  1
  Li  Li9  1  0.65200400  0.94627200  0.43405200  1
  Li  Li10  1  0.00169200  0.27737200  0.71895900  1
  Li  Li11  1  0.94143600  0.65668700  0.93125400  1
  V  V12  1  0.00954800  0.99689900  0.49902800  1
  V  V13  1  0.33437500  0.33634500  0.29674800  1
  V  V14  1  0.99965300  0.99599500  0.00072100  1
  V  V15  1  0.33535200  0.33963500  0.79068700  1
  V  V16  1  0.65988200  0.66912100  0.20534000  1
  V  V17  1  0.65828500  0.66663600  0.70566400  1
  F  F18  1  0.05531600  0.08150600  0.33897600  1
  F  F19  1  0.05996000  0.08118500  0.84503200  1
  F  F20  1  0.10850400  0.41827100  0.39071100  1
  F  F21  1  0.11307900  0.41368200  0.89554300  1
  F  F22  1  0.27286400  0.24362600  0.15855500  1
  F  F23  1  0.22646200  0.27649000  0.67054400  1
  F  F24  1  0.09327200  0.76194400  0.44837200  1
  F  F25  1  0.41922600  0.12142400  0.38616400  1
  F  F26  1  0.25856300  0.54293400  0.19408900  1
  F  F27  1  0.08469900  0.76111200  0.94764200  1
  F  F28  1  0.42810800  0.11097000  0.89022100  1
  F  F29  1  0.24579600  0.55664900  0.69546400  1
  F  F30  1  0.39323400  0.43866500  0.42603200  1
  F  F31  1  0.23573000  0.90782800  0.05074600  1
  F  F32  1  0.56521400  0.24562700  0.20109600  1
  F  F33  1  0.40943300  0.41327900  0.92787800  1
  F  F34  1  0.23717700  0.90931000  0.55407800  1
  F  F35  1  0.54893100  0.24234500  0.69827000  1
  F  F36  1  0.45205500  0.74298600  0.30369500  1
  F  F37  1  0.77700500  0.07570200  0.42935400  1
  F  F38  1  0.56392100  0.60563100  0.07463500  1
  F  F39  1  0.44723400  0.74819600  0.81050100  1
  F  F40  1  0.76954000  0.06444100  0.93548900  1
  F  F41  1  0.58619900  0.58779400  0.57166500  1
  F  F42  1  0.75884900  0.43953200  0.29631100  1
  F  F43  1  0.58671300  0.88806600  0.10560500  1
  F  F44  1  0.92129900  0.22266000  0.07202600  1
  F  F45  1  0.76112900  0.45506200  0.79988600  1
  F  F46  1  0.60246100  0.87884100  0.61341600  1
  F  F47  1  0.93189300  0.22932400  0.56336400  1
  F  F48  1  0.75221100  0.73555400  0.33711900  1
  F  F49  1  0.73648700  0.76886800  0.83445600  1
  F  F50  1  0.88110000  0.58173100  0.10468000  1
  F  F51  1  0.89061600  0.56893600  0.60731700  1
  F  F52  1  0.91861800  0.94274700  0.15923700  1
  F  F53  1  0.91882000  0.93855900  0.65564200  1
