# generated using pymatgen
data_LiPrS2
_symmetry_space_group_name_H-M   'P 1'
_cell_length_a   6.96329673
_cell_length_b   6.96329673
_cell_length_c   6.96329673
_cell_angle_alpha   131.74055786
_cell_angle_beta   131.74055786
_cell_angle_gamma   70.63909747
_symmetry_Int_Tables_number   1
_chemical_formula_structural   LiPrS2
_chemical_formula_sum   'Li2 Pr2 S4'
_cell_volume   184.15911943
_cell_formula_units_Z   2
loop_
 _symmetry_equiv_pos_site_id
 _symmetry_equiv_pos_as_xyz
  1  'x, y, z'
loop_
 _atom_site_type_symbol
 _atom_site_label
 _atom_site_symmetry_multiplicity
 _atom_site_fract_x
 _atom_site_fract_y
 _atom_site_fract_z
 _atom_site_occupancy
  Li  Li0  1  0.25000000  0.75000000  0.50000000  1
  Li  Li1  1  0.50000000  0.50000000  0.00000000  1
  Pr  Pr2  1  0.00000000  0.00000000  0.00000000  1
  Pr  Pr3  1  0.75000000  0.25000000  0.50000000  1
  S  S4  1  0.50042700  0.00042700  0.50000000  1
  S  S5  1  0.99957300  0.49957300  0.50000000  1
  S  S6  1  0.75042700  0.75042700  0.00000000  1
  S  S7  1  0.24957300  0.24957300  0.00000000  1
