# generated using pymatgen
data_Li6Zn3(PS4)4
_symmetry_space_group_name_H-M   'P 1'
_cell_length_a   9.32525200
_cell_length_b   11.59459401
_cell_length_c   23.16992630
_cell_angle_alpha   90.03264302
_cell_angle_beta   90.02680076
_cell_angle_gamma   90.00232749
_symmetry_Int_Tables_number   1
_chemical_formula_structural   Li6Zn3(PS4)4
_chemical_formula_sum   'Li24 Zn12 P16 S64'
_cell_volume   2505.18992747
_cell_formula_units_Z   4
loop_
 _symmetry_equiv_pos_site_id
 _symmetry_equiv_pos_as_xyz
  1  'x, y, z'
loop_
 _atom_site_type_symbol
 _atom_site_label
 _atom_site_symmetry_multiplicity
 _atom_site_fract_x
 _atom_site_fract_y
 _atom_site_fract_z
 _atom_site_occupancy
  Li  Li0  1  0.74757600  0.99887800  0.12143300  1
  Li  Li1  1  0.25460300  0.25007900  0.24949000  1
  Li  Li2  1  0.24916100  0.74873400  0.24756900  1
  Li  Li3  1  0.24792100  0.24717500  0.00154700  1
  Li  Li4  1  0.50106900  0.50030800  0.74990000  1
  Li  Li5  1  0.50182100  0.00110100  0.74915100  1
  Li  Li6  1  0.50330100  0.49780900  0.50022500  1
  Li  Li7  1  0.49969900  0.00150900  0.50075500  1
  Li  Li8  1  0.00251700  0.24866900  0.62559100  1
  Li  Li9  1  0.00081700  0.74981500  0.62521500  1
  Li  Li10  1  0.50823500  0.49866600  0.24910800  1
  Li  Li11  1  0.50815900  0.00079600  0.25195400  1
  Li  Li12  1  0.99598500  0.24832100  0.37776500  1
  Li  Li13  1  0.99401500  0.74821400  0.37723400  1
  Li  Li14  1  0.50220500  0.50291800  0.00030400  1
  Li  Li15  1  0.50147000  0.99719300  0.99839900  1
  Li  Li16  1  0.99409400  0.25368000  0.12392500  1
  Li  Li17  1  0.99472100  0.74922700  0.12281400  1
  Li  Li18  1  0.99634100  0.24954400  0.87289100  1
  Li  Li19  1  0.00318200  0.75249800  0.87516800  1
  Li  Li20  1  0.50580200  0.25052200  0.37630000  1
  Li  Li21  1  0.50013800  0.74715100  0.12291700  1
  Li  Li22  1  0.50492700  0.25114000  0.12529900  1
  Li  Li23  1  0.99895200  0.99746700  0.99872500  1
  Zn  Zn24  1  0.50090900  0.75177400  0.87549000  1
  Zn  Zn25  1  0.50533900  0.25053800  0.87432900  1
  Zn  Zn26  1  0.49929500  0.75039700  0.62534600  1
  Zn  Zn27  1  0.50026900  0.24928500  0.62446500  1
  Zn  Zn28  1  0.99929500  0.49957900  0.74954100  1
  Zn  Zn29  1  0.99978300  0.00041400  0.75038600  1
  Zn  Zn30  1  0.50484800  0.74958400  0.37637300  1
  Zn  Zn31  1  0.99810900  0.49943000  0.50125800  1
  Zn  Zn32  1  0.99799400  0.00178600  0.50040500  1
  Zn  Zn33  1  0.98825100  0.49896500  0.25000900  1
  Zn  Zn34  1  0.99476400  0.99993900  0.25033400  1
  Zn  Zn35  1  0.99151700  0.50213700  0.00029500  1
  P  P36  1  0.75010300  0.75000000  0.75010700  1
  P  P37  1  0.75002300  0.25031700  0.74962800  1
  P  P38  1  0.74991200  0.74970500  0.50039300  1
  P  P39  1  0.75030400  0.25377700  0.50091900  1
  P  P40  1  0.25037600  0.50001800  0.62490400  1
  P  P41  1  0.25007800  0.99969100  0.62500500  1
  P  P42  1  0.75162300  0.75446900  0.25020000  1
  P  P43  1  0.74612400  0.24959900  0.24990400  1
  P  P44  1  0.24973700  0.50119300  0.37250100  1
  P  P45  1  0.24934100  0.99856400  0.37650200  1
  P  P46  1  0.74666600  0.74574800  0.00173100  1
  P  P47  1  0.75296200  0.24640100  0.99770300  1
  P  P48  1  0.24642800  0.49955300  0.12513600  1
  P  P49  1  0.25356500  0.00530200  0.12609000  1
  P  P50  1  0.25290000  0.49930900  0.87509200  1
  P  P51  1  0.24780700  0.99652000  0.87457300  1
  S  S52  1  0.86956200  0.64272200  0.94775100  1
  S  S53  1  0.87238500  0.14354200  0.94643900  1
  S  S54  1  0.86468300  0.63859800  0.69791900  1
  S  S55  1  0.86458600  0.13865000  0.69786000  1
  S  S56  1  0.36460700  0.38719900  0.82294200  1
  S  S57  1  0.37201000  0.89239400  0.82246800  1
  S  S58  1  0.86256700  0.63707200  0.44841000  1
  S  S59  1  0.86306800  0.13911800  0.44891500  1
  S  S60  1  0.36438000  0.38867000  0.57280300  1
  S  S61  1  0.36435600  0.88817800  0.57289800  1
  S  S62  1  0.86503300  0.64253000  0.19783800  1
  S  S63  1  0.87166600  0.14044800  0.19658100  1
  S  S64  1  0.36890300  0.39367200  0.32132400  1
  S  S65  1  0.36743200  0.88718700  0.32262100  1
  S  S66  1  0.36652800  0.39261000  0.07417400  1
  S  S67  1  0.36836500  0.89810300  0.07539400  1
  S  S68  1  0.63461400  0.35389200  0.69417000  1
  S  S69  1  0.63652200  0.85404300  0.69400900  1
  S  S70  1  0.63876900  0.35616500  0.44649300  1
  S  S71  1  0.63694400  0.85519600  0.44452700  1
  S  S72  1  0.13641200  0.10378700  0.56902600  1
  S  S73  1  0.13673700  0.60457200  0.56901700  1
  S  S74  1  0.63876600  0.35466900  0.19539900  1
  S  S75  1  0.63030200  0.85482800  0.19616200  1
  S  S76  1  0.13047100  0.10312900  0.31970600  1
  S  S77  1  0.12512700  0.60690000  0.31858500  1
  S  S78  1  0.62830000  0.35329600  0.94633900  1
  S  S79  1  0.63686300  0.85238200  0.94493800  1
  S  S80  1  0.12510800  0.10604500  0.07431200  1
  S  S81  1  0.12833800  0.60351300  0.07145400  1
  S  S82  1  0.13739000  0.10403900  0.81890000  1
  S  S83  1  0.13424300  0.60145900  0.82038600  1
  S  S84  1  0.86465400  0.86132600  0.80210700  1
  S  S85  1  0.86313600  0.36255700  0.80173400  1
  S  S86  1  0.86508700  0.86087500  0.55209300  1
  S  S87  1  0.87141500  0.35968800  0.55392400  1
  S  S88  1  0.36447100  0.61145600  0.67713700  1
  S  S89  1  0.36406400  0.11159700  0.67690100  1
  S  S90  1  0.86905300  0.86079900  0.30370300  1
  S  S91  1  0.87248300  0.35415600  0.30219500  1
  S  S92  1  0.36461000  0.61068600  0.42516300  1
  S  S93  1  0.36522400  0.10601000  0.42591400  1
  S  S94  1  0.86576000  0.85738300  0.05227100  1
  S  S95  1  0.86285800  0.36011600  0.05136300  1
  S  S96  1  0.36672100  0.60521800  0.17736000  1
  S  S97  1  0.37300900  0.10852900  0.18024600  1
  S  S98  1  0.36522400  0.61053200  0.92722500  1
  S  S99  1  0.36869300  0.11122800  0.92634300  1
  S  S100  1  0.63528200  0.64633200  0.80573800  1
  S  S101  1  0.63705800  0.14551800  0.80539800  1
  S  S102  1  0.63424600  0.64638300  0.55568100  1
  S  S103  1  0.63761900  0.14670300  0.55639500  1
  S  S104  1  0.13638900  0.39608100  0.68080100  1
  S  S105  1  0.13514700  0.89615800  0.68069700  1
  S  S106  1  0.63499400  0.64891100  0.30454200  1
  S  S107  1  0.63664100  0.14567100  0.30427400  1
  S  S108  1  0.13325100  0.39955300  0.42805900  1
  S  S109  1  0.12786400  0.89451000  0.42880000  1
  S  S110  1  0.63388500  0.64107900  0.05438500  1
  S  S111  1  0.63106500  0.14502400  0.05247900  1
  S  S112  1  0.12461300  0.39438800  0.18038500  1
  S  S113  1  0.12614800  0.89700700  0.17941500  1
  S  S114  1  0.13050400  0.39588000  0.93078200  1
  S  S115  1  0.13876400  0.89463000  0.92943200  1
