# generated using pymatgen
data_LiMnF4
_symmetry_space_group_name_H-M   'P 1'
_cell_length_a   10.19041496
_cell_length_b   10.19041496
_cell_length_c   10.19041496
_cell_angle_alpha   94.97844013
_cell_angle_beta   94.97844013
_cell_angle_gamma   145.73457925
_symmetry_Int_Tables_number   1
_chemical_formula_structural   LiMnF4
_chemical_formula_sum   'Li8 Mn8 F32'
_cell_volume   569.36742799
_cell_formula_units_Z   8
loop_
 _symmetry_equiv_pos_site_id
 _symmetry_equiv_pos_as_xyz
  1  'x, y, z'
loop_
 _atom_site_type_symbol
 _atom_site_label
 _atom_site_symmetry_multiplicity
 _atom_site_fract_x
 _atom_site_fract_y
 _atom_site_fract_z
 _atom_site_occupancy
  Li  Li0  1  0.49311900  0.99612100  0.74618300  1
  Li  Li1  1  0.00006200  0.00306400  0.24618300  1
  Li  Li2  1  0.25306400  0.50688100  0.50300200  1
  Li  Li3  1  0.00387900  0.75006200  0.49699800  1
  Li  Li4  1  0.24612100  0.99993800  0.00300200  1
  Li  Li5  1  0.99693600  0.24311900  0.99699800  1
  Li  Li6  1  0.24993800  0.74693600  0.25381700  1
  Li  Li7  1  0.75688100  0.75387900  0.75381700  1
  Mn  Mn8  1  0.24506500  0.24024400  0.74939500  1
  Mn  Mn9  1  0.75975600  0.50915100  0.00482200  1
  Mn  Mn10  1  0.74567100  0.99506500  0.50482200  1
  Mn  Mn11  1  0.75915100  0.25432900  0.24939500  1
  Mn  Mn12  1  0.49084900  0.49567100  0.25060500  1
  Mn  Mn13  1  0.50432900  0.75493500  0.99517800  1
  Mn  Mn14  1  0.49024400  0.24084900  0.49517800  1
  Mn  Mn15  1  0.00493500  0.50975600  0.75060500  1
  F  F16  1  0.47647800  0.38535400  0.65204400  1
  F  F17  1  0.36202000  0.01306900  0.58422200  1
  F  F18  1  0.17153500  0.01059800  0.39751200  1
  F  F19  1  0.07443400  0.22647800  0.59112400  1
  F  F20  1  0.82115300  0.97220200  0.08422200  1
  F  F21  1  0.02402300  0.92153500  0.66093700  1
  F  F22  1  0.73331000  0.82443400  0.34795600  1
  F  F23  1  0.73027500  0.63568800  0.16339300  1
  F  F24  1  0.47229500  0.56688100  0.83660700  1
  F  F25  1  0.98940200  0.38691400  0.16093700  1
  F  F26  1  0.22220200  0.63798000  0.65104900  1
  F  F27  1  0.98693100  0.57115300  0.34895100  1
  F  F28  1  0.61308600  0.77402300  0.60248800  1
  F  F29  1  0.43311900  0.26972500  0.90541400  1
  F  F30  1  0.36431200  0.52770500  0.09458600  1
  F  F31  1  0.61464600  0.26669000  0.09112400  1
  F  F32  1  0.63535400  0.48331000  0.40887600  1
  F  F33  1  0.88568800  0.22229500  0.40541400  1
  F  F34  1  0.81688100  0.48027500  0.59458600  1
  F  F35  1  0.63691400  0.97597700  0.89751200  1
  F  F36  1  0.26306900  0.17884700  0.15104900  1
  F  F37  1  0.02779800  0.11202000  0.84895100  1
  F  F38  1  0.26059800  0.36308600  0.33906300  1
  F  F39  1  0.77770500  0.18311900  0.66339300  1
  F  F40  1  0.51972500  0.11431200  0.33660700  1
  F  F41  1  0.51669000  0.92556600  0.15204400  1
  F  F42  1  0.22597700  0.82846500  0.83906300  1
  F  F43  1  0.42884700  0.77779800  0.41577800  1
  F  F44  1  0.17556600  0.52352200  0.90887600  1
  F  F45  1  0.07846500  0.73940200  0.10248800  1
  F  F46  1  0.88798000  0.73693100  0.91577800  1
  F  F47  1  0.77352200  0.36464600  0.84795600  1
