# generated using pymatgen
data_Li4Mn3O7
_symmetry_space_group_name_H-M   'P 1'
_cell_length_a   6.50858700
_cell_length_b   6.54148829
_cell_length_c   6.92512442
_cell_angle_alpha   73.76831193
_cell_angle_beta   71.52196874
_cell_angle_gamma   72.19323162
_symmetry_Int_Tables_number   1
_chemical_formula_structural   Li4Mn3O7
_chemical_formula_sum   'Li8 Mn6 O14'
_cell_volume   260.74554872
_cell_formula_units_Z   2
loop_
 _symmetry_equiv_pos_site_id
 _symmetry_equiv_pos_as_xyz
  1  'x, y, z'
loop_
 _atom_site_type_symbol
 _atom_site_label
 _atom_site_symmetry_multiplicity
 _atom_site_fract_x
 _atom_site_fract_y
 _atom_site_fract_z
 _atom_site_occupancy
  Li  Li0  1  0.85462400  0.92594300  0.22166300  1
  Li  Li1  1  0.14537600  0.07405700  0.77833700  1
  Li  Li2  1  0.43534900  0.20891900  0.34909800  1
  Li  Li3  1  0.56465100  0.79108100  0.65090200  1
  Li  Li4  1  0.29767800  0.64448500  0.07439500  1
  Li  Li5  1  0.00000000  0.50000000  0.50000000  1
  Li  Li6  1  0.70232200  0.35551500  0.92560500  1
  Li  Li7  1  0.50000000  0.00000000  0.00000000  1
  Mn  Mn8  1  0.92142300  0.71410900  0.85359400  1
  Mn  Mn9  1  0.07857700  0.28589100  0.14640600  1
  Mn  Mn10  1  0.21574600  0.86131600  0.42007600  1
  Mn  Mn11  1  0.78425400  0.13868400  0.57992400  1
  Mn  Mn12  1  0.35972000  0.42063400  0.72237900  1
  Mn  Mn13  1  0.64028000  0.57936600  0.27762100  1
  O  O14  1  0.82417800  0.02891600  0.86032900  1
  O  O15  1  0.09866400  0.15758900  0.47655000  1
  O  O16  1  0.37455200  0.32542100  0.04470900  1
  O  O17  1  0.52234200  0.87864700  0.33248900  1
  O  O18  1  0.23983900  0.74434200  0.72115600  1
  O  O19  1  0.95072600  0.59715300  0.18591200  1
  O  O20  1  0.67361500  0.43673600  0.61987900  1
  O  O21  1  0.90133600  0.84241100  0.52345000  1
  O  O22  1  0.17582200  0.97108400  0.13967100  1
  O  O23  1  0.47765800  0.12135300  0.66751100  1
  O  O24  1  0.62544800  0.67457900  0.95529100  1
  O  O25  1  0.32638500  0.56326400  0.38012100  1
  O  O26  1  0.04927400  0.40284700  0.81408800  1
  O  O27  1  0.76016100  0.25565800  0.27884400  1
