# generated using pymatgen
data_Li9Mn2Co5O16
_symmetry_space_group_name_H-M   'P 1'
_cell_length_a   5.07325700
_cell_length_b   6.64880337
_cell_length_c   8.70904488
_cell_angle_alpha   98.06366442
_cell_angle_beta   94.58001484
_cell_angle_gamma   98.06811233
_symmetry_Int_Tables_number   1
_chemical_formula_structural   Li9Mn2Co5O16
_chemical_formula_sum   'Li9 Mn2 Co5 O16'
_cell_volume   286.49370337
_cell_formula_units_Z   1
loop_
 _symmetry_equiv_pos_site_id
 _symmetry_equiv_pos_as_xyz
  1  'x, y, z'
loop_
 _atom_site_type_symbol
 _atom_site_label
 _atom_site_symmetry_multiplicity
 _atom_site_fract_x
 _atom_site_fract_y
 _atom_site_fract_z
 _atom_site_occupancy
  Li  Li0  1  0.25462600  0.69097500  0.81925500  1
  Li  Li1  1  0.23706000  0.93611900  0.56079800  1
  Li  Li2  1  0.74019400  0.57826700  0.94276900  1
  Li  Li3  1  0.75550200  0.80763700  0.68613500  1
  Li  Li4  1  0.25693600  0.44000900  0.06698000  1
  Li  Li5  1  0.25706300  0.18141800  0.30565700  1
  Li  Li6  1  0.74051800  0.05547500  0.42727900  1
  Li  Li7  1  0.75212100  0.30910400  0.19047200  1
  Li  Li8  1  0.49819300  0.87581700  0.12539100  1
  Mn  Mn9  1  0.00015400  0.99377800  0.99881400  1
  Mn  Mn10  1  0.49971700  0.37553900  0.62602900  1
  Co  Co11  1  0.00688700  0.24925300  0.75222700  1
  Co  Co12  1  0.99882100  0.50414400  0.49462200  1
  Co  Co13  1  0.00583200  0.76214300  0.24932600  1
  Co  Co14  1  0.50210300  0.11686100  0.88352900  1
  Co  Co15  1  0.50273900  0.63142500  0.36592700  1
  O  O16  1  0.12890200  0.97181700  0.79008300  1
  O  O17  1  0.13862800  0.23233300  0.55099100  1
  O  O18  1  0.64888800  0.86175600  0.90677500  1
  O  O19  1  0.63050500  0.12203000  0.66853600  1
  O  O20  1  0.10753300  0.73827700  0.03038100  1
  O  O21  1  0.11794900  0.47661900  0.29244500  1
  O  O22  1  0.61752900  0.34744800  0.42097100  1
  O  O23  1  0.63339800  0.59573800  0.17115000  1
  O  O24  1  0.37012000  0.39755500  0.83202500  1
  O  O25  1  0.37863800  0.63098900  0.58886900  1
  O  O26  1  0.89097700  0.25988100  0.95691600  1
  O  O27  1  0.85516300  0.51712100  0.70430300  1
  O  O28  1  0.36215800  0.15015200  0.07621800  1
  O  O29  1  0.35517600  0.89010700  0.34444000  1
  O  O30  1  0.86852500  0.77309400  0.46688100  1
  O  O31  1  0.88744200  0.02711400  0.20380700  1
