# generated using pymatgen
data_Li2CoSn(PO4)2
_symmetry_space_group_name_H-M   'P 1'
_cell_length_a   6.31639787
_cell_length_b   9.68816348
_cell_length_c   12.29653708
_cell_angle_alpha   114.17188793
_cell_angle_beta   89.73483315
_cell_angle_gamma   90.66609927
_symmetry_Int_Tables_number   1
_chemical_formula_structural   Li2CoSn(PO4)2
_chemical_formula_sum   'Li8 Co4 Sn4 P8 O32'
_cell_volume   686.45511034
_cell_formula_units_Z   4
loop_
 _symmetry_equiv_pos_site_id
 _symmetry_equiv_pos_as_xyz
  1  'x, y, z'
loop_
 _atom_site_type_symbol
 _atom_site_label
 _atom_site_symmetry_multiplicity
 _atom_site_fract_x
 _atom_site_fract_y
 _atom_site_fract_z
 _atom_site_occupancy
  Li  Li0  1  0.99464500  0.00239200  0.99500700  1
  Li  Li1  1  0.99955100  0.50131300  0.99999200  1
  Li  Li2  1  0.50002600  0.00163600  0.99980800  1
  Li  Li3  1  0.49840000  0.49925500  0.00214300  1
  Li  Li4  1  0.99963200  0.49977400  0.50001400  1
  Li  Li5  1  0.00003800  0.99986000  0.49996500  1
  Li  Li6  1  0.50102300  0.50009000  0.50063400  1
  Li  Li7  1  0.49994400  0.99981600  0.49981000  1
  Co  Co8  1  0.25090500  0.11293900  0.29264200  1
  Co  Co9  1  0.74834200  0.88620600  0.70695200  1
  Co  Co10  1  0.25164900  0.61400300  0.29329000  1
  Co  Co11  1  0.74960900  0.38328300  0.70854000  1
  Sn  Sn12  1  0.75284300  0.35196600  0.22424800  1
  Sn  Sn13  1  0.75266800  0.85220700  0.22393700  1
  Sn  Sn14  1  0.24666200  0.64747500  0.77570100  1
  Sn  Sn15  1  0.24769600  0.14790300  0.77523600  1
  P  P16  1  0.25129000  0.23312800  0.12051800  1
  P  P17  1  0.24887700  0.73310600  0.12175000  1
  P  P18  1  0.74920500  0.76612400  0.87891900  1
  P  P19  1  0.75073200  0.26659800  0.87941300  1
  P  P20  1  0.74954900  0.67152100  0.42490400  1
  P  P21  1  0.75105900  0.17205900  0.42559000  1
  P  P22  1  0.25008200  0.32943500  0.57486400  1
  P  P23  1  0.24979600  0.82814500  0.57477200  1
  O  O24  1  0.74401800  0.37988900  0.01195700  1
  O  O25  1  0.74082200  0.87978400  0.01150600  1
  O  O26  1  0.25928800  0.62083600  0.98886500  1
  O  O27  1  0.25426300  0.12053800  0.98744100  1
  O  O28  1  0.25186900  0.40021300  0.14004800  1
  O  O29  1  0.24221400  0.90007500  0.14210600  1
  O  O30  1  0.75356500  0.59920500  0.86006500  1
  O  O31  1  0.75546400  0.09987200  0.86072000  1
  O  O32  1  0.75293700  0.32641500  0.41662100  1
  O  O33  1  0.75127400  0.82585700  0.41556200  1
  O  O34  1  0.24786500  0.67373100  0.58357000  1
  O  O35  1  0.24796100  0.17539800  0.58506400  1
  O  O36  1  0.25551200  0.31752300  0.44508900  1
  O  O37  1  0.25523500  0.81949500  0.44569300  1
  O  O38  1  0.74425800  0.68161100  0.55413400  1
  O  O39  1  0.74638300  0.18082900  0.55501900  1
  O  O40  1  0.05438000  0.18789900  0.17852000  1
  O  O41  1  0.05183700  0.68146000  0.17569400  1
  O  O42  1  0.44570600  0.19160700  0.18128300  1
  O  O43  1  0.44275100  0.69749900  0.18643100  1
  O  O44  1  0.55622800  0.80334200  0.81465500  1
  O  O45  1  0.55685800  0.30474000  0.81628100  1
  O  O46  1  0.94644200  0.81498800  0.82326800  1
  O  O47  1  0.94741300  0.31400300  0.82225900  1
  O  O48  1  0.55204900  0.56950600  0.35958100  1
  O  O49  1  0.55314000  0.07111400  0.36023500  1
  O  O50  1  0.95025700  0.57448700  0.36360700  1
  O  O51  1  0.95119600  0.07456600  0.36412100  1
  O  O52  1  0.05008800  0.42782400  0.63556600  1
  O  O53  1  0.04910000  0.92528300  0.63631600  1
  O  O54  1  0.44782000  0.43073900  0.63968600  1
  O  O55  1  0.44758300  0.92944100  0.64039000  1
