# generated using pymatgen
data_Li2TiFe3O8
_symmetry_space_group_name_H-M   'P 1'
_cell_length_a   6.04766523
_cell_length_b   5.98725551
_cell_length_c   8.38699976
_cell_angle_alpha   90.07862832
_cell_angle_beta   90.04627851
_cell_angle_gamma   88.41157487
_symmetry_Int_Tables_number   1
_chemical_formula_structural   Li2TiFe3O8
_chemical_formula_sum   'Li4 Ti2 Fe6 O16'
_cell_volume   303.56710665
_cell_formula_units_Z   2
loop_
 _symmetry_equiv_pos_site_id
 _symmetry_equiv_pos_as_xyz
  1  'x, y, z'
loop_
 _atom_site_type_symbol
 _atom_site_label
 _atom_site_symmetry_multiplicity
 _atom_site_fract_x
 _atom_site_fract_y
 _atom_site_fract_z
 _atom_site_occupancy
  Li  Li0  1  0.99720900  0.24220600  0.13193500  1
  Li  Li1  1  0.49986200  0.74469400  0.63132100  1
  Li  Li2  1  0.00075200  0.75427000  0.86906600  1
  Li  Li3  1  0.50140200  0.25623700  0.36852200  1
  Ti  Ti4  1  0.00966700  0.99946600  0.50091700  1
  Ti  Ti5  1  0.50908400  0.50463700  0.99862500  1
  Fe  Fe6  1  0.49584700  0.00200000  0.00039400  1
  Fe  Fe7  1  0.74862800  0.24697400  0.74803200  1
  Fe  Fe8  1  0.74913800  0.75217500  0.25265300  1
  Fe  Fe9  1  0.99518300  0.49723700  0.49962600  1
  Fe  Fe10  1  0.24886300  0.74681100  0.24789300  1
  Fe  Fe11  1  0.24896200  0.25256700  0.75280700  1
  O  O12  1  0.00211600  0.51970100  0.27146200  1
  O  O13  1  0.50166700  0.02128300  0.77174100  1
  O  O14  1  0.99411800  0.47933400  0.72794400  1
  O  O15  1  0.49428600  0.98059300  0.22804700  1
  O  O16  1  0.23036000  0.76160500  0.49123000  1
  O  O17  1  0.72878300  0.26303200  0.99113700  1
  O  O18  1  0.78367300  0.74446000  0.49588600  1
  O  O19  1  0.28301200  0.24714300  0.99589900  1
  O  O20  1  0.99279100  0.97372800  0.26612800  1
  O  O21  1  0.49257500  0.47566400  0.76525100  1
  O  O22  1  0.00732900  0.02410800  0.73499300  1
  O  O23  1  0.50740900  0.52531700  0.23395400  1
  O  O24  1  0.21655400  0.25404500  0.50459600  1
  O  O25  1  0.71704200  0.75645200  0.00450900  1
  O  O26  1  0.77182000  0.23606300  0.50795400  1
  O  O27  1  0.27187000  0.73819700  0.00747600  1
