# generated using pymatgen
data_Li3Mn4O8
_symmetry_space_group_name_H-M   'P 1'
_cell_length_a   5.93650898
_cell_length_b   5.93594749
_cell_length_c   10.88749376
_cell_angle_alpha   74.91838856
_cell_angle_beta   90.03000644
_cell_angle_gamma   121.57450137
_symmetry_Int_Tables_number   1
_chemical_formula_structural   Li3Mn4O8
_chemical_formula_sum   'Li6 Mn8 O16'
_cell_volume   311.28161394
_cell_formula_units_Z   2
loop_
 _symmetry_equiv_pos_site_id
 _symmetry_equiv_pos_as_xyz
  1  'x, y, z'
loop_
 _atom_site_type_symbol
 _atom_site_label
 _atom_site_symmetry_multiplicity
 _atom_site_fract_x
 _atom_site_fract_y
 _atom_site_fract_z
 _atom_site_occupancy
  Li  Li0  1  0.25009800  0.00028700  0.25002700  1
  Li  Li1  1  0.74980600  0.99963700  0.75006500  1
  Li  Li2  1  0.33486100  0.12710200  0.03808500  1
  Li  Li3  1  0.83506400  0.12729400  0.53717600  1
  Li  Li4  1  0.16487600  0.87295200  0.46196100  1
  Li  Li5  1  0.66446800  0.87244800  0.96286300  1
  Mn  Mn6  1  0.00062300  0.50108600  0.99846600  1
  Mn  Mn7  1  0.49909000  0.49876000  0.50146200  1
  Mn  Mn8  1  0.24987200  0.99976800  0.75002900  1
  Mn  Mn9  1  0.25004800  0.50003400  0.74995300  1
  Mn  Mn10  1  0.74975900  0.49955100  0.75002000  1
  Mn  Mn11  1  0.75048800  0.00047700  0.24988100  1
  Mn  Mn12  1  0.75023200  0.50012600  0.25006600  1
  Mn  Mn13  1  0.25016300  0.50043400  0.25001700  1
  O  O14  1  0.89858300  0.24796900  0.35390700  1
  O  O15  1  0.39818100  0.24757500  0.85371100  1
  O  O16  1  0.60189700  0.75254400  0.14616200  1
  O  O17  1  0.10160500  0.75189100  0.64623100  1
  O  O18  1  0.10966000  0.24651900  0.14453700  1
  O  O19  1  0.60933700  0.24506400  0.64517300  1
  O  O20  1  0.63675600  0.23768800  0.14804600  1
  O  O21  1  0.13562900  0.23624600  0.64873100  1
  O  O22  1  0.11468000  0.71563200  0.14804700  1
  O  O23  1  0.61469100  0.71527800  0.64867000  1
  O  O24  1  0.38569300  0.28482900  0.35198500  1
  O  O25  1  0.88519200  0.28438300  0.85127300  1
  O  O26  1  0.86346800  0.76257900  0.35198500  1
  O  O27  1  0.36408900  0.76330300  0.85127400  1
  O  O28  1  0.39075100  0.75416500  0.35549500  1
  O  O29  1  0.89033800  0.75437900  0.85470400  1
