# generated using pymatgen
data_Li2VFeP2(HO5)2
_symmetry_space_group_name_H-M   'P 1'
_cell_length_a   5.43420100
_cell_length_b   7.47967868
_cell_length_c   14.53160247
_cell_angle_alpha   95.50876257
_cell_angle_beta   92.41902780
_cell_angle_gamma   110.63940450
_symmetry_Int_Tables_number   1
_chemical_formula_structural   Li2VFeP2(HO5)2
_chemical_formula_sum   'Li6 V3 Fe3 P6 H6 O30'
_cell_volume   548.35364767
_cell_formula_units_Z   3
loop_
 _symmetry_equiv_pos_site_id
 _symmetry_equiv_pos_as_xyz
  1  'x, y, z'
loop_
 _atom_site_type_symbol
 _atom_site_label
 _atom_site_symmetry_multiplicity
 _atom_site_fract_x
 _atom_site_fract_y
 _atom_site_fract_z
 _atom_site_occupancy
  Li  Li0  1  0.26595800  0.86892400  0.69199500  1
  Li  Li1  1  0.06732800  0.46446600  0.64174800  1
  Li  Li2  1  0.40042200  0.79694800  0.97438500  1
  Li  Li3  1  0.59985900  0.20307600  0.02512200  1
  Li  Li4  1  0.93244600  0.53541700  0.35848100  1
  Li  Li5  1  0.73398900  0.13109400  0.30833100  1
  V  V6  1  0.66714800  0.66680700  0.16642300  1
  V  V7  1  0.00005900  0.00008500  0.50008700  1
  V  V8  1  0.99974900  0.99952700  0.99961300  1
  Fe  Fe9  1  0.33325300  0.33357300  0.83347700  1
  Fe  Fe10  1  0.33298700  0.33329600  0.33328000  1
  Fe  Fe11  1  0.66739200  0.66726900  0.66717500  1
  P  P12  1  0.01902000  0.37976400  0.14812100  1
  P  P13  1  0.31489800  0.95441600  0.18533200  1
  P  P14  1  0.35145500  0.71280400  0.48142900  1
  P  P15  1  0.64840700  0.28718200  0.51880900  1
  P  P16  1  0.68502100  0.04711300  0.81450900  1
  P  P17  1  0.98115100  0.61882200  0.85182300  1
  H  H18  1  0.04646700  0.98827200  0.32537900  1
  H  H19  1  0.28994000  0.34737500  0.00705500  1
  H  H20  1  0.38028800  0.32115300  0.65997300  1
  H  H21  1  0.61991100  0.67842800  0.34125000  1
  H  H22  1  0.70950100  0.65260200  0.99147400  1
  H  H23  1  0.95384100  0.01188000  0.67482400  1
  O  O24  1  0.08130000  0.82811300  0.90042000  1
  O  O25  1  0.04433800  0.83879800  0.21819700  1
  O  O26  1  0.13601700  0.79186500  0.45042100  1
  O  O27  1  0.19749800  0.54118500  0.88248400  1
  O  O28  1  0.29973900  0.95824700  0.07781000  1
  O  O29  1  0.03385100  0.37625200  0.25539800  1
  O  O30  1  0.36703400  0.70863500  0.58871800  1
  O  O31  1  0.25264100  0.50301500  0.43267200  1
  O  O32  1  0.04599500  0.09697400  0.36992800  1
  O  O33  1  0.28964400  0.49521600  0.11497700  1
  O  O34  1  0.28841700  0.23946800  0.96157800  1
  O  O35  1  0.58677300  0.83682700  0.76594000  1
  O  O36  1  0.53022100  0.87498400  0.21634600  1
  O  O37  1  0.37848300  0.42920100  0.70471000  1
  O  O38  1  0.62249900  0.82845500  0.44831800  1
  O  O39  1  0.37732400  0.17168500  0.55196500  1
  O  O40  1  0.62019100  0.56989600  0.29648600  1
  O  O41  1  0.46883100  0.12466600  0.78403900  1
  O  O42  1  0.41373000  0.16422300  0.23382900  1
  O  O43  1  0.71269200  0.76103900  0.03690400  1
  O  O44  1  0.70900400  0.50360700  0.88438600  1
  O  O45  1  0.95406500  0.90312500  0.63021200  1
  O  O46  1  0.74681900  0.49700000  0.56754600  1
  O  O47  1  0.63285500  0.29084900  0.41151700  1
  O  O48  1  0.96535400  0.62335200  0.74445100  1
  O  O49  1  0.70098900  0.04251300  0.92212100  1
  O  O50  1  0.80335000  0.45915400  0.11689200  1
  O  O51  1  0.86399400  0.20824200  0.54983100  1
  O  O52  1  0.95714300  0.16230500  0.78220800  1
  O  O53  1  0.91871900  0.17081500  0.09959800  1
