# generated using pymatgen
data_Li2V2(PO4)3
_symmetry_space_group_name_H-M   'P 1'
_cell_length_a   8.63631300
_cell_length_b   8.76140400
_cell_length_c   12.10594700
_cell_angle_alpha   90.00000000
_cell_angle_beta   90.00000000
_cell_angle_gamma   90.00000000
_symmetry_Int_Tables_number   1
_chemical_formula_structural   Li2V2(PO4)3
_chemical_formula_sum   'Li8 V8 P12 O48'
_cell_volume   916.01133694
_cell_formula_units_Z   4
loop_
 _symmetry_equiv_pos_site_id
 _symmetry_equiv_pos_as_xyz
  1  'x, y, z'
loop_
 _atom_site_type_symbol
 _atom_site_label
 _atom_site_symmetry_multiplicity
 _atom_site_fract_x
 _atom_site_fract_y
 _atom_site_fract_z
 _atom_site_occupancy
  Li  Li0  1  0.71251300  0.77956100  0.31658200  1
  Li  Li1  1  0.78748700  0.27956100  0.18341800  1
  Li  Li2  1  0.78748700  0.22043900  0.81658200  1
  Li  Li3  1  0.71251300  0.72043900  0.68341800  1
  Li  Li4  1  0.28748700  0.22043900  0.68341800  1
  Li  Li5  1  0.21251300  0.72043900  0.81658200  1
  Li  Li6  1  0.21251300  0.77956100  0.18341800  1
  Li  Li7  1  0.28748700  0.27956100  0.31658200  1
  V  V8  1  0.74668400  0.96601800  0.11265700  1
  V  V9  1  0.75331600  0.46601800  0.38734300  1
  V  V10  1  0.75331600  0.03398200  0.61265700  1
  V  V11  1  0.74668400  0.53398200  0.88734300  1
  V  V12  1  0.25331600  0.03398200  0.88734300  1
  V  V13  1  0.24668400  0.53398200  0.61265700  1
  V  V14  1  0.24668400  0.96601800  0.38734300  1
  V  V15  1  0.25331600  0.46601800  0.11265700  1
  P  P16  1  0.89465700  0.60682700  0.14628300  1
  P  P17  1  0.60534300  0.10682700  0.35371700  1
  P  P18  1  0.60534300  0.39317300  0.64628300  1
  P  P19  1  0.89465700  0.89317300  0.85371700  1
  P  P20  1  0.10534300  0.39317300  0.85371700  1
  P  P21  1  0.39465700  0.89317300  0.64628300  1
  P  P22  1  0.39465700  0.60682700  0.35371700  1
  P  P23  1  0.10534300  0.10682700  0.14628300  1
  P  P24  1  0.96266600  0.75000000  0.50000000  1
  P  P25  1  0.53733400  0.25000000  0.00000000  1
  P  P26  1  0.03733400  0.25000000  0.50000000  1
  P  P27  1  0.46266600  0.75000000  0.00000000  1
  O  O28  1  0.83690000  0.76846200  0.17620900  1
  O  O29  1  0.66310000  0.26846200  0.32379100  1
  O  O30  1  0.66310000  0.23153800  0.67620900  1
  O  O31  1  0.83690000  0.73153800  0.82379100  1
  O  O32  1  0.16310000  0.23153800  0.82379100  1
  O  O33  1  0.33690000  0.73153800  0.67620900  1
  O  O34  1  0.33690000  0.76846200  0.32379100  1
  O  O35  1  0.16310000  0.26846200  0.17620900  1
  O  O36  1  0.85567400  0.66596100  0.41739900  1
  O  O37  1  0.64432600  0.16596100  0.08260100  1
  O  O38  1  0.64432600  0.33403900  0.91739900  1
  O  O39  1  0.85567400  0.83403900  0.58260100  1
  O  O40  1  0.14432600  0.33403900  0.58260100  1
  O  O41  1  0.35567400  0.83403900  0.91739900  1
  O  O42  1  0.35567400  0.66596100  0.08260100  1
  O  O43  1  0.14432600  0.16596100  0.41739900  1
  O  O44  1  0.57396400  0.60562200  0.34431900  1
  O  O45  1  0.92603600  0.10562200  0.15568100  1
  O  O46  1  0.92603600  0.39437800  0.84431900  1
  O  O47  1  0.57396400  0.89437800  0.65568100  1
  O  O48  1  0.42603600  0.39437800  0.65568100  1
  O  O49  1  0.07396400  0.89437800  0.84431900  1
  O  O50  1  0.07396400  0.60562200  0.15568100  1
  O  O51  1  0.42603600  0.10562200  0.34431900  1
  O  O52  1  0.84509600  0.55686400  0.02995600  1
  O  O53  1  0.65490400  0.05686400  0.47004400  1
  O  O54  1  0.65490400  0.44313600  0.52995600  1
  O  O55  1  0.84509600  0.94313600  0.97004400  1
  O  O56  1  0.15490400  0.44313600  0.97004400  1
  O  O57  1  0.34509600  0.94313600  0.52995600  1
  O  O58  1  0.34509600  0.55686400  0.47004400  1
  O  O59  1  0.15490400  0.05686400  0.02995600  1
  O  O60  1  0.56056600  0.86249800  0.06731000  1
  O  O61  1  0.93943400  0.36249800  0.43269000  1
  O  O62  1  0.93943400  0.13750200  0.56731000  1
  O  O63  1  0.56056600  0.63750200  0.93269000  1
  O  O64  1  0.43943400  0.13750200  0.93269000  1
  O  O65  1  0.06056600  0.63750200  0.56731000  1
  O  O66  1  0.06056600  0.86249800  0.43269000  1
  O  O67  1  0.43943400  0.36249800  0.06731000  1
  O  O68  1  0.67367900  0.98792100  0.27139000  1
  O  O69  1  0.82632100  0.48792100  0.22861000  1
  O  O70  1  0.82632100  0.01207900  0.77139000  1
  O  O71  1  0.67367900  0.51207900  0.72861000  1
  O  O72  1  0.32632100  0.01207900  0.72861000  1
  O  O73  1  0.17367900  0.51207900  0.77139000  1
  O  O74  1  0.17367900  0.98792100  0.22861000  1
  O  O75  1  0.32632100  0.48792100  0.27139000  1
