# generated using pymatgen
data_Li9Mn2Co5O16
_symmetry_space_group_name_H-M   'P 1'
_cell_length_a   3.01635600
_cell_length_b   7.78153176
_cell_length_c   12.51709362
_cell_angle_alpha   89.41829539
_cell_angle_beta   89.79625022
_cell_angle_gamma   83.26663765
_symmetry_Int_Tables_number   1
_chemical_formula_structural   Li9Mn2Co5O16
_chemical_formula_sum   'Li9 Mn2 Co5 O16'
_cell_volume   291.75725987
_cell_formula_units_Z   1
loop_
 _symmetry_equiv_pos_site_id
 _symmetry_equiv_pos_as_xyz
  1  'x, y, z'
loop_
 _atom_site_type_symbol
 _atom_site_label
 _atom_site_symmetry_multiplicity
 _atom_site_fract_x
 _atom_site_fract_y
 _atom_site_fract_z
 _atom_site_occupancy
  Li  Li0  1  0.94555700  0.62326900  0.81116000  1
  Li  Li1  1  0.69272600  0.12425600  0.05989300  1
  Li  Li2  1  0.44499000  0.62014200  0.31605300  1
  Li  Li3  1  0.55501000  0.37985800  0.68394700  1
  Li  Li4  1  0.30727400  0.87574400  0.94010700  1
  Li  Li5  1  0.05444300  0.37673100  0.18884000  1
  Li  Li6  1  0.18388000  0.12462000  0.55765800  1
  Li  Li7  1  0.81612000  0.87538000  0.44234200  1
  Li  Li8  1  0.00000000  0.50000000  0.50000000  1
  Mn  Mn9  1  0.75014100  0.99984700  0.74922800  1
  Mn  Mn10  1  0.24985900  0.00015300  0.25077200  1
  Co  Co11  1  0.50000000  0.50000000  0.00000000  1
  Co  Co12  1  0.39060200  0.73749700  0.62060400  1
  Co  Co13  1  0.10626300  0.25309400  0.87462400  1
  Co  Co14  1  0.89373700  0.74690600  0.12537600  1
  Co  Co15  1  0.60939800  0.26250300  0.37939600  1
  O  O16  1  0.37309700  0.81243400  0.76976500  1
  O  O17  1  0.06100400  0.31927400  0.02236400  1
  O  O18  1  0.86946700  0.81338900  0.27393100  1
  O  O19  1  0.99053300  0.57539500  0.65362000  1
  O  O20  1  0.74101900  0.06907700  0.89907600  1
  O  O21  1  0.50673700  0.56982000  0.14976200  1
  O  O22  1  0.60317900  0.30223100  0.51619800  1
  O  O23  1  0.23279300  0.07142400  0.39838300  1
  O  O24  1  0.49326300  0.43018000  0.85023800  1
  O  O25  1  0.25898100  0.93092300  0.10092400  1
  O  O26  1  0.00946700  0.42460500  0.34638000  1
  O  O27  1  0.13053300  0.18661100  0.72606900  1
  O  O28  1  0.93899600  0.68072600  0.97763600  1
  O  O29  1  0.62690300  0.18756600  0.23023500  1
  O  O30  1  0.76720700  0.92857600  0.60161700  1
  O  O31  1  0.39682100  0.69776900  0.48380200  1
