# generated using pymatgen
data_Li7Mn5O12
_symmetry_space_group_name_H-M   'P 1'
_cell_length_a   6.03142470
_cell_length_b   7.64244088
_cell_length_c   9.95682278
_cell_angle_alpha   94.66052427
_cell_angle_beta   78.02626085
_cell_angle_gamma   98.17835792
_symmetry_Int_Tables_number   1
_chemical_formula_structural   Li7Mn5O12
_chemical_formula_sum   'Li14 Mn10 O24'
_cell_volume   443.77128050
_cell_formula_units_Z   2
loop_
 _symmetry_equiv_pos_site_id
 _symmetry_equiv_pos_as_xyz
  1  'x, y, z'
loop_
 _atom_site_type_symbol
 _atom_site_label
 _atom_site_symmetry_multiplicity
 _atom_site_fract_x
 _atom_site_fract_y
 _atom_site_fract_z
 _atom_site_occupancy
  Li  Li0  1  0.16981723  0.66623371  0.00258688  1
  Li  Li1  1  0.66987488  0.16605189  0.50254573  1
  Li  Li2  1  0.67899564  0.42270149  0.75632528  1
  Li  Li3  1  0.17891525  0.92269627  0.25619354  1
  Li  Li4  1  0.14883216  0.40562558  0.74325725  1
  Li  Li5  1  0.64884326  0.90580998  0.24334530  1
  Li  Li6  1  0.84794685  0.58633382  0.24410628  1
  Li  Li7  1  0.34798344  0.08625206  0.74405770  1
  Li  Li8  1  0.50380373  0.75602021  0.76175851  1
  Li  Li9  1  0.00398092  0.25601076  0.26166518  1
  Li  Li10  1  0.99223399  0.73886127  0.74769707  1
  Li  Li11  1  0.49245923  0.23911611  0.24773007  1
  Li  Li12  1  0.31871221  0.58293246  0.24268639  1
  Li  Li13  1  0.81864426  0.08288393  0.74259875  1
  Mn  Mn14  1  0.16872477  0.16637036  0.50041297  1
  Mn  Mn15  1  0.49667922  0.49643193  0.49787422  1
  Mn  Mn16  1  0.83311822  0.83755609  0.50124607  1
  Mn  Mn17  1  0.49068214  0.99722850  0.99744401  1
  Mn  Mn18  1  0.84370412  0.34086633  0.00250038  1
  Mn  Mn19  1  0.66855129  0.66661963  1.00037341  1
  Mn  Mn20  1  0.99660389  0.99679914  0.99776107  1
  Mn  Mn21  1  0.33300523  0.33760301  0.00128235  1
  Mn  Mn22  1  0.99081143  0.49697969  0.49753076  1
  Mn  Mn23  1  0.34343231  0.84058664  0.50241024  1
  O  O24  1  0.89283958  0.79046029  0.10533025  1
  O  O25  1  0.39283543  0.29023144  0.60534947  1
  O  O26  1  0.44674870  0.54656854  0.89412827  1
  O  O27  1  0.94674470  0.04649924  0.39410632  1
  O  O28  1  0.60917669  0.46879426  0.11820112  1
  O  O29  1  0.10912353  0.96870729  0.61820086  1
  O  O30  1  0.72664446  0.86724278  0.88386790  1
  O  O31  1  0.22669384  0.36710766  0.38383270  1
  O  O32  1  0.26824359  0.12336420  0.11605740  1
  O  O33  1  0.76827468  0.62323696  0.61612131  1
  O  O34  1  0.06523046  0.20680564  0.88495748  1
  O  O35  1  0.56512754  0.70677257  0.38509702  1
  O  O36  1  0.43282168  0.79798816  0.11372017  1
  O  O37  1  0.93287636  0.29782753  0.61371132  1
  O  O38  1  0.90431344  0.54410910  0.88429050  1
  O  O39  1  0.40431947  0.04403371  0.38420479  1
  O  O40  1  0.09838047  0.44630447  0.12043691  1
  O  O41  1  0.59829932  0.94623294  0.62046580  1
  O  O42  1  0.76382960  0.39469070  0.39342602  1
  O  O43  1  0.26381090  0.89473455  0.89341210  1
  O  O44  1  0.73319414  0.11616250  0.10326071  1
  O  O45  1  0.23304937  0.61598381  0.60337860  1
  O  O46  1  0.56557765  0.20081613  0.88449578  1
  O  O47  1  0.06548871  0.70075471  0.38455781  1
