# generated using pymatgen
data_Li2CaGa
_symmetry_space_group_name_H-M   'P 1'
_cell_length_a   12.26968197
_cell_length_b   12.26968197
_cell_length_c   12.26968197
_cell_angle_alpha   120.14280706
_cell_angle_beta   119.31675030
_cell_angle_gamma   90.47015432
_symmetry_Int_Tables_number   1
_chemical_formula_structural   Li2CaGa
_chemical_formula_sum   'Li2 Ca1 Ga1'
_cell_volume   1311.32812370
_cell_formula_units_Z   1
loop_
 _symmetry_equiv_pos_site_id
 _symmetry_equiv_pos_as_xyz
  1  'x, y, z'
loop_
 _atom_site_type_symbol
 _atom_site_label
 _atom_site_symmetry_multiplicity
 _atom_site_fract_x
 _atom_site_fract_y
 _atom_site_fract_z
 _atom_site_occupancy
  Li  Li0  1  0.71820800  0.00000000  0.71820800  1
  Li  Li1  1  0.28179200  0.00000000  0.28179200  1
  Ca  Ca2  1  0.00000000  0.00000000  0.00000000  1
  Ga  Ga3  1  0.50000000  0.00000000  0.50000000  1
