# generated using pymatgen
data_Li7Mn4CoO12
_symmetry_space_group_name_H-M   'P 1'
_cell_length_a   5.19090521
_cell_length_b   5.97052433
_cell_length_c   14.97853565
_cell_angle_alpha   96.53361842
_cell_angle_beta   95.12285002
_cell_angle_gamma   108.92485449
_symmetry_Int_Tables_number   1
_chemical_formula_structural   Li7Mn4CoO12
_chemical_formula_sum   'Li14 Mn8 Co2 O24'
_cell_volume   432.32444938
_cell_formula_units_Z   2
loop_
 _symmetry_equiv_pos_site_id
 _symmetry_equiv_pos_as_xyz
  1  'x, y, z'
loop_
 _atom_site_type_symbol
 _atom_site_label
 _atom_site_symmetry_multiplicity
 _atom_site_fract_x
 _atom_site_fract_y
 _atom_site_fract_z
 _atom_site_occupancy
  Li  Li0  1  0.16666500  0.33332700  0.16665400  1
  Li  Li1  1  0.66667600  0.83332700  0.66666400  1
  Li  Li2  1  0.60149700  0.15940800  0.09232400  1
  Li  Li3  1  0.10626600  0.65789300  0.59205100  1
  Li  Li4  1  0.73186800  0.50719800  0.24098800  1
  Li  Li5  1  0.22709700  0.00868200  0.74128600  1
  Li  Li6  1  0.75872300  0.01161500  0.24632100  1
  Li  Li7  1  0.25575900  0.50350800  0.74461900  1
  Li  Li8  1  0.57460700  0.65501000  0.08700500  1
  Li  Li9  1  0.07755700  0.16310300  0.58868500  1
  Li  Li10  1  0.92094300  0.83442400  0.41795700  1
  Li  Li11  1  0.41824600  0.33143500  0.91645500  1
  Li  Li12  1  0.91507600  0.33523600  0.41689600  1
  Li  Li13  1  0.41231300  0.83227900  0.91535800  1
  Mn  Mn14  1  0.00799900  0.99906400  0.00140300  1
  Mn  Mn15  1  0.51117300  0.50241700  0.50386100  1
  Mn  Mn16  1  0.32542500  0.66780100  0.33187500  1
  Mn  Mn17  1  0.82215400  0.16420400  0.82949800  1
  Mn  Mn18  1  0.99386200  0.49366000  0.00284500  1
  Mn  Mn19  1  0.49938400  0.99971200  0.50409000  1
  Mn  Mn20  1  0.33966100  0.17299300  0.33048600  1
  Mn  Mn21  1  0.83390100  0.66675100  0.82921700  1
  Co  Co22  1  0.66667200  0.33337100  0.66668100  1
  Co  Co23  1  0.16667100  0.83331400  0.16667300  1
  O  O24  1  0.24558700  0.33162500  0.03235600  1
  O  O25  1  0.75021700  0.83776200  0.53382300  1
  O  O26  1  0.08768600  0.33510900  0.30091900  1
  O  O27  1  0.58308300  0.82890400  0.79953200  1
  O  O28  1  0.46391500  0.17401400  0.21695000  1
  O  O29  1  0.94476500  0.65096800  0.71246000  1
  O  O30  1  0.86957900  0.49264800  0.11636400  1
  O  O31  1  0.38846700  0.01569200  0.62092400  1
  O  O32  1  0.58880200  0.00109200  0.37717700  1
  O  O33  1  0.08633200  0.49918400  0.87603600  1
  O  O34  1  0.24699700  0.16755000  0.45731000  1
  O  O35  1  0.74450400  0.66563800  0.95618500  1
  O  O36  1  0.27847200  0.80241600  0.04426700  1
  O  O37  1  0.78066500  0.30844600  0.54636600  1
  O  O38  1  0.05483000  0.86432600  0.28904300  1
  O  O39  1  0.55263600  0.35821500  0.78702300  1
  O  O40  1  0.42236200  0.68393200  0.21145300  1
  O  O41  1  0.92768000  0.17922400  0.71186600  1
  O  O42  1  0.91098700  0.98269800  0.12185300  1
  O  O43  1  0.40553800  0.48740900  0.62150700  1
  O  O44  1  0.61645500  0.48289500  0.37887100  1
  O  O45  1  0.11300000  0.97722800  0.87619000  1
  O  O46  1  0.22034200  0.68946200  0.45716300  1
  O  O47  1  0.71690400  0.18382900  0.95447200  1
