# generated using pymatgen
data_Li3Y2(BO3)3
_symmetry_space_group_name_H-M   'P 1'
_cell_length_a   14.01745900
_cell_length_b   5.67264900
_cell_length_c   9.21779443
_cell_angle_alpha   67.28290921
_cell_angle_beta   90.00000000
_cell_angle_gamma   90.00000000
_symmetry_Int_Tables_number   1
_chemical_formula_structural   Li3Y2(BO3)3
_chemical_formula_sum   'Li12 Y8 B12 O36'
_cell_volume   676.10215174
_cell_formula_units_Z   4
loop_
 _symmetry_equiv_pos_site_id
 _symmetry_equiv_pos_as_xyz
  1  'x, y, z'
loop_
 _atom_site_type_symbol
 _atom_site_label
 _atom_site_symmetry_multiplicity
 _atom_site_fract_x
 _atom_site_fract_y
 _atom_site_fract_z
 _atom_site_occupancy
  Li  Li0  1  0.33520500  0.91131900  0.01741400  1
  Li  Li1  1  0.66479500  0.08868100  0.98258600  1
  Li  Li2  1  0.83520500  0.08868100  0.48258600  1
  Li  Li3  1  0.16479500  0.91131900  0.51741400  1
  Li  Li4  1  0.78208300  0.90574800  0.29284700  1
  Li  Li5  1  0.21791700  0.09425200  0.70715300  1
  Li  Li6  1  0.28208300  0.09425200  0.20715300  1
  Li  Li7  1  0.71791700  0.90574800  0.79284700  1
  Li  Li8  1  0.89464800  0.56019900  0.29168300  1
  Li  Li9  1  0.10535200  0.43980100  0.70831700  1
  Li  Li10  1  0.39464800  0.43980100  0.20831700  1
  Li  Li11  1  0.60535200  0.56019900  0.79168300  1
  Y  Y12  1  0.66435900  0.44170200  0.19302100  1
  Y  Y13  1  0.33564100  0.55829800  0.80697900  1
  Y  Y14  1  0.16435900  0.55829800  0.30697900  1
  Y  Y15  1  0.83564100  0.44170200  0.69302100  1
  Y  Y16  1  0.50511900  0.84824700  0.34133100  1
  Y  Y17  1  0.49488100  0.15175300  0.65866900  1
  Y  Y18  1  0.00511900  0.15175300  0.15866900  1
  Y  Y19  1  0.99488100  0.84824700  0.84133100  1
  B  B20  1  0.98361200  0.76387600  0.48517700  1
  B  B21  1  0.01638800  0.23612400  0.51482300  1
  B  B22  1  0.48361200  0.23612400  0.01482300  1
  B  B23  1  0.51638800  0.76387600  0.98517700  1
  B  B24  1  0.83700900  0.88942300  0.02692500  1
  B  B25  1  0.16299100  0.11057700  0.97307500  1
  B  B26  1  0.33700900  0.11057700  0.47307500  1
  B  B27  1  0.66299100  0.88942300  0.52692500  1
  B  B28  1  0.82479700  0.39154700  0.02108000  1
  B  B29  1  0.17520300  0.60845300  0.97892000  1
  B  B30  1  0.32479700  0.60845300  0.47892000  1
  B  B31  1  0.67520300  0.39154700  0.52108000  1
  O  O32  1  0.89664700  0.81146600  0.41353400  1
  O  O33  1  0.10335300  0.18853400  0.58646600  1
  O  O34  1  0.39664700  0.18853400  0.08646600  1
  O  O35  1  0.60335300  0.81146600  0.91353400  1
  O  O36  1  0.59209700  0.45959500  0.43117700  1
  O  O37  1  0.40790300  0.54040500  0.56882300  1
  O  O38  1  0.09209700  0.54040500  0.06882300  1
  O  O39  1  0.90790300  0.45959500  0.93117700  1
  O  O40  1  0.75567900  0.81322200  0.11700400  1
  O  O41  1  0.24432100  0.18677800  0.88299600  1
  O  O42  1  0.25567900  0.18677800  0.38299600  1
  O  O43  1  0.74432100  0.81322200  0.61700400  1
  O  O44  1  0.56557700  0.18596700  0.10640700  1
  O  O45  1  0.43442300  0.81403300  0.89359300  1
  O  O46  1  0.06557700  0.81403300  0.39359300  1
  O  O47  1  0.93442300  0.18596700  0.60640700  1
  O  O48  1  0.92732300  0.84631200  0.09319300  1
  O  O49  1  0.07267700  0.15368800  0.90680700  1
  O  O50  1  0.42732300  0.15368800  0.40680700  1
  O  O51  1  0.57267700  0.84631200  0.59319300  1
  O  O52  1  0.83268000  0.28842900  0.18365800  1
  O  O53  1  0.16732000  0.71157100  0.81634200  1
  O  O54  1  0.33268000  0.71157100  0.31634200  1
  O  O55  1  0.66732000  0.28842900  0.68365800  1
  O  O56  1  0.51185800  0.66330200  0.14867900  1
  O  O57  1  0.48814200  0.33669800  0.85132100  1
  O  O58  1  0.01185800  0.33669800  0.35132100  1
  O  O59  1  0.98814200  0.66330200  0.64867900  1
  O  O60  1  0.76212200  0.41869900  0.44725700  1
  O  O61  1  0.23787800  0.58130100  0.55274300  1
  O  O62  1  0.26212200  0.58130100  0.05274300  1
  O  O63  1  0.73787800  0.41869900  0.94725700  1
  O  O64  1  0.66562100  0.00620100  0.36388200  1
  O  O65  1  0.33437900  0.99379900  0.63611800  1
  O  O66  1  0.16562100  0.99379900  0.13611800  1
  O  O67  1  0.83437900  0.00620100  0.86388200  1
