# generated using pymatgen
data_LiMgPb2
_symmetry_space_group_name_H-M   'P 1'
_cell_length_a   11.99787490
_cell_length_b   11.99787490
_cell_length_c   11.99787490
_cell_angle_alpha   124.31953054
_cell_angle_beta   118.88733230
_cell_angle_gamma   87.31204705
_symmetry_Int_Tables_number   1
_chemical_formula_structural   LiMgPb2
_chemical_formula_sum   'Li1 Mg1 Pb2'
_cell_volume   1186.66149720
_cell_formula_units_Z   1
loop_
 _symmetry_equiv_pos_site_id
 _symmetry_equiv_pos_as_xyz
  1  'x, y, z'
loop_
 _atom_site_type_symbol
 _atom_site_label
 _atom_site_symmetry_multiplicity
 _atom_site_fract_x
 _atom_site_fract_y
 _atom_site_fract_z
 _atom_site_occupancy
  Li  Li0  1  0.00000000  0.00000000  0.00000000  1
  Mg  Mg1  1  0.00000000  0.50000000  0.50000000  1
  Pb  Pb2  1  0.00000000  0.24788200  0.24788200  1
  Pb  Pb3  1  0.00000000  0.75211800  0.75211800  1
