# generated using pymatgen
data_SrLiLaTi3O9
_symmetry_space_group_name_H-M   'P 1'
_cell_length_a   5.52988758
_cell_length_b   5.52988758
_cell_length_c   6.78823100
_cell_angle_alpha   90.00000000
_cell_angle_beta   90.00000000
_cell_angle_gamma   119.99999494
_symmetry_Int_Tables_number   1
_chemical_formula_structural   SrLiLaTi3O9
_chemical_formula_sum   'Sr1 Li1 La1 Ti3 O9'
_cell_volume   179.77109796
_cell_formula_units_Z   1
loop_
 _symmetry_equiv_pos_site_id
 _symmetry_equiv_pos_as_xyz
  1  'x, y, z'
loop_
 _atom_site_type_symbol
 _atom_site_label
 _atom_site_symmetry_multiplicity
 _atom_site_fract_x
 _atom_site_fract_y
 _atom_site_fract_z
 _atom_site_occupancy
  Sr  Sr0  1  0.00000000  0.00000000  0.32952500  1
  Li  Li1  1  0.33333300  0.66666700  0.99867900  1
  La  La2  1  0.66666700  0.33333300  0.67124900  1
  Ti  Ti3  1  0.33333300  0.66666700  0.49665600  1
  Ti  Ti4  1  0.00000000  0.00000000  0.83970600  1
  Ti  Ti5  1  0.66666700  0.33333300  0.16307600  1
  O  O6  1  0.16515100  0.83484900  0.66411700  1
  O  O7  1  0.83061800  0.16938200  0.99460200  1
  O  O8  1  0.50407200  0.49592800  0.34165100  1
  O  O9  1  0.99185700  0.49592800  0.34165100  1
  O  O10  1  0.66969800  0.83484900  0.66411700  1
  O  O11  1  0.33876400  0.16938200  0.99460200  1
  O  O12  1  0.16515100  0.33030200  0.66411700  1
  O  O13  1  0.83061800  0.66123600  0.99460200  1
  O  O14  1  0.50407200  0.00814300  0.34165100  1
