# generated using pymatgen
data_Li5V3P8O29
_symmetry_space_group_name_H-M   'P 1'
_cell_length_a   9.78292000
_cell_length_b   9.78961380
_cell_length_c   14.16653862
_cell_angle_alpha   89.41664804
_cell_angle_beta   89.52222423
_cell_angle_gamma   60.23143928
_symmetry_Int_Tables_number   1
_chemical_formula_structural   Li5V3P8O29
_chemical_formula_sum   'Li10 V6 P16 O58'
_cell_volume   1177.63564385
_cell_formula_units_Z   2
loop_
 _symmetry_equiv_pos_site_id
 _symmetry_equiv_pos_as_xyz
  1  'x, y, z'
loop_
 _atom_site_type_symbol
 _atom_site_label
 _atom_site_symmetry_multiplicity
 _atom_site_fract_x
 _atom_site_fract_y
 _atom_site_fract_z
 _atom_site_occupancy
  Li  Li0  1  0.77839700  0.92249600  0.55586700  1
  Li  Li1  1  0.91287500  0.31153400  0.55508300  1
  Li  Li2  1  0.76422100  0.33072600  0.06240200  1
  Li  Li3  1  0.33051100  0.90370200  0.05965000  1
  Li  Li4  1  0.32185500  0.77039000  0.56178400  1
  Li  Li5  1  0.67344400  0.09428200  0.94521800  1
  Li  Li6  1  0.09071300  0.67953200  0.43865800  1
  Li  Li7  1  0.22798700  0.09305000  0.43899900  1
  Li  Li8  1  0.09582400  0.23127900  0.94009800  1
  Li  Li9  1  0.00157900  0.91789000  0.01944900  1
  V  V10  1  0.56250700  0.43613400  0.25330900  1
  V  V11  1  0.43340800  0.56145700  0.75369700  1
  V  V12  1  0.56601600  0.00047400  0.75009800  1
  V  V13  1  0.43597700  0.00016200  0.24968800  1
  V  V14  1  0.99375700  0.57083700  0.24251000  1
  V  V15  1  0.99911500  0.43623600  0.75105700  1
  P  P16  1  0.91336300  0.77726800  0.83938200  1
  P  P17  1  0.77119900  0.90973700  0.33877400  1
  P  P18  1  0.91098800  0.31719500  0.33978700  1
  P  P19  1  0.66416400  0.66512600  0.12888200  1
  P  P20  1  0.66366100  0.66912700  0.63304000  1
  P  P21  1  0.76971300  0.31592700  0.84304700  1
  P  P22  1  0.68734800  0.22815200  0.66103300  1
  P  P23  1  0.31257800  0.91205800  0.84088200  1
  P  P24  1  0.68904400  0.08877900  0.15722800  1
  P  P25  1  0.31967600  0.76910600  0.34543400  1
  P  P26  1  0.22454600  0.69414200  0.16370600  1
  P  P27  1  0.32340700  0.33854900  0.36583000  1
  P  P28  1  0.33795700  0.32630000  0.86974300  1
  P  P29  1  0.08643000  0.68295100  0.65675100  1
  P  P30  1  0.22884300  0.09100300  0.65925000  1
  P  P31  1  0.08876400  0.22829800  0.15851100  1
  O  O32  1  0.99965700  0.75103000  0.56598500  1
  O  O33  1  0.91861800  0.74103200  0.33421100  1
  O  O34  1  0.78033300  0.00866000  0.06934500  1
  O  O35  1  0.73916300  0.91978300  0.83629000  1
  O  O36  1  0.91416100  0.62097600  0.83118600  1
  O  O37  1  0.81190900  0.67067600  0.17396200  1
  O  O38  1  0.90669500  0.47567900  0.31821100  1
  O  O39  1  0.00127900  0.23281100  0.07034800  1
  O  O40  1  0.91939000  0.33408800  0.83758700  1
  O  O41  1  0.66584400  0.81808600  0.67742500  1
  O  O42  1  0.62079200  0.89786300  0.31948100  1
  O  O43  1  0.81223500  0.51816900  0.67201400  1
  O  O44  1  0.67518700  0.65721800  0.02416600  1
  O  O45  1  0.66263300  0.68224800  0.52828200  1
  O  O46  1  0.67457300  0.51164700  0.17198500  1
  O  O47  1  0.46984800  0.91431400  0.82448100  1
  O  O48  1  0.51170100  0.81161700  0.16641000  1
  O  O49  1  0.74687500  0.33868100  0.33818200  1
  O  O50  1  0.78757100  0.20162800  0.75788500  1
  O  O51  1  0.78443800  0.22274100  0.57876300  1
  O  O52  1  0.76756600  0.23632300  0.93426100  1
  O  O53  1  0.62203500  0.47659400  0.82755600  1
  O  O54  1  0.51214200  0.67124200  0.67234600  1
  O  O55  1  0.66367400  0.25665300  0.16138400  1
  O  O56  1  0.48105500  0.62432000  0.32673000  1
  O  O57  1  0.33258100  0.92074300  0.34099900  1
  O  O58  1  0.79387700  0.99923300  0.24957000  1
  O  O59  1  0.76533500  0.98691800  0.42902200  1
  O  O60  1  0.24358600  0.00149600  0.57061900  1
  O  O61  1  0.66367100  0.08048200  0.66172300  1
  O  O62  1  0.52796800  0.37907800  0.67256900  1
  O  O63  1  0.33967400  0.74630300  0.83798300  1
  O  O64  1  0.47139700  0.33968400  0.32153100  1
  O  O65  1  0.38151200  0.54096600  0.16701400  1
  O  O66  1  0.20408400  0.80465600  0.08374800  1
  O  O67  1  0.24411600  0.75785100  0.43604600  1
  O  O68  1  0.20148800  0.78809700  0.26119200  1
  O  O69  1  0.25011100  0.66690400  0.65908800  1
  O  O70  1  0.49138500  0.18301200  0.82240600  1
  O  O71  1  0.53377800  0.08650600  0.16858900  1
  O  O72  1  0.33240300  0.47743700  0.82550000  1
  O  O73  1  0.36208500  0.30720900  0.97365700  1
  O  O74  1  0.31348300  0.34638300  0.47051900  1
  O  O75  1  0.17716300  0.48840200  0.32173600  1
  O  O76  1  0.38061800  0.09957400  0.67781400  1
  O  O77  1  0.32509000  0.18692400  0.32754100  1
  O  O78  1  0.08325500  0.66210300  0.16475400  1
  O  O79  1  0.98703000  0.79914100  0.74091300  1
  O  O80  1  0.99618500  0.79793700  0.92007000  1
  O  O81  1  0.09877800  0.52096100  0.68000200  1
  O  O82  1  0.19028400  0.32047100  0.83514700  1
  O  O83  1  0.09200200  0.38397100  0.17141600  1
  O  O84  1  0.25700100  0.08526400  0.15856100  1
  O  O85  1  0.23295500  0.00014000  0.92976100  1
  O  O86  1  0.20532800  0.00387800  0.74991600  1
  O  O87  1  0.08209000  0.25641200  0.65848500  1
  O  O88  1  0.00285400  0.24247200  0.42819800  1
  O  O89  1  0.00564600  0.20522900  0.25049100  1
