# generated using pymatgen
data_Li4GeS4
_symmetry_space_group_name_H-M   'P 1'
_cell_length_a   6.19128200
_cell_length_b   7.81332000
_cell_length_c   14.16790000
_cell_angle_alpha   90.00000000
_cell_angle_beta   90.00000000
_cell_angle_gamma   90.00000000
_symmetry_Int_Tables_number   1
_chemical_formula_structural   Li4GeS4
_chemical_formula_sum   'Li16 Ge4 S16'
_cell_volume   685.36461776
_cell_formula_units_Z   4
loop_
 _symmetry_equiv_pos_site_id
 _symmetry_equiv_pos_as_xyz
  1  'x, y, z'
loop_
 _atom_site_type_symbol
 _atom_site_label
 _atom_site_symmetry_multiplicity
 _atom_site_fract_x
 _atom_site_fract_y
 _atom_site_fract_z
 _atom_site_occupancy
  Li  Li0  1  0.19016700  0.24975500  0.57357400  1
  Li  Li1  1  0.30983300  0.75024500  0.07357400  1
  Li  Li2  1  0.80983300  0.74975500  0.92642600  1
  Li  Li3  1  0.69016700  0.25024500  0.42642600  1
  Li  Li4  1  0.80864200  0.24984600  0.92803800  1
  Li  Li5  1  0.69135800  0.75015400  0.42803800  1
  Li  Li6  1  0.19135800  0.74984600  0.57196200  1
  Li  Li7  1  0.30864200  0.25015400  0.07196200  1
  Li  Li8  1  0.37139000  0.00122500  0.83758900  1
  Li  Li9  1  0.12861000  0.99877500  0.33758900  1
  Li  Li10  1  0.62861000  0.50122500  0.66241100  1
  Li  Li11  1  0.87139000  0.49877500  0.16241100  1
  Li  Li12  1  0.02308000  0.76460600  0.74818400  1
  Li  Li13  1  0.47692000  0.23539400  0.24818400  1
  Li  Li14  1  0.97692000  0.26460600  0.75181600  1
  Li  Li15  1  0.52308000  0.73539400  0.25181600  1
  Ge  Ge16  1  0.64900000  0.99904700  0.66087200  1
  Ge  Ge17  1  0.85100000  0.00095300  0.16087200  1
  Ge  Ge18  1  0.35100000  0.49904700  0.83912800  1
  Ge  Ge19  1  0.14900000  0.50095300  0.33912800  1
  S  S20  1  0.76983200  0.00055400  0.81173300  1
  S  S21  1  0.73016800  0.99944600  0.31173300  1
  S  S22  1  0.23016800  0.50055400  0.68826700  1
  S  S23  1  0.26983200  0.49944600  0.18826700  1
  S  S24  1  0.28910400  0.99945700  0.66422800  1
  S  S25  1  0.21089600  0.00054300  0.16422800  1
  S  S26  1  0.71089600  0.49945700  0.83577200  1
  S  S27  1  0.78910400  0.50054300  0.33577200  1
  S  S28  1  0.78309800  0.76390800  0.59363200  1
  S  S29  1  0.71690200  0.23609200  0.09363200  1
  S  S30  1  0.21690200  0.26390800  0.90636800  1
  S  S31  1  0.28309800  0.73609200  0.40636800  1
  S  S32  1  0.21997600  0.73593600  0.90639200  1
  S  S33  1  0.28002400  0.26406400  0.40639200  1
  S  S34  1  0.78002400  0.23593600  0.59360800  1
  S  S35  1  0.71997600  0.76406400  0.09360800  1
