# generated using pymatgen
data_Li9Mn7O16
_symmetry_space_group_name_H-M   'P 1'
_cell_length_a   3.01095000
_cell_length_b   5.09868099
_cell_length_c   19.45735591
_cell_angle_alpha   92.64061726
_cell_angle_beta   94.08591433
_cell_angle_gamma   91.83616389
_symmetry_Int_Tables_number   1
_chemical_formula_structural   Li9Mn7O16
_chemical_formula_sum   'Li9 Mn7 O16'
_cell_volume   297.44418404
_cell_formula_units_Z   1
loop_
 _symmetry_equiv_pos_site_id
 _symmetry_equiv_pos_as_xyz
  1  'x, y, z'
loop_
 _atom_site_type_symbol
 _atom_site_label
 _atom_site_symmetry_multiplicity
 _atom_site_fract_x
 _atom_site_fract_y
 _atom_site_fract_z
 _atom_site_occupancy
  Li  Li0  1  0.50000000  0.50000000  0.50000000  1
  Li  Li1  1  0.99561600  0.63256600  0.37887700  1
  Li  Li2  1  0.50315600  0.74435200  0.24965200  1
  Li  Li3  1  0.00039900  0.87536600  0.12534400  1
  Li  Li4  1  0.50000000  0.00000000  0.00000000  1
  Li  Li5  1  0.99960100  0.12463400  0.87465600  1
  Li  Li6  1  0.49684400  0.25564800  0.75034800  1
  Li  Li7  1  0.00438400  0.36743400  0.62112300  1
  Li  Li8  1  0.00000000  0.00000000  0.50000000  1
  Mn  Mn9  1  0.50296100  0.88203200  0.62013200  1
  Mn  Mn10  1  0.49703900  0.11796800  0.37986800  1
  Mn  Mn11  1  0.99188800  0.25324000  0.25215300  1
  Mn  Mn12  1  0.50013400  0.37516700  0.12582900  1
  Mn  Mn13  1  0.00000000  0.50000000  0.00000000  1
  Mn  Mn14  1  0.49986600  0.62483300  0.87417100  1
  Mn  Mn15  1  0.00811200  0.74676000  0.74784700  1
  O  O16  1  0.97624100  0.71361500  0.57080500  1
  O  O17  1  0.50830500  0.82995900  0.43171800  1
  O  O18  1  0.97481600  0.96897500  0.31840900  1
  O  O19  1  0.52905900  0.08025300  0.18778400  1
  O  O20  1  0.03284500  0.20520600  0.06175300  1
  O  O21  1  0.53191500  0.33060700  0.93609200  1
  O  O22  1  0.03053300  0.45159300  0.81090700  1
  O  O23  1  0.53399500  0.58639600  0.68740900  1
  O  O24  1  0.02375900  0.28638500  0.42919500  1
  O  O25  1  0.46600500  0.41360400  0.31259100  1
  O  O26  1  0.96946700  0.54840700  0.18909300  1
  O  O27  1  0.46808500  0.66939300  0.06390800  1
  O  O28  1  0.96715500  0.79479400  0.93824700  1
  O  O29  1  0.47094100  0.91974700  0.81221600  1
  O  O30  1  0.02518400  0.03102500  0.68159100  1
  O  O31  1  0.49169500  0.17004100  0.56828200  1
