# generated using pymatgen
data_LiZr2Pt
_symmetry_space_group_name_H-M   'P 1'
_cell_length_a   11.29867808
_cell_length_b   11.29867808
_cell_length_c   11.29867808
_cell_angle_alpha   122.11678248
_cell_angle_beta   121.51784358
_cell_angle_gamma   86.88095261
_symmetry_Int_Tables_number   1
_chemical_formula_structural   LiZr2Pt
_chemical_formula_sum   'Li1 Zr2 Pt1'
_cell_volume   990.27583141
_cell_formula_units_Z   1
loop_
 _symmetry_equiv_pos_site_id
 _symmetry_equiv_pos_as_xyz
  1  'x, y, z'
loop_
 _atom_site_type_symbol
 _atom_site_label
 _atom_site_symmetry_multiplicity
 _atom_site_fract_x
 _atom_site_fract_y
 _atom_site_fract_z
 _atom_site_occupancy
  Li  Li0  1  0.00000000  0.00000000  0.00000000  1
  Zr  Zr1  1  0.00000000  0.28550500  0.28550500  1
  Zr  Zr2  1  0.00000000  0.71449500  0.71449500  1
  Pt  Pt3  1  0.00000000  0.50000000  0.50000000  1
