# generated using pymatgen
data_Li2FeCoO4
_symmetry_space_group_name_H-M   'P 1'
_cell_length_a   9.60477788
_cell_length_b   9.60477788
_cell_length_c   9.60477812
_cell_angle_alpha   17.20505872
_cell_angle_beta   17.20505872
_cell_angle_gamma   17.20505873
_symmetry_Int_Tables_number   1
_chemical_formula_structural   Li2FeCoO4
_chemical_formula_sum   'Li2 Fe1 Co1 O4'
_cell_volume   67.64213850
_cell_formula_units_Z   1
loop_
 _symmetry_equiv_pos_site_id
 _symmetry_equiv_pos_as_xyz
  1  'x, y, z'
loop_
 _atom_site_type_symbol
 _atom_site_label
 _atom_site_symmetry_multiplicity
 _atom_site_fract_x
 _atom_site_fract_y
 _atom_site_fract_z
 _atom_site_occupancy
  Li  Li0  1  0.24920100  0.24920100  0.24920100  1
  Li  Li1  1  0.75079900  0.75079900  0.75079900  1
  Fe  Fe2  1  0.00000000  0.00000000  0.00000000  1
  Co  Co3  1  0.50000000  0.50000000  0.50000000  1
  O  O4  1  0.62891400  0.62891400  0.62891400  1
  O  O5  1  0.13069800  0.13069800  0.13069800  1
  O  O6  1  0.37108600  0.37108600  0.37108600  1
  O  O7  1  0.86930200  0.86930200  0.86930200  1
