# generated using pymatgen
data_Li9Mn2Co5O16
_symmetry_space_group_name_H-M   'P 1'
_cell_length_a   5.01744200
_cell_length_b   5.09739314
_cell_length_c   11.87284787
_cell_angle_alpha   91.08765306
_cell_angle_beta   91.80261608
_cell_angle_gamma   108.11747997
_symmetry_Int_Tables_number   1
_chemical_formula_structural   Li9Mn2Co5O16
_chemical_formula_sum   'Li9 Mn2 Co5 O16'
_cell_volume   288.32826551
_cell_formula_units_Z   1
loop_
 _symmetry_equiv_pos_site_id
 _symmetry_equiv_pos_as_xyz
  1  'x, y, z'
loop_
 _atom_site_type_symbol
 _atom_site_label
 _atom_site_symmetry_multiplicity
 _atom_site_fract_x
 _atom_site_fract_y
 _atom_site_fract_z
 _atom_site_occupancy
  Li  Li0  1  0.99959800  0.50272100  0.13093200  1
  Li  Li1  1  0.49685800  0.49571200  0.25167900  1
  Li  Li2  1  0.00264100  0.49940600  0.36824600  1
  Li  Li3  1  0.50298100  0.50478300  0.49739300  1
  Li  Li4  1  0.00078000  0.49858700  0.62491300  1
  Li  Li5  1  0.50230000  0.50016900  0.75034000  1
  Li  Li6  1  0.99766000  0.49889400  0.87505600  1
  Li  Li7  1  0.49194800  0.49585100  0.00304900  1
  Li  Li8  1  0.00367700  0.00461900  0.24753800  1
  Mn  Mn9  1  0.99561400  0.99401700  0.00235600  1
  Mn  Mn10  1  0.49998600  0.00327500  0.62605700  1
  Co  Co11  1  0.50397600  0.00080700  0.13083100  1
  Co  Co12  1  0.51018600  0.00920400  0.36753700  1
  Co  Co13  1  0.00755300  0.00326800  0.49636400  1
  Co  Co14  1  0.99849500  0.99741300  0.75011400  1
  Co  Co15  1  0.49429700  0.99153100  0.87703100  1
  O  O16  1  0.23142900  0.76435400  0.00497500  1
  O  O17  1  0.75663000  0.77920300  0.11164100  1
  O  O18  1  0.28442800  0.77136300  0.25366300  1
  O  O19  1  0.73010600  0.78157200  0.37857100  1
  O  O20  1  0.24408800  0.76869700  0.50806200  1
  O  O21  1  0.75558900  0.77474600  0.62933600  1
  O  O22  1  0.25736100  0.76271100  0.76313100  1
  O  O23  1  0.75126100  0.77463200  0.87723500  1
  O  O24  1  0.73497700  0.25012200  0.24664000  1
  O  O25  1  0.27325200  0.21931900  0.37920200  1
  O  O26  1  0.76276700  0.23344500  0.48945400  1
  O  O27  1  0.25073900  0.23121400  0.62834400  1
  O  O28  1  0.74358900  0.23631300  0.74442500  1
  O  O29  1  0.22985300  0.20845700  0.87988500  1
  O  O30  1  0.74147600  0.21622000  0.99192700  1
  O  O31  1  0.24390500  0.22737500  0.11406900  1
