# generated using pymatgen
data_LiVF4
_symmetry_space_group_name_H-M   'P 1'
_cell_length_a   7.56004400
_cell_length_b   7.74918100
_cell_length_c   10.95346600
_cell_angle_alpha   90.00000000
_cell_angle_beta   90.00000000
_cell_angle_gamma   90.00000000
_symmetry_Int_Tables_number   1
_chemical_formula_structural   LiVF4
_chemical_formula_sum   'Li8 V8 F32'
_cell_volume   641.69948776
_cell_formula_units_Z   8
loop_
 _symmetry_equiv_pos_site_id
 _symmetry_equiv_pos_as_xyz
  1  'x, y, z'
loop_
 _atom_site_type_symbol
 _atom_site_label
 _atom_site_symmetry_multiplicity
 _atom_site_fract_x
 _atom_site_fract_y
 _atom_site_fract_z
 _atom_site_occupancy
  Li  Li0  1  0.75000000  0.46092700  0.01796800  1
  Li  Li1  1  0.75000000  0.01001500  0.00854600  1
  Li  Li2  1  0.25000000  0.51001500  0.49145400  1
  Li  Li3  1  0.25000000  0.96092700  0.48203200  1
  Li  Li4  1  0.75000000  0.03907300  0.51796800  1
  Li  Li5  1  0.75000000  0.48998500  0.50854600  1
  Li  Li6  1  0.25000000  0.98998500  0.99145400  1
  Li  Li7  1  0.25000000  0.53907300  0.98203200  1
  V  V8  1  0.99989300  0.11012300  0.25389900  1
  V  V9  1  0.50010700  0.11012300  0.25389900  1
  V  V10  1  0.00010700  0.61012300  0.24610100  1
  V  V11  1  0.49989300  0.61012300  0.24610100  1
  V  V12  1  0.99989300  0.38987700  0.75389900  1
  V  V13  1  0.50010700  0.38987700  0.75389900  1
  V  V14  1  0.49989300  0.88987700  0.74610100  1
  V  V15  1  0.00010700  0.88987700  0.74610100  1
  F  F16  1  0.06909600  0.08579300  0.08844600  1
  F  F17  1  0.43090400  0.08579300  0.08844600  1
  F  F18  1  0.06795800  0.62791800  0.07795700  1
  F  F19  1  0.43204200  0.62791800  0.07795700  1
  F  F20  1  0.25000000  0.05787600  0.32126700  1
  F  F21  1  0.25000000  0.64703500  0.31811800  1
  F  F22  1  0.55576500  0.85887600  0.25479500  1
  F  F23  1  0.94423500  0.85887600  0.25479500  1
  F  F24  1  0.05576500  0.35887600  0.24520500  1
  F  F25  1  0.44423500  0.35887600  0.24520500  1
  F  F26  1  0.75000000  0.14703500  0.18188200  1
  F  F27  1  0.75000000  0.55787600  0.17873300  1
  F  F28  1  0.93204200  0.12791800  0.42204300  1
  F  F29  1  0.56795800  0.12791800  0.42204300  1
  F  F30  1  0.93090400  0.58579300  0.41155400  1
  F  F31  1  0.56909600  0.58579300  0.41155400  1
  F  F32  1  0.06909600  0.41420700  0.58844600  1
  F  F33  1  0.43090400  0.41420700  0.58844600  1
  F  F34  1  0.43204200  0.87208200  0.57795700  1
  F  F35  1  0.06795800  0.87208200  0.57795700  1
  F  F36  1  0.25000000  0.44212400  0.82126700  1
  F  F37  1  0.25000000  0.85296500  0.81811800  1
  F  F38  1  0.55576500  0.64112400  0.75479500  1
  F  F39  1  0.94423500  0.64112400  0.75479500  1
  F  F40  1  0.05576500  0.14112400  0.74520500  1
  F  F41  1  0.44423500  0.14112400  0.74520500  1
  F  F42  1  0.75000000  0.35296500  0.68188200  1
  F  F43  1  0.75000000  0.94212400  0.67873300  1
  F  F44  1  0.93204200  0.37208200  0.92204300  1
  F  F45  1  0.56795800  0.37208200  0.92204300  1
  F  F46  1  0.56909600  0.91420700  0.91155400  1
  F  F47  1  0.93090400  0.91420700  0.91155400  1
