# generated using pymatgen
data_Li2V3SnO8
_symmetry_space_group_name_H-M   'P 1'
_cell_length_a   6.03635921
_cell_length_b   6.18112436
_cell_length_c   8.62778879
_cell_angle_alpha   87.66474606
_cell_angle_beta   89.62958235
_cell_angle_gamma   89.95589125
_symmetry_Int_Tables_number   1
_chemical_formula_structural   Li2V3SnO8
_chemical_formula_sum   'Li4 V6 Sn2 O16'
_cell_volume   321.64151875
_cell_formula_units_Z   2
loop_
 _symmetry_equiv_pos_site_id
 _symmetry_equiv_pos_as_xyz
  1  'x, y, z'
loop_
 _atom_site_type_symbol
 _atom_site_label
 _atom_site_symmetry_multiplicity
 _atom_site_fract_x
 _atom_site_fract_y
 _atom_site_fract_z
 _atom_site_occupancy
  Li  Li0  1  0.00192600  0.24586200  0.12539100  1
  Li  Li1  1  0.50176900  0.74122700  0.61977300  1
  Li  Li2  1  0.99759900  0.75748600  0.87713800  1
  Li  Li3  1  0.49756300  0.26024100  0.37926000  1
  V  V4  1  0.75568800  0.25176200  0.75044200  1
  V  V5  1  0.75373800  0.75087800  0.24927100  1
  V  V6  1  0.24968200  0.24667200  0.74985400  1
  V  V7  1  0.99787600  0.50147900  0.49707700  1
  V  V8  1  0.50170300  0.99745300  0.00366000  1
  V  V9  1  0.24705100  0.74883000  0.24849100  1
  Sn  Sn10  1  0.99993200  0.99688200  0.50109300  1
  Sn  Sn11  1  0.50074400  0.50053900  0.99852300  1
  O  O12  1  0.99971500  0.52967100  0.26384100  1
  O  O13  1  0.51131700  0.03535800  0.77376300  1
  O  O14  1  0.98627700  0.45963900  0.74206400  1
  O  O15  1  0.49921100  0.97885100  0.22170000  1
  O  O16  1  0.22797700  0.74281900  0.49130700  1
  O  O17  1  0.72944300  0.24115300  0.98626000  1
  O  O18  1  0.76769800  0.74920700  0.48767900  1
  O  O19  1  0.27555600  0.24151900  0.98728000  1
  O  O20  1  0.00221800  0.97662200  0.25831000  1
  O  O21  1  0.51042400  0.47074200  0.75770300  1
  O  O22  1  0.98839100  0.02404500  0.74403400  1
  O  O23  1  0.49874600  0.52767800  0.23885900  1
  O  O24  1  0.22983800  0.24923400  0.51723200  1
  O  O25  1  0.72512900  0.76036000  0.00667700  1
  O  O26  1  0.76570400  0.25193200  0.52021100  1
  O  O27  1  0.27708500  0.76185600  0.00310600  1
