# generated using pymatgen
data_Li4Cr3CoO8
_symmetry_space_group_name_H-M   'P 1'
_cell_length_a   5.13015956
_cell_length_b   9.83483242
_cell_length_c   5.93692317
_cell_angle_alpha   90.57777817
_cell_angle_beta   89.69948580
_cell_angle_gamma   100.65136883
_symmetry_Int_Tables_number   1
_chemical_formula_structural   Li4Cr3CoO8
_chemical_formula_sum   'Li8 Cr6 Co2 O16'
_cell_volume   294.36523496
_cell_formula_units_Z   2
loop_
 _symmetry_equiv_pos_site_id
 _symmetry_equiv_pos_as_xyz
  1  'x, y, z'
loop_
 _atom_site_type_symbol
 _atom_site_label
 _atom_site_symmetry_multiplicity
 _atom_site_fract_x
 _atom_site_fract_y
 _atom_site_fract_z
 _atom_site_occupancy
  Li  Li0  1  0.50617100  0.49790600  0.99575600  1
  Li  Li1  1  0.00690500  0.00044600  0.49588600  1
  Li  Li2  1  0.99382700  0.00209000  0.00424300  1
  Li  Li3  1  0.49309200  0.49955100  0.50411500  1
  Li  Li4  1  0.24991700  0.25071300  0.24986500  1
  Li  Li5  1  0.74616500  0.74798200  0.74965600  1
  Li  Li6  1  0.25007500  0.24928400  0.75013200  1
  Li  Li7  1  0.75383400  0.75201500  0.25034700  1
  Cr  Cr8  1  0.75000000  0.25000000  0.50000000  1
  Cr  Cr9  1  0.25000700  0.74999800  0.00000000  1
  Cr  Cr10  1  0.50037500  0.99877700  0.74701900  1
  Cr  Cr11  1  0.99962300  0.50122400  0.25298400  1
  Cr  Cr12  1  0.49617300  0.99902400  0.24820200  1
  Cr  Cr13  1  0.00382600  0.50097600  0.75179900  1
  Co  Co14  1  0.25000000  0.75000100  0.50000100  1
  Co  Co15  1  0.74999900  0.25000000  0.00000000  1
  O  O16  1  0.39425700  0.11934700  0.50093500  1
  O  O17  1  0.89555200  0.61971600  0.00390000  1
  O  O18  1  0.10574000  0.38065400  0.49906500  1
  O  O19  1  0.60445400  0.88028700  0.99610100  1
  O  O20  1  0.40115300  0.12307700  0.99961400  1
  O  O21  1  0.90712400  0.62493100  0.50362300  1
  O  O22  1  0.09884600  0.37692500  0.00038600  1
  O  O23  1  0.59287600  0.87507100  0.49637800  1
  O  O24  1  0.85786500  0.12689200  0.74391900  1
  O  O25  1  0.35329900  0.63438000  0.25837600  1
  O  O26  1  0.85545400  0.12807800  0.25091500  1
  O  O27  1  0.36125200  0.62411600  0.76225800  1
  O  O28  1  0.64213400  0.37310900  0.25607900  1
  O  O29  1  0.14670300  0.86562000  0.74162600  1
  O  O30  1  0.64454500  0.37192400  0.74908400  1
  O  O31  1  0.13875200  0.87588400  0.23774200  1
