# generated using pymatgen
data_LiTiNF6
_symmetry_space_group_name_H-M   'P 1'
_cell_length_a   8.67930100
_cell_length_b   9.54773200
_cell_length_c   13.81623000
_cell_angle_alpha   90.00000000
_cell_angle_beta   90.00000000
_cell_angle_gamma   90.00000000
_symmetry_Int_Tables_number   1
_chemical_formula_structural   LiTiNF6
_chemical_formula_sum   'Li8 Ti8 N8 F48'
_cell_volume   1144.91837235
_cell_formula_units_Z   8
loop_
 _symmetry_equiv_pos_site_id
 _symmetry_equiv_pos_as_xyz
  1  'x, y, z'
loop_
 _atom_site_type_symbol
 _atom_site_label
 _atom_site_symmetry_multiplicity
 _atom_site_fract_x
 _atom_site_fract_y
 _atom_site_fract_z
 _atom_site_occupancy
  Li  Li0  1  0.00000000  0.75000000  0.94881900  1
  Li  Li1  1  0.00000000  0.25000000  0.05118100  1
  Li  Li2  1  0.50000000  0.25000000  0.55118100  1
  Li  Li3  1  0.50000000  0.75000000  0.44881900  1
  Li  Li4  1  0.00000000  0.75000000  0.32428900  1
  Li  Li5  1  0.00000000  0.25000000  0.67571100  1
  Li  Li6  1  0.50000000  0.25000000  0.17571100  1
  Li  Li7  1  0.50000000  0.75000000  0.82428900  1
  Ti  Ti8  1  0.21648500  0.54762700  0.13889500  1
  Ti  Ti9  1  0.78351500  0.45237300  0.86110500  1
  Ti  Ti10  1  0.28351500  0.04762700  0.36110500  1
  Ti  Ti11  1  0.78351500  0.95237300  0.13889500  1
  Ti  Ti12  1  0.71648500  0.95237300  0.63889500  1
  Ti  Ti13  1  0.21648500  0.04762700  0.86110500  1
  Ti  Ti14  1  0.71648500  0.45237300  0.36110500  1
  Ti  Ti15  1  0.28351500  0.54762700  0.63889500  1
  N  N16  1  0.25606100  0.92867300  0.11896600  1
  N  N17  1  0.74393900  0.07132700  0.88103400  1
  N  N18  1  0.24393900  0.42867300  0.38103400  1
  N  N19  1  0.74393900  0.57132700  0.11896600  1
  N  N20  1  0.75606100  0.57132700  0.61896600  1
  N  N21  1  0.25606100  0.42867300  0.88103400  1
  N  N22  1  0.75606100  0.07132700  0.38103400  1
  N  N23  1  0.24393900  0.92867300  0.61896600  1
  F  F24  1  0.15790600  0.88816100  0.35579900  1
  F  F25  1  0.84209400  0.11183900  0.64420100  1
  F  F26  1  0.34209400  0.38816100  0.14420100  1
  F  F27  1  0.84209400  0.61183900  0.35579900  1
  F  F28  1  0.65790600  0.61183900  0.85579900  1
  F  F29  1  0.15790600  0.38816100  0.64420100  1
  F  F30  1  0.65790600  0.11183900  0.14420100  1
  F  F31  1  0.34209400  0.88816100  0.85579900  1
  F  F32  1  0.05758100  0.41627000  0.11486200  1
  F  F33  1  0.94241900  0.58373000  0.88513800  1
  F  F34  1  0.44241900  0.91627000  0.38513800  1
  F  F35  1  0.94241900  0.08373000  0.11486200  1
  F  F36  1  0.55758100  0.08373000  0.61486200  1
  F  F37  1  0.05758100  0.91627000  0.88513800  1
  F  F38  1  0.55758100  0.58373000  0.38513800  1
  F  F39  1  0.44241900  0.41627000  0.61486200  1
  F  F40  1  0.12430200  0.62130700  0.24582600  1
  F  F41  1  0.87569800  0.37869300  0.75417400  1
  F  F42  1  0.37569800  0.12130700  0.25417400  1
  F  F43  1  0.87569800  0.87869300  0.24582600  1
  F  F44  1  0.62430200  0.87869300  0.74582600  1
  F  F45  1  0.12430200  0.12130700  0.75417400  1
  F  F46  1  0.62430200  0.37869300  0.25417400  1
  F  F47  1  0.37569800  0.62130700  0.74582600  1
  F  F48  1  0.35861200  0.48614800  0.94142400  1
  F  F49  1  0.64138800  0.51385200  0.05857600  1
  F  F50  1  0.14138800  0.98614800  0.55857600  1
  F  F51  1  0.64138800  0.01385200  0.94142400  1
  F  F52  1  0.85861200  0.01385200  0.44142400  1
  F  F53  1  0.35861200  0.98614800  0.05857600  1
  F  F54  1  0.85861200  0.51385200  0.55857600  1
  F  F55  1  0.14138800  0.48614800  0.44142400  1
  F  F56  1  0.14411300  0.65485000  0.03819200  1
  F  F57  1  0.85588700  0.34515000  0.96180800  1
  F  F58  1  0.35588700  0.15485000  0.46180800  1
  F  F59  1  0.85588700  0.84515000  0.03819200  1
  F  F60  1  0.64411300  0.84515000  0.53819200  1
  F  F61  1  0.14411300  0.15485000  0.96180800  1
  F  F62  1  0.64411300  0.34515000  0.46180800  1
  F  F63  1  0.35588700  0.65485000  0.53819200  1
  F  F64  1  0.39044100  0.64835600  0.14729300  1
  F  F65  1  0.60955900  0.35164400  0.85270700  1
  F  F66  1  0.10955900  0.14835600  0.35270700  1
  F  F67  1  0.60955900  0.85164400  0.14729300  1
  F  F68  1  0.89044100  0.85164400  0.64729300  1
  F  F69  1  0.39044100  0.14835600  0.85270700  1
  F  F70  1  0.89044100  0.35164400  0.35270700  1
  F  F71  1  0.10955900  0.64835600  0.64729300  1
