# generated using pymatgen
data_Li2MnV3O8
_symmetry_space_group_name_H-M   'P 1'
_cell_length_a   5.96790661
_cell_length_b   6.03051334
_cell_length_c   10.32840127
_cell_angle_alpha   106.59929060
_cell_angle_beta   90.00083607
_cell_angle_gamma   60.34791691
_symmetry_Int_Tables_number   1
_chemical_formula_structural   Li2MnV3O8
_chemical_formula_sum   'Li4 Mn2 V6 O16'
_cell_volume   305.08521656
_cell_formula_units_Z   2
loop_
 _symmetry_equiv_pos_site_id
 _symmetry_equiv_pos_as_xyz
  1  'x, y, z'
loop_
 _atom_site_type_symbol
 _atom_site_label
 _atom_site_symmetry_multiplicity
 _atom_site_fract_x
 _atom_site_fract_y
 _atom_site_fract_z
 _atom_site_occupancy
  Li  Li0  1  0.31475200  0.36287900  0.55974500  1
  Li  Li1  1  0.82265600  0.36223000  0.06030900  1
  Li  Li2  1  0.74418100  0.50473500  0.75099400  1
  Li  Li3  1  0.25180300  0.50379200  0.25074600  1
  Mn  Mn4  1  0.17756200  0.63515900  0.93960800  1
  Mn  Mn5  1  0.68757300  0.63481700  0.43931400  1
  V  V6  1  0.74184600  0.00692700  0.74549400  1
  V  V7  1  0.23893000  0.99769000  0.75318300  1
  V  V8  1  0.00811500  0.00140300  0.50320500  1
  V  V9  1  0.26311200  0.99726900  0.25234400  1
  V  V10  1  0.75005500  0.00684100  0.24640300  1
  V  V11  1  0.49215300  0.00117800  0.00330500  1
  O  O12  1  0.10527200  0.77770200  0.62958600  1
  O  O13  1  0.61705200  0.77756000  0.12961000  1
  O  O14  1  0.38607300  0.21770700  0.86901800  1
  O  O15  1  0.89621500  0.21732700  0.36928300  1
  O  O16  1  0.90744100  0.20971800  0.85406800  1
  O  O17  1  0.38263300  0.20997200  0.35417500  1
  O  O18  1  0.65462000  0.20890200  0.63263800  1
  O  O19  1  0.17769400  0.21116600  0.11750400  1
  O  O20  1  0.11141900  0.21115700  0.61754300  1
  O  O21  1  0.63633300  0.20888400  0.13271000  1
  O  O22  1  0.38430700  0.77773900  0.87283100  1
  O  O23  1  0.87488000  0.79989200  0.37378400  1
  O  O24  1  0.82510000  0.80021300  0.87390200  1
  O  O25  1  0.33779000  0.77771700  0.37308700  1
  O  O26  1  0.59094100  0.78967900  0.64780900  1
  O  O27  1  0.11948400  0.78975900  0.14780500  1
