# generated using pymatgen
data_Li6Zn3(PS4)4
_symmetry_space_group_name_H-M   'P 1'
_cell_length_a   9.27157400
_cell_length_b   11.61793554
_cell_length_c   23.19768539
_cell_angle_alpha   89.93789025
_cell_angle_beta   89.97196425
_cell_angle_gamma   89.93054240
_symmetry_Int_Tables_number   1
_chemical_formula_structural   Li6Zn3(PS4)4
_chemical_formula_sum   'Li24 Zn12 P16 S64'
_cell_volume   2498.77101475
_cell_formula_units_Z   4
loop_
 _symmetry_equiv_pos_site_id
 _symmetry_equiv_pos_as_xyz
  1  'x, y, z'
loop_
 _atom_site_type_symbol
 _atom_site_label
 _atom_site_symmetry_multiplicity
 _atom_site_fract_x
 _atom_site_fract_y
 _atom_site_fract_z
 _atom_site_occupancy
  Li  Li0  1  0.74825400  0.00093000  0.12973400  1
  Li  Li1  1  0.25020800  0.24555900  0.24661900  1
  Li  Li2  1  0.24609300  0.25963100  0.00392800  1
  Li  Li3  1  0.25265000  0.74304500  0.00828200  1
  Li  Li4  1  0.50275600  0.50185900  0.74863300  1
  Li  Li5  1  0.50034700  0.00005000  0.74906200  1
  Li  Li6  1  0.49977800  0.50067400  0.49965000  1
  Li  Li7  1  0.50429100  0.99927800  0.50074100  1
  Li  Li8  1  0.00211400  0.25105500  0.62464100  1
  Li  Li9  1  0.00119500  0.75057600  0.62433000  1
  Li  Li10  1  0.50364600  0.50348000  0.25006400  1
  Li  Li11  1  0.50036000  0.99820800  0.25114700  1
  Li  Li12  1  0.99796000  0.24863100  0.37690600  1
  Li  Li13  1  0.00382200  0.74950300  0.37527200  1
  Li  Li14  1  0.51530800  0.49809200  0.00185800  1
  Li  Li15  1  0.50122300  0.99871900  0.99774800  1
  Li  Li16  1  0.98546400  0.25154000  0.12571700  1
  Li  Li17  1  0.99725500  0.74448000  0.12690300  1
  Li  Li18  1  0.99783200  0.25188300  0.87369500  1
  Li  Li19  1  0.99640200  0.75157500  0.87212900  1
  Li  Li20  1  0.49971000  0.74873800  0.12740800  1
  Li  Li21  1  0.50815400  0.25322500  0.12409200  1
  Li  Li22  1  0.00044600  0.99729300  0.25250900  1
  Li  Li23  1  0.98466200  0.50056400  0.99997200  1
  Zn  Zn24  1  0.50660100  0.75010400  0.87510700  1
  Zn  Zn25  1  0.50722800  0.25080200  0.87329900  1
  Zn  Zn26  1  0.49940800  0.74904700  0.62410700  1
  Zn  Zn27  1  0.49886400  0.24963400  0.62464100  1
  Zn  Zn28  1  0.00080100  0.50000900  0.74998200  1
  Zn  Zn29  1  0.99920800  0.99910700  0.74872400  1
  Zn  Zn30  1  0.49993400  0.75104600  0.37403400  1
  Zn  Zn31  1  0.50667000  0.24761900  0.37603200  1
  Zn  Zn32  1  0.99939900  0.49965200  0.49950300  1
  Zn  Zn33  1  0.00007700  0.99934800  0.49985000  1
  Zn  Zn34  1  0.99221000  0.50170500  0.24926400  1
  Zn  Zn35  1  0.99353200  0.00224200  0.99968700  1
  P  P36  1  0.75003100  0.75069600  0.74934400  1
  P  P37  1  0.75069800  0.25033300  0.74929300  1
  P  P38  1  0.75006100  0.74943700  0.50003900  1
  P  P39  1  0.75062900  0.25035500  0.50066700  1
  P  P40  1  0.24986300  0.50023100  0.62495200  1
  P  P41  1  0.25008500  0.00008800  0.62508500  1
  P  P42  1  0.75284200  0.75448700  0.25338000  1
  P  P43  1  0.74703100  0.25393000  0.24902000  1
  P  P44  1  0.24753000  0.49922800  0.37431700  1
  P  P45  1  0.25418800  0.00605000  0.37610800  1
  P  P46  1  0.74796700  0.75007400  0.99706400  1
  P  P47  1  0.75155500  0.24108700  0.00064800  1
  P  P48  1  0.25136900  0.50221600  0.12481300  1
  P  P49  1  0.24625200  0.99802000  0.12343800  1
  P  P50  1  0.25159400  0.49577500  0.87535200  1
  P  P51  1  0.24967600  0.99896300  0.87514400  1
  S  S52  1  0.87339800  0.65012100  0.94637800  1
  S  S53  1  0.86641100  0.13607400  0.94459000  1
  S  S54  1  0.86668400  0.63967800  0.69794000  1
  S  S55  1  0.86689500  0.13994400  0.69737700  1
  S  S56  1  0.37225800  0.39069800  0.82251900  1
  S  S57  1  0.36585800  0.88921400  0.82374000  1
  S  S58  1  0.86498300  0.63858800  0.44792400  1
  S  S59  1  0.86289300  0.13789500  0.44868400  1
  S  S60  1  0.36445000  0.38896600  0.57294800  1
  S  S61  1  0.36463300  0.88915300  0.57293100  1
  S  S62  1  0.85872400  0.63999300  0.19886000  1
  S  S63  1  0.86920000  0.14261700  0.19944900  1
  S  S64  1  0.37074000  0.38789100  0.32317300  1
  S  S65  1  0.36441400  0.89238000  0.32382900  1
  S  S66  1  0.36880500  0.39337400  0.07223800  1
  S  S67  1  0.37243900  0.89534800  0.07132800  1
  S  S68  1  0.63492600  0.35366900  0.69385800  1
  S  S69  1  0.63421100  0.85363700  0.69366600  1
  S  S70  1  0.63761800  0.35527000  0.44497000  1
  S  S71  1  0.63359900  0.85278500  0.44502700  1
  S  S72  1  0.13420700  0.10359300  0.56981800  1
  S  S73  1  0.13496200  0.60363200  0.56918900  1
  S  S74  1  0.62868700  0.35695500  0.19750500  1
  S  S75  1  0.63274900  0.85551500  0.19780800  1
  S  S76  1  0.13460900  0.10826100  0.32201500  1
  S  S77  1  0.13503300  0.60236700  0.31836200  1
  S  S78  1  0.63305700  0.34711500  0.94583800  1
  S  S79  1  0.63328800  0.85946400  0.94272600  1
  S  S80  1  0.12569000  0.10893600  0.06869000  1
  S  S81  1  0.12286500  0.60132300  0.07178100  1
  S  S82  1  0.13238700  0.10162900  0.82045300  1
  S  S83  1  0.13762000  0.60172200  0.82035100  1
  S  S84  1  0.86207900  0.86352400  0.80134700  1
  S  S85  1  0.86280700  0.36227700  0.80174500  1
  S  S86  1  0.86436900  0.86103300  0.55213200  1
  S  S87  1  0.86587900  0.36141900  0.55253000  1
  S  S88  1  0.36373300  0.61193100  0.67699700  1
  S  S89  1  0.36372300  0.11170100  0.67732600  1
  S  S90  1  0.86992400  0.85688700  0.30529200  1
  S  S91  1  0.87215000  0.35703800  0.30214900  1
  S  S92  1  0.36447400  0.60925400  0.42573200  1
  S  S93  1  0.37180100  0.11247200  0.42952900  1
  S  S94  1  0.86817900  0.86085600  0.05155200  1
  S  S95  1  0.86460500  0.35069000  0.05051900  1
  S  S96  1  0.36566400  0.60437000  0.17741800  1
  S  S97  1  0.37093100  0.10503300  0.17379000  1
  S  S98  1  0.37306500  0.60741300  0.92747900  1
  S  S99  1  0.36800000  0.11178800  0.92635400  1
  S  S100  1  0.63662900  0.64587100  0.80509200  1
  S  S101  1  0.63783500  0.14420900  0.80475600  1
  S  S102  1  0.63649800  0.64459800  0.55607300  1
  S  S103  1  0.63637700  0.14619100  0.55658700  1
  S  S104  1  0.13615600  0.39591000  0.68101000  1
  S  S105  1  0.13692100  0.89499200  0.68105000  1
  S  S106  1  0.63023100  0.64724500  0.30542800  1
  S  S107  1  0.63518200  0.14618900  0.30519300  1
  S  S108  1  0.13559000  0.39466400  0.43059600  1
  S  S109  1  0.13734800  0.90010500  0.43056000  1
  S  S110  1  0.63156800  0.65194600  0.05181000  1
  S  S111  1  0.62732000  0.13782300  0.05261600  1
  S  S112  1  0.12431400  0.39480800  0.17810800  1
  S  S113  1  0.12078000  0.89961000  0.17412400  1
  S  S114  1  0.13024400  0.39588700  0.92924900  1
  S  S115  1  0.13209300  0.89459400  0.93095700  1
