# generated using pymatgen
data_Li3Eu
_symmetry_space_group_name_H-M   'P 1'
_cell_length_a   6.92444501
_cell_length_b   6.92444501
_cell_length_c   5.39132900
_cell_angle_alpha   90.00000000
_cell_angle_beta   90.00000000
_cell_angle_gamma   119.99999054
_symmetry_Int_Tables_number   1
_chemical_formula_structural   Li3Eu
_chemical_formula_sum   'Li6 Eu2'
_cell_volume   223.87028362
_cell_formula_units_Z   2
loop_
 _symmetry_equiv_pos_site_id
 _symmetry_equiv_pos_as_xyz
  1  'x, y, z'
loop_
 _atom_site_type_symbol
 _atom_site_label
 _atom_site_symmetry_multiplicity
 _atom_site_fract_x
 _atom_site_fract_y
 _atom_site_fract_z
 _atom_site_occupancy
  Li  Li0  1  0.14520900  0.29041700  0.25000000  1
  Li  Li1  1  0.70958300  0.85479100  0.25000000  1
  Li  Li2  1  0.14520900  0.85479100  0.25000000  1
  Li  Li3  1  0.85479100  0.70958300  0.75000000  1
  Li  Li4  1  0.29041700  0.14520900  0.75000000  1
  Li  Li5  1  0.85479100  0.14520900  0.75000000  1
  Eu  Eu6  1  0.33333300  0.66666700  0.75000000  1
  Eu  Eu7  1  0.66666700  0.33333300  0.25000000  1
