# generated using pymatgen
data_Li2Mn2V3O12
_symmetry_space_group_name_H-M   'P 1'
_cell_length_a   8.98220700
_cell_length_b   9.12921700
_cell_length_c   12.77367800
_cell_angle_alpha   90.00000000
_cell_angle_beta   90.00000000
_cell_angle_gamma   90.00000000
_symmetry_Int_Tables_number   1
_chemical_formula_structural   Li2Mn2V3O12
_chemical_formula_sum   'Li8 Mn8 V12 O48'
_cell_volume   1047.44819797
_cell_formula_units_Z   4
loop_
 _symmetry_equiv_pos_site_id
 _symmetry_equiv_pos_as_xyz
  1  'x, y, z'
loop_
 _atom_site_type_symbol
 _atom_site_label
 _atom_site_symmetry_multiplicity
 _atom_site_fract_x
 _atom_site_fract_y
 _atom_site_fract_z
 _atom_site_occupancy
  Li  Li0  1  0.27395200  0.22478500  0.19028700  1
  Li  Li1  1  0.77395200  0.77521500  0.19028700  1
  Li  Li2  1  0.77395200  0.27521500  0.30971300  1
  Li  Li3  1  0.27395200  0.72478500  0.30971300  1
  Li  Li4  1  0.72604800  0.27521500  0.69028700  1
  Li  Li5  1  0.22604800  0.72478500  0.69028700  1
  Li  Li6  1  0.22604800  0.22478500  0.80971300  1
  Li  Li7  1  0.72604800  0.77521500  0.80971300  1
  Mn  Mn8  1  0.97105800  0.25124300  0.11937100  1
  Mn  Mn9  1  0.47105800  0.74875700  0.11937100  1
  Mn  Mn10  1  0.97105800  0.75124300  0.38062900  1
  Mn  Mn11  1  0.47105800  0.24875700  0.38062900  1
  Mn  Mn12  1  0.02894200  0.24875700  0.61937100  1
  Mn  Mn13  1  0.52894200  0.75124300  0.61937100  1
  Mn  Mn14  1  0.52894200  0.25124300  0.88062900  1
  Mn  Mn15  1  0.02894200  0.74875700  0.88062900  1
  V  V16  1  0.25000000  0.46852800  0.00000000  1
  V  V17  1  0.75000000  0.53147200  0.00000000  1
  V  V18  1  0.75000000  0.03147200  0.50000000  1
  V  V19  1  0.25000000  0.96852800  0.50000000  1
  V  V20  1  0.60589500  0.09927900  0.14150200  1
  V  V21  1  0.10589500  0.90072100  0.14150200  1
  V  V22  1  0.10589500  0.40072100  0.35849800  1
  V  V23  1  0.60589500  0.59927900  0.35849800  1
  V  V24  1  0.39410500  0.40072100  0.64150200  1
  V  V25  1  0.89410500  0.59927900  0.64150200  1
  V  V26  1  0.89410500  0.09927900  0.85849800  1
  V  V27  1  0.39410500  0.90072100  0.85849800  1
  O  O28  1  0.55609700  0.15000600  0.01759800  1
  O  O29  1  0.05609700  0.84999400  0.01759800  1
  O  O30  1  0.36850800  0.57547700  0.07309700  1
  O  O31  1  0.86850800  0.42452300  0.07309700  1
  O  O32  1  0.15878300  0.35257300  0.09030400  1
  O  O33  1  0.65878300  0.64742700  0.09030400  1
  O  O34  1  0.10224000  0.09369700  0.16111800  1
  O  O35  1  0.60224000  0.90630300  0.16111800  1
  O  O36  1  0.78497200  0.16111400  0.17395400  1
  O  O37  1  0.28497200  0.83888600  0.17395400  1
  O  O38  1  0.97810500  0.82169000  0.22659800  1
  O  O39  1  0.47810500  0.17831000  0.22659800  1
  O  O40  1  0.97810500  0.32169000  0.27340200  1
  O  O41  1  0.47810500  0.67831000  0.27340200  1
  O  O42  1  0.78497200  0.66111400  0.32604600  1
  O  O43  1  0.28497200  0.33888600  0.32604600  1
  O  O44  1  0.60224000  0.40630300  0.33888200  1
  O  O45  1  0.10224000  0.59369700  0.33888200  1
  O  O46  1  0.65878300  0.14742700  0.40969600  1
  O  O47  1  0.15878300  0.85257300  0.40969600  1
  O  O48  1  0.36850800  0.07547700  0.42690300  1
  O  O49  1  0.86850800  0.92452300  0.42690300  1
  O  O50  1  0.55609700  0.65000600  0.48240200  1
  O  O51  1  0.05609700  0.34999400  0.48240200  1
  O  O52  1  0.44390300  0.34999400  0.51759800  1
  O  O53  1  0.94390300  0.65000600  0.51759800  1
  O  O54  1  0.13149200  0.07547700  0.57309700  1
  O  O55  1  0.63149200  0.92452300  0.57309700  1
  O  O56  1  0.84121700  0.14742700  0.59030400  1
  O  O57  1  0.34121700  0.85257300  0.59030400  1
  O  O58  1  0.89776000  0.40630300  0.66111800  1
  O  O59  1  0.39776000  0.59369700  0.66111800  1
  O  O60  1  0.21502800  0.33888600  0.67395400  1
  O  O61  1  0.71502800  0.66111400  0.67395400  1
  O  O62  1  0.52189500  0.32169000  0.72659800  1
  O  O63  1  0.02189500  0.67831000  0.72659800  1
  O  O64  1  0.02189500  0.17831000  0.77340200  1
  O  O65  1  0.52189500  0.82169000  0.77340200  1
  O  O66  1  0.71502800  0.16111400  0.82604600  1
  O  O67  1  0.21502800  0.83888600  0.82604600  1
  O  O68  1  0.39776000  0.09369700  0.83888200  1
  O  O69  1  0.89776000  0.90630300  0.83888200  1
  O  O70  1  0.34121700  0.35257300  0.90969600  1
  O  O71  1  0.84121700  0.64742700  0.90969600  1
  O  O72  1  0.63149200  0.42452300  0.92690300  1
  O  O73  1  0.13149200  0.57547700  0.92690300  1
  O  O74  1  0.94390300  0.15000600  0.98240200  1
  O  O75  1  0.44390300  0.84999400  0.98240200  1
