# generated using pymatgen
data_Li2VCr3O8
_symmetry_space_group_name_H-M   'P 1'
_cell_length_a   5.96172588
_cell_length_b   10.17654519
_cell_length_c   5.99379992
_cell_angle_alpha   72.87440591
_cell_angle_beta   59.81946770
_cell_angle_gamma   72.96285663
_symmetry_Int_Tables_number   1
_chemical_formula_structural   Li2VCr3O8
_chemical_formula_sum   'Li4 V2 Cr6 O16'
_cell_volume   295.75070529
_cell_formula_units_Z   2
loop_
 _symmetry_equiv_pos_site_id
 _symmetry_equiv_pos_as_xyz
  1  'x, y, z'
loop_
 _atom_site_type_symbol
 _atom_site_label
 _atom_site_symmetry_multiplicity
 _atom_site_fract_x
 _atom_site_fract_y
 _atom_site_fract_z
 _atom_site_occupancy
  Li  Li0  1  0.43568000  0.69446600  0.43490600  1
  Li  Li1  1  0.93568200  0.19446100  0.93490600  1
  Li  Li2  1  0.06435300  0.80553100  0.06504900  1
  Li  Li3  1  0.56435300  0.30553600  0.56504900  1
  V  V4  1  0.25003900  0.25001500  0.24992600  1
  V  V5  1  0.75007800  0.74999300  0.74991400  1
  Cr  Cr6  1  0.49994200  0.99992700  0.50008400  1
  Cr  Cr7  1  0.50005000  0.99993200  0.99997800  1
  Cr  Cr8  1  0.49999000  0.50004700  0.00004700  1
  Cr  Cr9  1  0.99989000  0.50005100  0.00004500  1
  Cr  Cr10  1  0.99991700  0.50003000  0.50003400  1
  Cr  Cr11  1  0.00000300  0.99999400  0.50000500  1
  O  O12  1  0.36971000  0.89521700  0.36754100  1
  O  O13  1  0.86965300  0.39520100  0.86759800  1
  O  O14  1  0.13032400  0.60478500  0.13244000  1
  O  O15  1  0.63027700  0.10479000  0.63244300  1
  O  O16  1  0.58433900  0.12704400  0.14409800  1
  O  O17  1  0.08441400  0.62719900  0.64395200  1
  O  O18  1  0.14353800  0.12785000  0.58372200  1
  O  O19  1  0.64344100  0.62785200  0.08376700  1
  O  O20  1  0.14361300  0.12787000  0.14463000  1
  O  O21  1  0.64356100  0.62779900  0.64469700  1
  O  O22  1  0.35640300  0.37217200  0.35530600  1
  O  O23  1  0.85646300  0.87218300  0.85530400  1
  O  O24  1  0.35648500  0.37217200  0.91635100  1
  O  O25  1  0.85652300  0.87213200  0.41623600  1
  O  O26  1  0.91568700  0.37292400  0.35592200  1
  O  O27  1  0.41559200  0.87282600  0.85604900  1
