# generated using pymatgen
data_Li4MnCo2O7
_symmetry_space_group_name_H-M   'P 1'
_cell_length_a   2.98540500
_cell_length_b   6.43388423
_cell_length_c   13.61471296
_cell_angle_alpha   83.24883978
_cell_angle_beta   86.38624884
_cell_angle_gamma   76.69716669
_symmetry_Int_Tables_number   1
_chemical_formula_structural   Li4MnCo2O7
_chemical_formula_sum   'Li8 Mn2 Co4 O14'
_cell_volume   252.55125398
_cell_formula_units_Z   2
loop_
 _symmetry_equiv_pos_site_id
 _symmetry_equiv_pos_as_xyz
  1  'x, y, z'
loop_
 _atom_site_type_symbol
 _atom_site_label
 _atom_site_symmetry_multiplicity
 _atom_site_fract_x
 _atom_site_fract_y
 _atom_site_fract_z
 _atom_site_occupancy
  Li  Li0  1  0.15221800  0.93106800  0.78245100  1
  Li  Li1  1  0.00550600  0.50126200  0.49912700  1
  Li  Li2  1  0.84912500  0.06789000  0.21596500  1
  Li  Li3  1  0.57486200  0.21197900  0.64201900  1
  Li  Li4  1  0.43764700  0.77692900  0.35684000  1
  Li  Li5  1  0.28026000  0.37354100  0.07306300  1
  Li  Li6  1  0.70037500  0.63936700  0.93627800  1
  Li  Li7  1  0.59280800  0.70625300  0.13712700  1
  Mn  Mn8  1  0.99358900  0.99263700  0.00434500  1
  Mn  Mn9  1  0.86347000  0.56983100  0.71551400  1
  Co  Co10  1  0.71384800  0.14577300  0.42641400  1
  Co  Co11  1  0.40892200  0.28840000  0.86016700  1
  Co  Co12  1  0.29311400  0.86026100  0.57000300  1
  Co  Co13  1  0.14330100  0.43781200  0.27912000  1
  O  O14  1  0.53500400  0.98341900  0.90469600  1
  O  O15  1  0.46960700  0.55094200  0.60686400  1
  O  O16  1  0.26548600  0.12953600  0.32239500  1
  O  O17  1  0.02178600  0.25864200  0.75637900  1
  O  O18  1  0.84328700  0.83974100  0.46546500  1
  O  O19  1  0.74247200  0.39147800  0.18787500  1
  O  O20  1  0.13649000  0.70008200  0.03179600  1
  O  O21  1  0.74118000  0.88093200  0.67549300  1
  O  O22  1  0.54234900  0.44698400  0.38909200  1
  O  O23  1  0.44492500  0.03288000  0.09341300  1
  O  O24  1  0.15696000  0.16500400  0.53278400  1
  O  O25  1  0.01224500  0.71663100  0.25663900  1
  O  O26  1  0.82163600  0.30740700  0.95895600  1
  O  O27  1  0.25752900  0.59331800  0.81972000  1
