# generated using pymatgen
data_Li4MnCo2O7
_symmetry_space_group_name_H-M   'P 1'
_cell_length_a   2.94979300
_cell_length_b   5.95850257
_cell_length_c   14.34439227
_cell_angle_alpha   82.99314470
_cell_angle_beta   84.36467811
_cell_angle_gamma   88.06389374
_symmetry_Int_Tables_number   1
_chemical_formula_structural   Li4MnCo2O7
_chemical_formula_sum   'Li8 Mn2 Co4 O14'
_cell_volume   248.96900206
_cell_formula_units_Z   2
loop_
 _symmetry_equiv_pos_site_id
 _symmetry_equiv_pos_as_xyz
  1  'x, y, z'
loop_
 _atom_site_type_symbol
 _atom_site_label
 _atom_site_symmetry_multiplicity
 _atom_site_fract_x
 _atom_site_fract_y
 _atom_site_fract_z
 _atom_site_occupancy
  Li  Li0  1  0.93395700  0.21084500  0.63541500  1
  Li  Li1  1  0.50000000  0.50000000  0.50000000  1
  Li  Li2  1  0.06604300  0.78915500  0.36458500  1
  Li  Li3  1  0.35533000  0.92660200  0.78698900  1
  Li  Li4  1  0.78776700  0.64225500  0.92774700  1
  Li  Li5  1  0.21223300  0.35774500  0.07225300  1
  Li  Li6  1  0.64467000  0.07339800  0.21301100  1
  Li  Li7  1  0.50000000  0.00000000  0.50000000  1
  Mn  Mn8  1  0.93437300  0.72091700  0.63790200  1
  Mn  Mn9  1  0.06562700  0.27908300  0.36209800  1
  Co  Co10  1  0.64354600  0.56847900  0.21333200  1
  Co  Co11  1  0.21932900  0.85455800  0.07155400  1
  Co  Co12  1  0.78067100  0.14544200  0.92844600  1
  Co  Co13  1  0.35645400  0.43152100  0.78666800  1
  O  O14  1  0.44005300  0.48805500  0.64961600  1
  O  O15  1  0.99187300  0.74344300  0.50977400  1
  O  O16  1  0.58052200  0.06652800  0.35620000  1
  O  O17  1  0.81542300  0.18951700  0.78974400  1
  O  O18  1  0.28655300  0.89899200  0.93417300  1
  O  O19  1  0.72383200  0.61473100  0.07784800  1
  O  O20  1  0.10630900  0.33564800  0.21973200  1
  O  O21  1  0.41947800  0.93347200  0.64380000  1
  O  O22  1  0.00812700  0.25655700  0.49022600  1
  O  O23  1  0.55994700  0.51194500  0.35038400  1
  O  O24  1  0.89369100  0.66435200  0.78026800  1
  O  O25  1  0.27616800  0.38526900  0.92215200  1
  O  O26  1  0.71344700  0.10100800  0.06582700  1
  O  O27  1  0.18457700  0.81048300  0.21025600  1
