# generated using pymatgen
data_Li5Mn2CoO8
_symmetry_space_group_name_H-M   'P 1'
_cell_length_a   4.98124499
_cell_length_b   7.77784593
_cell_length_c   7.77805903
_cell_angle_alpha   81.55333690
_cell_angle_beta   77.78109596
_cell_angle_gamma   102.18200233
_symmetry_Int_Tables_number   1
_chemical_formula_structural   Li5Mn2CoO8
_chemical_formula_sum   'Li10 Mn4 Co2 O16'
_cell_volume   282.04318476
_cell_formula_units_Z   2
loop_
 _symmetry_equiv_pos_site_id
 _symmetry_equiv_pos_as_xyz
  1  'x, y, z'
loop_
 _atom_site_type_symbol
 _atom_site_label
 _atom_site_symmetry_multiplicity
 _atom_site_fract_x
 _atom_site_fract_y
 _atom_site_fract_z
 _atom_site_occupancy
  Li  Li0  1  0.99962400  0.38018600  0.88157900  1
  Li  Li1  1  0.99994300  0.88053900  0.38116200  1
  Li  Li2  1  0.49731000  0.49804000  0.00073900  1
  Li  Li3  1  0.49812600  0.99867500  0.49982400  1
  Li  Li4  1  0.00046200  0.61909500  0.11859300  1
  Li  Li5  1  0.00086300  0.11948200  0.61737300  1
  Li  Li6  1  0.50200300  0.75018500  0.24994800  1
  Li  Li7  1  0.50190200  0.25013200  0.75000900  1
  Li  Li8  1  0.99948200  0.74983800  0.75081000  1
  Li  Li9  1  0.99908300  0.24983600  0.25106600  1
  Mn  Mn10  1  0.00051000  0.50219100  0.50161200  1
  Mn  Mn11  1  0.99995500  0.00165800  0.00102500  1
  Mn  Mn12  1  0.50003800  0.62698500  0.62732900  1
  Mn  Mn13  1  0.49950800  0.12710900  0.12726800  1
  Co  Co14  1  0.50005700  0.86911800  0.86871400  1
  Co  Co15  1  0.50024000  0.36899400  0.36867700  1
  O  O16  1  0.75045200  0.11788200  0.89411000  1
  O  O17  1  0.75227900  0.61831300  0.39378700  1
  O  O18  1  0.24995900  0.22767600  0.00710100  1
  O  O19  1  0.25122200  0.72824100  0.50661800  1
  O  O20  1  0.72119000  0.36022700  0.12590300  1
  O  O21  1  0.72112400  0.86025500  0.62573400  1
  O  O22  1  0.24738900  0.49628200  0.27381000  1
  O  O23  1  0.24646100  0.99618400  0.77426600  1
  O  O24  1  0.27955900  0.62584800  0.86008100  1
  O  O25  1  0.27844200  0.12592800  0.36038200  1
  O  O26  1  0.75407600  0.77466200  0.99561200  1
  O  O27  1  0.75363000  0.27436100  0.49571900  1
  O  O28  1  0.24769300  0.39403900  0.61826600  1
  O  O29  1  0.24831300  0.89418800  0.11783500  1
  O  O30  1  0.74962100  0.50685100  0.72765700  1
  O  O31  1  0.74948200  0.00699900  0.22738900  1
