# generated using pymatgen
data_Li2Ni3SbO8
_symmetry_space_group_name_H-M   'P 1'
_cell_length_a   5.87675501
_cell_length_b   5.99322962
_cell_length_c   10.17511522
_cell_angle_alpha   106.47375290
_cell_angle_beta   90.11922872
_cell_angle_gamma   60.67301937
_symmetry_Int_Tables_number   1
_chemical_formula_structural   Li2Ni3SbO8
_chemical_formula_sum   'Li4 Ni6 Sb2 O16'
_cell_volume   295.58041582
_cell_formula_units_Z   2
loop_
 _symmetry_equiv_pos_site_id
 _symmetry_equiv_pos_as_xyz
  1  'x, y, z'
loop_
 _atom_site_type_symbol
 _atom_site_label
 _atom_site_symmetry_multiplicity
 _atom_site_fract_x
 _atom_site_fract_y
 _atom_site_fract_z
 _atom_site_occupancy
  Li  Li0  1  0.30632800  0.38613900  0.56447000  1
  Li  Li1  1  0.80639600  0.38655600  0.06460600  1
  Li  Li2  1  0.19347100  0.61347400  0.93537700  1
  Li  Li3  1  0.69372300  0.61385300  0.43551500  1
  Ni  Ni4  1  0.25031600  0.99966700  0.75026100  1
  Ni  Ni5  1  0.74991200  0.00017600  0.24969700  1
  Ni  Ni6  1  0.99999100  0.00002200  0.49995600  1
  Ni  Ni7  1  0.75025600  0.99967600  0.74986800  1
  Ni  Ni8  1  0.24973500  0.00036500  0.25015000  1
  Ni  Ni9  1  0.49996100  0.99991400  0.00002700  1
  Sb  Sb10  1  0.75016100  0.49980200  0.75002000  1
  Sb  Sb11  1  0.24984800  0.50019000  0.24999700  1
  O  O12  1  0.09263700  0.81465700  0.63572900  1
  O  O13  1  0.59205300  0.81491600  0.13559900  1
  O  O14  1  0.40794100  0.18501800  0.86447500  1
  O  O15  1  0.90737600  0.18547600  0.36423000  1
  O  O16  1  0.90578200  0.24596400  0.86134000  1
  O  O17  1  0.40561300  0.24610500  0.36119400  1
  O  O18  1  0.63239500  0.24590300  0.64501100  1
  O  O19  1  0.13304200  0.24553300  0.14470700  1
  O  O20  1  0.09285200  0.24592500  0.61692300  1
  O  O21  1  0.59292900  0.24612700  0.11698200  1
  O  O22  1  0.40699300  0.75380700  0.88301500  1
  O  O23  1  0.90710400  0.75419900  0.38306100  1
  O  O24  1  0.86683500  0.75452900  0.85535400  1
  O  O25  1  0.36760200  0.75411700  0.35498500  1
  O  O26  1  0.59447800  0.75387300  0.63879900  1
  O  O27  1  0.09426900  0.75401800  0.13865000  1
