# generated using pymatgen
data_Li2UBr6
_symmetry_space_group_name_H-M   'P 1'
_cell_length_a   6.98236571
_cell_length_b   6.98236571
_cell_length_c   7.01709400
_cell_angle_alpha   90.00000000
_cell_angle_beta   90.00000000
_cell_angle_gamma   119.99999725
_symmetry_Int_Tables_number   1
_chemical_formula_structural   Li2UBr6
_chemical_formula_sum   'Li2 U1 Br6'
_cell_volume   296.27371394
_cell_formula_units_Z   1
loop_
 _symmetry_equiv_pos_site_id
 _symmetry_equiv_pos_as_xyz
  1  'x, y, z'
loop_
 _atom_site_type_symbol
 _atom_site_label
 _atom_site_symmetry_multiplicity
 _atom_site_fract_x
 _atom_site_fract_y
 _atom_site_fract_z
 _atom_site_occupancy
  Li  Li0  1  0.33333300  0.66666700  0.50000000  1
  Li  Li1  1  0.66666700  0.33333300  0.50000000  1
  U  U2  1  0.00000000  0.00000000  0.50000000  1
  Br  Br3  1  0.66708900  0.66708900  0.72187700  1
  Br  Br4  1  0.00000000  0.33291100  0.72187700  1
  Br  Br5  1  0.33291100  0.00000000  0.72187700  1
  Br  Br6  1  0.33291100  0.33291100  0.27812300  1
  Br  Br7  1  0.00000000  0.66708900  0.27812300  1
  Br  Br8  1  0.66708900  0.00000000  0.27812300  1
