# generated using pymatgen
data_Li4V3Fe3(WO8)2
_symmetry_space_group_name_H-M   'P 1'
_cell_length_a   6.00199000
_cell_length_b   6.04825733
_cell_length_c   9.78891773
_cell_angle_alpha   90.06472475
_cell_angle_beta   90.14594788
_cell_angle_gamma   119.62856502
_symmetry_Int_Tables_number   1
_chemical_formula_structural   Li4V3Fe3(WO8)2
_chemical_formula_sum   'Li4 V3 Fe3 W2 O16'
_cell_volume   308.88807290
_cell_formula_units_Z   1
loop_
 _symmetry_equiv_pos_site_id
 _symmetry_equiv_pos_as_xyz
  1  'x, y, z'
loop_
 _atom_site_type_symbol
 _atom_site_label
 _atom_site_symmetry_multiplicity
 _atom_site_fract_x
 _atom_site_fract_y
 _atom_site_fract_z
 _atom_site_occupancy
  Li  Li0  1  0.33220900  0.66332800  0.90194400  1
  Li  Li1  1  0.00552900  0.00167100  0.99058900  1
  Li  Li2  1  0.99758200  0.00074300  0.48845800  1
  Li  Li3  1  0.66530500  0.32780400  0.40529300  1
  V  V4  1  0.18339700  0.34861400  0.21794100  1
  V  V5  1  0.82778100  0.16973000  0.71456400  1
  V  V6  1  0.34012400  0.16684900  0.71423200  1
  Fe  Fe7  1  0.66612700  0.83557400  0.20982200  1
  Fe  Fe8  1  0.16946800  0.83719200  0.20893400  1
  Fe  Fe9  1  0.82694700  0.65452700  0.71664500  1
  W  W10  1  0.33087200  0.66681700  0.48617000  1
  W  W11  1  0.67458500  0.34217500  0.98894000  1
  O  O12  1  0.65147800  0.81591700  0.59193300  1
  O  O13  1  0.47862700  0.95226300  0.36514200  1
  O  O14  1  0.31746100  0.63809900  0.11273300  1
  O  O15  1  0.01303500  0.03121600  0.30170600  1
  O  O16  1  0.99679300  0.99529100  0.80008400  1
  O  O17  1  0.16321900  0.81784500  0.59054700  1
  O  O18  1  0.46541500  0.50194100  0.35478700  1
  O  O19  1  0.04042000  0.50532300  0.35515300  1
  O  O20  1  0.83200700  0.67224300  0.08368700  1
  O  O21  1  0.17122400  0.33999800  0.59374800  1
  O  O22  1  0.96517100  0.48222300  0.83997900  1
  O  O23  1  0.52167300  0.47816900  0.84469100  1
  O  O24  1  0.66588700  0.33396900  0.60839800  1
  O  O25  1  0.84295300  0.19193000  0.08787100  1
  O  O26  1  0.51573300  0.03778900  0.84124600  1
  O  O27  1  0.33927500  0.19075600  0.09260000  1
