# generated using pymatgen
data_Li6V3P8O29
_symmetry_space_group_name_H-M   'P 1'
_cell_length_a   9.78715700
_cell_length_b   9.82695617
_cell_length_c   13.99780154
_cell_angle_alpha   90.00080349
_cell_angle_beta   90.49571298
_cell_angle_gamma   119.63394890
_symmetry_Int_Tables_number   1
_chemical_formula_structural   Li6V3P8O29
_chemical_formula_sum   'Li12 V6 P16 O58'
_cell_volume   1170.13138119
_cell_formula_units_Z   2
loop_
 _symmetry_equiv_pos_site_id
 _symmetry_equiv_pos_as_xyz
  1  'x, y, z'
loop_
 _atom_site_type_symbol
 _atom_site_label
 _atom_site_symmetry_multiplicity
 _atom_site_fract_x
 _atom_site_fract_y
 _atom_site_fract_z
 _atom_site_occupancy
  Li  Li0  1  0.09484300  0.32690100  0.06197100  1
  Li  Li1  1  0.23630800  0.33820600  0.56086600  1
  Li  Li2  1  0.10132500  0.76748800  0.55623700  1
  Li  Li3  1  0.22486900  0.91049700  0.06398700  1
  Li  Li4  1  0.67788500  0.77256500  0.06004800  1
  Li  Li5  1  0.66936000  0.90164100  0.55679000  1
  Li  Li6  1  0.77885400  0.08690800  0.94021300  1
  Li  Li7  1  0.65891500  0.32158100  0.60976400  1
  Li  Li8  1  0.65440700  0.32435100  0.11228700  1
  Li  Li9  1  0.76813300  0.67830200  0.43518000  1
  Li  Li10  1  0.91871500  0.69297000  0.93824100  1
  Li  Li11  1  0.02624300  0.04473600  0.49104300  1
  V  V12  1  0.43456000  0.00291700  0.25692200  1
  V  V13  1  0.56444700  0.99718500  0.74943900  1
  V  V14  1  0.43083000  0.43108600  0.75298600  1
  V  V15  1  0.56170300  0.56146700  0.24876200  1
  V  V16  1  0.99955700  0.43111600  0.25294900  1
  V  V17  1  0.00494200  0.56839000  0.74890700  1
  P  P18  1  0.08600100  0.31679600  0.84393700  1
  P  P19  1  0.23142000  0.31508800  0.34454700  1
  P  P20  1  0.08524000  0.77220900  0.34192400  1
  P  P21  1  0.33202400  0.67017500  0.12975000  1
  P  P22  1  0.33758400  0.66669600  0.62617200  1
  P  P23  1  0.23336800  0.91497900  0.84480800  1
  P  P24  1  0.30568300  0.08634800  0.65983200  1
  P  P25  1  0.67973000  0.76692300  0.84153300  1
  P  P26  1  0.31328900  0.22507200  0.16012400  1
  P  P27  1  0.68935100  0.91339300  0.34376500  1
  P  P28  1  0.76904200  0.09049300  0.15938800  1
  P  P29  1  0.66935500  0.33468700  0.37050500  1
  P  P30  1  0.67103700  0.33639400  0.87066200  1
  P  P31  1  0.90998800  0.22126500  0.65948400  1
  P  P32  1  0.76913900  0.67767300  0.65799200  1
  P  P33  1  0.90719500  0.67609800  0.15727400  1
  O  O34  1  0.00698900  0.21185300  0.58053700  1
  O  O35  1  0.09144100  0.34472600  0.32972400  1
  O  O36  1  0.22697900  0.24176000  0.07769100  1
  O  O37  1  0.24869000  0.33610000  0.83825200  1
  O  O38  1  0.09495500  0.47665100  0.81909700  1
  O  O39  1  0.18268400  0.52073700  0.16645200  1
  O  O40  1  0.08398400  0.61659600  0.33088000  1
  O  O41  1  0.00143700  0.75289500  0.06939300  1
  O  O42  1  0.08500900  0.74978400  0.83553900  1
  O  O43  1  0.33263800  0.51446500  0.67009700  1
  O  O44  1  0.38687900  0.46986800  0.33353300  1
  O  O45  1  0.19043600  0.67360900  0.66401600  1
  O  O46  1  0.33863300  0.67972600  0.02362000  1
  O  O47  1  0.33998900  0.65987200  0.51989100  1
  O  O48  1  0.33896200  0.82025600  0.17553100  1
  O  O49  1  0.51863800  0.62215800  0.82627700  1
  O  O50  1  0.48162900  0.66342000  0.17094100  1
  O  O51  1  0.24967800  0.91327600  0.33821100  1
  O  O52  1  0.21691000  0.01521400  0.76010000  1
  O  O53  1  0.20062600  0.98814400  0.57988200  1
  O  O54  1  0.24299800  0.98773100  0.93891800  1
  O  O55  1  0.38369100  0.90457300  0.82032900  1
  O  O56  1  0.49078700  0.81190600  0.66672400  1
  O  O57  1  0.33226200  0.07860600  0.15795100  1
  O  O58  1  0.53192000  0.91179700  0.33478100  1
  O  O59  1  0.66697800  0.74666800  0.33514500  1
  O  O60  1  0.21729700  0.20254100  0.25817200  1
  O  O61  1  0.21559900  0.23318300  0.43745900  1
  O  O62  1  0.76588500  0.76423400  0.56987400  1
  O  O63  1  0.33105800  0.25409200  0.65769400  1
  O  O64  1  0.47090800  0.09975500  0.66823600  1
  O  O65  1  0.67064200  0.92013100  0.83842400  1
  O  O66  1  0.51707200  0.18911800  0.32831900  1
  O  O67  1  0.62432700  0.11228900  0.17362100  1
  O  O68  1  0.75435300  0.99723600  0.07037700  1
  O  O69  1  0.78099600  0.98865000  0.43376200  1
  O  O70  1  0.79187800  0.00426300  0.25055000  1
  O  O71  1  0.73893100  0.07899000  0.65729300  1
  O  O72  1  0.52395500  0.33859200  0.82513800  1
  O  O73  1  0.48292700  0.36939800  0.17451100  1
  O  O74  1  0.67200400  0.18712000  0.83166800  1
  O  O75  1  0.66924000  0.33697300  0.97768500  1
  O  O76  1  0.66878000  0.33964400  0.47739400  1
  O  O77  1  0.80961600  0.32566300  0.32758500  1
  O  O78  1  0.62370600  0.51423100  0.66894800  1
  O  O79  1  0.67388300  0.48795200  0.33059800  1
  O  O80  1  0.91785100  0.25426100  0.15693400  1
  O  O81  1  0.98035500  0.19986200  0.75957000  1
  O  O82  1  0.99932800  0.25229600  0.93559400  1
  O  O83  1  0.89593900  0.37108300  0.66662300  1
  O  O84  1  0.81936900  0.48833300  0.83328900  1
  O  O85  1  0.88697700  0.51090400  0.17405700  1
  O  O86  1  0.74184300  0.65901600  0.15293800  1
  O  O87  1  0.76159400  0.76082300  0.93171700  1
  O  O88  1  0.78965100  0.78236600  0.75107400  1
  O  O89  1  0.91827000  0.65871600  0.65827500  1
  O  O90  1  0.99819300  0.77675500  0.43014200  1
  O  O91  1  0.99144900  0.78496900  0.24869300  1
