# generated using pymatgen
data_Li4TiFe3Sn2(PO4)6
_symmetry_space_group_name_H-M   'P 1'
_cell_length_a   9.32138922
_cell_length_b   9.29250057
_cell_length_c   9.46620159
_cell_angle_alpha   54.92604906
_cell_angle_beta   54.00556115
_cell_angle_gamma   55.73772657
_symmetry_Int_Tables_number   1
_chemical_formula_structural   Li4TiFe3Sn2(PO4)6
_chemical_formula_sum   'Li4 Ti1 Fe3 Sn2 P6 O24'
_cell_volume   510.55138025
_cell_formula_units_Z   1
loop_
 _symmetry_equiv_pos_site_id
 _symmetry_equiv_pos_as_xyz
  1  'x, y, z'
loop_
 _atom_site_type_symbol
 _atom_site_label
 _atom_site_symmetry_multiplicity
 _atom_site_fract_x
 _atom_site_fract_y
 _atom_site_fract_z
 _atom_site_occupancy
  Li  Li0  1  0.79627571  0.13047043  0.40169596  1
  Li  Li1  1  0.29327326  0.91432729  0.62691459  1
  Li  Li2  1  0.64479811  0.29384574  0.89719245  1
  Li  Li3  1  0.88982931  0.64232067  0.30420632  1
  Ti  Ti4  1  0.85069230  0.83922485  0.85651864  1
  Fe  Fe5  1  0.16913731  0.15248069  0.15491747  1
  Fe  Fe6  1  0.33112186  0.35206107  0.31341073  1
  Fe  Fe7  1  0.64552921  0.65381263  0.66256615  1
  Sn  Sn8  1  0.04108768  0.02132329  0.01397417  1
  Sn  Sn9  1  0.45509201  0.50226022  0.46976296  1
  P  P10  1  0.03551849  0.74928401  0.45592515  1
  P  P11  1  0.46252186  0.03734477  0.75254014  1
  P  P12  1  0.23106351  0.55275915  0.95397945  1
  P  P13  1  0.54607178  0.95222773  0.23713987  1
  P  P14  1  0.94943582  0.23642364  0.54360979  1
  P  P15  1  0.74938750  0.44749714  0.04232879  1
  O  O16  1  0.15415213  0.18910589  0.51237119  1
  O  O17  1  0.16790754  0.55492067  0.14700310  1
  O  O18  1  0.09647281  0.90795021  0.26334955  1
  O  O19  1  0.53757304  0.15294355  0.17199357  1
  O  O20  1  0.98592846  0.80333313  0.61003167  1
  O  O21  1  0.20049621  0.55612026  0.46084550  1
  O  O22  1  0.26691724  0.12244066  0.89072303  1
  O  O23  1  0.51387721  0.19581936  0.55402959  1
  O  O24  1  0.20247979  0.39686515  0.97255428  1
  O  O25  1  0.54815770  0.46649524  0.20731581  1
  O  O26  1  0.10801294  0.74757569  0.84735246  1
  O  O27  1  0.38734258  0.95205046  0.22917279  1
  O  O28  1  0.61681750  0.95661454  0.82221368  1
  O  O29  1  0.88573011  0.24988429  0.12390931  1
  O  O30  1  0.43927868  0.53786440  0.83092147  1
  O  O31  1  0.81452213  0.59874531  0.98931273  1
  O  O32  1  0.54616961  0.82772287  0.43480022  1
  O  O33  1  0.74288498  0.85539345  0.09989924  1
  O  O34  1  0.82088819  0.43485953  0.54364308  1
  O  O35  1  0.95075295  0.21048865  0.39598974  1
  O  O36  1  0.44416173  0.89175496  0.73993357  1
  O  O37  1  0.86017983  0.09616543  0.74377246  1
  O  O38  1  0.74926086  0.45023774  0.88011734  1
  O  O39  1  0.86919908  0.74398424  0.46506298  1
