# generated using pymatgen
data_Li9Mn2Co5O16
_symmetry_space_group_name_H-M   'P 1'
_cell_length_a   6.51751205
_cell_length_b   6.51751205
_cell_length_c   10.32336478
_cell_angle_alpha   59.56749080
_cell_angle_beta   59.56749080
_cell_angle_gamma   52.43647542
_symmetry_Int_Tables_number   1
_chemical_formula_structural   Li9Mn2Co5O16
_chemical_formula_sum   'Li9 Mn2 Co5 O16'
_cell_volume   286.89529924
_cell_formula_units_Z   1
loop_
 _symmetry_equiv_pos_site_id
 _symmetry_equiv_pos_as_xyz
  1  'x, y, z'
loop_
 _atom_site_type_symbol
 _atom_site_label
 _atom_site_symmetry_multiplicity
 _atom_site_fract_x
 _atom_site_fract_y
 _atom_site_fract_z
 _atom_site_occupancy
  Li  Li0  1  0.25097400  0.75525500  0.73979600  1
  Li  Li1  1  0.24474500  0.74902600  0.26020400  1
  Li  Li2  1  0.75310000  0.75310000  0.49511300  1
  Li  Li3  1  0.74889400  0.74889400  0.99884700  1
  Li  Li4  1  0.25110600  0.25110600  0.00115300  1
  Li  Li5  1  0.24690000  0.24690000  0.50488700  1
  Li  Li6  1  0.75525500  0.25097400  0.73979600  1
  Li  Li7  1  0.74902600  0.24474500  0.26020400  1
  Li  Li8  1  0.00000000  0.00000000  0.50000000  1
  Mn  Mn9  1  0.00000000  0.00000000  0.00000000  1
  Mn  Mn10  1  0.50000000  0.50000000  0.00000000  1
  Co  Co11  1  0.51009000  0.00634600  0.73829100  1
  Co  Co12  1  0.48991000  0.99365400  0.26170900  1
  Co  Co13  1  0.99365400  0.48991000  0.26170900  1
  Co  Co14  1  0.00634600  0.51009000  0.73829100  1
  Co  Co15  1  0.50000000  0.50000000  0.50000000  1
  O  O16  1  0.13890500  0.63338600  0.00006200  1
  O  O17  1  0.14950300  0.61333700  0.50616900  1
  O  O18  1  0.61996000  0.61996000  0.76823000  1
  O  O19  1  0.61649300  0.61649300  0.27196000  1
  O  O20  1  0.14123600  0.14123600  0.24260200  1
  O  O21  1  0.14015500  0.14015500  0.74409100  1
  O  O22  1  0.63338600  0.13890500  0.00006200  1
  O  O23  1  0.61333700  0.14950300  0.50616900  1
  O  O24  1  0.38666300  0.85049700  0.49383100  1
  O  O25  1  0.36661400  0.86109500  0.99993800  1
  O  O26  1  0.85984500  0.85984500  0.25590900  1
  O  O27  1  0.85876400  0.85876400  0.75739800  1
  O  O28  1  0.38350700  0.38350700  0.72804000  1
  O  O29  1  0.38004000  0.38004000  0.23177000  1
  O  O30  1  0.85049700  0.38666300  0.49383100  1
  O  O31  1  0.86109500  0.36661400  0.99993800  1
