# generated using pymatgen
data_LiFeSi3O8
_symmetry_space_group_name_H-M   'P 1'
_cell_length_a   7.78233611
_cell_length_b   7.78233611
_cell_length_c   14.56594791
_cell_angle_alpha   76.53291218
_cell_angle_beta   103.46708782
_cell_angle_gamma   60.43672016
_symmetry_Int_Tables_number   1
_chemical_formula_structural   LiFeSi3O8
_chemical_formula_sum   'Li4 Fe4 Si12 O32'
_cell_volume   680.24299271
_cell_formula_units_Z   4
loop_
 _symmetry_equiv_pos_site_id
 _symmetry_equiv_pos_as_xyz
  1  'x, y, z'
loop_
 _atom_site_type_symbol
 _atom_site_label
 _atom_site_symmetry_multiplicity
 _atom_site_fract_x
 _atom_site_fract_y
 _atom_site_fract_z
 _atom_site_occupancy
  Li  Li0  1  0.29875996  0.75158939  0.62196368  1
  Li  Li1  1  0.75158939  0.29875996  0.87803632  1
  Li  Li2  1  0.24841061  0.70124004  0.12196368  1
  Li  Li3  1  0.70124004  0.24841061  0.37803632  1
  Fe  Fe4  1  0.24066477  0.55468371  0.83300361  1
  Fe  Fe5  1  0.44531629  0.75933523  0.33300361  1
  Fe  Fe6  1  0.55468371  0.24066477  0.66699639  1
  Fe  Fe7  1  0.75933523  0.44531629  0.16699639  1
  Si  Si8  1  0.45644611  0.79556208  0.83637832  1
  Si  Si9  1  0.82924693  0.86386904  0.89426199  1
  Si  Si10  1  0.16586026  0.17801885  0.88661422  1
  Si  Si11  1  0.17801885  0.16586026  0.61338578  1
  Si  Si12  1  0.86386904  0.82924693  0.60573801  1
  Si  Si13  1  0.20443792  0.54355389  0.33637832  1
  Si  Si14  1  0.79556208  0.45644611  0.66362168  1
  Si  Si15  1  0.82198115  0.83413974  0.38661422  1
  Si  Si16  1  0.13613096  0.17075307  0.39426199  1
  Si  Si17  1  0.17075307  0.13613096  0.10573801  1
  Si  Si18  1  0.83413974  0.82198115  0.11338578  1
  Si  Si19  1  0.54355389  0.20443792  0.16362168  1
  O  O20  1  0.04869624  0.71673133  0.88172813  1
  O  O21  1  0.29003366  0.94258457  0.88048444  1
  O  O22  1  0.11972222  0.68930895  0.68416915  1
  O  O23  1  0.34223844  0.91851014  0.70811753  1
  O  O24  1  0.49402748  0.56070181  0.86527724  1
  O  O25  1  0.30383888  0.27670016  0.88408501  1
  O  O26  1  0.68592780  0.76496260  0.87965091  1
  O  O27  1  0.05741543  0.70996634  0.38048444  1
  O  O28  1  0.28326867  0.95130376  0.38172813  1
  O  O29  1  0.76496260  0.68592780  0.62034909  1
  O  O30  1  0.27670016  0.30383888  0.61591499  1
  O  O31  1  0.31069105  0.88027778  0.18416915  1
  O  O32  1  0.08148986  0.65776156  0.20811753  1
  O  O33  1  0.56070181  0.49402748  0.63472276  1
  O  O34  1  0.14872911  0.10011640  0.51393803  1
  O  O35  1  0.85127089  0.89988360  0.48606197  1
  O  O36  1  0.43929819  0.50597252  0.36527724  1
  O  O37  1  0.68930895  0.11972222  0.81583085  1
  O  O38  1  0.91851014  0.34223844  0.79188247  1
  O  O39  1  0.23503740  0.31407220  0.37965091  1
  O  O40  1  0.72329984  0.69616112  0.38408501  1
  O  O41  1  0.71673133  0.04869624  0.61827187  1
  O  O42  1  0.94258457  0.29003366  0.61951556  1
  O  O43  1  0.69616112  0.72329984  0.11591499  1
  O  O44  1  0.31407220  0.23503740  0.12034909  1
  O  O45  1  0.50597252  0.43929819  0.13472276  1
  O  O46  1  0.10011640  0.14872911  0.98606197  1
  O  O47  1  0.89988360  0.85127089  0.01393803  1
  O  O48  1  0.88027778  0.31069105  0.31583085  1
  O  O49  1  0.65776156  0.08148986  0.29188247  1
  O  O50  1  0.70996634  0.05741543  0.11951556  1
  O  O51  1  0.95130376  0.28326867  0.11827187  1
