# generated using pymatgen
data_Li4Mn3O7
_symmetry_space_group_name_H-M   'P 1'
_cell_length_a   5.08133900
_cell_length_b   6.94475763
_cell_length_c   7.72752186
_cell_angle_alpha   83.24306129
_cell_angle_beta   75.98541755
_cell_angle_gamma   79.19327078
_symmetry_Int_Tables_number   1
_chemical_formula_structural   Li4Mn3O7
_chemical_formula_sum   'Li8 Mn6 O14'
_cell_volume   259.13683357
_cell_formula_units_Z   2
loop_
 _symmetry_equiv_pos_site_id
 _symmetry_equiv_pos_as_xyz
  1  'x, y, z'
loop_
 _atom_site_type_symbol
 _atom_site_label
 _atom_site_symmetry_multiplicity
 _atom_site_fract_x
 _atom_site_fract_y
 _atom_site_fract_z
 _atom_site_occupancy
  Li  Li0  1  0.70488600  0.06458800  0.56997000  1
  Li  Li1  1  0.83641400  0.76192100  0.28690100  1
  Li  Li2  1  0.56758300  0.35996100  0.84877300  1
  Li  Li3  1  0.43241700  0.64003900  0.15122700  1
  Li  Li4  1  0.29511400  0.93541200  0.43003000  1
  Li  Li5  1  0.16358600  0.23807900  0.71309900  1
  Li  Li6  1  0.00000000  0.50000000  0.00000000  1
  Li  Li7  1  0.50000000  0.50000000  0.50000000  1
  Mn  Mn8  1  0.92992900  0.63093500  0.63996200  1
  Mn  Mn9  1  0.07007100  0.36906500  0.36003800  1
  Mn  Mn10  1  0.21576600  0.07285600  0.07326800  1
  Mn  Mn11  1  0.35542800  0.77185000  0.77980100  1
  Mn  Mn12  1  0.64457200  0.22815000  0.22019900  1
  Mn  Mn13  1  0.78423400  0.92714400  0.92673200  1
  O  O14  1  0.61162300  0.78252800  0.55096500  1
  O  O15  1  0.77350100  0.49531900  0.25700400  1
  O  O16  1  0.47161100  0.07234200  0.83515500  1
  O  O17  1  0.32737600  0.36004800  0.12634900  1
  O  O18  1  0.15332500  0.61966900  0.40047200  1
  O  O19  1  0.02656400  0.89016500  0.68137100  1
  O  O20  1  0.89887800  0.20587000  0.98211200  1
  O  O21  1  0.84667500  0.38033100  0.59952800  1
  O  O22  1  0.97343600  0.10983500  0.31862900  1
  O  O23  1  0.67262400  0.63995200  0.87365100  1
  O  O24  1  0.52838900  0.92765800  0.16484500  1
  O  O25  1  0.38837700  0.21747200  0.44903500  1
  O  O26  1  0.22649900  0.50468100  0.74299600  1
  O  O27  1  0.10112200  0.79413000  0.01788800  1
