# generated using pymatgen
data_Li4MnCo2O7
_symmetry_space_group_name_H-M   'P 1'
_cell_length_a   5.15096300
_cell_length_b   7.62826038
_cell_length_c   7.69725040
_cell_angle_alpha   114.46068693
_cell_angle_beta   108.60117281
_cell_angle_gamma   96.87955702
_symmetry_Int_Tables_number   1
_chemical_formula_structural   Li4MnCo2O7
_chemical_formula_sum   'Li8 Mn2 Co4 O14'
_cell_volume   249.55287406
_cell_formula_units_Z   2
loop_
 _symmetry_equiv_pos_site_id
 _symmetry_equiv_pos_as_xyz
  1  'x, y, z'
loop_
 _atom_site_type_symbol
 _atom_site_label
 _atom_site_symmetry_multiplicity
 _atom_site_fract_x
 _atom_site_fract_y
 _atom_site_fract_z
 _atom_site_occupancy
  Li  Li0  1  0.57625300  0.21581900  0.07120900  1
  Li  Li1  1  0.00668600  0.50751000  0.50405300  1
  Li  Li2  1  0.42050100  0.77762900  0.91620700  1
  Li  Li3  1  0.85955900  0.07674000  0.36234100  1
  Li  Li4  1  0.28319500  0.35522100  0.78464800  1
  Li  Li5  1  0.71387500  0.63994600  0.22364300  1
  Li  Li6  1  0.14158600  0.92374500  0.63993400  1
  Li  Li7  1  0.56965400  0.71464600  0.57274000  1
  Mn  Mn8  1  0.00087500  0.99965000  0.99564500  1
  Mn  Mn9  1  0.28554300  0.85903000  0.29030900  1
  Co  Co10  1  0.43236000  0.29862200  0.43143400  1
  Co  Co11  1  0.84161700  0.56967300  0.84751800  1
  Co  Co12  1  0.71244600  0.14199700  0.71220700  1
  Co  Co13  1  0.15095000  0.43310300  0.14805000  1
  O  O14  1  0.14532000  0.17358100  0.90491600  1
  O  O15  1  0.56086300  0.45177100  0.32289400  1
  O  O16  1  0.99984900  0.75741600  0.77125100  1
  O  O17  1  0.39243700  0.02477000  0.17330600  1
  O  O18  1  0.83551700  0.31664300  0.61143600  1
  O  O19  1  0.28594500  0.61810600  0.05829200  1
  O  O20  1  0.67428200  0.90700400  0.46348400  1
  O  O21  1  0.01143800  0.24172100  0.23370300  1
  O  O22  1  0.43826100  0.52648900  0.68160700  1
  O  O23  1  0.88486700  0.82859800  0.10651700  1
  O  O24  1  0.27823400  0.09610700  0.51312800  1
  O  O25  1  0.73732800  0.38473200  0.95071400  1
  O  O26  1  0.14188800  0.68186300  0.37779800  1
  O  O27  1  0.61867400  0.97786800  0.83101800  1
