# generated using pymatgen
data_Li4MnCo2O7
_symmetry_space_group_name_H-M   'P 1'
_cell_length_a   9.87671718
_cell_length_b   9.87671718
_cell_length_c   9.78277257
_cell_angle_alpha   65.52946321
_cell_angle_beta   65.52946321
_cell_angle_gamma   17.06862090
_symmetry_Int_Tables_number   1
_chemical_formula_structural   Li4MnCo2O7
_chemical_formula_sum   'Li8 Mn2 Co4 O14'
_cell_volume   254.34876297
_cell_formula_units_Z   2
loop_
 _symmetry_equiv_pos_site_id
 _symmetry_equiv_pos_as_xyz
  1  'x, y, z'
loop_
 _atom_site_type_symbol
 _atom_site_label
 _atom_site_symmetry_multiplicity
 _atom_site_fract_x
 _atom_site_fract_y
 _atom_site_fract_z
 _atom_site_occupancy
  Li  Li0  1  0.36013800  0.36013800  0.07433600  1
  Li  Li1  1  0.06034300  0.06034300  0.23102300  1
  Li  Li2  1  0.79779600  0.79779600  0.35645600  1
  Li  Li3  1  0.49373100  0.49373100  0.50479500  1
  Li  Li4  1  0.22155500  0.22155500  0.63629000  1
  Li  Li5  1  0.92774500  0.92774500  0.77866000  1
  Li  Li6  1  0.64251100  0.64251100  0.92127500  1
  Li  Li7  1  0.42652600  0.42652600  0.28664600  1
  Mn  Mn8  1  0.99592600  0.99592600  0.01087700  1
  Mn  Mn9  1  0.71478000  0.71478000  0.13933000  1
  Co  Co10  1  0.14211000  0.14211000  0.43218100  1
  Co  Co11  1  0.86421300  0.86421300  0.54749500  1
  Co  Co12  1  0.57175300  0.57175300  0.71649300  1
  Co  Co13  1  0.28992200  0.28992200  0.84125500  1
  O  O14  1  0.47027500  0.47027500  0.90264100  1
  O  O15  1  0.18337600  0.18337600  0.04661200  1
  O  O16  1  0.90139300  0.90139300  0.16249500  1
  O  O17  1  0.61621100  0.61621100  0.31700800  1
  O  O18  1  0.32294000  0.32294000  0.46797200  1
  O  O19  1  0.04086500  0.04086500  0.61309500  1
  O  O20  1  0.75135800  0.75135800  0.75571000  1
  O  O21  1  0.24377000  0.24377000  0.23858000  1
  O  O22  1  0.96072300  0.96072300  0.40752400  1
  O  O23  1  0.67273800  0.67273800  0.53098500  1
  O  O24  1  0.38677100  0.38677100  0.68852200  1
  O  O25  1  0.09840500  0.09840500  0.82536200  1
  O  O26  1  0.80986300  0.80986300  0.97230500  1
  O  O27  1  0.53226400  0.53226400  0.09407700  1
