# generated using pymatgen
data_Li4Mn3NbO8
_symmetry_space_group_name_H-M   'P 1'
_cell_length_a   6.14123888
_cell_length_b   6.26255753
_cell_length_c   8.56414714
_cell_angle_alpha   90.01808298
_cell_angle_beta   91.52152680
_cell_angle_gamma   90.22286631
_symmetry_Int_Tables_number   1
_chemical_formula_structural   Li4Mn3NbO8
_chemical_formula_sum   'Li8 Mn6 Nb2 O16'
_cell_volume   329.25726394
_cell_formula_units_Z   2
loop_
 _symmetry_equiv_pos_site_id
 _symmetry_equiv_pos_as_xyz
  1  'x, y, z'
loop_
 _atom_site_type_symbol
 _atom_site_label
 _atom_site_symmetry_multiplicity
 _atom_site_fract_x
 _atom_site_fract_y
 _atom_site_fract_z
 _atom_site_occupancy
  Li  Li0  1  0.99836100  0.00737200  0.50001300  1
  Li  Li1  1  0.50176000  0.49249200  0.00003700  1
  Li  Li2  1  0.50082600  0.00919900  0.00028700  1
  Li  Li3  1  0.99915700  0.49082700  0.49956100  1
  Li  Li4  1  0.74983400  0.24991800  0.74997100  1
  Li  Li5  1  0.24988200  0.74972700  0.25000400  1
  Li  Li6  1  0.25012000  0.24996100  0.24998000  1
  Li  Li7  1  0.75018000  0.74970900  0.74997700  1
  Mn  Mn8  1  0.25005400  0.74958600  0.75009200  1
  Mn  Mn9  1  0.49850200  0.00405600  0.50112000  1
  Mn  Mn10  1  0.00136900  0.49588100  0.99892300  1
  Mn  Mn11  1  0.75017200  0.25014000  0.25000300  1
  Mn  Mn12  1  0.24989800  0.25003300  0.75002100  1
  Mn  Mn13  1  0.75003900  0.75052800  0.25002800  1
  Nb  Nb14  1  0.49869300  0.51004400  0.49916900  1
  Nb  Nb15  1  0.00133300  0.98985800  0.00070500  1
  O  O16  1  0.03184800  0.47559600  0.75224000  1
  O  O17  1  0.53304000  0.02056000  0.25337200  1
  O  O18  1  0.46776700  0.02447900  0.74774300  1
  O  O19  1  0.96695100  0.47989600  0.24662700  1
  O  O20  1  0.98584300  0.99859700  0.76418500  1
  O  O21  1  0.48513100  0.50202900  0.26324300  1
  O  O22  1  0.51407300  0.50132400  0.73588500  1
  O  O23  1  0.01507000  0.99810600  0.23675900  1
  O  O24  1  0.26148900  0.26830900  0.51256700  1
  O  O25  1  0.76638700  0.76744900  0.99293900  1
  O  O26  1  0.23850900  0.23176600  0.98738900  1
  O  O27  1  0.73363800  0.73255100  0.50702400  1
  O  O28  1  0.76238300  0.23034100  0.01500900  1
  O  O29  1  0.26383600  0.73026300  0.49380900  1
  O  O30  1  0.73766300  0.26971400  0.48508500  1
  O  O31  1  0.23619900  0.76968400  0.00623600  1
