# generated using pymatgen
data_LiRuN2
_symmetry_space_group_name_H-M   'P 1'
_cell_length_a   5.57458354
_cell_length_b   4.68867217
_cell_length_c   8.96307003
_cell_angle_alpha   90.00000347
_cell_angle_beta   143.50635357
_cell_angle_gamma   114.86869441
_symmetry_Int_Tables_number   1
_chemical_formula_structural   LiRuN2
_chemical_formula_sum   'Li2 Ru2 N4'
_cell_volume   98.52049458
_cell_formula_units_Z   2
loop_
 _symmetry_equiv_pos_site_id
 _symmetry_equiv_pos_as_xyz
  1  'x, y, z'
loop_
 _atom_site_type_symbol
 _atom_site_label
 _atom_site_symmetry_multiplicity
 _atom_site_fract_x
 _atom_site_fract_y
 _atom_site_fract_z
 _atom_site_occupancy
  Li  Li0  1  -0.00000000  0.50000000  0.25000000  1
  Li  Li1  1  0.00000000  -0.00000000  -0.00000000  1
  Ru  Ru2  1  0.00000000  0.50000000  0.75000000  1
  Ru  Ru3  1  -0.00000000  -0.00000000  0.50000000  1
  N  N4  1  0.50000000  0.95540891  0.12500000  1
  N  N5  1  0.50000000  0.04459109  0.62500000  1
  N  N6  1  0.58918118  0.54459109  0.41959109  1
  N  N7  1  0.41081882  0.45540891  0.83040891  1
