# generated using pymatgen
data_LiBiO2
_symmetry_space_group_name_H-M   'P 1'
_cell_length_a   3.49240700
_cell_length_b   3.49240700
_cell_length_c   9.51462200
_cell_angle_alpha   90.00000000
_cell_angle_beta   90.00000000
_cell_angle_gamma   90.00000000
_symmetry_Int_Tables_number   1
_chemical_formula_structural   LiBiO2
_chemical_formula_sum   'Li2 Bi2 O4'
_cell_volume   116.04895638
_cell_formula_units_Z   2
loop_
 _symmetry_equiv_pos_site_id
 _symmetry_equiv_pos_as_xyz
  1  'x, y, z'
loop_
 _atom_site_type_symbol
 _atom_site_label
 _atom_site_symmetry_multiplicity
 _atom_site_fract_x
 _atom_site_fract_y
 _atom_site_fract_z
 _atom_site_occupancy
  Li  Li0  1  0.50000000  0.50000000  0.50000000  1
  Li  Li1  1  0.00000000  0.00000000  0.50000000  1
  Bi  Bi2  1  0.50000000  0.00000000  0.81464600  1
  Bi  Bi3  1  0.00000000  0.50000000  0.18535400  1
  O  O4  1  0.50000000  0.00000000  0.59685200  1
  O  O5  1  0.00000000  0.50000000  0.40314800  1
  O  O6  1  0.00000000  0.50000000  0.82832700  1
  O  O7  1  0.50000000  0.00000000  0.17167300  1
