# generated using pymatgen
data_Li9Mn7O16
_symmetry_space_group_name_H-M   'P 1'
_cell_length_a   5.08906900
_cell_length_b   6.96292255
_cell_length_c   8.73000918
_cell_angle_alpha   100.04307216
_cell_angle_beta   93.63544689
_cell_angle_gamma   101.06291682
_symmetry_Int_Tables_number   1
_chemical_formula_structural   Li9Mn7O16
_chemical_formula_sum   'Li9 Mn7 O16'
_cell_volume   297.43973424
_cell_formula_units_Z   1
loop_
 _symmetry_equiv_pos_site_id
 _symmetry_equiv_pos_as_xyz
  1  'x, y, z'
loop_
 _atom_site_type_symbol
 _atom_site_label
 _atom_site_symmetry_multiplicity
 _atom_site_fract_x
 _atom_site_fract_y
 _atom_site_fract_z
 _atom_site_occupancy
  Li  Li0  1  0.25800200  0.31575800  0.69298100  1
  Li  Li1  1  0.25021800  0.56173700  0.43337000  1
  Li  Li2  1  0.73195700  0.20970400  0.81448800  1
  Li  Li3  1  0.74978200  0.43826300  0.56663000  1
  Li  Li4  1  0.26022900  0.05623100  0.93846000  1
  Li  Li5  1  0.26804300  0.79029600  0.18551200  1
  Li  Li6  1  0.74199800  0.68424200  0.30701900  1
  Li  Li7  1  0.73977100  0.94376900  0.06154000  1
  Li  Li8  1  0.50000000  0.50000000  0.00000000  1
  Mn  Mn9  1  0.99974000  0.61308000  0.87758300  1
  Mn  Mn10  1  0.00026000  0.38692000  0.12241700  1
  Mn  Mn11  1  0.00366500  0.87224800  0.62758000  1
  Mn  Mn12  1  0.99633500  0.12775200  0.37242000  1
  Mn  Mn13  1  0.50425200  0.73620400  0.75627800  1
  Mn  Mn14  1  0.50000000  0.00000000  0.50000000  1
  Mn  Mn15  1  0.49574800  0.26379600  0.24372200  1
  O  O16  1  0.13937100  0.59311500  0.67330900  1
  O  O17  1  0.13834700  0.85097900  0.41977000  1
  O  O18  1  0.65151800  0.47391700  0.78915500  1
  O  O19  1  0.64098500  0.72384400  0.54975900  1
  O  O20  1  0.10379700  0.36836000  0.91279800  1
  O  O21  1  0.11713000  0.13295800  0.15795900  1
  O  O22  1  0.63840500  0.97010500  0.29256300  1
  O  O23  1  0.63874900  0.22264200  0.04454000  1
  O  O24  1  0.36159500  0.02989500  0.70743700  1
  O  O25  1  0.35901500  0.27615600  0.45024100  1
  O  O26  1  0.88287000  0.86704200  0.84204100  1
  O  O27  1  0.86165300  0.14902100  0.58023000  1
  O  O28  1  0.36125100  0.77735800  0.95546000  1
  O  O29  1  0.34848200  0.52608300  0.21084500  1
  O  O30  1  0.86062900  0.40688500  0.32669100  1
  O  O31  1  0.89620300  0.63164000  0.08720200  1
