# generated using pymatgen
data_Li4MnCo2O7
_symmetry_space_group_name_H-M   'P 1'
_cell_length_a   4.97664800
_cell_length_b   6.61520156
_cell_length_c   7.78464650
_cell_angle_alpha   85.48136212
_cell_angle_beta   78.17436258
_cell_angle_gamma   82.31458357
_symmetry_Int_Tables_number   1
_chemical_formula_structural   Li4MnCo2O7
_chemical_formula_sum   'Li8 Mn2 Co4 O14'
_cell_volume   248.24087183
_cell_formula_units_Z   2
loop_
 _symmetry_equiv_pos_site_id
 _symmetry_equiv_pos_as_xyz
  1  'x, y, z'
loop_
 _atom_site_type_symbol
 _atom_site_label
 _atom_site_symmetry_multiplicity
 _atom_site_fract_x
 _atom_site_fract_y
 _atom_site_fract_z
 _atom_site_occupancy
  Li  Li0  1  0.79271200  0.43463600  0.92243300  1
  Li  Li1  1  0.92894800  0.14300200  0.63754200  1
  Li  Li2  1  0.64741100  0.71458100  0.22128200  1
  Li  Li3  1  0.49346700  0.99384300  0.49987100  1
  Li  Li4  1  0.34698600  0.29429100  0.77975000  1
  Li  Li5  1  0.21909900  0.56658000  0.06790300  1
  Li  Li6  1  0.07655300  0.85151900  0.37070000  1
  Li  Li7  1  0.14546900  0.71276700  0.71190100  1
  Mn  Mn8  1  0.00031200  0.99894200  0.99925100  1
  Mn  Mn9  1  0.57261600  0.85563100  0.85402200  1
  Co  Co10  1  0.28275900  0.43245600  0.43199800  1
  Co  Co11  1  0.43011400  0.13949900  0.14041600  1
  Co  Co12  1  0.71090800  0.57797800  0.57807500  1
  Co  Co13  1  0.85435000  0.28630800  0.28748700  1
  O  O14  1  0.67840600  0.12333400  0.90821400  1
  O  O15  1  0.79625300  0.86031300  0.62649500  1
  O  O16  1  0.54086800  0.39836000  0.18051300  1
  O  O17  1  0.41103400  0.70055900  0.46585400  1
  O  O18  1  0.24967700  0.99624800  0.77428600  1
  O  O19  1  0.11380000  0.26208800  0.04105700  1
  O  O20  1  0.97699400  0.55957700  0.32486800  1
  O  O21  1  0.87983100  0.74273500  0.96543000  1
  O  O22  1  0.02105700  0.43226100  0.66733800  1
  O  O23  1  0.75137100  0.00920200  0.23004400  1
  O  O24  1  0.59731400  0.29361300  0.52517300  1
  O  O25  1  0.47722800  0.59507700  0.82667600  1
  O  O26  1  0.32107900  0.87705100  0.09251400  1
  O  O27  1  0.18338500  0.14754900  0.36890600  1
