# generated using pymatgen
data_Li9Mn2Co5O16
_symmetry_space_group_name_H-M   'P 1'
_cell_length_a   4.97231400
_cell_length_b   5.84194797
_cell_length_c   10.42936677
_cell_angle_alpha   90.72168885
_cell_angle_beta   96.57292030
_cell_angle_gamma   105.93171255
_symmetry_Int_Tables_number   1
_chemical_formula_structural   Li9Mn2Co5O16
_chemical_formula_sum   'Li9 Mn2 Co5 O16'
_cell_volume   289.09350464
_cell_formula_units_Z   1
loop_
 _symmetry_equiv_pos_site_id
 _symmetry_equiv_pos_as_xyz
  1  'x, y, z'
loop_
 _atom_site_type_symbol
 _atom_site_label
 _atom_site_symmetry_multiplicity
 _atom_site_fract_x
 _atom_site_fract_y
 _atom_site_fract_z
 _atom_site_occupancy
  Li  Li0  1  0.00934500  0.25375400  0.25815300  1
  Li  Li1  1  0.49514200  0.87365700  0.62271400  1
  Li  Li2  1  0.99331500  0.99444200  0.50407200  1
  Li  Li3  1  0.49342600  0.62426000  0.87085800  1
  Li  Li4  1  0.99690700  0.74742700  0.73856600  1
  Li  Li5  1  0.50827900  0.37917400  0.13355900  1
  Li  Li6  1  0.99613700  0.50038000  0.00047700  1
  Li  Li7  1  0.50334100  0.12617200  0.37059700  1
  Li  Li8  1  0.00078700  0.50159700  0.50183600  1
  Mn  Mn9  1  0.99896000  0.99869700  0.00141700  1
  Mn  Mn10  1  0.99296400  0.24619700  0.74622900  1
  Co  Co11  1  0.51108600  0.62561500  0.38435100  1
  Co  Co12  1  0.50241800  0.87609200  0.12663700  1
  Co  Co13  1  0.49250400  0.12342000  0.87008900  1
  Co  Co14  1  0.00930900  0.75103700  0.25275100  1
  Co  Co15  1  0.49949900  0.38158100  0.61725200  1
  O  O16  1  0.74680300  0.16474800  0.06477900  1
  O  O17  1  0.27094600  0.79457000  0.42541300  1
  O  O18  1  0.76067900  0.91721000  0.31532600  1
  O  O19  1  0.24514900  0.53099000  0.69360300  1
  O  O20  1  0.73387000  0.68028100  0.56053000  1
  O  O21  1  0.22820200  0.29023500  0.92078400  1
  O  O22  1  0.74301000  0.41114700  0.81377500  1
  O  O23  1  0.26533100  0.05171600  0.18500300  1
  O  O24  1  0.28162100  0.33379000  0.44051300  1
  O  O25  1  0.74450000  0.96068100  0.81104100  1
  O  O26  1  0.23396800  0.07111800  0.68726000  1
  O  O27  1  0.74997600  0.70483200  0.06751900  1
  O  O28  1  0.25408600  0.83847700  0.93566900  1
  O  O29  1  0.73261600  0.45942800  0.31561700  1
  O  O30  1  0.24574600  0.58507100  0.18048100  1
  O  O31  1  0.76007900  0.20220000  0.58313600  1
