# generated using pymatgen
data_Li8Mn7Cu(PO4)12
_symmetry_space_group_name_H-M   'P 1'
_cell_length_a   8.53744600
_cell_length_b   8.81307559
_cell_length_c   11.96111072
_cell_angle_alpha   89.75807087
_cell_angle_beta   89.92414281
_cell_angle_gamma   88.75917690
_symmetry_Int_Tables_number   1
_chemical_formula_structural   Li8Mn7Cu(PO4)12
_chemical_formula_sum   'Li8 Mn7 Cu1 P12 O48'
_cell_volume   899.74806937
_cell_formula_units_Z   1
loop_
 _symmetry_equiv_pos_site_id
 _symmetry_equiv_pos_as_xyz
  1  'x, y, z'
loop_
 _atom_site_type_symbol
 _atom_site_label
 _atom_site_symmetry_multiplicity
 _atom_site_fract_x
 _atom_site_fract_y
 _atom_site_fract_z
 _atom_site_occupancy
  Li  Li0  1  0.21714600  0.72057000  0.18165100  1
  Li  Li1  1  0.21510500  0.77563200  0.81858700  1
  Li  Li2  1  0.28579800  0.22405200  0.31739000  1
  Li  Li3  1  0.28210200  0.28042700  0.68093700  1
  Li  Li4  1  0.71631600  0.71896200  0.31969100  1
  Li  Li5  1  0.71378400  0.77373200  0.68353300  1
  Li  Li6  1  0.78523000  0.22460600  0.18153400  1
  Li  Li7  1  0.78414700  0.27997000  0.81564200  1
  Mn  Mn8  1  0.24786500  0.96204400  0.61231200  1
  Mn  Mn9  1  0.24994700  0.53344100  0.38535300  1
  Mn  Mn10  1  0.25227800  0.03718600  0.11203800  1
  Mn  Mn11  1  0.25052200  0.46568600  0.88499600  1
  Mn  Mn12  1  0.74912900  0.53461000  0.11532000  1
  Mn  Mn13  1  0.74831300  0.96352500  0.88777900  1
  Mn  Mn14  1  0.75217000  0.03728900  0.38704600  1
  Cu  Cu15  1  0.75369300  0.46560600  0.61321000  1
  P  P16  1  0.10595500  0.39353900  0.14505100  1
  P  P17  1  0.10494000  0.10304600  0.85068300  1
  P  P18  1  0.39463700  0.60613500  0.64481100  1
  P  P19  1  0.39511600  0.89642100  0.35095600  1
  P  P20  1  0.60531700  0.10543300  0.64716900  1
  P  P21  1  0.60619200  0.39355900  0.35561500  1
  P  P22  1  0.89431600  0.60752300  0.85572100  1
  P  P23  1  0.89518400  0.89663500  0.14921500  1
  P  P24  1  0.03396700  0.24474900  0.49996600  1
  P  P25  1  0.46598600  0.75535500  0.99980300  1
  P  P26  1  0.53437600  0.24505300  0.99949000  1
  P  P27  1  0.96566800  0.75145300  0.50024700  1
  O  O28  1  0.05948500  0.64366600  0.42531700  1
  O  O29  1  0.05950900  0.86037500  0.57422700  1
  O  O30  1  0.07750300  0.89999100  0.15784300  1
  O  O31  1  0.07559600  0.60703600  0.84291500  1
  O  O32  1  0.14193400  0.15347200  0.58505400  1
  O  O33  1  0.14282800  0.32554400  0.41860200  1
  O  O34  1  0.15433000  0.43771600  0.02725000  1
  O  O35  1  0.15377900  0.05738400  0.97054600  1
  O  O36  1  0.16222600  0.22942000  0.17675200  1
  O  O37  1  0.15532600  0.26102400  0.81665600  1
  O  O38  1  0.17684500  0.51137200  0.22600300  1
  O  O39  1  0.17885100  0.97892000  0.77232200  1
  O  O40  1  0.32129300  0.02060200  0.27247600  1
  O  O41  1  0.32150600  0.48827000  0.72583600  1
  O  O42  1  0.33602900  0.76995000  0.67651700  1
  O  O43  1  0.34430200  0.73857800  0.31737400  1
  O  O44  1  0.34514000  0.56218300  0.52732600  1
  O  O45  1  0.34603500  0.94147300  0.47097200  1
  O  O46  1  0.35870700  0.84493400  0.08552900  1
  O  O47  1  0.35795900  0.67393700  0.91924100  1
  O  O48  1  0.42252100  0.10091400  0.65634600  1
  O  O49  1  0.42477300  0.39387500  0.34110500  1
  O  O50  1  0.44037800  0.13758400  0.07532900  1
  O  O51  1  0.43929600  0.35345000  0.92483300  1
  O  O52  1  0.56008200  0.64628900  0.07465600  1
  O  O53  1  0.56066200  0.86320900  0.92455600  1
  O  O54  1  0.57405400  0.60973800  0.65829500  1
  O  O55  1  0.57745100  0.89965200  0.34236800  1
  O  O56  1  0.64302600  0.32671800  0.07980300  1
  O  O57  1  0.64190500  0.15579900  0.91372200  1
  O  O58  1  0.65421000  0.05989900  0.52793700  1
  O  O59  1  0.64808600  0.44026700  0.47291500  1
  O  O60  1  0.66220600  0.22940500  0.32300900  1
  O  O61  1  0.65499000  0.26531900  0.68080900  1
  O  O62  1  0.67745600  0.51080100  0.27300900  1
  O  O63  1  0.67934400  0.98217100  0.72662300  1
  O  O64  1  0.82142300  0.02077500  0.22742800  1
  O  O65  1  0.82000300  0.48905000  0.77819400  1
  O  O66  1  0.84438600  0.73885400  0.18390500  1
  O  O67  1  0.83892300  0.77216300  0.82338900  1
  O  O68  1  0.84830500  0.56658400  0.97482300  1
  O  O69  1  0.84631800  0.94208100  0.02918400  1
  O  O70  1  0.85846200  0.66800200  0.58360800  1
  O  O71  1  0.85621300  0.84253100  0.41694000  1
  O  O72  1  0.92257900  0.09963200  0.84191600  1
  O  O73  1  0.92486800  0.39382000  0.15765900  1
  O  O74  1  0.93926200  0.13866400  0.42400500  1
  O  O75  1  0.94444100  0.35066300  0.57913100  1
