# generated using pymatgen
data_LiIr2N3
_symmetry_space_group_name_H-M   'P 1'
_cell_length_a   5.72134025
_cell_length_b   5.86437397
_cell_length_c   5.04879411
_cell_angle_alpha   90.00000000
_cell_angle_beta   90.00000000
_cell_angle_gamma   120.83050649
_symmetry_Int_Tables_number   1
_chemical_formula_structural   LiIr2N3
_chemical_formula_sum   'Li2 Ir4 N6'
_cell_volume   145.45948811
_cell_formula_units_Z   2
loop_
 _symmetry_equiv_pos_site_id
 _symmetry_equiv_pos_as_xyz
  1  'x, y, z'
loop_
 _atom_site_type_symbol
 _atom_site_label
 _atom_site_symmetry_multiplicity
 _atom_site_fract_x
 _atom_site_fract_y
 _atom_site_fract_z
 _atom_site_occupancy
  Li  Li0  1  0.00000000  0.67017852  0.48019702  1
  Li  Li1  1  -0.00000000  0.32982148  0.98019702  1
  Ir  Ir2  1  0.27575022  0.26705287  0.50518191  1
  Ir  Ir3  1  0.72424978  0.99130265  0.50518191  1
  Ir  Ir4  1  0.72424978  0.73294713  0.00518191  1
  Ir  Ir5  1  0.27575022  0.00869735  0.00518191  1
  N  N6  1  0.41300216  0.36997317  0.85781856  1
  N  N7  1  0.58699784  0.95697101  0.85781856  1
  N  N8  1  0.58699784  0.63002683  0.35781856  1
  N  N9  1  0.41300216  0.04302899  0.35781856  1
  N  N10  1  0.00000000  0.66435766  0.88180203  1
  N  N11  1  1.00000000  0.33564234  0.38180203  1
