# generated using pymatgen
data_Li9Co7O16
_symmetry_space_group_name_H-M   'P 1'
_cell_length_a   11.36797100
_cell_length_b   4.95490500
_cell_length_c   5.03890174
_cell_angle_alpha   70.27203656
_cell_angle_beta   90.00000000
_cell_angle_gamma   90.00000000
_symmetry_Int_Tables_number   1
_chemical_formula_structural   Li9Co7O16
_chemical_formula_sum   'Li9 Co7 O16'
_cell_volume   267.16832357
_cell_formula_units_Z   1
loop_
 _symmetry_equiv_pos_site_id
 _symmetry_equiv_pos_as_xyz
  1  'x, y, z'
loop_
 _atom_site_type_symbol
 _atom_site_label
 _atom_site_symmetry_multiplicity
 _atom_site_fract_x
 _atom_site_fract_y
 _atom_site_fract_z
 _atom_site_occupancy
  Li  Li0  1  0.25141600  0.00000000  0.50000000  1
  Li  Li1  1  0.12625900  0.50000000  0.50000000  1
  Li  Li2  1  0.00000000  0.00000000  0.50000000  1
  Li  Li3  1  0.87374100  0.50000000  0.50000000  1
  Li  Li4  1  0.74858400  0.00000000  0.50000000  1
  Li  Li5  1  0.61647300  0.50000000  0.50000000  1
  Li  Li6  1  0.50000000  0.00000000  0.50000000  1
  Li  Li7  1  0.38352700  0.50000000  0.50000000  1
  Li  Li8  1  0.50000000  0.50000000  0.00000000  1
  Co  Co9  1  0.37578100  0.00000000  0.00000000  1
  Co  Co10  1  0.62421900  0.00000000  0.00000000  1
  Co  Co11  1  0.25418600  0.50000000  0.00000000  1
  Co  Co12  1  0.12538100  0.00000000  0.00000000  1
  Co  Co13  1  0.00000000  0.50000000  0.00000000  1
  Co  Co14  1  0.87461900  0.00000000  0.00000000  1
  Co  Co15  1  0.74581400  0.50000000  0.00000000  1
  O  O16  1  0.24923400  0.75587000  0.21823500  1
  O  O17  1  0.12603800  0.25975500  0.21201400  1
  O  O18  1  0.00000000  0.77494400  0.23165100  1
  O  O19  1  0.87396200  0.25975500  0.21201400  1
  O  O20  1  0.75076600  0.75587000  0.21823500  1
  O  O21  1  0.63617600  0.25286600  0.21878500  1
  O  O22  1  0.50000000  0.77981200  0.23045300  1
  O  O23  1  0.36382400  0.25286600  0.21878500  1
  O  O24  1  0.24923400  0.24413000  0.78176500  1
  O  O25  1  0.12603800  0.74024500  0.78798600  1
  O  O26  1  0.00000000  0.22505600  0.76834900  1
  O  O27  1  0.87396200  0.74024500  0.78798600  1
  O  O28  1  0.75076600  0.24413000  0.78176500  1
  O  O29  1  0.63617600  0.74713400  0.78121500  1
  O  O30  1  0.50000000  0.22018800  0.76954700  1
  O  O31  1  0.36382400  0.74713400  0.78121500  1
