# generated using pymatgen
data_LiCO2
_symmetry_space_group_name_H-M   'P 1'
_cell_length_a   15.59125620
_cell_length_b   15.59125620
_cell_length_c   5.57409700
_cell_angle_alpha   90.00000000
_cell_angle_beta   90.00000000
_cell_angle_gamma   120.00000083
_symmetry_Int_Tables_number   1
_chemical_formula_structural   LiCO2
_chemical_formula_sum   'Li18 C18 O36'
_cell_volume   1173.45750248
_cell_formula_units_Z   18
loop_
 _symmetry_equiv_pos_site_id
 _symmetry_equiv_pos_as_xyz
  1  'x, y, z'
loop_
 _atom_site_type_symbol
 _atom_site_label
 _atom_site_symmetry_multiplicity
 _atom_site_fract_x
 _atom_site_fract_y
 _atom_site_fract_z
 _atom_site_occupancy
  Li  Li0  1  0.19666600  0.53557300  0.27099000  1
  Li  Li1  1  0.33890800  0.80333400  0.27099000  1
  Li  Li2  1  0.46442700  0.66109200  0.27099000  1
  Li  Li3  1  0.80333400  0.46442700  0.77099000  1
  Li  Li4  1  0.66109200  0.19666600  0.77099000  1
  Li  Li5  1  0.53557300  0.33890800  0.77099000  1
  Li  Li6  1  0.02178500  0.29659100  0.55339700  1
  Li  Li7  1  0.27480500  0.97821500  0.55339700  1
  Li  Li8  1  0.70340900  0.72519500  0.55339700  1
  Li  Li9  1  0.97821500  0.70340900  0.05339700  1
  Li  Li10  1  0.72519500  0.02178500  0.05339700  1
  Li  Li11  1  0.29659100  0.27480500  0.05339700  1
  Li  Li12  1  0.85982200  0.66518500  0.52243900  1
  Li  Li13  1  0.80536300  0.14017800  0.52243900  1
  Li  Li14  1  0.33481500  0.19463700  0.52243900  1
  Li  Li15  1  0.14017800  0.33481500  0.02243900  1
  Li  Li16  1  0.19463700  0.85982200  0.02243900  1
  Li  Li17  1  0.66518500  0.80536300  0.02243900  1
  C  C18  1  0.14618500  0.49328900  0.75074200  1
  C  C19  1  0.34710400  0.85381500  0.75074200  1
  C  C20  1  0.50671100  0.65289600  0.75074200  1
  C  C21  1  0.85381500  0.50671100  0.25074200  1
  C  C22  1  0.65289600  0.14618500  0.25074200  1
  C  C23  1  0.49328900  0.34710400  0.25074200  1
  C  C24  1  0.86779000  0.33835500  0.71364100  1
  C  C25  1  0.47056500  0.13221000  0.71364100  1
  C  C26  1  0.66164500  0.52943500  0.71364100  1
  C  C27  1  0.13221000  0.66164500  0.21364100  1
  C  C28  1  0.52943500  0.86779000  0.21364100  1
  C  C29  1  0.33835500  0.47056500  0.21364100  1
  C  C30  1  0.97714800  0.20173000  0.04097100  1
  C  C31  1  0.22458200  0.02285200  0.04097100  1
  C  C32  1  0.79827000  0.77541800  0.04097100  1
  C  C33  1  0.02285200  0.79827000  0.54097100  1
  C  C34  1  0.77541800  0.97714800  0.54097100  1
  C  C35  1  0.20173000  0.22458200  0.54097100  1
  O  O36  1  0.12397100  0.44841300  0.55380700  1
  O  O37  1  0.32444200  0.87602900  0.55380700  1
  O  O38  1  0.55158700  0.67555800  0.55380700  1
  O  O39  1  0.87602900  0.55158700  0.05380700  1
  O  O40  1  0.67555800  0.12397100  0.05380700  1
  O  O41  1  0.44841300  0.32444200  0.05380700  1
  O  O42  1  0.85919300  0.53745500  0.46106400  1
  O  O43  1  0.67826200  0.14080700  0.46106400  1
  O  O44  1  0.46254500  0.32173800  0.46106400  1
  O  O45  1  0.14080700  0.46254500  0.96106400  1
  O  O46  1  0.32173800  0.85919300  0.96106400  1
  O  O47  1  0.53745500  0.67826200  0.96106400  1
  O  O48  1  0.78753600  0.33053400  0.77936100  1
  O  O49  1  0.54299900  0.21246400  0.77936100  1
  O  O50  1  0.66946600  0.45700100  0.77936100  1
  O  O51  1  0.21246400  0.66946600  0.27936100  1
  O  O52  1  0.45700100  0.78753600  0.27936100  1
  O  O53  1  0.33053400  0.54299900  0.27936100  1
  O  O54  1  0.88862500  0.27730100  0.62457600  1
  O  O55  1  0.38867600  0.11137500  0.62457600  1
  O  O56  1  0.72269900  0.61132400  0.62457600  1
  O  O57  1  0.11137500  0.72269900  0.12457600  1
  O  O58  1  0.61132400  0.88862500  0.12457600  1
  O  O59  1  0.27730100  0.38867600  0.12457600  1
  O  O60  1  0.79876000  0.02215800  0.34436300  1
  O  O61  1  0.22339700  0.20124000  0.34436300  1
  O  O62  1  0.97784200  0.77660300  0.34436300  1
  O  O63  1  0.20124000  0.97784200  0.84436300  1
  O  O64  1  0.77660300  0.79876000  0.84436300  1
  O  O65  1  0.02215800  0.22339700  0.84436300  1
  O  O66  1  0.00908500  0.23913000  0.24351700  1
  O  O67  1  0.23004500  0.99091500  0.24351700  1
  O  O68  1  0.76087000  0.76995500  0.24351700  1
  O  O69  1  0.99091500  0.76087000  0.74351700  1
  O  O70  1  0.76995500  0.00908500  0.74351700  1
  O  O71  1  0.23913000  0.23004500  0.74351700  1
