# generated using pymatgen
data_Li5V3P8O29
_symmetry_space_group_name_H-M   'P 1'
_cell_length_a   9.79989700
_cell_length_b   9.82395806
_cell_length_c   14.13550533
_cell_angle_alpha   89.90370617
_cell_angle_beta   90.57668827
_cell_angle_gamma   119.78128142
_symmetry_Int_Tables_number   1
_chemical_formula_structural   Li5V3P8O29
_chemical_formula_sum   'Li10 V6 P16 O58'
_cell_volume   1181.07576900
_cell_formula_units_Z   2
loop_
 _symmetry_equiv_pos_site_id
 _symmetry_equiv_pos_as_xyz
  1  'x, y, z'
loop_
 _atom_site_type_symbol
 _atom_site_label
 _atom_site_symmetry_multiplicity
 _atom_site_fract_x
 _atom_site_fract_y
 _atom_site_fract_z
 _atom_site_occupancy
  Li  Li0  1  0.22447400  0.91816800  0.44351300  1
  Li  Li1  1  0.09020500  0.31975500  0.44347800  1
  Li  Li2  1  0.32292500  0.67199800  0.10708700  1
  Li  Li3  1  0.23058900  0.32136600  0.93540300  1
  Li  Li4  1  0.67211900  0.90504900  0.93937900  1
  Li  Li5  1  0.67718100  0.77108000  0.43966500  1
  Li  Li6  1  0.33097300  0.09723700  0.05715700  1
  Li  Li7  1  0.90892800  0.68372300  0.56459000  1
  Li  Li8  1  0.77749900  0.09387100  0.55851700  1
  Li  Li9  1  0.96064600  0.94505800  0.00013200  1
  V  V10  1  0.43214300  0.43486900  0.74901500  1
  V  V11  1  0.57019100  0.56307800  0.24916500  1
  V  V12  1  0.43074500  0.00013900  0.25331900  1
  V  V13  1  0.56683800  0.00152100  0.75203700  1
  V  V14  1  0.00133000  0.56762800  0.75817100  1
  V  V15  1  0.99725800  0.43481400  0.24305200  1
  P  P16  1  0.08578100  0.78138200  0.15862000  1
  P  P17  1  0.22893100  0.90924400  0.66046100  1
  P  P18  1  0.08515800  0.32149400  0.65964600  1
  P  P19  1  0.33878100  0.67059800  0.87147700  1
  P  P20  1  0.33299900  0.66470700  0.36860500  1
  P  P21  1  0.22932600  0.31709800  0.15566400  1
  P  P22  1  0.31333300  0.23092400  0.34061700  1
  P  P23  1  0.68016500  0.90453700  0.15859000  1
  P  P24  1  0.31588700  0.08886300  0.84150400  1
  P  P25  1  0.67722100  0.76871900  0.65584200  1
  P  P26  1  0.77381100  0.69129000  0.83770800  1
  P  P27  1  0.66683700  0.33218200  0.63370500  1
  P  P28  1  0.66077700  0.33058300  0.12825200  1
  P  P29  1  0.91553300  0.68129900  0.34270700  1
  P  P30  1  0.77180600  0.08863300  0.33896500  1
  P  P31  1  0.91652600  0.22091900  0.84142300  1
  O  O32  1  0.99736400  0.75840500  0.43383600  1
  O  O33  1  0.08155500  0.74488100  0.66436700  1
  O  O34  1  0.23942500  0.01081100  0.93186000  1
  O  O35  1  0.25947900  0.92222100  0.16398000  1
  O  O36  1  0.09975200  0.63011200  0.16459600  1
  O  O37  1  0.19697300  0.67960400  0.83099500  1
  O  O38  1  0.09203700  0.47840700  0.68121500  1
  O  O39  1  0.00565900  0.19782100  0.92037800  1
  O  O40  1  0.09015800  0.34555700  0.15705000  1
  O  O41  1  0.32821200  0.81421100  0.33141900  1
  O  O42  1  0.38160500  0.90041400  0.68333100  1
  O  O43  1  0.18364600  0.51873300  0.32353800  1
  O  O44  1  0.35525800  0.68279100  0.97787000  1
  O  O45  1  0.33771500  0.66194600  0.47375800  1
  O  O46  1  0.32852300  0.51437900  0.83732300  1
  O  O47  1  0.51734600  0.89125800  0.17035300  1
  O  O48  1  0.49487100  0.81710300  0.83080400  1
  O  O49  1  0.25254100  0.34536500  0.66754500  1
  O  O50  1  0.21309600  0.20735100  0.24383100  1
  O  O51  1  0.22876000  0.24258900  0.42323900  1
  O  O52  1  0.24026300  0.23900400  0.06692000  1
  O  O53  1  0.38168500  0.48015400  0.17283500  1
  O  O54  1  0.48346500  0.66599100  0.32671600  1
  O  O55  1  0.33984600  0.25625900  0.83740200  1
  O  O56  1  0.51776500  0.62579800  0.67529800  1
  O  O57  1  0.66462900  0.92115300  0.66031800  1
  O  O58  1  0.21012800  0.00095300  0.74982700  1
  O  O59  1  0.24401100  0.99108900  0.56976000  1
  O  O60  1  0.75580900  0.99870300  0.42820800  1
  O  O61  1  0.33534700  0.08490300  0.34193000  1
  O  O62  1  0.47398100  0.38145100  0.32211500  1
  O  O63  1  0.65776000  0.73680000  0.17112400  1
  O  O64  1  0.52207800  0.33226500  0.67663300  1
  O  O65  1  0.61417000  0.53928800  0.82969900  1
  O  O66  1  0.78995900  0.79714200  0.91801000  1
  O  O67  1  0.75357300  0.76136200  0.56537300  1
  O  O68  1  0.79615600  0.78807200  0.74068400  1
  O  O69  1  0.74723300  0.66288100  0.33903400  1
  O  O70  1  0.51240400  0.18434600  0.16713500  1
  O  O71  1  0.47474300  0.09076600  0.82552500  1
  O  O72  1  0.66271600  0.47855700  0.17833400  1
  O  O73  1  0.65699400  0.34101200  0.02404600  1
  O  O74  1  0.66698000  0.31022000  0.52943200  1
  O  O75  1  0.81671800  0.48290100  0.67010300  1
  O  O76  1  0.61945000  0.09617000  0.31852100  1
  O  O77  1  0.66896200  0.18146200  0.68065700  1
  O  O78  1  0.90850200  0.65276500  0.83591700  1
  O  O79  1  0.00938400  0.79639100  0.25659300  1
  O  O80  1  0.00222800  0.80128800  0.07695900  1
  O  O81  1  0.90424800  0.52297000  0.32438800  1
  O  O82  1  0.81308200  0.33632200  0.17147200  1
  O  O83  1  0.91799100  0.37682900  0.83639900  1
  O  O84  1  0.74322600  0.07937400  0.83960900  1
  O  O85  1  0.76382900  0.97408400  0.06855700  1
  O  O86  1  0.78937100  0.99849900  0.24854900  1
  O  O87  1  0.91712100  0.25237400  0.33826900  1
  O  O88  1  0.00217500  0.25041800  0.56766200  1
  O  O89  1  0.98559300  0.20004000  0.74160000  1
