# generated using pymatgen
data_Li2Mg
_symmetry_space_group_name_H-M   'P 1'
_cell_length_a   5.27473284
_cell_length_b   5.27473284
_cell_length_c   4.99747400
_cell_angle_alpha   90.00000000
_cell_angle_beta   90.00000000
_cell_angle_gamma   120.12309166
_symmetry_Int_Tables_number   1
_chemical_formula_structural   Li2Mg
_chemical_formula_sum   'Li4 Mg2'
_cell_volume   120.26578622
_cell_formula_units_Z   2
loop_
 _symmetry_equiv_pos_site_id
 _symmetry_equiv_pos_as_xyz
  1  'x, y, z'
loop_
 _atom_site_type_symbol
 _atom_site_label
 _atom_site_symmetry_multiplicity
 _atom_site_fract_x
 _atom_site_fract_y
 _atom_site_fract_z
 _atom_site_occupancy
  Li  Li0  1  0.99919600  0.33332300  0.75000000  1
  Li  Li1  1  0.33332300  0.99919600  0.75000000  1
  Li  Li2  1  0.66667700  0.00080400  0.25000000  1
  Li  Li3  1  0.00080400  0.66667700  0.25000000  1
  Mg  Mg4  1  0.66925000  0.66925000  0.75000000  1
  Mg  Mg5  1  0.33075000  0.33075000  0.25000000  1
