# generated using pymatgen
data_Li6MnV3(PO4)6
_symmetry_space_group_name_H-M   'P 1'
_cell_length_a   8.86595500
_cell_length_b   8.57405400
_cell_length_c   12.34469046
_cell_angle_alpha   87.59489926
_cell_angle_beta   90.00000000
_cell_angle_gamma   90.00000000
_symmetry_Int_Tables_number   1
_chemical_formula_structural   Li6MnV3(PO4)6
_chemical_formula_sum   'Li12 Mn2 V6 P12 O48'
_cell_volume   937.58187311
_cell_formula_units_Z   2
loop_
 _symmetry_equiv_pos_site_id
 _symmetry_equiv_pos_as_xyz
  1  'x, y, z'
loop_
 _atom_site_type_symbol
 _atom_site_label
 _atom_site_symmetry_multiplicity
 _atom_site_fract_x
 _atom_site_fract_y
 _atom_site_fract_z
 _atom_site_occupancy
  Li  Li0  1  0.00045300  0.99979900  0.00095200  1
  Li  Li1  1  0.10225900  0.99960300  0.24872900  1
  Li  Li2  1  0.99954700  0.99979900  0.50095200  1
  Li  Li3  1  0.89774100  0.99960300  0.74872900  1
  Li  Li4  1  0.80433300  0.29212100  0.04937100  1
  Li  Li5  1  0.19566700  0.29212100  0.54937100  1
  Li  Li6  1  0.50455300  0.50703000  0.99829500  1
  Li  Li7  1  0.40319900  0.50473400  0.25354900  1
  Li  Li8  1  0.49544700  0.50703000  0.49829500  1
  Li  Li9  1  0.59680100  0.50473400  0.75354900  1
  Li  Li10  1  0.80159500  0.71349700  0.44620000  1
  Li  Li11  1  0.19840500  0.71349700  0.94620000  1
  Mn  Mn12  1  0.49986500  0.79100900  0.35350600  1
  Mn  Mn13  1  0.50013500  0.79100900  0.85350600  1
  V  V14  1  0.50043800  0.21269500  0.14410800  1
  V  V15  1  0.49956200  0.21269500  0.64410800  1
  V  V16  1  0.99556400  0.28589200  0.35803400  1
  V  V17  1  0.00443600  0.28589200  0.85803400  1
  V  V18  1  0.99843300  0.71677400  0.14189200  1
  V  V19  1  0.00156700  0.71677400  0.64189200  1
  P  P20  1  0.80202400  0.00052900  0.24935200  1
  P  P21  1  0.19797600  0.00052900  0.74935200  1
  P  P22  1  0.35458400  0.15577800  0.39545900  1
  P  P23  1  0.64541600  0.15577800  0.89545900  1
  P  P24  1  0.14839400  0.35178200  0.10334400  1
  P  P25  1  0.85160600  0.35178200  0.60334400  1
  P  P26  1  0.70776600  0.50004600  0.24935900  1
  P  P27  1  0.29223400  0.50004600  0.74935900  1
  P  P28  1  0.14496700  0.64547900  0.39763200  1
  P  P29  1  0.85503300  0.64547900  0.89763200  1
  P  P30  1  0.35552600  0.84288000  0.10471000  1
  P  P31  1  0.64447400  0.84288000  0.60471000  1
  O  O32  1  0.41345800  0.01014400  0.10751300  1
  O  O33  1  0.58654200  0.01014400  0.60751300  1
  O  O34  1  0.91263100  0.07385500  0.33363500  1
  O  O35  1  0.08736900  0.07385500  0.83363500  1
  O  O36  1  0.70374100  0.12512600  0.18961900  1
  O  O37  1  0.29625900  0.12512600  0.68961900  1
  O  O38  1  0.17707200  0.15054600  0.40945900  1
  O  O39  1  0.82292800  0.15054600  0.90945900  1
  O  O40  1  0.40429400  0.24880400  0.29175300  1
  O  O41  1  0.06442800  0.25333900  0.01804400  1
  O  O42  1  0.40837100  0.25252500  0.49262800  1
  O  O43  1  0.59570600  0.24880400  0.79175300  1
  O  O44  1  0.93557200  0.25333900  0.51804400  1
  O  O45  1  0.09604200  0.27693000  0.21353500  1
  O  O46  1  0.59162900  0.25252500  0.99262800  1
  O  O47  1  0.90395800  0.27693000  0.71353500  1
  O  O48  1  0.32253700  0.34502000  0.08991700  1
  O  O49  1  0.67746300  0.34502000  0.58991700  1
  O  O50  1  0.80658300  0.37769900  0.31092100  1
  O  O51  1  0.19341700  0.37769900  0.81092100  1
  O  O52  1  0.60096100  0.42820800  0.16412800  1
  O  O53  1  0.39903900  0.42820800  0.66412800  1
  O  O54  1  0.09372800  0.47175100  0.40890100  1
  O  O55  1  0.90627200  0.47175100  0.90890100  1
  O  O56  1  0.10846500  0.52654800  0.09202700  1
  O  O57  1  0.89153500  0.52654800  0.59202700  1
  O  O58  1  0.60541800  0.57016900  0.33768000  1
  O  O59  1  0.39458200  0.57016900  0.83768000  1
  O  O60  1  0.80724900  0.61709800  0.18647900  1
  O  O61  1  0.19275100  0.61709800  0.68647900  1
  O  O62  1  0.31676400  0.63807900  0.41175800  1
  O  O63  1  0.68323600  0.63807900  0.91175800  1
  O  O64  1  0.09553700  0.72334100  0.28750900  1
  O  O65  1  0.40925900  0.74662000  0.00792900  1
  O  O66  1  0.90446300  0.72334100  0.78750900  1
  O  O67  1  0.06002400  0.74468700  0.48197000  1
  O  O68  1  0.40166800  0.74643500  0.20781000  1
  O  O69  1  0.59074100  0.74662000  0.50792900  1
  O  O70  1  0.93997600  0.74468700  0.98197000  1
  O  O71  1  0.59833200  0.74643500  0.70781000  1
  O  O72  1  0.17911100  0.85647100  0.09061100  1
  O  O73  1  0.82088900  0.85647100  0.59061100  1
  O  O74  1  0.71750000  0.87269500  0.31291600  1
  O  O75  1  0.28250000  0.87269500  0.81291600  1
  O  O76  1  0.91226100  0.93670900  0.16182100  1
  O  O77  1  0.08773900  0.93670900  0.66182100  1
  O  O78  1  0.40669800  0.98755600  0.39694500  1
  O  O79  1  0.59330200  0.98755600  0.89694500  1
