# generated using pymatgen
data_Li2Mn3FeO8
_symmetry_space_group_name_H-M   'P 1'
_cell_length_a   5.81433671
_cell_length_b   5.87125701
_cell_length_c   9.52459334
_cell_angle_alpha   89.94213866
_cell_angle_beta   90.54403732
_cell_angle_gamma   61.47183237
_symmetry_Int_Tables_number   1
_chemical_formula_structural   Li2Mn3FeO8
_chemical_formula_sum   'Li4 Mn6 Fe2 O16'
_cell_volume   285.64853187
_cell_formula_units_Z   2
loop_
 _symmetry_equiv_pos_site_id
 _symmetry_equiv_pos_as_xyz
  1  'x, y, z'
loop_
 _atom_site_type_symbol
 _atom_site_label
 _atom_site_symmetry_multiplicity
 _atom_site_fract_x
 _atom_site_fract_y
 _atom_site_fract_z
 _atom_site_occupancy
  Li  Li0  1  0.67197800  0.66351100  0.88840900  1
  Li  Li1  1  0.32868500  0.33552800  0.39185700  1
  Li  Li2  1  0.00539200  0.00610200  0.99791100  1
  Li  Li3  1  0.99608200  0.99226800  0.49715400  1
  Mn  Mn4  1  0.83511600  0.82863000  0.21469200  1
  Mn  Mn5  1  0.34153600  0.83317700  0.21427300  1
  Mn  Mn6  1  0.82827400  0.33930900  0.21588300  1
  Mn  Mn7  1  0.16685100  0.16954300  0.71328200  1
  Mn  Mn8  1  0.16911600  0.65922400  0.71805800  1
  Mn  Mn9  1  0.65840200  0.16900700  0.71290000  1
  Fe  Fe10  1  0.34088500  0.32495000  0.99144300  1
  Fe  Fe11  1  0.65417600  0.67334700  0.49336900  1
  O  O12  1  0.66213100  0.67481700  0.10734600  1
  O  O13  1  0.34494100  0.30433300  0.60116400  1
  O  O14  1  0.00976200  0.99312500  0.30943900  1
  O  O15  1  0.98273700  0.02770000  0.81270700  1
  O  O16  1  0.31550200  0.84496500  0.60542200  1
  O  O17  1  0.83694200  0.32065100  0.59838900  1
  O  O18  1  0.19043900  0.14586300  0.09966200  1
  O  O19  1  0.82765900  0.84201300  0.60532200  1
  O  O20  1  0.16022500  0.68022000  0.10245800  1
  O  O21  1  0.68602600  0.15554200  0.10347700  1
  O  O22  1  0.48889400  0.54720900  0.34407000  1
  O  O23  1  0.52725600  0.96503500  0.33226300  1
  O  O24  1  0.95719700  0.52727700  0.33533300  1
  O  O25  1  0.04258100  0.47060800  0.83496200  1
  O  O26  1  0.47991700  0.03610400  0.83237100  1
  O  O27  1  0.49099400  0.47024500  0.83422600  1
