# generated using pymatgen
data_Li9Mn2Co5O16
_symmetry_space_group_name_H-M   'P 1'
_cell_length_a   7.71488816
_cell_length_b   7.71488816
_cell_length_c   5.16906936
_cell_angle_alpha   76.28762175
_cell_angle_beta   76.28762175
_cell_angle_gamma   96.92931059
_symmetry_Int_Tables_number   1
_chemical_formula_structural   Li9Mn2Co5O16
_chemical_formula_sum   'Li9 Mn2 Co5 O16'
_cell_volume   285.23005583
_cell_formula_units_Z   1
loop_
 _symmetry_equiv_pos_site_id
 _symmetry_equiv_pos_as_xyz
  1  'x, y, z'
loop_
 _atom_site_type_symbol
 _atom_site_label
 _atom_site_symmetry_multiplicity
 _atom_site_fract_x
 _atom_site_fract_y
 _atom_site_fract_z
 _atom_site_occupancy
  Li  Li0  1  0.87624200  0.37548600  0.50151700  1
  Li  Li1  1  0.99255500  0.74722300  0.49658900  1
  Li  Li2  1  0.11485300  0.11485300  0.50702300  1
  Li  Li3  1  0.25228200  0.50597000  0.50266100  1
  Li  Li4  1  0.37548600  0.87624200  0.50151700  1
  Li  Li5  1  0.50597000  0.25228200  0.50266100  1
  Li  Li6  1  0.63143800  0.63143800  0.49223700  1
  Li  Li7  1  0.74722300  0.99255500  0.49658900  1
  Li  Li8  1  0.87415500  0.87415500  0.99744100  1
  Mn  Mn9  1  0.99528500  0.24711200  0.99680700  1
  Mn  Mn10  1  0.24711200  0.99528500  0.99680700  1
  Co  Co11  1  0.12353500  0.62666300  0.00032600  1
  Co  Co12  1  0.37980000  0.37980000  0.00540500  1
  Co  Co13  1  0.51035900  0.75788300  0.00261600  1
  Co  Co14  1  0.62666300  0.12353500  0.00032600  1
  Co  Co15  1  0.75788300  0.51035900  0.00261600  1
  O  O16  1  0.76655800  0.25110600  0.23709400  1
  O  O17  1  0.88515100  0.61794400  0.22262600  1
  O  O18  1  0.01538100  0.01538100  0.22663400  1
  O  O19  1  0.12408500  0.37753500  0.20765000  1
  O  O20  1  0.25110600  0.76655800  0.23709400  1
  O  O21  1  0.37753500  0.12408500  0.20765000  1
  O  O22  1  0.50262500  0.50262500  0.24218200  1
  O  O23  1  0.61794400  0.88515100  0.22262600  1
  O  O24  1  0.99863100  0.48599400  0.76256000  1
  O  O25  1  0.13373300  0.87136700  0.78413600  1
  O  O26  1  0.23663100  0.23663100  0.77005600  1
  O  O27  1  0.36433400  0.62050500  0.78869900  1
  O  O28  1  0.48599400  0.99863100  0.76256000  1
  O  O29  1  0.62050500  0.36433400  0.78869900  1
  O  O30  1  0.73758000  0.73758000  0.75245900  1
  O  O31  1  0.87136700  0.13373300  0.78413600  1
