# generated using pymatgen
data_Li2MoO3
_symmetry_space_group_name_H-M   'P 1'
_cell_length_a   6.16312300
_cell_length_b   8.66792230
_cell_length_c   10.41155312
_cell_angle_alpha   113.26641219
_cell_angle_beta   106.59770527
_cell_angle_gamma   89.75184308
_symmetry_Int_Tables_number   1
_chemical_formula_structural   Li2MoO3
_chemical_formula_sum   'Li16 Mo8 O24'
_cell_volume   485.94615278
_cell_formula_units_Z   8
loop_
 _symmetry_equiv_pos_site_id
 _symmetry_equiv_pos_as_xyz
  1  'x, y, z'
loop_
 _atom_site_type_symbol
 _atom_site_label
 _atom_site_symmetry_multiplicity
 _atom_site_fract_x
 _atom_site_fract_y
 _atom_site_fract_z
 _atom_site_occupancy
  Li  Li0  1  0.17190200  0.17514400  0.83888000  1
  Li  Li1  1  0.82809800  0.82485600  0.16112000  1
  Li  Li2  1  0.50000000  0.50000000  0.50000000  1
  Li  Li3  1  0.65520900  0.66169300  0.84046300  1
  Li  Li4  1  0.34479100  0.33830700  0.15953700  1
  Li  Li5  1  0.00000000  0.00000000  0.50000000  1
  Li  Li6  1  0.83209600  0.33683200  0.67326700  1
  Li  Li7  1  0.50000000  0.00000000  0.00000000  1
  Li  Li8  1  0.16790400  0.66316800  0.32673300  1
  Li  Li9  1  0.00000000  0.00000000  0.00000000  1
  Li  Li10  1  0.66168700  0.65597000  0.31933200  1
  Li  Li11  1  0.33831300  0.34403000  0.68066800  1
  Li  Li12  1  0.82576100  0.33725900  0.16260400  1
  Li  Li13  1  0.50000000  0.00000000  0.50000000  1
  Li  Li14  1  0.17423900  0.66274100  0.83739600  1
  Li  Li15  1  0.50000000  0.50000000  0.00000000  1
  Mo  Mo16  1  0.65841900  0.17284300  0.84082000  1
  Mo  Mo17  1  0.34158100  0.82715700  0.15918000  1
  Mo  Mo18  1  0.00000000  0.50000000  0.50000000  1
  Mo  Mo19  1  0.16916400  0.16601300  0.33199600  1
  Mo  Mo20  1  0.83083600  0.83398700  0.66800400  1
  Mo  Mo21  1  0.00000000  0.50000000  0.00000000  1
  Mo  Mo22  1  0.66641400  0.16789600  0.33193600  1
  Mo  Mo23  1  0.33358600  0.83210400  0.66806400  1
  O  O24  1  0.31972300  0.58244400  0.15976400  1
  O  O25  1  0.99675700  0.24762600  0.49731200  1
  O  O26  1  0.66293900  0.91824200  0.83282800  1
  O  O27  1  0.14483000  0.42561600  0.84776400  1
  O  O28  1  0.84556200  0.09026900  0.18277000  1
  O  O29  1  0.50717500  0.76038800  0.51639500  1
  O  O30  1  0.01841200  0.74424600  0.00998500  1
  O  O31  1  0.67236900  0.40303100  0.33367000  1
  O  O32  1  0.34964200  0.07405500  0.67351200  1
  O  O33  1  0.49358700  0.75581700  0.00818800  1
  O  O34  1  0.16574400  0.40062500  0.33472600  1
  O  O35  1  0.81961100  0.07300500  0.67279400  1
  O  O36  1  0.68027700  0.41755600  0.84023600  1
  O  O37  1  0.33706100  0.08175800  0.16717200  1
  O  O38  1  0.00324300  0.75237400  0.50268800  1
  O  O39  1  0.85517000  0.57438400  0.15223600  1
  O  O40  1  0.49282500  0.23961200  0.48360500  1
  O  O41  1  0.15443800  0.90973100  0.81723000  1
  O  O42  1  0.98158800  0.25575400  0.99001500  1
  O  O43  1  0.65035800  0.92594500  0.32648800  1
  O  O44  1  0.32763100  0.59696900  0.66633000  1
  O  O45  1  0.50641300  0.24418300  0.99181200  1
  O  O46  1  0.18038900  0.92699500  0.32720600  1
  O  O47  1  0.83425600  0.59937500  0.66527400  1
