# generated using pymatgen
data_Li4Mn3Fe(BO3)4
_symmetry_space_group_name_H-M   'P 1'
_cell_length_a   5.24060200
_cell_length_b   5.24155696
_cell_length_c   20.93189844
_cell_angle_alpha   91.06415184
_cell_angle_beta   91.04500751
_cell_angle_gamma   119.73095149
_symmetry_Int_Tables_number   1
_chemical_formula_structural   Li4Mn3Fe(BO3)4
_chemical_formula_sum   'Li8 Mn6 Fe2 B8 O24'
_cell_volume   498.95311088
_cell_formula_units_Z   2
loop_
 _symmetry_equiv_pos_site_id
 _symmetry_equiv_pos_as_xyz
  1  'x, y, z'
loop_
 _atom_site_type_symbol
 _atom_site_label
 _atom_site_symmetry_multiplicity
 _atom_site_fract_x
 _atom_site_fract_y
 _atom_site_fract_z
 _atom_site_occupancy
  Li  Li0  1  0.34772600  0.32109000  0.66610200  1
  Li  Li1  1  0.32081500  0.34737800  0.91596100  1
  Li  Li2  1  0.34916600  0.32099000  0.16603700  1
  Li  Li3  1  0.32091500  0.34920600  0.41649400  1
  Li  Li4  1  0.66229100  0.65072900  0.79104700  1
  Li  Li5  1  0.64925400  0.66123900  0.54110400  1
  Li  Li6  1  0.66124300  0.65101700  0.29116300  1
  Li  Li7  1  0.65119300  0.66124100  0.04100500  1
  Mn  Mn8  1  0.99696000  0.32893700  0.05832100  1
  Mn  Mn9  1  0.99824000  0.67872700  0.93291300  1
  Mn  Mn10  1  0.99664900  0.67498500  0.43350800  1
  Mn  Mn11  1  0.67654300  0.99844200  0.68330300  1
  Mn  Mn12  1  0.67670700  0.99627900  0.18340400  1
  Mn  Mn13  1  0.32906800  0.99714800  0.30858900  1
  Fe  Fe14  1  0.00265600  0.33414500  0.55865300  1
  Fe  Fe15  1  0.32660200  0.00099000  0.80853700  1
  B  B16  1  0.65866500  0.00306900  0.93657100  1
  B  B17  1  0.65966600  0.00326500  0.43776700  1
  B  B18  1  0.99420100  0.33258700  0.81191500  1
  B  B19  1  0.99552700  0.33442800  0.31212400  1
  B  B20  1  0.00341900  0.65969100  0.68729400  1
  B  B21  1  0.00259600  0.65823000  0.18703600  1
  B  B22  1  0.33387000  0.99407700  0.56207600  1
  B  B23  1  0.33456500  0.99552500  0.06202900  1
  O  O24  1  0.74727000  0.06880300  0.79193400  1
  O  O25  1  0.75386900  0.06826200  0.29103800  1
  O  O26  1  0.93176500  0.25248900  0.95190700  1
  O  O27  1  0.42220900  0.03589200  0.91596500  1
  O  O28  1  0.93256700  0.25263100  0.45293700  1
  O  O29  1  0.42261700  0.03565000  0.41691100  1
  O  O30  1  0.97092500  0.58196200  0.82662500  1
  O  O31  1  0.34931400  0.26488800  0.56878800  1
  O  O32  1  0.95938300  0.57634200  0.32756300  1
  O  O33  1  0.36240300  0.27047200  0.06927400  1
  O  O34  1  0.26712500  0.35084500  0.81855000  1
  O  O35  1  0.27046300  0.36224800  0.31947000  1
  O  O36  1  0.72717400  0.62788200  0.69427000  1
  O  O37  1  0.72686600  0.62601700  0.19438700  1
  O  O38  1  0.62644600  0.72692700  0.94381800  1
  O  O39  1  0.03591600  0.42298100  0.66645700  1
  O  O40  1  0.62805900  0.72731300  0.44475900  1
  O  O41  1  0.03613700  0.42189000  0.16640100  1
  O  O42  1  0.58169600  0.96872500  0.57674000  1
  O  O43  1  0.57647200  0.95932900  0.07744200  1
  O  O44  1  0.06838400  0.74612200  0.54219200  1
  O  O45  1  0.06833200  0.75393600  0.04091200  1
  O  O46  1  0.25298800  0.93219600  0.70274600  1
  O  O47  1  0.25188500  0.93158200  0.20216800  1
