# generated using pymatgen
data_Li5Cr2Co3O10
_symmetry_space_group_name_H-M   'P 1'
_cell_length_a   5.07623980
_cell_length_b   7.80439641
_cell_length_c   10.15990189
_cell_angle_alpha   109.30855763
_cell_angle_beta   99.45585543
_cell_angle_gamma   70.65727478
_symmetry_Int_Tables_number   1
_chemical_formula_structural   Li5Cr2Co3O10
_chemical_formula_sum   'Li10 Cr4 Co6 O20'
_cell_volume   357.74414500
_cell_formula_units_Z   2
loop_
 _symmetry_equiv_pos_site_id
 _symmetry_equiv_pos_as_xyz
  1  'x, y, z'
loop_
 _atom_site_type_symbol
 _atom_site_label
 _atom_site_symmetry_multiplicity
 _atom_site_fract_x
 _atom_site_fract_y
 _atom_site_fract_z
 _atom_site_occupancy
  Li  Li0  1  0.00618000  0.50424500  0.25013600  1
  Li  Li1  1  0.99899300  0.50232500  0.75109900  1
  Li  Li2  1  0.50147200  0.41709500  0.10497200  1
  Li  Li3  1  0.49572300  0.41398200  0.60250800  1
  Li  Li4  1  0.49072900  0.58852600  0.39226600  1
  Li  Li5  1  0.50019000  0.58588900  0.89937700  1
  Li  Li6  1  0.51172700  0.78229700  0.20337900  1
  Li  Li7  1  0.51399000  0.78764100  0.69830400  1
  Li  Li8  1  0.49235400  0.21247700  0.30225500  1
  Li  Li9  1  0.48484100  0.21310400  0.79812800  1
  Cr  Cr10  1  0.00532600  0.69459800  0.05533400  1
  Cr  Cr11  1  0.99985300  0.69634500  0.54706800  1
  Cr  Cr12  1  0.99928200  0.30313300  0.44984400  1
  Cr  Cr13  1  0.00072400  0.30392500  0.94927500  1
  Co  Co14  1  0.49971100  0.99867200  0.49743700  1
  Co  Co15  1  0.50210400  0.99829500  0.00094500  1
  Co  Co16  1  0.99925200  0.89875600  0.35043800  1
  Co  Co17  1  0.00955000  0.88859200  0.84544400  1
  Co  Co18  1  0.99351300  0.10972500  0.15659500  1
  Co  Co19  1  0.98733400  0.11439600  0.65540100  1
  O  O20  1  0.23332100  0.85939200  0.02683000  1
  O  O21  1  0.23221900  0.86649400  0.51763700  1
  O  O22  1  0.75703700  0.13264300  0.47275600  1
  O  O23  1  0.77107300  0.13784500  0.97284600  1
  O  O24  1  0.77090800  0.94586400  0.17895600  1
  O  O25  1  0.75045000  0.94787600  0.66143700  1
  O  O26  1  0.23783100  0.04395500  0.33519400  1
  O  O27  1  0.24039400  0.05067200  0.82802000  1
  O  O28  1  0.77077200  0.54450700  0.07006000  1
  O  O29  1  0.76735200  0.54836800  0.56726900  1
  O  O30  1  0.23196900  0.45007300  0.43013700  1
  O  O31  1  0.23227900  0.45277300  0.93067400  1
  O  O32  1  0.26002100  0.22977500  0.11215500  1
  O  O33  1  0.25211000  0.22952700  0.61007000  1
  O  O34  1  0.75731000  0.77313900  0.38494100  1
  O  O35  1  0.74427400  0.76884600  0.89029900  1
  O  O36  1  0.22925600  0.66751200  0.22978400  1
  O  O37  1  0.22543700  0.66910000  0.72541000  1
  O  O38  1  0.77409600  0.33180000  0.27235700  1
  O  O39  1  0.76904600  0.33582400  0.77296300  1
