# generated using pymatgen
data_LiBi(PO4)2
_symmetry_space_group_name_H-M   'P 1'
_cell_length_a   8.67231209
_cell_length_b   8.67797656
_cell_length_c   7.52783860
_cell_angle_alpha   89.94465768
_cell_angle_beta   89.96289157
_cell_angle_gamma   59.94880025
_symmetry_Int_Tables_number   1
_chemical_formula_structural   LiBi(PO4)2
_chemical_formula_sum   'Li3 Bi3 P6 O24'
_cell_volume   490.37666766
_cell_formula_units_Z   3
loop_
 _symmetry_equiv_pos_site_id
 _symmetry_equiv_pos_as_xyz
  1  'x, y, z'
loop_
 _atom_site_type_symbol
 _atom_site_label
 _atom_site_symmetry_multiplicity
 _atom_site_fract_x
 _atom_site_fract_y
 _atom_site_fract_z
 _atom_site_occupancy
  Li  Li0  1  0.99730646  0.00205775  0.49477595  1
  Li  Li1  1  0.66657218  0.66567472  0.48425527  1
  Li  Li2  1  0.33259326  0.33298278  0.51460581  1
  Bi  Bi3  1  0.66710903  0.66685749  0.06322531  1
  Bi  Bi4  1  0.99963490  0.00002763  -0.00019479  1
  Bi  Bi5  1  0.33377864  0.33353084  0.93694491  1
  P  P6  1  0.32004590  0.03807168  0.24784372  1
  P  P7  1  0.03835016  0.64171936  0.24851394  1
  P  P8  1  0.64174392  0.32036106  0.24825550  1
  P  P9  1  0.96231940  0.35808080  0.75277320  1
  P  P10  1  0.35838655  0.67988917  0.75239556  1
  P  P11  1  0.67987128  0.96188779  0.75169468  1
  O  O12  1  0.88621026  0.59215333  0.24845236  1
  O  O13  1  0.59254291  0.52193805  0.24826926  1
  O  O14  1  0.95490507  0.84746251  0.23683568  1
  O  O15  1  0.84916100  0.43960567  0.59079441  1
  O  O16  1  0.42144242  0.72781767  0.93017391  1
  O  O17  1  0.27246603  0.14913026  0.07001040  1
  O  O18  1  0.84756812  0.19724954  0.23795187  1
  O  O19  1  0.11415799  0.40798049  0.75220334  1
  O  O20  1  0.19777938  0.95475379  0.23479885  1
  O  O21  1  0.71078650  0.84816317  0.58986648  1
  O  O22  1  0.80257714  0.04487059  0.76204761  1
  O  O23  1  0.43945685  0.71151458  0.59019102  1
  O  O24  1  0.15257932  0.80160057  0.76561518  1
  O  O25  1  0.72825907  0.85179099  0.93032139  1
  O  O26  1  0.04567309  0.15243789  0.76507982  1
  O  O27  1  0.47803263  0.11401389  0.75162365  1
  O  O28  1  0.55864127  0.28967931  0.40948275  1
  O  O29  1  0.28829285  0.15046314  0.41009275  1
  O  O30  1  0.52194494  0.88593188  0.24826940  1
  O  O31  1  0.85164702  0.42066668  0.93095895  1
  O  O32  1  0.40852999  0.47807769  0.75186203  1
  O  O33  1  0.15110890  0.55992176  0.41020660  1
  O  O34  1  0.14918369  0.57920004  0.07042840  1
  O  O35  1  0.58023390  0.27218243  0.06951984  1
