# generated using pymatgen
data_Li8(FeO2)5
_symmetry_space_group_name_H-M   'P 1'
_cell_length_a   5.50561887
_cell_length_b   6.80254771
_cell_length_c   15.60787904
_cell_angle_alpha   97.51396096
_cell_angle_beta   81.58491872
_cell_angle_gamma   115.04984074
_symmetry_Int_Tables_number   1
_chemical_formula_structural   Li8(FeO2)5
_chemical_formula_sum   'Li16 Fe10 O20'
_cell_volume   522.31944474
_cell_formula_units_Z   2
loop_
 _symmetry_equiv_pos_site_id
 _symmetry_equiv_pos_as_xyz
  1  'x, y, z'
loop_
 _atom_site_type_symbol
 _atom_site_label
 _atom_site_symmetry_multiplicity
 _atom_site_fract_x
 _atom_site_fract_y
 _atom_site_fract_z
 _atom_site_occupancy
  Li  Li0  1  0.85504200  0.34363000  0.03385900  1
  Li  Li1  1  0.37192400  0.35733600  0.52929900  1
  Li  Li2  1  0.42804300  0.04264800  0.07068400  1
  Li  Li3  1  0.94488600  0.05623100  0.56613400  1
  Li  Li4  1  0.48604100  0.16351700  0.22185100  1
  Li  Li5  1  0.99135400  0.16372300  0.71897500  1
  Li  Li6  1  0.31389800  0.23647200  0.37819100  1
  Li  Li7  1  0.80885800  0.23645400  0.88098800  1
  Li  Li8  1  0.10210500  0.70265200  0.13495800  1
  Li  Li9  1  0.63512400  0.71412200  0.63282200  1
  Li  Li10  1  0.69789700  0.69727600  0.46508400  1
  Li  Li11  1  0.16474500  0.68591300  0.96713700  1
  Li  Li12  1  0.05218800  0.87956700  0.27856400  1
  Li  Li13  1  0.54811700  0.87700100  0.77625100  1
  Li  Li14  1  0.74779200  0.52045700  0.32152500  1
  Li  Li15  1  0.25228300  0.52315000  0.82373100  1
  Fe  Fe16  1  0.90029200  0.70035900  0.79981700  1
  Fe  Fe17  1  0.39955500  0.69964400  0.30013700  1
  Fe  Fe18  1  0.79248700  0.89474500  0.10171200  1
  Fe  Fe19  1  0.32558500  0.91119800  0.58970700  1
  Fe  Fe20  1  0.47435900  0.48881900  0.01017200  1
  Fe  Fe21  1  0.00750900  0.50520600  0.49839100  1
  Fe  Fe22  1  0.09318800  0.29932300  0.19854500  1
  Fe  Fe23  1  0.59307100  0.30226700  0.70164400  1
  Fe  Fe24  1  0.70640000  0.10041400  0.40177300  1
  Fe  Fe25  1  0.20707700  0.09799200  0.89812200  1
  O  O26  1  0.77188600  0.17934200  0.13125400  1
  O  O27  1  0.28584700  0.18369800  0.62728500  1
  O  O28  1  0.02802100  0.22051100  0.46878100  1
  O  O29  1  0.51404400  0.21636200  0.97264000  1
  O  O30  1  0.83820100  0.62727600  0.04559500  1
  O  O31  1  0.37943500  0.65432800  0.54560600  1
  O  O32  1  0.42052000  0.74562400  0.05439700  1
  O  O33  1  0.96180800  0.77256900  0.55440800  1
  O  O34  1  0.39805100  0.40836400  0.27515600  1
  O  O35  1  0.89780700  0.41608700  0.77984300  1
  O  O36  1  0.40186200  0.99150700  0.32503800  1
  O  O37  1  0.90255100  0.98413400  0.81993900  1
  O  O38  1  0.13094500  0.01200800  0.16497600  1
  O  O39  1  0.63268200  0.01519300  0.66377100  1
  O  O40  1  0.66903500  0.38789000  0.43510300  1
  O  O41  1  0.16717500  0.38490000  0.93610500  1
  O  O42  1  0.07100600  0.58695200  0.24317400  1
  O  O43  1  0.58148000  0.59441700  0.74535300  1
  O  O44  1  0.72902400  0.81287400  0.35699600  1
  O  O45  1  0.21880200  0.80584700  0.85450700  1
