# generated using pymatgen
data_Li3BiN2
_symmetry_space_group_name_H-M   'P 1'
_cell_length_a   9.33182278
_cell_length_b   10.77546080
_cell_length_c   10.77546033
_cell_angle_alpha   89.99999902
_cell_angle_beta   125.26438921
_cell_angle_gamma   54.73561254
_symmetry_Int_Tables_number   1
_chemical_formula_structural   Li3BiN2
_chemical_formula_sum   'Li24 Bi8 N16'
_cell_volume   625.57237236
_cell_formula_units_Z   8
loop_
 _symmetry_equiv_pos_site_id
 _symmetry_equiv_pos_as_xyz
  1  'x, y, z'
loop_
 _atom_site_type_symbol
 _atom_site_label
 _atom_site_symmetry_multiplicity
 _atom_site_fract_x
 _atom_site_fract_y
 _atom_site_fract_z
 _atom_site_occupancy
  Li  Li0  1  0.21872988  0.04557401  0.01029494  1
  Li  Li1  1  0.78127012  0.76430389  0.48970506  1
  Li  Li2  1  0.78127012  0.45442599  0.79156506  1
  Li  Li3  1  0.21872988  0.73569611  0.70843494  1
  Li  Li4  1  0.19814000  0.79156506  0.25400895  1
  Li  Li5  1  0.80186000  0.70843494  0.05586895  1
  Li  Li6  1  0.19814000  0.01029494  0.44413105  1
  Li  Li7  1  0.80186000  0.48970506  0.24599105  1
  Li  Li8  1  0.69012211  0.05586895  0.73569611  1
  Li  Li9  1  0.69012211  0.25400895  0.45442599  1
  Li  Li10  1  0.30987789  0.24599105  0.76430389  1
  Li  Li11  1  0.30987789  0.44413105  0.04557401  1
  Li  Li12  1  0.78127012  0.95442599  0.98970506  1
  Li  Li13  1  0.21872988  0.23569611  0.51029494  1
  Li  Li14  1  0.21872988  0.54557401  0.20843494  1
  Li  Li15  1  0.78127012  0.26430389  0.29156506  1
  Li  Li16  1  0.80186000  0.20843494  0.74599105  1
  Li  Li17  1  0.19814000  0.29156506  0.94413105  1
  Li  Li18  1  0.80186000  0.98970506  0.55586895  1
  Li  Li19  1  0.19814000  0.51029494  0.75400895  1
  Li  Li20  1  0.30987789  0.94413105  0.26430389  1
  Li  Li21  1  0.30987789  0.74599105  0.54557401  1
  Li  Li22  1  0.69012211  0.75400895  0.23569611  1
  Li  Li23  1  0.69012211  0.55586895  0.95442599  1
  Bi  Bi24  1  0.26162152  1.00000000  0.76162152  1
  Bi  Bi25  1  0.73837848  0.76162152  0.73837848  1
  Bi  Bi26  1  0.73837848  0.50000000  0.50000000  1
  Bi  Bi27  1  0.26162152  0.73837848  0.00000000  1
  Bi  Bi28  1  0.73837848  0.00000000  0.23837848  1
  Bi  Bi29  1  0.26162152  0.23837848  0.26162152  1
  Bi  Bi30  1  0.26162152  0.50000000  0.50000000  1
  Bi  Bi31  1  0.73837848  0.26162152  1.00000000  1
  N  N32  1  0.00000000  -0.00000000  0.50000000  1
  N  N33  1  0.00000000  0.50000000  -0.00000000  1
  N  N34  1  0.00000000  0.50000000  0.50000000  1
  N  N35  1  0.00000000  -0.00000000  -0.00000000  1
  N  N36  1  0.50000000  0.01881367  0.75000000  1
  N  N37  1  0.50000000  0.48118633  0.25000000  1
  N  N38  1  0.00000000  0.25000000  0.76881367  1
  N  N39  1  -0.00000000  0.75000000  0.73118633  1
  N  N40  1  0.46237167  0.76881367  0.48118633  1
  N  N41  1  0.53762833  0.73118633  0.01881367  1
  N  N42  1  0.50000000  0.98118633  0.25000000  1
  N  N43  1  0.50000000  0.51881367  0.75000000  1
  N  N44  1  -0.00000000  0.75000000  0.23118633  1
  N  N45  1  0.00000000  0.25000000  0.26881367  1
  N  N46  1  0.53762833  0.23118633  0.51881367  1
  N  N47  1  0.46237167  0.26881367  0.98118633  1
