# generated using pymatgen
data_Li3U7(AsO7)5
_symmetry_space_group_name_H-M   'P 1'
_cell_length_a   7.32622700
_cell_length_b   7.39078800
_cell_length_c   14.88914200
_cell_angle_alpha   90.00000000
_cell_angle_beta   90.00000000
_cell_angle_gamma   90.00000000
_symmetry_Int_Tables_number   1
_chemical_formula_structural   Li3U7(AsO7)5
_chemical_formula_sum   'Li3 U7 As5 O35'
_cell_volume   806.19627621
_cell_formula_units_Z   1
loop_
 _symmetry_equiv_pos_site_id
 _symmetry_equiv_pos_as_xyz
  1  'x, y, z'
loop_
 _atom_site_type_symbol
 _atom_site_label
 _atom_site_symmetry_multiplicity
 _atom_site_fract_x
 _atom_site_fract_y
 _atom_site_fract_z
 _atom_site_occupancy
  Li  Li0  1  0.00000000  0.50000000  0.85915700  1
  Li  Li1  1  0.50000000  0.00000000  0.13423100  1
  Li  Li2  1  0.00000000  0.00000000  0.30239100  1
  U  U3  1  0.00000000  0.50000000  0.56710000  1
  U  U4  1  0.50000000  0.00000000  0.43048200  1
  U  U5  1  0.50000000  0.00000000  0.71925700  1
  U  U6  1  0.00000000  0.50000000  0.28174800  1
  U  U7  1  0.50000000  0.50000000  0.85653000  1
  U  U8  1  0.50000000  0.50000000  0.14271200  1
  U  U9  1  0.00000000  0.00000000  0.00250400  1
  As  As10  1  0.50000000  0.00000000  0.94228800  1
  As  As11  1  0.00000000  0.50000000  0.05802600  1
  As  As12  1  0.50000000  0.50000000  0.63183300  1
  As  As13  1  0.50000000  0.50000000  0.36970900  1
  As  As14  1  0.00000000  0.00000000  0.50085200  1
  O  O15  1  0.00000000  0.00000000  0.88209600  1
  O  O16  1  0.00000000  0.00000000  0.12479400  1
  O  O17  1  0.50000000  0.82419700  0.86630600  1
  O  O18  1  0.50000000  0.17580300  0.86630600  1
  O  O19  1  0.17433900  0.50000000  0.13659700  1
  O  O20  1  0.82566100  0.50000000  0.13659700  1
  O  O21  1  0.31630300  0.00000000  0.01348500  1
  O  O22  1  0.68369700  0.00000000  0.01348500  1
  O  O23  1  0.00000000  0.31552500  0.98937000  1
  O  O24  1  0.00000000  0.68447500  0.98937000  1
  O  O25  1  0.00000000  0.50000000  0.68923800  1
  O  O26  1  0.50000000  0.00000000  0.30823900  1
  O  O27  1  0.25185600  0.50000000  0.85192300  1
  O  O28  1  0.74814400  0.50000000  0.85192300  1
  O  O29  1  0.50000000  0.25302500  0.14910300  1
  O  O30  1  0.50000000  0.74697500  0.14910300  1
  O  O31  1  0.30557000  0.50000000  0.56820000  1
  O  O32  1  0.69443000  0.50000000  0.56820000  1
  O  O33  1  0.50000000  0.30470400  0.43047800  1
  O  O34  1  0.50000000  0.69529600  0.43047800  1
  O  O35  1  0.25618000  0.00000000  0.71793600  1
  O  O36  1  0.74382000  0.00000000  0.71793600  1
  O  O37  1  0.00000000  0.25419700  0.28125800  1
  O  O38  1  0.00000000  0.74580300  0.28125800  1
  O  O39  1  0.18584800  0.00000000  0.42777400  1
  O  O40  1  0.81415200  0.00000000  0.42777400  1
  O  O41  1  0.00000000  0.19434900  0.56360500  1
  O  O42  1  0.00000000  0.80565100  0.56360500  1
  O  O43  1  0.50000000  0.67676000  0.70745500  1
  O  O44  1  0.50000000  0.32324000  0.70745500  1
  O  O45  1  0.32040400  0.50000000  0.29399900  1
  O  O46  1  0.67959600  0.50000000  0.29399900  1
  O  O47  1  0.50000000  0.50000000  0.00083400  1
  O  O48  1  0.00000000  0.50000000  0.43661600  1
  O  O49  1  0.50000000  0.00000000  0.55738900  1
