# generated using pymatgen
data_Li4Fe3Co3(TeO8)2
_symmetry_space_group_name_H-M   'P 1'
_cell_length_a   5.96425700
_cell_length_b   5.98121890
_cell_length_c   9.76310757
_cell_angle_alpha   90.61768459
_cell_angle_beta   90.11530047
_cell_angle_gamma   119.71533285
_symmetry_Int_Tables_number   1
_chemical_formula_structural   Li4Fe3Co3(TeO8)2
_chemical_formula_sum   'Li4 Fe3 Co3 Te2 O16'
_cell_volume   302.45625587
_cell_formula_units_Z   1
loop_
 _symmetry_equiv_pos_site_id
 _symmetry_equiv_pos_as_xyz
  1  'x, y, z'
loop_
 _atom_site_type_symbol
 _atom_site_label
 _atom_site_symmetry_multiplicity
 _atom_site_fract_x
 _atom_site_fract_y
 _atom_site_fract_z
 _atom_site_occupancy
  Li  Li0  1  0.66925600  0.33348500  0.08847200  1
  Li  Li1  1  0.00169100  0.00286000  0.01413500  1
  Li  Li2  1  0.00320700  0.00948600  0.51609900  1
  Li  Li3  1  0.33617700  0.66948100  0.58957900  1
  Fe  Fe4  1  0.82846600  0.65965800  0.78616000  1
  Fe  Fe5  1  0.65947300  0.82834100  0.28706400  1
  Fe  Fe6  1  0.16792700  0.82559900  0.28747300  1
  Co  Co7  1  0.82703000  0.17029700  0.78849200  1
  Co  Co8  1  0.34323900  0.17110500  0.78815900  1
  Co  Co9  1  0.17076900  0.34344600  0.28860100  1
  Te  Te10  1  0.66469500  0.32979300  0.51720300  1
  Te  Te11  1  0.32785100  0.66133200  0.01489300  1
  O  O12  1  0.82536800  0.16708700  0.41058000  1
  O  O13  1  0.52391000  0.04018400  0.64913700  1
  O  O14  1  0.67812900  0.33430600  0.88632200  1
  O  O15  1  0.99134800  0.00481800  0.70578600  1
  O  O16  1  0.99587500  0.99303100  0.20291800  1
  O  O17  1  0.34169300  0.16495200  0.41232200  1
  O  O18  1  0.96426900  0.48655200  0.64677900  1
  O  O19  1  0.52709700  0.48977700  0.64538800  1
  O  O20  1  0.16476400  0.33427500  0.91169600  1
  O  O21  1  0.82592500  0.65062000  0.40573400  1
  O  O22  1  0.48501600  0.52264300  0.14513600  1
  O  O23  1  0.03809300  0.52615400  0.14635200  1
  O  O24  1  0.34086500  0.67837600  0.39107000  1
  O  O25  1  0.65222100  0.82072200  0.90912800  1
  O  O26  1  0.47965600  0.96068200  0.14823100  1
  O  O27  1  0.16629000  0.82094100  0.90925200  1
