# generated using pymatgen
data_Li9Mn7O16
_symmetry_space_group_name_H-M   'P 1'
_cell_length_a   6.06568014
_cell_length_b   6.06568014
_cell_length_c   10.55816021
_cell_angle_alpha   69.21045129
_cell_angle_beta   69.21045129
_cell_angle_gamma   56.53732601
_symmetry_Int_Tables_number   1
_chemical_formula_structural   Li9Mn7O16
_chemical_formula_sum   'Li9 Mn7 O16'
_cell_volume   296.59038769
_cell_formula_units_Z   1
loop_
 _symmetry_equiv_pos_site_id
 _symmetry_equiv_pos_as_xyz
  1  'x, y, z'
loop_
 _atom_site_type_symbol
 _atom_site_label
 _atom_site_symmetry_multiplicity
 _atom_site_fract_x
 _atom_site_fract_y
 _atom_site_fract_z
 _atom_site_occupancy
  Li  Li0  1  0.74898700  0.74898700  0.24314800  1
  Li  Li1  1  0.74310700  0.74310700  0.75996500  1
  Li  Li2  1  0.74515800  0.25772900  0.24980400  1
  Li  Li3  1  0.74227100  0.25484200  0.75019600  1
  Li  Li4  1  0.25772900  0.74515800  0.24980400  1
  Li  Li5  1  0.25484200  0.74227100  0.75019600  1
  Li  Li6  1  0.25689300  0.25689300  0.24003500  1
  Li  Li7  1  0.25101300  0.25101300  0.75685200  1
  Li  Li8  1  0.50000000  0.50000000  0.00000000  1
  Mn  Mn9  1  0.00000000  0.50000000  0.00000000  1
  Mn  Mn10  1  0.00000000  0.00000000  0.00000000  1
  Mn  Mn11  1  0.00000000  0.50000000  0.50000000  1
  Mn  Mn12  1  0.00000000  0.00000000  0.50000000  1
  Mn  Mn13  1  0.50000000  0.50000000  0.50000000  1
  Mn  Mn14  1  0.50000000  0.00000000  0.00000000  1
  Mn  Mn15  1  0.50000000  0.00000000  0.50000000  1
  O  O16  1  0.63688100  0.63688100  0.11384200  1
  O  O17  1  0.63924000  0.63924000  0.62113800  1
  O  O18  1  0.62862700  0.10615700  0.10313200  1
  O  O19  1  0.63861500  0.13940000  0.61693600  1
  O  O20  1  0.10615700  0.62862700  0.10313200  1
  O  O21  1  0.13940000  0.63861500  0.61693600  1
  O  O22  1  0.14045900  0.14045900  0.11810000  1
  O  O23  1  0.13942000  0.13942000  0.61956700  1
  O  O24  1  0.86058000  0.86058000  0.38043300  1
  O  O25  1  0.85954100  0.85954100  0.88190000  1
  O  O26  1  0.86060000  0.36138500  0.38306400  1
  O  O27  1  0.89384300  0.37137300  0.89686800  1
  O  O28  1  0.36138500  0.86060000  0.38306400  1
  O  O29  1  0.37137300  0.89384300  0.89686800  1
  O  O30  1  0.36076000  0.36076000  0.37886200  1
  O  O31  1  0.36311900  0.36311900  0.88615800  1
