# generated using pymatgen
data_Li2Mn(PO4)2
_symmetry_space_group_name_H-M   'P 1'
_cell_length_a   16.90978900
_cell_length_b   4.84930900
_cell_length_c   6.96351848
_cell_angle_alpha   84.11816236
_cell_angle_beta   90.00000000
_cell_angle_gamma   90.00000000
_symmetry_Int_Tables_number   1
_chemical_formula_structural   Li2Mn(PO4)2
_chemical_formula_sum   'Li8 Mn4 P8 O32'
_cell_volume   568.00784197
_cell_formula_units_Z   4
loop_
 _symmetry_equiv_pos_site_id
 _symmetry_equiv_pos_as_xyz
  1  'x, y, z'
loop_
 _atom_site_type_symbol
 _atom_site_label
 _atom_site_symmetry_multiplicity
 _atom_site_fract_x
 _atom_site_fract_y
 _atom_site_fract_z
 _atom_site_occupancy
  Li  Li0  1  0.61266800  0.93948500  0.70464100  1
  Li  Li1  1  0.38485700  0.51482600  0.70746900  1
  Li  Li2  1  0.11266800  0.06051500  0.29535900  1
  Li  Li3  1  0.94581000  0.03044400  0.06644000  1
  Li  Li4  1  0.19253400  0.54801200  0.11303800  1
  Li  Li5  1  0.69253400  0.45198800  0.88696200  1
  Li  Li6  1  0.88485700  0.48517400  0.29253100  1
  Li  Li7  1  0.44581000  0.96955600  0.93356000  1
  Mn  Mn8  1  0.12923000  0.05943200  0.75066400  1
  Mn  Mn9  1  0.86843000  0.44778900  0.73635400  1
  Mn  Mn10  1  0.62923000  0.94056800  0.24933600  1
  Mn  Mn11  1  0.36843000  0.55221100  0.26364600  1
  P  P12  1  0.46288300  0.01836400  0.46605700  1
  P  P13  1  0.78824200  0.90704100  0.97388400  1
  P  P14  1  0.71263000  0.40528900  0.47256200  1
  P  P15  1  0.03838000  0.51495800  0.95375900  1
  P  P16  1  0.53838000  0.48504200  0.04624100  1
  P  P17  1  0.96288300  0.98163600  0.53394300  1
  P  P18  1  0.28824200  0.09295900  0.02611600  1
  P  P19  1  0.21263000  0.59471100  0.52743800  1
  O  O20  1  0.19525000  0.73964800  0.71336800  1
  O  O21  1  0.92570000  0.11425900  0.70644800  1
  O  O22  1  0.69525000  0.26035200  0.28663200  1
  O  O23  1  0.42570000  0.88574100  0.29355200  1
  O  O24  1  0.05578600  0.98892000  0.54712900  1
  O  O25  1  0.07058400  0.38763300  0.77480200  1
  O  O26  1  0.19406000  0.27568700  0.56804300  1
  O  O27  1  0.29831300  0.77275400  0.08556400  1
  O  O28  1  0.57058400  0.61236700  0.22519800  1
  O  O29  1  0.44224900  0.87933700  0.66369400  1
  O  O30  1  0.57440200  0.61469900  0.85999100  1
  O  O31  1  0.84620700  0.80922900  0.12963600  1
  O  O32  1  0.34620700  0.19077100  0.87036400  1
  O  O33  1  0.05568500  0.83593400  0.93348600  1
  O  O34  1  0.55578600  0.01108000  0.45287100  1
  O  O35  1  0.17089900  0.72135400  0.34826000  1
  O  O36  1  0.69873200  0.86548600  0.02851800  1
  O  O37  1  0.93571600  0.67003900  0.55549600  1
  O  O38  1  0.30496200  0.60835000  0.49640100  1
  O  O39  1  0.19873200  0.13451400  0.97148200  1
  O  O40  1  0.80496200  0.39165000  0.50359900  1
  O  O41  1  0.44573400  0.52878700  0.04027800  1
  O  O42  1  0.07440200  0.38530100  0.14000900  1
  O  O43  1  0.94573400  0.47121300  0.95972200  1
  O  O44  1  0.79634600  0.74445000  0.79050300  1
  O  O45  1  0.29634600  0.25555000  0.20949700  1
  O  O46  1  0.43571600  0.32996100  0.44450400  1
  O  O47  1  0.55568500  0.16406600  0.06651400  1
  O  O48  1  0.69406000  0.72431300  0.43195700  1
  O  O49  1  0.67089900  0.27864600  0.65174000  1
  O  O50  1  0.94224900  0.12066300  0.33630600  1
  O  O51  1  0.79831300  0.22724600  0.91443600  1
