# generated using pymatgen
data_Na3LiMg4(Si2O5)6
_symmetry_space_group_name_H-M   'P 1'
_cell_length_a   10.31265530
_cell_length_b   10.31265530
_cell_length_c   14.34838400
_cell_angle_alpha   90.00000000
_cell_angle_beta   90.00000000
_cell_angle_gamma   120.11318166
_symmetry_Int_Tables_number   1
_chemical_formula_structural   Na3LiMg4(Si2O5)6
_chemical_formula_sum   'Na6 Li2 Mg8 Si24 O60'
_cell_volume   1320.01293085
_cell_formula_units_Z   2
loop_
 _symmetry_equiv_pos_site_id
 _symmetry_equiv_pos_as_xyz
  1  'x, y, z'
loop_
 _atom_site_type_symbol
 _atom_site_label
 _atom_site_symmetry_multiplicity
 _atom_site_fract_x
 _atom_site_fract_y
 _atom_site_fract_z
 _atom_site_occupancy
  Na  Na0  1  0.83329500  0.16882600  0.50000900  1
  Na  Na1  1  0.16882600  0.83329500  0.00000900  1
  Na  Na2  1  0.16670500  0.83117400  0.50000900  1
  Na  Na3  1  0.83117400  0.16670500  0.00000900  1
  Na  Na4  1  0.50000000  0.50000000  0.74999500  1
  Na  Na5  1  0.50000000  0.50000000  0.24999500  1
  Li  Li6  1  0.00000000  0.50000000  0.74992800  1
  Li  Li7  1  0.50000000  0.00000000  0.24992800  1
  Mg  Mg8  1  0.83841300  0.17705200  0.75005400  1
  Mg  Mg9  1  0.82294800  0.16158700  0.25005400  1
  Mg  Mg10  1  0.17705200  0.83841300  0.25005400  1
  Mg  Mg11  1  0.16158700  0.82294800  0.75005400  1
  Mg  Mg12  1  0.50000000  0.00000000  0.75033000  1
  Mg  Mg13  1  0.00000000  0.00000000  0.74986600  1
  Mg  Mg14  1  0.00000000  0.50000000  0.25033000  1
  Mg  Mg15  1  0.00000000  0.00000000  0.24986600  1
  Si  Si16  1  0.85309500  0.61474300  0.61204600  1
  Si  Si17  1  0.38538200  0.73516400  0.61121000  1
  Si  Si18  1  0.26347900  0.14995600  0.61132100  1
  Si  Si19  1  0.84951700  0.61345900  0.38868300  1
  Si  Si20  1  0.38546300  0.73859200  0.38788400  1
  Si  Si21  1  0.26457500  0.14969000  0.38881400  1
  Si  Si22  1  0.73516400  0.38538200  0.11121000  1
  Si  Si23  1  0.14995600  0.26347900  0.11132100  1
  Si  Si24  1  0.61474300  0.85309500  0.11204600  1
  Si  Si25  1  0.73859200  0.38546300  0.88788400  1
  Si  Si26  1  0.14969000  0.26457500  0.88881400  1
  Si  Si27  1  0.61345900  0.84951700  0.88868300  1
  Si  Si28  1  0.15048300  0.38654100  0.38868300  1
  Si  Si29  1  0.61453700  0.26140800  0.38788400  1
  Si  Si30  1  0.73542500  0.85031000  0.38881400  1
  Si  Si31  1  0.14690500  0.38525700  0.61204600  1
  Si  Si32  1  0.61461800  0.26483600  0.61121000  1
  Si  Si33  1  0.73652100  0.85004400  0.61132100  1
  Si  Si34  1  0.26140800  0.61453700  0.88788400  1
  Si  Si35  1  0.85031000  0.73542500  0.88881400  1
  Si  Si36  1  0.38654100  0.15048300  0.88868300  1
  Si  Si37  1  0.26483600  0.61461800  0.11121000  1
  Si  Si38  1  0.85004400  0.73652100  0.11132100  1
  Si  Si39  1  0.38525700  0.14690500  0.11204600  1
  O  O40  1  0.89727700  0.63457700  0.49963200  1
  O  O41  1  0.36574500  0.76286300  0.50028500  1
  O  O42  1  0.23633600  0.10108400  0.50006500  1
  O  O43  1  0.76286300  0.36574500  0.00028500  1
  O  O44  1  0.10108400  0.23633600  0.00006500  1
  O  O45  1  0.63457700  0.89727700  0.99963200  1
  O  O46  1  0.10272300  0.36542300  0.49963200  1
  O  O47  1  0.63425500  0.23713700  0.50028500  1
  O  O48  1  0.76366400  0.89891600  0.50006500  1
  O  O49  1  0.23713700  0.63425500  0.00028500  1
  O  O50  1  0.89891600  0.76366400  0.00006500  1
  O  O51  1  0.36542300  0.10272300  0.99963200  1
  O  O52  1  0.00099000  0.66017900  0.66928100  1
  O  O53  1  0.34521900  0.84153000  0.67087000  1
  O  O54  1  0.15875400  0.00349400  0.67160000  1
  O  O55  1  0.99601800  0.65551000  0.32830400  1
  O  O56  1  0.34012400  0.84100300  0.33077400  1
  O  O57  1  0.15791900  0.00298400  0.32915800  1
  O  O58  1  0.84153000  0.34521900  0.17087000  1
  O  O59  1  0.00349400  0.15875400  0.17160000  1
  O  O60  1  0.66017900  0.00099000  0.16928100  1
  O  O61  1  0.84100300  0.34012400  0.83077400  1
  O  O62  1  0.00298400  0.15791900  0.82915800  1
  O  O63  1  0.65551000  0.99601800  0.82830400  1
  O  O64  1  0.00398200  0.34449000  0.32830400  1
  O  O65  1  0.65987600  0.15899700  0.33077400  1
  O  O66  1  0.84208100  0.99701600  0.32915800  1
  O  O67  1  0.99901000  0.33982100  0.66928100  1
  O  O68  1  0.65478100  0.15847000  0.67087000  1
  O  O69  1  0.84124600  0.99650600  0.67160000  1
  O  O70  1  0.15899700  0.65987600  0.83077400  1
  O  O71  1  0.99701600  0.84208100  0.82915800  1
  O  O72  1  0.34449000  0.00398200  0.82830400  1
  O  O73  1  0.15847000  0.65478100  0.17087000  1
  O  O74  1  0.99650600  0.84124600  0.17160000  1
  O  O75  1  0.33982100  0.99901000  0.16928100  1
  O  O76  1  0.77211900  0.71508900  0.63402700  1
  O  O77  1  0.28338000  0.55622000  0.63464500  1
  O  O78  1  0.44270000  0.22549200  0.63507200  1
  O  O79  1  0.77434100  0.71765900  0.36505000  1
  O  O80  1  0.28542200  0.55724000  0.36526700  1
  O  O81  1  0.44334900  0.22662100  0.36589400  1
  O  O82  1  0.55622000  0.28338000  0.13464500  1
  O  O83  1  0.22549200  0.44270000  0.13507200  1
  O  O84  1  0.71508900  0.77211900  0.13402700  1
  O  O85  1  0.55724000  0.28542200  0.86526700  1
  O  O86  1  0.22662100  0.44334900  0.86589400  1
  O  O87  1  0.71765900  0.77434100  0.86505000  1
  O  O88  1  0.22565900  0.28234100  0.36505000  1
  O  O89  1  0.71457800  0.44276000  0.36526700  1
  O  O90  1  0.55665100  0.77337900  0.36589400  1
  O  O91  1  0.22788100  0.28491100  0.63402700  1
  O  O92  1  0.71662000  0.44378000  0.63464500  1
  O  O93  1  0.55730000  0.77450800  0.63507200  1
  O  O94  1  0.44276000  0.71457800  0.86526700  1
  O  O95  1  0.77337900  0.55665100  0.86589400  1
  O  O96  1  0.28234100  0.22565900  0.86505000  1
  O  O97  1  0.44378000  0.71662000  0.13464500  1
  O  O98  1  0.77450800  0.55730000  0.13507200  1
  O  O99  1  0.28491100  0.22788100  0.13402700  1
