# generated using pymatgen
data_Li5V3P8O29
_symmetry_space_group_name_H-M   'P 1'
_cell_length_a   9.76978400
_cell_length_b   9.80377540
_cell_length_c   14.10939122
_cell_angle_alpha   89.81173997
_cell_angle_beta   90.38177730
_cell_angle_gamma   119.70706809
_symmetry_Int_Tables_number   1
_chemical_formula_structural   Li5V3P8O29
_chemical_formula_sum   'Li10 V6 P16 O58'
_cell_volume   1173.76719758
_cell_formula_units_Z   2
loop_
 _symmetry_equiv_pos_site_id
 _symmetry_equiv_pos_as_xyz
  1  'x, y, z'
loop_
 _atom_site_type_symbol
 _atom_site_label
 _atom_site_symmetry_multiplicity
 _atom_site_fract_x
 _atom_site_fract_y
 _atom_site_fract_z
 _atom_site_occupancy
  Li  Li0  1  0.90232800  0.66103200  0.44327400  1
  Li  Li1  1  0.33326700  0.23122600  0.44292800  1
  Li  Li2  1  0.32078600  0.09254800  0.93712500  1
  Li  Li3  1  0.91423300  0.22539200  0.94223200  1
  Li  Li4  1  0.77064300  0.09141000  0.44080400  1
  Li  Li5  1  0.07922700  0.78459200  0.05921200  1
  Li  Li6  1  0.69439000  0.92180000  0.05633200  1
  Li  Li7  1  0.34891000  0.66132700  0.89115400  1
  Li  Li8  1  0.10586900  0.33801800  0.55524000  1
  Li  Li9  1  0.98825000  0.95846000  0.50734500  1
  V  V10  1  0.42876400  0.99706300  0.74290500  1
  V  V11  1  0.56630100  0.00230200  0.25515800  1
  V  V12  1  0.99825500  0.56777500  0.24800500  1
  V  V13  1  0.99816000  0.43324400  0.74816600  1
  V  V14  1  0.56542400  0.56732900  0.75166800  1
  V  V15  1  0.43595200  0.43417300  0.24799400  1
  P  P16  1  0.76819600  0.68805100  0.15588400  1
  P  P17  1  0.91317400  0.69127100  0.65996100  1
  P  P18  1  0.31400800  0.23232400  0.65669800  1
  P  P19  1  0.66403200  0.32977000  0.86900000  1
  P  P20  1  0.66696800  0.33557600  0.37211000  1
  P  P21  1  0.32148400  0.09116200  0.15739600  1
  P  P22  1  0.22084700  0.91621900  0.33951900  1
  P  P23  1  0.91000000  0.23111800  0.15916800  1
  P  P24  1  0.09270000  0.77051200  0.84246200  1
  P  P25  1  0.77555800  0.08571200  0.65607800  1
  P  P26  1  0.68195200  0.91140000  0.83939300  1
  P  P27  1  0.32796500  0.65874100  0.63009900  1
  P  P28  1  0.33605400  0.67114400  0.13147300  1
  P  P29  1  0.69285300  0.77309900  0.34302400  1
  P  P30  1  0.09126300  0.31924300  0.33977700  1
  P  P31  1  0.22443600  0.31445500  0.84065300  1
  O  O32  1  0.79676300  0.78576700  0.42476200  1
  O  O33  1  0.74621400  0.66165100  0.66763900  1
  O  O34  1  0.00821500  0.75672100  0.93198700  1
  O  O35  1  0.91483500  0.66680300  0.15813700  1
  O  O36  1  0.61866600  0.52539300  0.17693900  1
  O  O37  1  0.65460400  0.47258900  0.82619700  1
  O  O38  1  0.47044800  0.38342300  0.66749600  1
  O  O39  1  0.22788700  0.22039300  0.92184800  1
  O  O40  1  0.33983100  0.25765600  0.16619900  1
  O  O41  1  0.81121200  0.49013400  0.33496500  1
  O  O42  1  0.91886000  0.53516700  0.67441600  1
  O  O43  1  0.51233000  0.32442900  0.32487700  1
  O  O44  1  0.68083900  0.33005700  0.97364800  1
  O  O45  1  0.65136500  0.33352700  0.47738300  1
  O  O46  1  0.51682300  0.17856100  0.83071100  1
  O  O47  1  0.89807700  0.38094300  0.18085800  1
  O  O48  1  0.81712100  0.33794900  0.82154400  1
  O  O49  1  0.33693500  0.08692300  0.66687500  1
  O  O50  1  0.20116500  0.99003800  0.24027600  1
  O  O51  1  0.20180300  0.00512900  0.41962100  1
  O  O52  1  0.25031200  0.01000200  0.06565000  1
  O  O53  1  0.48210600  0.10369200  0.17934300  1
  O  O54  1  0.68097600  0.19142400  0.33507000  1
  O  O55  1  0.25985000  0.91687500  0.84059000  1
  O  O56  1  0.62002600  0.08577100  0.66592200  1
  O  O57  1  0.91939200  0.25812700  0.66320500  1
  O  O58  1  0.00724200  0.79495300  0.75117400  1
  O  O59  1  0.99069800  0.77143400  0.56920200  1
  O  O60  1  0.00592200  0.23094500  0.42790200  1
  O  O61  1  0.08169000  0.74400500  0.33654500  1
  O  O62  1  0.37956600  0.91920200  0.33366100  1
  O  O63  1  0.74430500  0.08242300  0.16543900  1
  O  O64  1  0.32068100  0.80312700  0.66753400  1
  O  O65  1  0.51617800  0.89405900  0.82045400  1
  O  O66  1  0.75639700  0.00728300  0.92702100  1
  O  O67  1  0.79759000  0.01583500  0.56705000  1
  O  O68  1  0.79366500  0.99988200  0.74920400  1
  O  O69  1  0.65856300  0.91232600  0.34330900  1
  O  O70  1  0.18347400  0.67080500  0.16496900  1
  O  O71  1  0.11022600  0.62212600  0.82314200  1
  O  O72  1  0.48490900  0.81809200  0.17213300  1
  O  O73  1  0.34218600  0.66682000  0.02551500  1
  O  O74  1  0.30887800  0.62677700  0.52639300  1
  O  O75  1  0.47694200  0.66463800  0.67688400  1
  O  O76  1  0.09772300  0.47667600  0.32643400  1
  O  O77  1  0.18106400  0.50440000  0.67680900  1
  O  O78  1  0.65956500  0.74651500  0.84202200  1
  O  O79  1  0.79021600  0.79619000  0.24697400  1
  O  O80  1  0.75471100  0.76674100  0.06949900  1
  O  O81  1  0.53802900  0.61447900  0.33122400  1
  O  O82  1  0.33894600  0.52540300  0.17963700  1
  O  O83  1  0.36889100  0.48150300  0.83079800  1
  O  O84  1  0.07462900  0.33445700  0.84105900  1
  O  O85  1  0.98892400  0.24076200  0.06813200  1
  O  O86  1  0.00550700  0.21209800  0.24780000  1
  O  O87  1  0.26038500  0.34013700  0.33866900  1
  O  O88  1  0.22507400  0.22126400  0.56615300  1
  O  O89  1  0.20076900  0.21823000  0.74290600  1
