# generated using pymatgen
data_Li3Mn2O5
_symmetry_space_group_name_H-M   'P 1'
_cell_length_a   2.96450569
_cell_length_b   12.16428497
_cell_length_c   5.09187513
_cell_angle_alpha   84.07155707
_cell_angle_beta   91.19539827
_cell_angle_gamma   86.06017114
_symmetry_Int_Tables_number   1
_chemical_formula_structural   Li3Mn2O5
_chemical_formula_sum   'Li6 Mn4 O10'
_cell_volume   182.13257186
_cell_formula_units_Z   2
loop_
 _symmetry_equiv_pos_site_id
 _symmetry_equiv_pos_as_xyz
  1  'x, y, z'
loop_
 _atom_site_type_symbol
 _atom_site_label
 _atom_site_symmetry_multiplicity
 _atom_site_fract_x
 _atom_site_fract_y
 _atom_site_fract_z
 _atom_site_occupancy
  Li  Li0  1  0.89996100  0.19999800  0.30000900  1
  Li  Li1  1  0.40001100  0.19999400  0.80000200  1
  Li  Li2  1  0.31136000  0.39224000  0.09434900  1
  Li  Li3  1  0.48860800  0.00775100  0.50564200  1
  Li  Li4  1  0.69803600  0.60122200  0.90729200  1
  Li  Li5  1  0.10197700  0.79876300  0.69271500  1
  Mn  Mn6  1  0.81598200  0.39190100  0.60981600  1
  Mn  Mn7  1  0.21385300  0.59830100  0.39728500  1
  Mn  Mn8  1  0.98401200  0.00810900  0.99017600  1
  Mn  Mn9  1  0.58622100  0.80170300  0.20271300  1
  O  O10  1  0.46422800  0.08809400  0.13047000  1
  O  O11  1  0.33574500  0.31191500  0.46952700  1
  O  O12  1  0.84312400  0.30866300  0.92810600  1
  O  O13  1  0.95685300  0.09133600  0.67189300  1
  O  O14  1  0.28584600  0.49033600  0.72151200  1
  O  O15  1  0.51415000  0.90967000  0.87848000  1
  O  O16  1  0.61963300  0.70015400  0.53711700  1
  O  O17  1  0.18035600  0.69985000  0.06289000  1
  O  O18  1  0.00188500  0.89986500  0.32749300  1
  O  O19  1  0.79816000  0.50013400  0.27251000  1
