# generated using pymatgen
data_Li4Mn3O7
_symmetry_space_group_name_H-M   'P 1'
_cell_length_a   3.07965499
_cell_length_b   3.07965499
_cell_length_c   34.51663917
_cell_angle_alpha   88.79303565
_cell_angle_beta   88.79303565
_cell_angle_gamma   55.70906025
_symmetry_Int_Tables_number   1
_chemical_formula_structural   Li4Mn3O7
_chemical_formula_sum   'Li8 Mn6 O14'
_cell_volume   270.38830992
_cell_formula_units_Z   2
loop_
 _symmetry_equiv_pos_site_id
 _symmetry_equiv_pos_as_xyz
  1  'x, y, z'
loop_
 _atom_site_type_symbol
 _atom_site_label
 _atom_site_symmetry_multiplicity
 _atom_site_fract_x
 _atom_site_fract_y
 _atom_site_fract_z
 _atom_site_occupancy
  Li  Li0  1  0.69951000  0.69951000  0.93299500  1
  Li  Li1  1  0.30049000  0.30049000  0.06700500  1
  Li  Li2  1  0.85793800  0.85793800  0.21403900  1
  Li  Li3  1  0.42888500  0.42888500  0.35711200  1
  Li  Li4  1  0.00000000  0.00000000  0.50000000  1
  Li  Li5  1  0.57111500  0.57111500  0.64288800  1
  Li  Li6  1  0.14206200  0.14206200  0.78596100  1
  Li  Li7  1  0.00000000  0.00000000  0.00000000  1
  Mn  Mn8  1  0.42471100  0.42471100  0.85705300  1
  Mn  Mn9  1  0.57528900  0.57528900  0.14294700  1
  Mn  Mn10  1  0.14292000  0.14292000  0.28569000  1
  Mn  Mn11  1  0.71438200  0.71438200  0.42858600  1
  Mn  Mn12  1  0.28561800  0.28561800  0.57141400  1
  Mn  Mn13  1  0.85708000  0.85708000  0.71431000  1
  O  O14  1  0.06592100  0.06592100  0.88752900  1
  O  O15  1  0.63976700  0.63976700  0.03636200  1
  O  O16  1  0.20170900  0.20170900  0.17625700  1
  O  O17  1  0.76729300  0.76729300  0.31886600  1
  O  O18  1  0.33872800  0.33872800  0.46167800  1
  O  O19  1  0.91029300  0.91029300  0.60449900  1
  O  O20  1  0.48225900  0.48225900  0.74716300  1
  O  O21  1  0.36023300  0.36023300  0.96363800  1
  O  O22  1  0.93407900  0.93407900  0.11247100  1
  O  O23  1  0.51774100  0.51774100  0.25283700  1
  O  O24  1  0.08970700  0.08970700  0.39550100  1
  O  O25  1  0.66127200  0.66127200  0.53832200  1
  O  O26  1  0.23270700  0.23270700  0.68113400  1
  O  O27  1  0.79829100  0.79829100  0.82374300  1
