# generated using pymatgen
data_Li9Mn7O16
_symmetry_space_group_name_H-M   'P 1'
_cell_length_a   3.00846800
_cell_length_b   9.95264257
_cell_length_c   10.16320282
_cell_angle_alpha   77.90162530
_cell_angle_beta   88.02117431
_cell_angle_gamma   85.40445995
_symmetry_Int_Tables_number   1
_chemical_formula_structural   Li9Mn7O16
_chemical_formula_sum   'Li9 Mn7 O16'
_cell_volume   296.54406687
_cell_formula_units_Z   1
loop_
 _symmetry_equiv_pos_site_id
 _symmetry_equiv_pos_as_xyz
  1  'x, y, z'
loop_
 _atom_site_type_symbol
 _atom_site_label
 _atom_site_symmetry_multiplicity
 _atom_site_fract_x
 _atom_site_fract_y
 _atom_site_fract_z
 _atom_site_occupancy
  Li  Li0  1  0.98901600  0.49139400  0.76221100  1
  Li  Li1  1  0.49598300  0.24892100  0.37395800  1
  Li  Li2  1  0.00000000  0.00000000  0.00000000  1
  Li  Li3  1  0.50401700  0.75107900  0.62604200  1
  Li  Li4  1  0.51370000  0.25977200  0.87868700  1
  Li  Li5  1  0.00000000  0.00000000  0.50000000  1
  Li  Li6  1  0.48630000  0.74022800  0.12131300  1
  Li  Li7  1  0.01098400  0.50860600  0.23778900  1
  Li  Li8  1  0.50000000  0.50000000  0.00000000  1
  Mn  Mn9  1  0.99478400  0.74072900  0.88107400  1
  Mn  Mn10  1  0.00521600  0.25927100  0.11892600  1
  Mn  Mn11  1  0.50000000  0.50000000  0.50000000  1
  Mn  Mn12  1  0.49032500  0.99623900  0.74856500  1
  Mn  Mn13  1  0.00140500  0.75103800  0.37335800  1
  Mn  Mn14  1  0.99859500  0.24896200  0.62664200  1
  Mn  Mn15  1  0.50967500  0.00376100  0.25143500  1
  O  O16  1  0.52606500  0.64242900  0.82230300  1
  O  O17  1  0.96412200  0.37204800  0.44775900  1
  O  O18  1  0.52989300  0.13642400  0.07513400  1
  O  O19  1  0.96497600  0.87198700  0.69922700  1
  O  O20  1  0.99196800  0.36376100  0.94886600  1
  O  O21  1  0.46651500  0.12274100  0.57160000  1
  O  O22  1  0.97256100  0.87867600  0.19521400  1
  O  O23  1  0.46578900  0.62248400  0.31976500  1
  O  O24  1  0.53421100  0.37751600  0.68023500  1
  O  O25  1  0.03502400  0.12801300  0.30077300  1
  O  O26  1  0.47010700  0.86357600  0.92486600  1
  O  O27  1  0.03587800  0.62795200  0.55224100  1
  O  O28  1  0.02743900  0.12132400  0.80478600  1
  O  O29  1  0.53348500  0.87725900  0.42840000  1
  O  O30  1  0.00803200  0.63623900  0.05113400  1
  O  O31  1  0.47393500  0.35757100  0.17769700  1
