# generated using pymatgen
data_Li2VFeP2(O4F)2
_symmetry_space_group_name_H-M   'P 1'
_cell_length_a   6.97643500
_cell_length_b   7.42031151
_cell_length_c   7.98712301
_cell_angle_alpha   90.85495306
_cell_angle_beta   91.61388218
_cell_angle_gamma   117.64144766
_symmetry_Int_Tables_number   1
_chemical_formula_structural   Li2VFeP2(O4F)2
_chemical_formula_sum   'Li4 V2 Fe2 P4 O16 F4'
_cell_volume   365.95344756
_cell_formula_units_Z   2
loop_
 _symmetry_equiv_pos_site_id
 _symmetry_equiv_pos_as_xyz
  1  'x, y, z'
loop_
 _atom_site_type_symbol
 _atom_site_label
 _atom_site_symmetry_multiplicity
 _atom_site_fract_x
 _atom_site_fract_y
 _atom_site_fract_z
 _atom_site_occupancy
  Li  Li0  1  0.44232900  0.18861400  0.82740200  1
  Li  Li1  1  0.94421300  0.18832400  0.32710000  1
  Li  Li2  1  0.05578700  0.81167600  0.67290000  1
  Li  Li3  1  0.55767100  0.81138600  0.17259800  1
  V  V4  1  0.00000000  0.50000000  0.00000000  1
  V  V5  1  0.50000000  0.00000000  0.50000000  1
  Fe  Fe6  1  0.00000000  0.00000000  0.00000000  1
  Fe  Fe7  1  0.50000000  0.50000000  0.50000000  1
  P  P8  1  0.48341100  0.76301800  0.84074200  1
  P  P9  1  0.98095100  0.76205500  0.34087800  1
  P  P10  1  0.01904900  0.23794500  0.65912200  1
  P  P11  1  0.51658900  0.23698200  0.15925800  1
  O  O12  1  0.98196000  0.39043400  0.76744300  1
  O  O13  1  0.80812900  0.08723400  0.56041500  1
  O  O14  1  0.69449300  0.91322500  0.93918500  1
  O  O15  1  0.32570700  0.65652500  0.98299600  1
  O  O16  1  0.51918500  0.61194000  0.73000100  1
  O  O17  1  0.82325200  0.65829700  0.48332800  1
  O  O18  1  0.10269800  0.11309600  0.76919700  1
  O  O19  1  0.60036900  0.11030700  0.26737800  1
  O  O20  1  0.39963100  0.88969300  0.73262200  1
  O  O21  1  0.89730200  0.88690400  0.23080300  1
  O  O22  1  0.17674800  0.34170300  0.51667200  1
  O  O23  1  0.48081500  0.38806000  0.26999900  1
  O  O24  1  0.67429300  0.34347500  0.01700400  1
  O  O25  1  0.30550700  0.08677500  0.06081500  1
  O  O26  1  0.19187100  0.91276600  0.43958500  1
  O  O27  1  0.01804000  0.60956600  0.23255700  1
  F  F28  1  0.97353200  0.73966600  0.89942100  1
  F  F29  1  0.52747700  0.26530000  0.60171600  1
  F  F30  1  0.47252300  0.73470000  0.39828400  1
  F  F31  1  0.02646800  0.26033400  0.10057900  1
