# generated using pymatgen
data_Li5Mn3O8
_symmetry_space_group_name_H-M   'P 1'
_cell_length_a   5.13560756
_cell_length_b   10.20333663
_cell_length_c   5.76916224
_cell_angle_alpha   106.51409936
_cell_angle_beta   90.00803517
_cell_angle_gamma   81.31452347
_symmetry_Int_Tables_number   1
_chemical_formula_structural   Li5Mn3O8
_chemical_formula_sum   'Li10 Mn6 O16'
_cell_volume   286.21997099
_cell_formula_units_Z   2
loop_
 _symmetry_equiv_pos_site_id
 _symmetry_equiv_pos_as_xyz
  1  'x, y, z'
loop_
 _atom_site_type_symbol
 _atom_site_label
 _atom_site_symmetry_multiplicity
 _atom_site_fract_x
 _atom_site_fract_y
 _atom_site_fract_z
 _atom_site_occupancy
  Li  Li0  1  0.24998800  0.24996300  0.62492800  1
  Li  Li1  1  0.24998100  0.24997200  0.12492100  1
  Li  Li2  1  0.74998600  0.75016200  0.87517800  1
  Li  Li3  1  0.75027600  0.74971400  0.37475100  1
  Li  Li4  1  0.74998100  0.24989500  0.37500000  1
  Li  Li5  1  0.74994000  0.25006500  0.87487800  1
  Li  Li6  1  0.00286600  0.48827300  0.49120400  1
  Li  Li7  1  0.00295200  0.48861300  0.99144200  1
  Li  Li8  1  0.49708000  0.01142800  0.25847800  1
  Li  Li9  1  0.49706300  0.01164400  0.75862500  1
  Mn  Mn10  1  0.25005900  0.75006400  0.62513200  1
  Mn  Mn11  1  0.25009800  0.75008600  0.12510900  1
  Mn  Mn12  1  0.97165300  0.00970600  0.00709700  1
  Mn  Mn13  1  0.97173400  0.00959300  0.50751300  1
  Mn  Mn14  1  0.52824200  0.49039600  0.74254000  1
  Mn  Mn15  1  0.52824900  0.49034500  0.24293300  1
  O  O16  1  0.10821300  0.10985500  0.30783100  1
  O  O17  1  0.10817200  0.11008800  0.80798000  1
  O  O18  1  0.39168200  0.38993000  0.44205800  1
  O  O19  1  0.39162900  0.39011600  0.94222600  1
  O  O20  1  0.85094100  0.38427100  0.18911700  1
  O  O21  1  0.85090600  0.38452800  0.68972200  1
  O  O22  1  0.64906500  0.11543300  0.56022200  1
  O  O23  1  0.64899000  0.11566300  0.06072800  1
  O  O24  1  0.62971500  0.61016000  0.55310000  1
  O  O25  1  0.62871600  0.61054300  0.05309800  1
  O  O26  1  0.87035500  0.88978000  0.69695300  1
  O  O27  1  0.87131800  0.88946500  0.19689900  1
  O  O28  1  0.33780600  0.87087400  0.43681300  1
  O  O29  1  0.33782100  0.87087600  0.93707900  1
  O  O30  1  0.16220600  0.62926400  0.81353400  1
  O  O31  1  0.16231800  0.62923700  0.31290900  1
