# generated using pymatgen
data_Li2CrFe(PO4)2
_symmetry_space_group_name_H-M   'P 1'
_cell_length_a   4.77438757
_cell_length_b   10.77876374
_cell_length_c   5.98070252
_cell_angle_alpha   90.54030027
_cell_angle_beta   89.68198597
_cell_angle_gamma   91.50414125
_symmetry_Int_Tables_number   1
_chemical_formula_structural   Li2CrFe(PO4)2
_chemical_formula_sum   'Li4 Cr2 Fe2 P4 O16'
_cell_volume   307.65482619
_cell_formula_units_Z   2
loop_
 _symmetry_equiv_pos_site_id
 _symmetry_equiv_pos_as_xyz
  1  'x, y, z'
loop_
 _atom_site_type_symbol
 _atom_site_label
 _atom_site_symmetry_multiplicity
 _atom_site_fract_x
 _atom_site_fract_y
 _atom_site_fract_z
 _atom_site_occupancy
  Li  Li0  1  0.99976512  0.00017811  0.00024214  1
  Li  Li1  1  0.99976091  0.00013300  0.50016588  1
  Li  Li2  1  0.50012343  0.49994581  0.99977692  1
  Li  Li3  1  0.50032066  0.49993980  0.49975874  1
  Cr  Cr4  1  0.49058262  0.77505456  0.25207856  1
  Cr  Cr5  1  0.50921330  0.22496202  0.74804431  1
  Fe  Fe6  1  0.98473370  0.27998842  0.24727288  1
  Fe  Fe7  1  0.01405658  0.72027232  0.75243485  1
  P  P8  1  0.41307498  0.09876098  0.25248789  1
  P  P9  1  0.58638163  0.90135585  0.74777449  1
  P  P10  1  0.92125469  0.41199590  0.74790893  1
  P  P11  1  0.07940345  0.58778325  0.25171131  1
  O  O12  1  0.71574637  0.03444189  0.75426688  1
  O  O13  1  0.28383395  0.96566100  0.24624187  1
  O  O14  1  0.73561413  0.10323755  0.25067939  1
  O  O15  1  0.26392257  0.89684680  0.74974620  1
  O  O16  1  0.23973820  0.41567775  0.74924492  1
  O  O17  1  0.76075922  0.58415276  0.25047380  1
  O  O18  1  0.21104231  0.45761973  0.24913429  1
  O  O19  1  0.79066750  0.54217737  0.75075874  1
  O  O20  1  0.28215429  0.17019345  0.04939220  1
  O  O21  1  0.28456480  0.16474776  0.46506602  1
  O  O22  1  0.71500386  0.83537216  0.53526209  1
  O  O23  1  0.71768982  0.82970579  0.95062987  1
  O  O24  1  0.78932222  0.33885478  0.54131391  1
  O  O25  1  0.78456007  0.33690956  0.94953731  1
  O  O26  1  0.21584034  0.66294311  0.05012266  1
  O  O27  1  0.21086924  0.66108851  0.45847293  1
