# generated using pymatgen
data_Li4MnCo2O7
_symmetry_space_group_name_H-M   'P 1'
_cell_length_a   6.45062628
_cell_length_b   6.45062628
_cell_length_c   14.43931449
_cell_angle_alpha   70.84490762
_cell_angle_beta   70.84490762
_cell_angle_gamma   26.56988401
_symmetry_Int_Tables_number   1
_chemical_formula_structural   Li4MnCo2O7
_chemical_formula_sum   'Li8 Mn2 Co4 O14'
_cell_volume   253.00931108
_cell_formula_units_Z   2
loop_
 _symmetry_equiv_pos_site_id
 _symmetry_equiv_pos_as_xyz
  1  'x, y, z'
loop_
 _atom_site_type_symbol
 _atom_site_label
 _atom_site_symmetry_multiplicity
 _atom_site_fract_x
 _atom_site_fract_y
 _atom_site_fract_z
 _atom_site_occupancy
  Li  Li0  1  0.28278400  0.28278400  0.07641000  1
  Li  Li1  1  0.84126200  0.84126200  0.22719800  1
  Li  Li2  1  0.42521100  0.42521100  0.36488100  1
  Li  Li3  1  0.72299700  0.72299700  0.91807600  1
  Li  Li4  1  0.14771500  0.14771500  0.77201000  1
  Li  Li5  1  0.00391800  0.00391800  0.50198200  1
  Li  Li6  1  0.57180900  0.57180900  0.63974600  1
  Li  Li7  1  0.14668400  0.14668400  0.28459400  1
  Mn  Mn8  1  0.99807000  0.99807100  0.00031000  1
  Mn  Mn9  1  0.57482800  0.57482800  0.14759000  1
  Co  Co10  1  0.71244200  0.71244200  0.42352700  1
  Co  Co11  1  0.28630700  0.28630700  0.57232400  1
  Co  Co12  1  0.85709300  0.85709300  0.71861900  1
  Co  Co13  1  0.42813200  0.42813200  0.85283600  1
  O  O14  1  0.44102000  0.44102000  0.09538200  1
  O  O15  1  0.00800000  0.00800000  0.23427900  1
  O  O16  1  0.58512800  0.58512800  0.39959400  1
  O  O17  1  0.86890500  0.86890500  0.96275900  1
  O  O18  1  0.28354300  0.28354300  0.81729400  1
  O  O19  1  0.15467300  0.15467300  0.53081100  1
  O  O20  1  0.72169500  0.72169500  0.67356600  1
  O  O21  1  0.12828000  0.12828000  0.04825300  1
  O  O22  1  0.70541600  0.70541600  0.17471800  1
  O  O23  1  0.28267200  0.28267200  0.32947400  1
  O  O24  1  0.56372100  0.56372100  0.91157800  1
  O  O25  1  0.99451900  0.99451900  0.74884900  1
  O  O26  1  0.84421700  0.84421700  0.46460100  1
  O  O27  1  0.41895900  0.41895900  0.60873900  1
