# generated using pymatgen
data_Li3Mn4SnO8
_symmetry_space_group_name_H-M   'P 1'
_cell_length_a   6.23072837
_cell_length_b   10.62341476
_cell_length_c   6.26296633
_cell_angle_alpha   74.45389623
_cell_angle_beta   60.53884612
_cell_angle_gamma   74.29288753
_symmetry_Int_Tables_number   1
_chemical_formula_structural   Li3Mn4SnO8
_chemical_formula_sum   'Li6 Mn8 Sn2 O16'
_cell_volume   342.94340130
_cell_formula_units_Z   2
loop_
 _symmetry_equiv_pos_site_id
 _symmetry_equiv_pos_as_xyz
  1  'x, y, z'
loop_
 _atom_site_type_symbol
 _atom_site_label
 _atom_site_symmetry_multiplicity
 _atom_site_fract_x
 _atom_site_fract_y
 _atom_site_fract_z
 _atom_site_occupancy
  Li  Li0  1  0.74762900  0.25335400  0.75275300  1
  Li  Li1  1  0.24925600  0.74751300  0.24929600  1
  Li  Li2  1  0.75346300  0.24909600  0.25013300  1
  Li  Li3  1  0.24692000  0.75092900  0.74750400  1
  Li  Li4  1  0.23759300  0.26389800  0.73471100  1
  Li  Li5  1  0.75840600  0.73554600  0.26866000  1
  Mn  Mn6  1  0.74983700  0.74831700  0.74807700  1
  Mn  Mn7  1  0.24851400  0.25088100  0.25549100  1
  Mn  Mn8  1  0.00171500  0.00116300  0.00140800  1
  Mn  Mn9  1  0.49841100  0.49845500  0.49760800  1
  Mn  Mn10  1  0.00071900  0.99960100  0.50276800  1
  Mn  Mn11  1  0.49989000  0.50239500  0.99467000  1
  Mn  Mn12  1  0.50471000  0.99766000  0.00023100  1
  Mn  Mn13  1  0.99566200  0.50234200  0.49986200  1
  Sn  Sn14  1  0.50114400  0.00035400  0.50118200  1
  Sn  Sn15  1  0.99978800  0.49939200  0.99917300  1
  O  O16  1  0.87789700  0.38193500  0.87393600  1
  O  O17  1  0.34675600  0.89020900  0.38917900  1
  O  O18  1  0.65584900  0.10998500  0.61263300  1
  O  O19  1  0.12046600  0.61781900  0.12439100  1
  O  O20  1  0.36254000  0.37812400  0.37042000  1
  O  O21  1  0.88940600  0.89140000  0.83434300  1
  O  O22  1  0.11965700  0.11416200  0.17027700  1
  O  O23  1  0.63120100  0.61654600  0.62099800  1
  O  O24  1  0.87864000  0.37680300  0.35519300  1
  O  O25  1  0.37963800  0.88066800  0.85589300  1
  O  O26  1  0.35538700  0.37324500  0.88066400  1
  O  O27  1  0.85333800  0.87709800  0.36953100  1
  O  O28  1  0.15050400  0.12599600  0.62771000  1
  O  O29  1  0.64227500  0.62321200  0.12180700  1
  O  O30  1  0.61786000  0.12232300  0.14760900  1
  O  O31  1  0.12493000  0.61958000  0.64189000  1
