# generated using pymatgen
data_Li2MnVP2(HO5)2
_symmetry_space_group_name_H-M   'P 1'
_cell_length_a   5.47323500
_cell_length_b   7.32065737
_cell_length_c   14.33642216
_cell_angle_alpha   94.16402547
_cell_angle_beta   93.56911685
_cell_angle_gamma   106.67905088
_symmetry_Int_Tables_number   1
_chemical_formula_structural   Li2MnVP2(HO5)2
_chemical_formula_sum   'Li6 Mn3 V3 P6 H6 O30'
_cell_volume   546.72745826
_cell_formula_units_Z   3
loop_
 _symmetry_equiv_pos_site_id
 _symmetry_equiv_pos_as_xyz
  1  'x, y, z'
loop_
 _atom_site_type_symbol
 _atom_site_label
 _atom_site_symmetry_multiplicity
 _atom_site_fract_x
 _atom_site_fract_y
 _atom_site_fract_z
 _atom_site_occupancy
  Li  Li0  1  0.68842700  0.25912900  0.08153200  1
  Li  Li1  1  0.64872200  0.07271600  0.25144000  1
  Li  Li2  1  0.35127800  0.92728400  0.74856000  1
  Li  Li3  1  0.31157300  0.74087100  0.91846800  1
  Li  Li4  1  0.01942700  0.58658800  0.41612700  1
  Li  Li5  1  0.98057300  0.41341200  0.58387300  1
  Mn  Mn6  1  0.83288300  0.33430800  0.83346000  1
  Mn  Mn7  1  0.50000000  0.50000000  0.50000000  1
  Mn  Mn8  1  0.16711700  0.66569200  0.16654000  1
  V  V9  1  0.83139400  0.83344400  0.83348500  1
  V  V10  1  0.50000000  0.00000000  0.50000000  1
  V  V11  1  0.16860600  0.16655600  0.16651500  1
  P  P12  1  0.64279400  0.50842300  0.27552600  1
  P  P13  1  0.69137600  0.82469700  0.05813900  1
  P  P14  1  0.30862400  0.17530300  0.94186100  1
  P  P15  1  0.35720600  0.49157700  0.72447400  1
  P  P16  1  0.97234800  0.84283400  0.60688800  1
  P  P17  1  0.02765200  0.15716600  0.39311200  1
  H  H18  1  0.77636900  0.05569900  0.71361200  1
  H  H19  1  0.55436000  0.28683000  0.61958800  1
  H  H20  1  0.22363100  0.94430100  0.28638800  1
  H  H21  1  0.44564000  0.71317000  0.38041200  1
  H  H22  1  0.11112400  0.38708400  0.04587300  1
  H  H23  1  0.88887600  0.61291600  0.95412700  1
  O  O24  1  0.69486000  0.88660000  0.95656100  1
  O  O25  1  0.79088800  0.00934700  0.12881100  1
  O  O26  1  0.79605500  0.97186800  0.59134400  1
  O  O27  1  0.73985900  0.04664700  0.39831300  1
  O  O28  1  0.73284400  0.05811500  0.78013400  1
  O  O29  1  0.59861500  0.27308800  0.93392100  1
  O  O30  1  0.54453900  0.32437900  0.20392200  1
  O  O31  1  0.63870100  0.44465600  0.37654100  1
  O  O32  1  0.60162600  0.28573200  0.55316600  1
  O  O33  1  0.20911200  0.99065300  0.87118900  1
  O  O34  1  0.30514000  0.11340000  0.04343900  1
  O  O35  1  0.26715600  0.94188500  0.21986600  1
  O  O36  1  0.51978200  0.35498000  0.73672700  1
  O  O37  1  0.48021800  0.64502000  0.26327300  1
  O  O38  1  0.26014100  0.95335300  0.60168700  1
  O  O39  1  0.40138500  0.72691200  0.06607900  1
  O  O40  1  0.20394500  0.02813200  0.40865600  1
  O  O41  1  0.14608400  0.31201800  0.92979800  1
  O  O42  1  0.39837400  0.71426800  0.44683400  1
  O  O43  1  0.36129900  0.55534400  0.62345900  1
  O  O44  1  0.45546100  0.67562100  0.79607800  1
  O  O45  1  0.06860200  0.39057600  0.11290200  1
  O  O46  1  0.03504400  0.21413500  0.29047800  1
  O  O47  1  0.10731000  0.33941800  0.46250400  1
  O  O48  1  0.06698300  0.39370600  0.73293400  1
  O  O49  1  0.93139800  0.60942400  0.88709800  1
  O  O50  1  0.93301700  0.60629400  0.26706600  1
  O  O51  1  0.85391600  0.68798200  0.07020200  1
  O  O52  1  0.89269000  0.66058200  0.53749600  1
  O  O53  1  0.96495600  0.78586500  0.70952200  1
