# generated using pymatgen
data_Li3V3SbO8
_symmetry_space_group_name_H-M   'P 1'
_cell_length_a   6.10471741
_cell_length_b   6.10843486
_cell_length_c   10.57031369
_cell_angle_alpha   106.47242619
_cell_angle_beta   106.50000284
_cell_angle_gamma   60.62372449
_symmetry_Int_Tables_number   1
_chemical_formula_structural   Li3V3SbO8
_chemical_formula_sum   'Li6 V6 Sb2 O16'
_cell_volume   324.39734589
_cell_formula_units_Z   2
loop_
 _symmetry_equiv_pos_site_id
 _symmetry_equiv_pos_as_xyz
  1  'x, y, z'
loop_
 _atom_site_type_symbol
 _atom_site_label
 _atom_site_symmetry_multiplicity
 _atom_site_fract_x
 _atom_site_fract_y
 _atom_site_fract_z
 _atom_site_occupancy
  Li  Li0  1  0.75027800  0.74973600  0.75001200  1
  Li  Li1  1  0.25026100  0.24971700  0.24999000  1
  Li  Li2  1  0.50024900  0.99966200  0.99992900  1
  Li  Li3  1  0.00020800  0.49961800  0.49995800  1
  Li  Li4  1  0.00033500  0.49974300  0.00006600  1
  Li  Li5  1  0.50036300  0.99979000  0.50003900  1
  V  V6  1  0.50103100  0.49897600  0.00001700  1
  V  V7  1  0.74857900  0.25057900  0.75038400  1
  V  V8  1  0.74948400  0.25138800  0.24960900  1
  V  V9  1  0.00130400  0.99870300  0.50001600  1
  V  V10  1  0.24852400  0.75054400  0.25041500  1
  V  V11  1  0.24948100  0.75146400  0.74957100  1
  Sb  Sb12  1  0.50071000  0.49927400  0.49997300  1
  Sb  Sb13  1  0.00037500  0.99955900  0.99994800  1
  O  O14  1  0.88903500  0.89097000  0.63944300  1
  O  O15  1  0.38908100  0.39090500  0.13944100  1
  O  O16  1  0.10946000  0.11061500  0.36062200  1
  O  O17  1  0.60947000  0.61062900  0.86061800  1
  O  O18  1  0.38547500  0.38572500  0.61939700  1
  O  O19  1  0.88516500  0.88595300  0.11939700  1
  O  O20  1  0.61450500  0.61435600  0.38057100  1
  O  O21  1  0.11426900  0.11472500  0.88061900  1
  O  O22  1  0.12403400  0.65717100  0.87994300  1
  O  O23  1  0.62415600  0.15693600  0.37995500  1
  O  O24  1  0.65614300  0.12290800  0.88041200  1
  O  O25  1  0.15631200  0.62288900  0.38047100  1
  O  O26  1  0.87757600  0.34315800  0.11958100  1
  O  O27  1  0.37769200  0.84307100  0.61962700  1
  O  O28  1  0.34308100  0.87563100  0.12000200  1
  O  O29  1  0.84335800  0.37559900  0.61997200  1
