# generated using pymatgen
data_Li2MnPCO7
_symmetry_space_group_name_H-M   'P 1'
_cell_length_a   5.02914800
_cell_length_b   8.42840826
_cell_length_c   13.06263465
_cell_angle_alpha   90.30566135
_cell_angle_beta   90.02648847
_cell_angle_gamma   94.19336493
_symmetry_Int_Tables_number   1
_chemical_formula_structural   Li2MnPCO7
_chemical_formula_sum   'Li8 Mn4 P4 C4 O28'
_cell_volume   552.20487396
_cell_formula_units_Z   4
loop_
 _symmetry_equiv_pos_site_id
 _symmetry_equiv_pos_as_xyz
  1  'x, y, z'
loop_
 _atom_site_type_symbol
 _atom_site_label
 _atom_site_symmetry_multiplicity
 _atom_site_fract_x
 _atom_site_fract_y
 _atom_site_fract_z
 _atom_site_occupancy
  Li  Li0  1  0.26412700  0.73202100  0.01832400  1
  Li  Li1  1  0.27394300  0.74657500  0.73504100  1
  Li  Li2  1  0.23609600  0.74388000  0.24147700  1
  Li  Li3  1  0.24356200  0.75254900  0.51168500  1
  Li  Li4  1  0.75696800  0.23540000  0.24834200  1
  Li  Li5  1  0.75247200  0.24606800  0.49389000  1
  Li  Li6  1  0.74744600  0.26574100  0.76886600  1
  Li  Li7  1  0.22016000  0.10574200  0.88311000  1
  Mn  Mn8  1  0.78602000  0.65934900  0.37646100  1
  Mn  Mn9  1  0.81434400  0.65826900  0.87521200  1
  Mn  Mn10  1  0.20286900  0.33296200  0.12297500  1
  Mn  Mn11  1  0.19566500  0.34080800  0.62621800  1
  P  P12  1  0.73474900  0.57960500  0.12249800  1
  P  P13  1  0.73950300  0.58895700  0.63117900  1
  P  P14  1  0.26359600  0.42158600  0.37653600  1
  P  P15  1  0.28718300  0.41289400  0.87111000  1
  C  C16  1  0.71890900  0.94474100  0.37660300  1
  C  C17  1  0.70347900  0.95116000  0.86605800  1
  C  C18  1  0.26669800  0.05147300  0.62003300  1
  C  C19  1  0.27488500  0.04860200  0.13376900  1
  O  O20  1  0.95427200  0.93159200  0.87322900  1
  O  O21  1  0.95119100  0.88330800  0.37570700  1
  O  O22  1  0.32064600  0.90352900  0.13034200  1
  O  O23  1  0.33653200  0.91067400  0.62259100  1
  O  O24  1  0.51980200  0.83315300  0.37881200  1
  O  O25  1  0.54008000  0.81774100  0.87266200  1
  O  O26  1  0.84792400  0.67683500  0.53614900  1
  O  O27  1  0.84214600  0.67130400  0.02580600  1
  O  O28  1  0.83148900  0.68003600  0.21528700  1
  O  O29  1  0.86262800  0.68198000  0.72526700  1
  O  O30  1  0.16465100  0.59329200  0.37379900  1
  O  O31  1  0.17283300  0.57991200  0.87848600  1
  O  O32  1  0.42929800  0.57378100  0.63463300  1
  O  O33  1  0.42142600  0.55814700  0.11960600  1
  O  O34  1  0.58861900  0.44218900  0.85141900  1
  O  O35  1  0.57770800  0.44566200  0.37913300  1
  O  O36  1  0.84110500  0.41161500  0.12647300  1
  O  O37  1  0.83172300  0.41449200  0.63168400  1
  O  O38  1  0.15726500  0.33406900  0.47320700  1
  O  O39  1  0.16199400  0.32468500  0.28391800  1
  O  O40  1  0.15703300  0.31106900  0.78127200  1
  O  O41  1  0.22306400  0.30994600  0.96513400  1
  O  O42  1  0.46481200  0.16465300  0.14179800  1
  O  O43  1  0.45430600  0.17520900  0.61864400  1
  O  O44  1  0.68922000  0.09119500  0.37487000  1
  O  O45  1  0.60119500  0.08238300  0.85263500  1
  O  O46  1  0.03861700  0.10204300  0.12602000  1
  O  O47  1  0.02608000  0.09334900  0.62012100  1
