# generated using pymatgen
data_Li6V3P8O29
_symmetry_space_group_name_H-M   'P 1'
_cell_length_a   9.80443587
_cell_length_b   9.80443587
_cell_length_c   14.00041952
_cell_angle_alpha   89.21895036
_cell_angle_beta   89.21895036
_cell_angle_gamma   60.06097089
_symmetry_Int_Tables_number   1
_chemical_formula_structural   Li6V3P8O29
_chemical_formula_sum   'Li12 V6 P16 O58'
_cell_volume   1166.08325110
_cell_formula_units_Z   2
loop_
 _symmetry_equiv_pos_site_id
 _symmetry_equiv_pos_as_xyz
  1  'x, y, z'
loop_
 _atom_site_type_symbol
 _atom_site_label
 _atom_site_symmetry_multiplicity
 _atom_site_fract_x
 _atom_site_fract_y
 _atom_site_fract_z
 _atom_site_occupancy
  Li  Li0  1  0.65719800  0.24160600  0.05957700  1
  Li  Li1  1  0.66896400  0.09779100  0.56234300  1
  Li  Li2  1  0.24160600  0.65719800  0.55957700  1
  Li  Li3  1  0.09779100  0.66896400  0.06234300  1
  Li  Li4  1  0.23039900  0.09972700  0.05883700  1
  Li  Li5  1  0.09972700  0.23039900  0.55883700  1
  Li  Li6  1  0.67163400  0.67642800  0.60850700  1
  Li  Li7  1  0.67642800  0.67163400  0.10850700  1
  Li  Li8  1  0.77196500  0.31529900  0.43751200  1
  Li  Li9  1  0.31529900  0.77196500  0.93751200  1
  Li  Li10  1  0.95066400  0.03294400  0.99719700  1
  Li  Li11  1  0.03294400  0.95066400  0.49719700  1
  V  V12  1  0.00128800  0.56049900  0.25024500  1
  V  V13  1  0.00079400  0.43668500  0.75328600  1
  V  V14  1  0.56049900  0.00128800  0.75024500  1
  V  V15  1  0.43668500  0.00079400  0.25328600  1
  V  V16  1  0.56475600  0.43371300  0.25235000  1
  V  V17  1  0.43371300  0.56475600  0.75235000  1
  P  P18  1  0.68589600  0.22451300  0.84079900  1
  P  P19  1  0.68739000  0.08320900  0.34710600  1
  P  P20  1  0.22451300  0.68589600  0.34079900  1
  P  P21  1  0.33454000  0.33119100  0.12881500  1
  P  P22  1  0.33119100  0.33454000  0.62881500  1
  P  P23  1  0.08320900  0.68739000  0.84710600  1
  P  P24  1  0.91468000  0.78201700  0.66139200  1
  P  P25  1  0.22501700  0.08524400  0.84377900  1
  P  P26  1  0.78201700  0.91468000  0.16139200  1
  P  P27  1  0.08524400  0.22501700  0.34377900  1
  P  P28  1  0.91082600  0.30813300  0.15960800  1
  P  P29  1  0.66832500  0.66350900  0.36842700  1
  P  P30  1  0.66350900  0.66832500  0.86842700  1
  P  P31  1  0.77581500  0.31938300  0.65764500  1
  P  P32  1  0.30813300  0.91082600  0.65960800  1
  P  P33  1  0.31938300  0.77581500  0.15764500  1
  O  O34  1  0.76494000  0.23539000  0.57069500  1
  O  O35  1  0.66718600  0.25104300  0.33643100  1
  O  O36  1  0.79004900  0.01730800  0.08341400  1
  O  O37  1  0.65401400  0.08930500  0.83188700  1
  O  O38  1  0.53108000  0.38545400  0.82573800  1
  O  O39  1  0.48341500  0.33080000  0.16774000  1
  O  O40  1  0.38545400  0.53108000  0.32573800  1
  O  O41  1  0.23539000  0.76494000  0.07069500  1
  O  O42  1  0.25104300  0.66718600  0.83643100  1
  O  O43  1  0.48286100  0.18504200  0.66788000  1
  O  O44  1  0.52853400  0.09085200  0.33198800  1
  O  O45  1  0.33080000  0.48341500  0.66774000  1
  O  O46  1  0.33334000  0.32789000  0.02240600  1
  O  O47  1  0.32789000  0.33334000  0.52240600  1
  O  O48  1  0.18504200  0.48286100  0.16788000  1
  O  O49  1  0.37979500  0.08772600  0.83045000  1
  O  O50  1  0.33237400  0.18290700  0.17306100  1
  O  O51  1  0.08930500  0.65401400  0.33188700  1
  O  O52  1  0.98092700  0.80356500  0.76170000  1
  O  O53  1  0.01730800  0.79004900  0.58341400  1
  O  O54  1  0.01344200  0.76990400  0.93990400  1
  O  O55  1  0.09085200  0.52853400  0.83198800  1
  O  O56  1  0.18290700  0.33237400  0.67306100  1
  O  O57  1  0.92172500  0.74455700  0.15629200  1
  O  O58  1  0.08772600  0.37979500  0.33045000  1
  O  O59  1  0.25040300  0.08082700  0.33476900  1
  O  O60  1  0.80356500  0.98092700  0.26170000  1
  O  O61  1  0.76990400  0.01344200  0.43990400  1
  O  O62  1  0.20321200  0.00514400  0.57885700  1
  O  O63  1  0.74455700  0.92172500  0.65629200  1
  O  O64  1  0.90716000  0.62741700  0.66702200  1
  O  O65  1  0.08082700  0.25040300  0.83476900  1
  O  O66  1  0.81439800  0.66170500  0.32023200  1
  O  O67  1  0.90252500  0.47010700  0.16400900  1
  O  O68  1  0.00514400  0.20321200  0.07885700  1
  O  O69  1  0.00300900  0.22273800  0.43521300  1
  O  O70  1  0.98091900  0.21598900  0.25864700  1
  O  O71  1  0.92298500  0.33699200  0.65485600  1
  O  O72  1  0.66170500  0.81439800  0.82023200  1
  O  O73  1  0.62741700  0.90716000  0.16702200  1
  O  O74  1  0.80932300  0.52196000  0.82177700  1
  O  O75  1  0.66633800  0.66866600  0.97381800  1
  O  O76  1  0.66866600  0.66633800  0.47381800  1
  O  O77  1  0.67338300  0.50846700  0.33566300  1
  O  O78  1  0.47010700  0.90252500  0.66400900  1
  O  O79  1  0.52196000  0.80932300  0.32177700  1
  O  O80  1  0.73746000  0.34175300  0.15938000  1
  O  O81  1  0.79558100  0.21273600  0.75073000  1
  O  O82  1  0.76556300  0.21912100  0.93257100  1
  O  O83  1  0.62937100  0.48455900  0.67168700  1
  O  O84  1  0.50846700  0.67338300  0.83566300  1
  O  O85  1  0.48455900  0.62937100  0.17168700  1
  O  O86  1  0.33699200  0.92298500  0.15485600  1
  O  O87  1  0.22273800  0.00300900  0.93521300  1
  O  O88  1  0.21598900  0.98091900  0.75864700  1
  O  O89  1  0.34175300  0.73746000  0.65938000  1
  O  O90  1  0.21912100  0.76556300  0.43257100  1
  O  O91  1  0.21273600  0.79558100  0.25073000  1
