# generated using pymatgen
data_Li2VN2
_symmetry_space_group_name_H-M   'P 1'
_cell_length_a   3.00583507
_cell_length_b   3.00610741
_cell_length_c   5.51123968
_cell_angle_alpha   90.00189345
_cell_angle_beta   89.99433903
_cell_angle_gamma   120.00367200
_symmetry_Int_Tables_number   1
_chemical_formula_structural   Li2VN2
_chemical_formula_sum   'Li2 V1 N2'
_cell_volume   43.12543598
_cell_formula_units_Z   1
loop_
 _symmetry_equiv_pos_site_id
 _symmetry_equiv_pos_as_xyz
  1  'x, y, z'
loop_
 _atom_site_type_symbol
 _atom_site_label
 _atom_site_symmetry_multiplicity
 _atom_site_fract_x
 _atom_site_fract_y
 _atom_site_fract_z
 _atom_site_occupancy
  Li  Li0  1  0.66668311  0.33334000  0.36129652  1
  Li  Li1  1  0.33331689  0.66666000  0.63870348  1
  V  V2  1  -0.00000000  0.00000000  0.00000000  1
  N  N3  1  0.66669709  0.33335987  0.79245466  1
  N  N4  1  0.33330291  0.66664013  0.20754534  1
