# generated using pymatgen
data_LiGa3P2O11F3
_symmetry_space_group_name_H-M   'P 1'
_cell_length_a   8.44882000
_cell_length_b   7.35877600
_cell_length_c   8.54296778
_cell_angle_alpha   77.33176068
_cell_angle_beta   90.00000000
_cell_angle_gamma   90.00000000
_symmetry_Int_Tables_number   1
_chemical_formula_structural   LiGa3P2O11F3
_chemical_formula_sum   'Li2 Ga6 P4 O22 F6'
_cell_volume   518.21173699
_cell_formula_units_Z   2
loop_
 _symmetry_equiv_pos_site_id
 _symmetry_equiv_pos_as_xyz
  1  'x, y, z'
loop_
 _atom_site_type_symbol
 _atom_site_label
 _atom_site_symmetry_multiplicity
 _atom_site_fract_x
 _atom_site_fract_y
 _atom_site_fract_z
 _atom_site_occupancy
  Li  Li0  1  0.58372600  0.49247400  0.65904700  1
  Li  Li1  1  0.08372600  0.50752600  0.34095300  1
  Ga  Ga2  1  0.48972100  0.74046700  0.99911400  1
  Ga  Ga3  1  0.98972100  0.25953300  0.00088600  1
  Ga  Ga4  1  0.24709100  0.83395000  0.64730000  1
  Ga  Ga5  1  0.74709100  0.16605000  0.35270000  1
  Ga  Ga6  1  0.75289000  0.67592700  0.34555100  1
  Ga  Ga7  1  0.25289000  0.32407300  0.65444900  1
  P  P8  1  0.05769400  0.93893900  0.31913400  1
  P  P9  1  0.55769400  0.06106100  0.68086600  1
  P  P10  1  0.94236100  0.55600300  0.67771800  1
  P  P11  1  0.44236100  0.44399700  0.32228200  1
  O  O12  1  0.61149300  0.94450600  0.84985200  1
  O  O13  1  0.11149300  0.05549400  0.15014800  1
  O  O14  1  0.38339200  0.56702900  0.16369400  1
  O  O15  1  0.88339200  0.43297100  0.83630600  1
  O  O16  1  0.20756100  0.87396300  0.41675400  1
  O  O17  1  0.70756100  0.12603700  0.58324600  1
  O  O18  1  0.79111900  0.62269000  0.57932300  1
  O  O19  1  0.29111900  0.37731000  0.42067700  1
  O  O20  1  0.04046900  0.72194800  0.70681900  1
  O  O21  1  0.54046900  0.27805200  0.29318100  1
  O  O22  1  0.96934300  0.76135200  0.29228800  1
  O  O23  1  0.46934300  0.23864800  0.70771200  1
  O  O24  1  0.44718500  0.97872300  0.06980600  1
  O  O25  1  0.94718500  0.02127700  0.93019400  1
  O  O26  1  0.54480300  0.57481000  0.85718400  1
  O  O27  1  0.04480300  0.42519000  0.14281600  1
  O  O28  1  0.45310700  0.94091500  0.59795500  1
  O  O29  1  0.95310700  0.05908500  0.40204500  1
  O  O30  1  0.54677400  0.55672100  0.41915900  1
  O  O31  1  0.04677400  0.44327900  0.58084100  1
  O  O32  1  0.34183400  0.57876100  0.67258200  1
  O  O33  1  0.84183400  0.42123900  0.32741800  1
  F  F34  1  0.29201200  0.80063800  0.88173700  1
  F  F35  1  0.79201200  0.19936200  0.11826300  1
  F  F36  1  0.68915600  0.70364900  0.12186000  1
  F  F37  1  0.18915600  0.29635100  0.87814000  1
  F  F38  1  0.66556900  0.91978200  0.33570800  1
  F  F39  1  0.16556900  0.08021800  0.66429200  1
