# generated using pymatgen
data_Li8CaSn7
_symmetry_space_group_name_H-M   'P 1'
_cell_length_a   13.64320221
_cell_length_b   13.64320221
_cell_length_c   11.56206400
_cell_angle_alpha   90.00000000
_cell_angle_beta   90.00000000
_cell_angle_gamma   160.51500349
_symmetry_Int_Tables_number   1
_chemical_formula_structural   Li8CaSn7
_chemical_formula_sum   'Li16 Ca2 Sn14'
_cell_volume   717.86367155
_cell_formula_units_Z   2
loop_
 _symmetry_equiv_pos_site_id
 _symmetry_equiv_pos_as_xyz
  1  'x, y, z'
loop_
 _atom_site_type_symbol
 _atom_site_label
 _atom_site_symmetry_multiplicity
 _atom_site_fract_x
 _atom_site_fract_y
 _atom_site_fract_z
 _atom_site_occupancy
  Li  Li0  1  0.97583800  0.02416200  0.25000000  1
  Li  Li1  1  0.02416200  0.97583800  0.75000000  1
  Li  Li2  1  0.75874600  0.24125400  0.09489000  1
  Li  Li3  1  0.24125400  0.75874600  0.90511000  1
  Li  Li4  1  0.24125400  0.75874600  0.59489000  1
  Li  Li5  1  0.75874600  0.24125400  0.40511000  1
  Li  Li6  1  0.54538300  0.45461700  0.12425500  1
  Li  Li7  1  0.45461700  0.54538300  0.87574500  1
  Li  Li8  1  0.45461700  0.54538300  0.62425500  1
  Li  Li9  1  0.54538300  0.45461700  0.37574500  1
  Li  Li10  1  0.88837700  0.11162300  0.51901500  1
  Li  Li11  1  0.11162300  0.88837700  0.48098500  1
  Li  Li12  1  0.11162300  0.88837700  0.01901500  1
  Li  Li13  1  0.88837700  0.11162300  0.98098500  1
  Li  Li14  1  0.00000000  0.00000000  0.00000000  1
  Li  Li15  1  0.00000000  0.00000000  0.50000000  1
  Ca  Ca16  1  0.85823400  0.14176600  0.25000000  1
  Ca  Ca17  1  0.14176600  0.85823400  0.75000000  1
  Sn  Sn18  1  0.65486800  0.34513200  0.25000000  1
  Sn  Sn19  1  0.34513200  0.65486800  0.75000000  1
  Sn  Sn20  1  0.07878700  0.92121300  0.25000000  1
  Sn  Sn21  1  0.92121300  0.07878700  0.75000000  1
  Sn  Sn22  1  0.67071900  0.32928100  0.54725300  1
  Sn  Sn23  1  0.32928100  0.67071900  0.45274700  1
  Sn  Sn24  1  0.32928100  0.67071900  0.04725300  1
  Sn  Sn25  1  0.67071900  0.32928100  0.95274700  1
  Sn  Sn26  1  0.26236400  0.73763600  0.25000000  1
  Sn  Sn27  1  0.73763600  0.26236400  0.75000000  1
  Sn  Sn28  1  0.43425100  0.56574900  0.12178600  1
  Sn  Sn29  1  0.56574900  0.43425100  0.87821400  1
  Sn  Sn30  1  0.56574900  0.43425100  0.62178600  1
  Sn  Sn31  1  0.43425100  0.56574900  0.37821400  1
