# generated using pymatgen
data_LiV3O3F7
_symmetry_space_group_name_H-M   'P 1'
_cell_length_a   7.42417800
_cell_length_b   7.42811544
_cell_length_c   8.43468724
_cell_angle_alpha   77.73533930
_cell_angle_beta   116.05515806
_cell_angle_gamma   119.35842540
_symmetry_Int_Tables_number   1
_chemical_formula_structural   LiV3O3F7
_chemical_formula_sum   'Li2 V6 O6 F14'
_cell_volume   364.20942331
_cell_formula_units_Z   2
loop_
 _symmetry_equiv_pos_site_id
 _symmetry_equiv_pos_as_xyz
  1  'x, y, z'
loop_
 _atom_site_type_symbol
 _atom_site_label
 _atom_site_symmetry_multiplicity
 _atom_site_fract_x
 _atom_site_fract_y
 _atom_site_fract_z
 _atom_site_occupancy
  Li  Li0  1  0.82862300  0.51482200  0.50016100  1
  Li  Li1  1  0.06304100  0.00115200  0.99972300  1
  V  V2  1  0.26179600  0.00701400  0.48456200  1
  V  V3  1  0.97790900  0.50199400  0.98357800  1
  V  V4  1  0.25084500  0.48174300  0.50132300  1
  V  V5  1  0.50831000  0.48122800  0.01639200  1
  V  V6  1  0.76806200  0.99197000  0.51590200  1
  V  V7  1  0.51452000  0.02046300  0.99978000  1
  O  O8  1  0.95242600  0.93234600  0.50302300  1
  O  O9  1  0.75619500  0.57002300  0.00166600  1
  O  O10  1  0.30392500  0.28803800  0.49879400  1
  O  O11  1  0.76249800  0.20975700  0.99538800  1
  O  O12  1  0.40742000  0.21786400  0.00326500  1
  O  O13  1  0.51678200  0.06674600  0.49677100  1
  F  F14  1  0.34971000  0.98333600  0.74646300  1
  F  F15  1  0.09919200  0.99332900  0.23843600  1
  F  F16  1  0.18878200  0.80686200  0.99666000  1
  F  F17  1  0.55065100  0.77677500  0.00638800  1
  F  F18  1  0.53744700  0.70510500  0.51176700  1
  F  F19  1  0.14247700  0.69660000  0.49123500  1
  F  F20  1  0.86293900  0.50664000  0.73534300  1
  F  F21  1  0.12063700  0.51014800  0.24696900  1
  F  F22  1  0.35905000  0.50947900  0.75487500  1
  F  F23  1  0.61408100  0.50196900  0.25879700  1
  F  F24  1  0.20310700  0.41954300  0.99852200  1
  F  F25  1  0.94220600  0.30120000  0.49928100  1
  F  F26  1  0.86606000  0.00898600  0.76145900  1
  F  F27  1  0.60498700  0.99486900  0.25347600  1
