# generated using pymatgen
data_Li9Mn2Co5O16
_symmetry_space_group_name_H-M   'P 1'
_cell_length_a   2.91127400
_cell_length_b   6.61929733
_cell_length_c   15.40781884
_cell_angle_alpha   91.86768604
_cell_angle_beta   92.17857476
_cell_angle_gamma   102.53041973
_symmetry_Int_Tables_number   1
_chemical_formula_structural   Li9Mn2Co5O16
_chemical_formula_sum   'Li9 Mn2 Co5 O16'
_cell_volume   289.38199672
_cell_formula_units_Z   1
loop_
 _symmetry_equiv_pos_site_id
 _symmetry_equiv_pos_as_xyz
  1  'x, y, z'
loop_
 _atom_site_type_symbol
 _atom_site_label
 _atom_site_symmetry_multiplicity
 _atom_site_fract_x
 _atom_site_fract_y
 _atom_site_fract_z
 _atom_site_occupancy
  Li  Li0  1  0.56438100  0.62268700  0.68591400  1
  Li  Li1  1  0.81286600  0.12540000  0.43718700  1
  Li  Li2  1  0.07086000  0.62111600  0.18226100  1
  Li  Li3  1  0.18713400  0.87460000  0.56281300  1
  Li  Li4  1  0.43561900  0.37731300  0.31408600  1
  Li  Li5  1  0.67339800  0.85881500  0.06357500  1
  Li  Li6  1  0.32660200  0.14118500  0.93642500  1
  Li  Li7  1  0.92914000  0.37888400  0.81773900  1
  Li  Li8  1  0.00000000  0.50000000  0.00000000  1
  Mn  Mn9  1  0.61252100  0.73750400  0.87835100  1
  Mn  Mn10  1  0.38747900  0.26249600  0.12164900  1
  Co  Co11  1  0.87326200  0.24977600  0.62489800  1
  Co  Co12  1  0.12673800  0.75022400  0.37510200  1
  Co  Co13  1  0.50000000  0.50000000  0.50000000  1
  Co  Co14  1  0.75895500  0.99806600  0.24915800  1
  Co  Co15  1  0.24104500  0.00193400  0.75084200  1
  O  O16  1  0.08012300  0.69967200  0.79088100  1
  O  O17  1  0.36594500  0.19657200  0.53595700  1
  O  O18  1  0.61563400  0.69687900  0.28789900  1
  O  O19  1  0.73094400  0.94476400  0.66242400  1
  O  O20  1  0.98356900  0.44538000  0.41129500  1
  O  O21  1  0.25262700  0.95471600  0.16056600  1
  O  O22  1  0.83945900  0.19164100  0.04257800  1
  O  O23  1  0.48132000  0.46216300  0.90190100  1
  O  O24  1  0.01643100  0.55462000  0.58870500  1
  O  O25  1  0.26905600  0.05523600  0.33757600  1
  O  O26  1  0.51868000  0.53783700  0.09809900  1
  O  O27  1  0.63405500  0.80342800  0.46404300  1
  O  O28  1  0.91987700  0.30032800  0.20911900  1
  O  O29  1  0.16054100  0.80835900  0.95742200  1
  O  O30  1  0.74737300  0.04528400  0.83943400  1
  O  O31  1  0.38436600  0.30312100  0.71210100  1
