# generated using pymatgen
data_Li4Mn3CoO8
_symmetry_space_group_name_H-M   'P 1'
_cell_length_a   2.99324126
_cell_length_b   2.99324247
_cell_length_c   19.58848699
_cell_angle_alpha   85.61815963
_cell_angle_beta   90.00000003
_cell_angle_gamma   120.00000102
_symmetry_Int_Tables_number   1
_chemical_formula_structural   Li4Mn3CoO8
_chemical_formula_sum   'Li4 Mn3 Co1 O8'
_cell_volume   151.39740242
_cell_formula_units_Z   1
loop_
 _symmetry_equiv_pos_site_id
 _symmetry_equiv_pos_as_xyz
  1  'x, y, z'
loop_
 _atom_site_type_symbol
 _atom_site_label
 _atom_site_symmetry_multiplicity
 _atom_site_fract_x
 _atom_site_fract_y
 _atom_site_fract_z
 _atom_site_occupancy
  Li  Li0  1  0.87517102  0.75034205  0.37448693  1
  Li  Li1  1  0.12482898  0.24965795  0.62551307  1
  Li  Li2  1  0.37291986  0.74583971  0.88124043  1
  Li  Li3  1  0.62708014  0.25416029  0.11875957  1
  Mn  Mn4  1  0.25045511  0.50091022  0.24863468  1
  Mn  Mn5  1  0.50000000  -0.00000000  0.50000000  1
  Mn  Mn6  1  0.74954489  0.49908978  0.75136532  1
  Co  Co7  1  -0.00000000  -0.00000000  0.00000000  1
  O  O8  1  0.81414951  0.62829903  0.55755146  1
  O  O9  1  0.06425190  0.12850381  0.80724429  1
  O  O10  1  0.31478166  0.62956333  0.05565501  1
  O  O11  1  0.56459568  0.12919135  0.30621297  1
  O  O12  1  0.93574810  0.87149619  0.19275571  1
  O  O13  1  0.18585049  0.37170097  0.44244854  1
  O  O14  1  0.43540432  0.87080865  0.69378703  1
  O  O15  1  0.68521834  0.37043667  0.94434499  1
