# generated using pymatgen
data_Sr2LiSiN3
_symmetry_space_group_name_H-M   'P 1'
_cell_length_a   7.58826636
_cell_length_b   7.58826636
_cell_length_c   9.45411728
_cell_angle_alpha   66.42179865
_cell_angle_beta   66.42179865
_cell_angle_gamma   89.64604090
_symmetry_Int_Tables_number   1
_chemical_formula_structural   Sr2LiSiN3
_chemical_formula_sum   'Sr8 Li4 Si4 N12'
_cell_volume   449.55062277
_cell_formula_units_Z   4
loop_
 _symmetry_equiv_pos_site_id
 _symmetry_equiv_pos_as_xyz
  1  'x, y, z'
loop_
 _atom_site_type_symbol
 _atom_site_label
 _atom_site_symmetry_multiplicity
 _atom_site_fract_x
 _atom_site_fract_y
 _atom_site_fract_z
 _atom_site_occupancy
  Sr  Sr0  1  0.34702200  0.58817300  0.78639800  1
  Sr  Sr1  1  0.84549000  0.57590600  0.82125700  1
  Sr  Sr2  1  0.42409400  0.15451000  0.17874300  1
  Sr  Sr3  1  0.41182700  0.65297800  0.21360200  1
  Sr  Sr4  1  0.31783100  0.08898200  0.85239800  1
  Sr  Sr5  1  0.83173100  0.09572700  0.84331900  1
  Sr  Sr6  1  0.90427300  0.16826900  0.15668100  1
  Sr  Sr7  1  0.91101800  0.68216900  0.14760200  1
  Li  Li8  1  0.71105100  0.48044700  0.58889100  1
  Li  Li9  1  0.72696800  0.95304300  0.54681300  1
  Li  Li10  1  0.51955300  0.28894900  0.41110900  1
  Li  Li11  1  0.04695700  0.27303200  0.45318700  1
  Si  Si12  1  0.19994000  0.42590200  0.59673800  1
  Si  Si13  1  0.20153700  0.97604300  0.60103600  1
  Si  Si14  1  0.57409800  0.80006000  0.40326200  1
  Si  Si15  1  0.02395700  0.79846300  0.39896400  1
  N  N16  1  0.43653800  0.56346200  0.50000000  1
  N  N17  1  0.04672100  0.95327900  0.50000000  1
  N  N18  1  0.05622500  0.55115000  0.49303900  1
  N  N19  1  0.44885000  0.94377500  0.50696100  1
  N  N20  1  0.22764800  0.22561800  0.55080200  1
  N  N21  1  0.77438200  0.77235200  0.44919800  1
  N  N22  1  0.08941900  0.34353400  0.82066200  1
  N  N23  1  0.09104500  0.83204500  0.82199300  1
  N  N24  1  0.65646600  0.91058100  0.17933800  1
  N  N25  1  0.16795500  0.90895500  0.17800700  1
  N  N26  1  0.57401600  0.31261500  0.84697400  1
  N  N27  1  0.68738500  0.42598400  0.15302600  1
