# generated using pymatgen
data_LiMn2(PO4)2
_symmetry_space_group_name_H-M   'P 1'
_cell_length_a   9.09333500
_cell_length_b   9.13182769
_cell_length_c   12.18684115
_cell_angle_alpha   109.59581376
_cell_angle_beta   109.57342220
_cell_angle_gamma   85.61811653
_symmetry_Int_Tables_number   1
_chemical_formula_structural   LiMn2(PO4)2
_chemical_formula_sum   'Li6 Mn12 P12 O48'
_cell_volume   897.53882746
_cell_formula_units_Z   6
loop_
 _symmetry_equiv_pos_site_id
 _symmetry_equiv_pos_as_xyz
  1  'x, y, z'
loop_
 _atom_site_type_symbol
 _atom_site_label
 _atom_site_symmetry_multiplicity
 _atom_site_fract_x
 _atom_site_fract_y
 _atom_site_fract_z
 _atom_site_occupancy
  Li  Li0  1  0.50000000  0.50000000  0.00000000  1
  Li  Li1  1  0.35214200  0.37456800  0.35930300  1
  Li  Li2  1  0.74898100  0.74892500  0.24824700  1
  Li  Li3  1  0.00000000  0.00000000  0.50000000  1
  Li  Li4  1  0.25101900  0.25107500  0.75175300  1
  Li  Li5  1  0.64785800  0.62543200  0.64069700  1
  Mn  Mn6  1  0.47460400  0.15962600  0.09593600  1
  Mn  Mn7  1  0.01599100  0.33593800  0.40129300  1
  Mn  Mn8  1  0.08561200  0.77177100  0.15221800  1
  Mn  Mn9  1  0.85863800  0.38648300  0.12407800  1
  Mn  Mn10  1  0.64340800  0.10280200  0.37537100  1
  Mn  Mn11  1  0.41484400  0.73042300  0.34788500  1
  Mn  Mn12  1  0.58515600  0.26957700  0.65211500  1
  Mn  Mn13  1  0.35659200  0.89719800  0.62462900  1
  Mn  Mn14  1  0.14136200  0.61351700  0.87592200  1
  Mn  Mn15  1  0.98400900  0.66406200  0.59870700  1
  Mn  Mn16  1  0.91438800  0.22822900  0.84778200  1
  Mn  Mn17  1  0.52539600  0.84037400  0.90406400  1
  P  P18  1  0.20718400  0.42785600  0.07801800  1
  P  P19  1  0.82783000  0.03860000  0.17418900  1
  P  P20  1  0.28947900  0.08224800  0.42028600  1
  P  P21  1  0.41528800  0.83456800  0.12223300  1
  P  P22  1  0.08300900  0.66466700  0.37509200  1
  P  P23  1  0.67312000  0.45166500  0.32955700  1
  P  P24  1  0.32688000  0.54833500  0.67044300  1
  P  P25  1  0.91699100  0.33533300  0.62490800  1
  P  P26  1  0.58471200  0.16543200  0.87776700  1
  P  P27  1  0.71052100  0.91775200  0.57971400  1
  P  P28  1  0.17217000  0.96140000  0.82581100  1
  P  P29  1  0.79281600  0.57214400  0.92198200  1
  O  O30  1  0.03559000  0.36611000  0.03462700  1
  O  O31  1  0.66611400  0.02102900  0.06830400  1
  O  O32  1  0.45069500  0.01380700  0.18183200  1
  O  O33  1  0.31863600  0.32516800  0.14552900  1
  O  O34  1  0.19554400  0.21635500  0.37650800  1
  O  O35  1  0.23707900  0.79665700  0.06361400  1
  O  O36  1  0.05012300  0.48453000  0.31636500  1
  O  O37  1  0.21982700  0.59472100  0.17962700  1
  O  O38  1  0.48750200  0.74937100  0.01803200  1
  O  O39  1  0.99655100  0.73485800  0.27154000  1
  O  O40  1  0.74782800  0.55547400  0.02842000  1
  O  O41  1  0.80669900  0.99685800  0.28070600  1
  O  O42  1  0.24765800  0.06150100  0.52671000  1
  O  O43  1  0.61448500  0.27936300  0.28660500  1
  O  O44  1  0.88563400  0.21127000  0.21663200  1
  O  O45  1  0.46335200  0.13750700  0.45996200  1
  O  O46  1  0.69159900  0.49870600  0.22486800  1
  O  O47  1  0.50462400  0.76406100  0.22409800  1
  O  O48  1  0.00888700  0.75077100  0.47715300  1
  O  O49  1  0.15864700  0.53156800  0.56891500  1
  O  O50  1  0.26279000  0.92543200  0.31324900  1
  O  O51  1  0.26132100  0.69825500  0.43454000  1
  O  O52  1  0.56016500  0.55126300  0.39269200  1
  O  O53  1  0.05604200  0.06858200  0.87987500  1
  O  O54  1  0.94395800  0.93141800  0.12012500  1
  O  O55  1  0.43983500  0.44873700  0.60730800  1
  O  O56  1  0.73867900  0.30174500  0.56546000  1
  O  O57  1  0.84135300  0.46843200  0.43108500  1
  O  O58  1  0.73721000  0.07456800  0.68675100  1
  O  O59  1  0.99111300  0.24922900  0.52284700  1
  O  O60  1  0.49537600  0.23593900  0.77590200  1
  O  O61  1  0.30840100  0.50129400  0.77513200  1
  O  O62  1  0.53664800  0.86249300  0.54003800  1
  O  O63  1  0.11436600  0.78873000  0.78336800  1
  O  O64  1  0.38551500  0.72063700  0.71339500  1
  O  O65  1  0.75234200  0.93849900  0.47329000  1
  O  O66  1  0.19330100  0.00314200  0.71929400  1
  O  O67  1  0.25217200  0.44452600  0.97158000  1
  O  O68  1  0.00344900  0.26514200  0.72846000  1
  O  O69  1  0.51249800  0.25062900  0.98196800  1
  O  O70  1  0.78017300  0.40527900  0.82037300  1
  O  O71  1  0.94987700  0.51547000  0.68363500  1
  O  O72  1  0.76292100  0.20334300  0.93638600  1
  O  O73  1  0.80445600  0.78364500  0.62349200  1
  O  O74  1  0.68136400  0.67483200  0.85447100  1
  O  O75  1  0.54930500  0.98619300  0.81816800  1
  O  O76  1  0.33388600  0.97897100  0.93169600  1
  O  O77  1  0.96441000  0.63389000  0.96537300  1
