# generated using pymatgen
data_Li9Mn2Co5O16
_symmetry_space_group_name_H-M   'P 1'
_cell_length_a   5.16804700
_cell_length_b   7.72031333
_cell_length_c   7.73081855
_cell_angle_alpha   95.43603564
_cell_angle_beta   96.44076544
_cell_angle_gamma   108.56856523
_symmetry_Int_Tables_number   1
_chemical_formula_structural   Li9Mn2Co5O16
_chemical_formula_sum   'Li9 Mn2 Co5 O16'
_cell_volume   287.74907988
_cell_formula_units_Z   1
loop_
 _symmetry_equiv_pos_site_id
 _symmetry_equiv_pos_as_xyz
  1  'x, y, z'
loop_
 _atom_site_type_symbol
 _atom_site_label
 _atom_site_symmetry_multiplicity
 _atom_site_fract_x
 _atom_site_fract_y
 _atom_site_fract_z
 _atom_site_occupancy
  Li  Li0  1  0.43857400  0.93373900  0.80976600  1
  Li  Li1  1  0.06320400  0.56491300  0.68666600  1
  Li  Li2  1  0.68641100  0.18507500  0.56074900  1
  Li  Li3  1  0.31390300  0.81319600  0.43274500  1
  Li  Li4  1  0.93848700  0.44698800  0.31659700  1
  Li  Li5  1  0.56172700  0.05438200  0.19605800  1
  Li  Li6  1  0.18910800  0.69008300  0.06724100  1
  Li  Li7  1  0.81156400  0.31388700  0.93404200  1
  Li  Li8  1  0.74961900  0.75117400  0.25110700  1
  Mn  Mn9  1  0.99980700  0.99508900  0.99949300  1
  Mn  Mn10  1  0.37341700  0.37768900  0.12452300  1
  Co  Co11  1  0.62724000  0.62522800  0.87674300  1
  Co  Co12  1  0.24715300  0.24845300  0.74642200  1
  Co  Co13  1  0.87285500  0.86845500  0.61485500  1
  Co  Co14  1  0.50044400  0.50385200  0.49672100  1
  Co  Co15  1  0.11109100  0.11770600  0.37400600  1
  O  O16  1  0.86183900  0.08161800  0.78887900  1
  O  O17  1  0.49090900  0.71048800  0.66612300  1
  O  O18  1  0.10929900  0.33836100  0.52853600  1
  O  O19  1  0.73587700  0.97491300  0.41392400  1
  O  O20  1  0.34128200  0.57709400  0.27795700  1
  O  O21  1  0.99239600  0.21464000  0.14895100  1
  O  O22  1  0.63292800  0.84572300  0.02055000  1
  O  O23  1  0.21692600  0.45164000  0.91288300  1
  O  O24  1  0.03734200  0.79457500  0.85403700  1
  O  O25  1  0.63468400  0.41468900  0.72042700  1
  O  O26  1  0.27384200  0.04136200  0.59708900  1
  O  O27  1  0.90277600  0.66423600  0.48078700  1
  O  O28  1  0.52264300  0.29681500  0.33196100  1
  O  O29  1  0.15336400  0.92396200  0.21343300  1
  O  O30  1  0.73186500  0.52189300  0.08157100  1
  O  O31  1  0.37742600  0.15808900  0.97516500  1
