# generated using pymatgen
data_Li2Ti2Mn3O10
_symmetry_space_group_name_H-M   'P 1'
_cell_length_a   6.64750649
_cell_length_b   7.75870490
_cell_length_c   8.26056282
_cell_angle_alpha   100.25626442
_cell_angle_beta   114.24715611
_cell_angle_gamma   90.74561316
_symmetry_Int_Tables_number   1
_chemical_formula_structural   Li2Ti2Mn3O10
_chemical_formula_sum   'Li4 Ti4 Mn6 O20'
_cell_volume   380.48956957
_cell_formula_units_Z   2
loop_
 _symmetry_equiv_pos_site_id
 _symmetry_equiv_pos_as_xyz
  1  'x, y, z'
loop_
 _atom_site_type_symbol
 _atom_site_label
 _atom_site_symmetry_multiplicity
 _atom_site_fract_x
 _atom_site_fract_y
 _atom_site_fract_z
 _atom_site_occupancy
  Li  Li0  1  0.57060300  0.35504000  0.39006700  1
  Li  Li1  1  0.08463400  0.83283400  0.41656600  1
  Li  Li2  1  0.42933200  0.64511100  0.60985700  1
  Li  Li3  1  0.91532600  0.16729400  0.58346800  1
  Ti  Ti4  1  0.41446600  0.27239500  0.68779600  1
  Ti  Ti5  1  0.91076000  0.78272200  0.67330900  1
  Ti  Ti6  1  0.58550700  0.72763900  0.31213400  1
  Ti  Ti7  1  0.08922600  0.21732500  0.32664000  1
  Mn  Mn8  1  0.74456100  0.74986600  0.99368000  1
  Mn  Mn9  1  0.79324400  0.09294000  0.90500000  1
  Mn  Mn10  1  0.71799700  0.40708600  0.11465500  1
  Mn  Mn11  1  0.25573000  0.24998600  0.00644300  1
  Mn  Mn12  1  0.28180600  0.59285300  0.88522500  1
  Mn  Mn13  1  0.20675700  0.90706000  0.09504600  1
  O  O14  1  0.06228000  0.02242200  0.87369100  1
  O  O15  1  0.54335600  0.53442800  0.84850300  1
  O  O16  1  0.93771800  0.97753500  0.12632400  1
  O  O17  1  0.45664800  0.46552700  0.15146500  1
  O  O18  1  0.54885300  0.18806300  0.93988100  1
  O  O19  1  0.03445400  0.69307700  0.92359700  1
  O  O20  1  0.45118100  0.81191600  0.06012400  1
  O  O21  1  0.96557600  0.30688900  0.07640800  1
  O  O22  1  0.19870000  0.09401800  0.52062200  1
  O  O23  1  0.67531800  0.61182600  0.51079400  1
  O  O24  1  0.80126300  0.90603800  0.47933100  1
  O  O25  1  0.32463400  0.38824300  0.48916900  1
  O  O26  1  0.33271200  0.14036900  0.21405000  1
  O  O27  1  0.82086400  0.65634200  0.21064700  1
  O  O28  1  0.66737300  0.85954200  0.78605000  1
  O  O29  1  0.17922600  0.34356500  0.78944500  1
  O  O30  1  0.68475000  0.19465300  0.69882300  1
  O  O31  1  0.15124800  0.71284200  0.64663800  1
  O  O32  1  0.31520800  0.80531200  0.30117600  1
  O  O33  1  0.84869000  0.28723900  0.35337400  1
