# generated using pymatgen
data_Na2Li2NiP6(H4O5)6
_symmetry_space_group_name_H-M   'P 1'
_cell_length_a   10.41333297
_cell_length_b   10.41333297
_cell_length_c   15.05093889
_cell_angle_alpha   71.00735166
_cell_angle_beta   71.00735166
_cell_angle_gamma   60.03328817
_symmetry_Int_Tables_number   1
_chemical_formula_structural   Na2Li2NiP6(H4O5)6
_chemical_formula_sum   'Na4 Li4 Ni2 P12 H48 O60'
_cell_volume   1310.23161535
_cell_formula_units_Z   2
loop_
 _symmetry_equiv_pos_site_id
 _symmetry_equiv_pos_as_xyz
  1  'x, y, z'
loop_
 _atom_site_type_symbol
 _atom_site_label
 _atom_site_symmetry_multiplicity
 _atom_site_fract_x
 _atom_site_fract_y
 _atom_site_fract_z
 _atom_site_occupancy
  Na  Na0  1  0.35969200  0.86615500  0.90538900  1
  Na  Na1  1  0.13384500  0.64030800  0.59461100  1
  Na  Na2  1  0.64030900  0.13384500  0.09461100  1
  Na  Na3  1  0.86615500  0.35969100  0.40538900  1
  Li  Li4  1  0.22847900  0.24765500  0.75256100  1
  Li  Li5  1  0.75234500  0.77152100  0.74743900  1
  Li  Li6  1  0.77152100  0.75234500  0.24743900  1
  Li  Li7  1  0.24765500  0.22847900  0.25256100  1
  Ni  Ni8  1  0.74177900  0.25822100  0.75000000  1
  Ni  Ni9  1  0.25822100  0.74177900  0.25000000  1
  P  P10  1  0.78522900  0.90211400  0.53609300  1
  P  P11  1  0.09788600  0.21477100  0.96390700  1
  P  P12  1  0.21477100  0.09788600  0.46390700  1
  P  P13  1  0.90211400  0.78522900  0.03609300  1
  P  P14  1  0.26746000  0.29544600  0.53909500  1
  P  P15  1  0.70455400  0.73254000  0.96090500  1
  P  P16  1  0.73254000  0.70455400  0.46090500  1
  P  P17  1  0.29544600  0.26746000  0.03909500  1
  P  P18  1  0.58843700  0.22527300  0.46470700  1
  P  P19  1  0.77472700  0.41156300  0.03529300  1
  P  P20  1  0.41156300  0.77472700  0.53529300  1
  P  P21  1  0.22527300  0.58843700  0.96470700  1
  H  H22  1  0.38855900  0.39610500  0.70010200  1
  H  H23  1  0.60389500  0.61144100  0.79989800  1
  H  H24  1  0.61144100  0.60389500  0.29989800  1
  H  H25  1  0.39610500  0.38855900  0.20010200  1
  H  H26  1  0.26168200  0.46378200  0.78203600  1
  H  H27  1  0.53621800  0.73831800  0.71796400  1
  H  H28  1  0.73831800  0.53621800  0.21796400  1
  H  H29  1  0.46378200  0.26168200  0.28203600  1
  H  H30  1  0.48448900  0.10329400  0.79955600  1
  H  H31  1  0.89670600  0.51551100  0.70044400  1
  H  H32  1  0.51551100  0.89670600  0.20044400  1
  H  H33  1  0.10329400  0.48448900  0.29955600  1
  H  H34  1  0.49047600  0.03205800  0.72220200  1
  H  H35  1  0.96794200  0.50952400  0.77779800  1
  H  H36  1  0.50952400  0.96794200  0.27779800  1
  H  H37  1  0.03205800  0.49047600  0.22220200  1
  H  H38  1  0.19150100  0.84639900  0.80467400  1
  H  H39  1  0.15360100  0.80849900  0.69532600  1
  H  H40  1  0.80849900  0.15360100  0.19532600  1
  H  H41  1  0.84639900  0.19150100  0.30467400  1
  H  H42  1  0.27484200  0.92252800  0.71688900  1
  H  H43  1  0.07747200  0.72515800  0.78311100  1
  H  H44  1  0.72515800  0.07747200  0.28311100  1
  H  H45  1  0.92252800  0.27484200  0.21688900  1
  H  H46  1  0.50264100  0.45473800  0.85219300  1
  H  H47  1  0.54526200  0.49735900  0.64780700  1
  H  H48  1  0.49735900  0.54526200  0.14780700  1
  H  H49  1  0.45473800  0.50264100  0.35219300  1
  H  H50  1  0.64925500  0.38606100  0.89890600  1
  H  H51  1  0.61393900  0.35074500  0.60109400  1
  H  H52  1  0.35074500  0.61393900  0.10109400  1
  H  H53  1  0.38606100  0.64925500  0.39890600  1
  H  H54  1  0.98187400  0.31290900  0.65234200  1
  H  H55  1  0.68709100  0.01812600  0.84765800  1
  H  H56  1  0.01812600  0.68709100  0.34765800  1
  H  H57  1  0.31290900  0.98187400  0.15234200  1
  H  H58  1  0.84060700  0.43661200  0.60290500  1
  H  H59  1  0.56338800  0.15939300  0.89709500  1
  H  H60  1  0.15939300  0.56338800  0.39709500  1
  H  H61  1  0.43661200  0.84060700  0.10290500  1
  H  H62  1  0.95149200  0.18935300  0.84728300  1
  H  H63  1  0.81064700  0.04850800  0.65271700  1
  H  H64  1  0.04850800  0.81064700  0.15271700  1
  H  H65  1  0.18935300  0.95149200  0.34728300  1
  H  H66  1  0.88474900  0.06815500  0.89348400  1
  H  H67  1  0.93184500  0.11525100  0.60651600  1
  H  H68  1  0.11525100  0.93184500  0.10651600  1
  H  H69  1  0.06815500  0.88474900  0.39348400  1
  O  O70  1  0.18609700  0.24494500  0.63588400  1
  O  O71  1  0.75505500  0.81390300  0.86411600  1
  O  O72  1  0.81390300  0.75505500  0.36411600  1
  O  O73  1  0.24494500  0.18609700  0.13588400  1
  O  O74  1  0.44407100  0.21697800  0.54724700  1
  O  O75  1  0.78302200  0.55592900  0.95275300  1
  O  O76  1  0.55592900  0.78302200  0.45275300  1
  O  O77  1  0.21697800  0.44407100  0.04724700  1
  O  O78  1  0.28049100  0.41988000  0.72752400  1
  O  O79  1  0.58012000  0.71950900  0.77247600  1
  O  O80  1  0.71950900  0.58012000  0.27247600  1
  O  O81  1  0.41988000  0.28049100  0.22752400  1
  O  O82  1  0.42380900  0.07193800  0.77966400  1
  O  O83  1  0.92806200  0.57619100  0.72033600  1
  O  O84  1  0.57619100  0.92806200  0.22033600  1
  O  O85  1  0.07193800  0.42380900  0.27966400  1
  O  O86  1  0.23321600  0.91897000  0.78525700  1
  O  O87  1  0.08103000  0.76678400  0.71474300  1
  O  O88  1  0.76678400  0.08103000  0.21474300  1
  O  O89  1  0.91897000  0.23321600  0.28525700  1
  O  O90  1  0.54513000  0.29923000  0.36807800  1
  O  O91  1  0.70077000  0.45487000  0.13192200  1
  O  O92  1  0.45487000  0.70077000  0.63192200  1
  O  O93  1  0.29923000  0.54513000  0.86807800  1
  O  O94  1  0.72490700  0.93907200  0.63503900  1
  O  O95  1  0.06092800  0.27509300  0.86496100  1
  O  O96  1  0.27509300  0.06092800  0.36496100  1
  O  O97  1  0.93907200  0.72490700  0.13503900  1
  O  O98  1  0.21502800  0.46176900  0.49833400  1
  O  O99  1  0.53823100  0.78497200  0.00166600  1
  O  O100  1  0.78497200  0.53823100  0.50166600  1
  O  O101  1  0.46176900  0.21502800  0.99833400  1
  O  O102  1  0.66439800  0.28329000  0.50053500  1
  O  O103  1  0.71671000  0.33560200  0.99946500  1
  O  O104  1  0.33560200  0.71671000  0.49946500  1
  O  O105  1  0.28329000  0.66439800  0.00053500  1
  O  O106  1  0.72396500  0.78405300  0.54016400  1
  O  O107  1  0.21594700  0.27603500  0.95983600  1
  O  O108  1  0.27603500  0.21594700  0.45983600  1
  O  O109  1  0.78405300  0.72396500  0.04016400  1
  O  O110  1  0.95157800  0.84032200  0.49668200  1
  O  O111  1  0.15967800  0.04842200  0.00331800  1
  O  O112  1  0.04842200  0.15967800  0.50331800  1
  O  O113  1  0.84032200  0.95157800  0.99668200  1
  O  O114  1  0.69597400  0.04722300  0.45896800  1
  O  O115  1  0.95277700  0.30402600  0.04103200  1
  O  O116  1  0.30402600  0.95277700  0.54103200  1
  O  O117  1  0.04722300  0.69597400  0.95896800  1
  O  O118  1  0.61388900  0.42250900  0.83674500  1
  O  O119  1  0.57749100  0.38611100  0.66325500  1
  O  O120  1  0.38611100  0.57749100  0.16325500  1
  O  O121  1  0.42250900  0.61388900  0.33674500  1
  O  O122  1  0.87115400  0.37866900  0.66664100  1
  O  O123  1  0.62133100  0.12884600  0.83335900  1
  O  O124  1  0.12884600  0.62133100  0.33335900  1
  O  O125  1  0.37866900  0.87115400  0.16664100  1
  O  O126  1  0.89935900  0.14198000  0.83456500  1
  O  O127  1  0.85802000  0.10064100  0.66543500  1
  O  O128  1  0.10064100  0.85802000  0.16543500  1
  O  O129  1  0.14198000  0.89935900  0.33456500  1
