# generated using pymatgen
data_Li4TiNi3O8
_symmetry_space_group_name_H-M   'P 1'
_cell_length_a   5.87056275
_cell_length_b   10.12995792
_cell_length_c   5.89255746
_cell_angle_alpha   106.66528906
_cell_angle_beta   119.57931175
_cell_angle_gamma   89.47286267
_symmetry_Int_Tables_number   1
_chemical_formula_structural   Li4TiNi3O8
_chemical_formula_sum   'Li8 Ti2 Ni6 O16'
_cell_volume   288.24382994
_cell_formula_units_Z   2
loop_
 _symmetry_equiv_pos_site_id
 _symmetry_equiv_pos_as_xyz
  1  'x, y, z'
loop_
 _atom_site_type_symbol
 _atom_site_label
 _atom_site_symmetry_multiplicity
 _atom_site_fract_x
 _atom_site_fract_y
 _atom_site_fract_z
 _atom_site_occupancy
  Li  Li0  1  0.26350700  0.74993000  0.49927300  1
  Li  Li1  1  0.73330200  0.25003600  0.49832500  1
  Li  Li2  1  0.00037800  0.00390700  0.49881500  1
  Li  Li3  1  0.49899100  0.49723500  0.50185800  1
  Li  Li4  1  0.49424800  0.99520900  0.48408300  1
  Li  Li5  1  0.01036300  0.50298800  0.51485000  1
  Li  Li6  1  0.75612600  0.74902400  0.49995800  1
  Li  Li7  1  0.25120100  0.25070000  0.50528500  1
  Ti  Ti8  1  0.52654800  0.50093700  0.02862900  1
  Ti  Ti9  1  0.97486500  0.99897600  0.97232000  1
  Ni  Ni10  1  0.75409100  0.75051300  0.99814800  1
  Ni  Ni11  1  0.24463100  0.25029600  0.00305700  1
  Ni  Ni12  1  0.00985300  0.49949100  0.00645700  1
  Ni  Ni13  1  0.25599800  0.74923600  0.00176100  1
  Ni  Ni14  1  0.74321600  0.25033400  0.99790400  1
  Ni  Ni15  1  0.48911200  0.00000200  0.99297500  1
  O  O16  1  0.91601900  0.62486500  0.79302800  1
  O  O17  1  0.37366800  0.13009600  0.78497300  1
  O  O18  1  0.11184800  0.37201200  0.21586100  1
  O  O19  1  0.59590600  0.87423000  0.20692400  1
  O  O20  1  0.64439400  0.87770400  0.75034700  1
  O  O21  1  0.14089000  0.37807100  0.78909100  1
  O  O22  1  0.33639300  0.12968600  0.22405900  1
  O  O23  1  0.87893300  0.61448400  0.23508700  1
  O  O24  1  0.84792600  0.10764200  0.21853700  1
  O  O25  1  0.39783800  0.62068100  0.24984400  1
  O  O26  1  0.13775800  0.88705000  0.76387500  1
  O  O27  1  0.61094300  0.38401500  0.76344500  1
  O  O28  1  0.37949100  0.62636400  0.78334600  1
  O  O29  1  0.86741700  0.11953300  0.75292000  1
  O  O30  1  0.62558900  0.38068100  0.24777100  1
  O  O31  1  0.12855800  0.87407000  0.21719600  1
