# generated using pymatgen
data_Li5Mn3O8
_symmetry_space_group_name_H-M   'P 1'
_cell_length_a   5.75345299
_cell_length_b   5.92376313
_cell_length_c   10.08782467
_cell_angle_alpha   91.14703996
_cell_angle_beta   73.48613385
_cell_angle_gamma   119.02282465
_symmetry_Int_Tables_number   1
_chemical_formula_structural   Li5Mn3O8
_chemical_formula_sum   'Li10 Mn6 O16'
_cell_volume   285.37522002
_cell_formula_units_Z   2
loop_
 _symmetry_equiv_pos_site_id
 _symmetry_equiv_pos_as_xyz
  1  'x, y, z'
loop_
 _atom_site_type_symbol
 _atom_site_label
 _atom_site_symmetry_multiplicity
 _atom_site_fract_x
 _atom_site_fract_y
 _atom_site_fract_z
 _atom_site_occupancy
  Li  Li0  1  0.99999700  0.24996400  0.24999000  1
  Li  Li1  1  0.99998900  0.74995400  0.74998700  1
  Li  Li2  1  0.49999500  0.25002100  0.25001000  1
  Li  Li3  1  0.49998500  0.75000700  0.75001700  1
  Li  Li4  1  0.50001000  0.99998800  0.99997400  1
  Li  Li5  1  0.50001900  0.49999700  0.49997100  1
  Li  Li6  1  0.99999800  0.25006300  0.74996300  1
  Li  Li7  1  0.99997600  0.75006200  0.24998400  1
  Li  Li8  1  0.50009600  0.25004300  0.74996600  1
  Li  Li9  1  0.50008400  0.75004300  0.24998800  1
  Mn  Mn10  1  0.00019800  0.50020800  0.49969800  1
  Mn  Mn11  1  0.99988500  0.00006900  0.50014500  1
  Mn  Mn12  1  0.49991100  0.99986600  0.50005300  1
  Mn  Mn13  1  0.00014400  0.00006900  0.00003100  1
  Mn  Mn14  1  0.99977300  0.49983100  0.00003700  1
  Mn  Mn15  1  0.50000100  0.49993200  0.00016100  1
  O  O16  1  0.75087200  0.38719100  0.88557100  1
  O  O17  1  0.75076300  0.88719900  0.38559200  1
  O  O18  1  0.24909300  0.61275000  0.11446200  1
  O  O19  1  0.24908500  0.11278100  0.61446700  1
  O  O20  1  0.26093200  0.40153600  0.88018000  1
  O  O21  1  0.26090600  0.90156900  0.38015700  1
  O  O22  1  0.73909600  0.59852200  0.11990100  1
  O  O23  1  0.73909200  0.09854500  0.61987900  1
  O  O24  1  0.73722500  0.84670000  0.89315200  1
  O  O25  1  0.73721700  0.34676000  0.39304100  1
  O  O26  1  0.21440300  0.84624500  0.89307600  1
  O  O27  1  0.21458100  0.34632000  0.39298800  1
  O  O28  1  0.26273900  0.15314300  0.10696700  1
  O  O29  1  0.26274400  0.65321000  0.60679600  1
  O  O30  1  0.78556300  0.15368600  0.10692900  1
  O  O31  1  0.78562500  0.65372700  0.60686900  1
