# generated using pymatgen
data_Li7Mn5O12
_symmetry_space_group_name_H-M   'P 1'
_cell_length_a   5.23885057
_cell_length_b   14.95327029
_cell_length_c   5.75867300
_cell_angle_alpha   78.90055951
_cell_angle_beta   90.00001003
_cell_angle_gamma   86.98871148
_symmetry_Int_Tables_number   1
_chemical_formula_structural   Li7Mn5O12
_chemical_formula_sum   'Li14 Mn10 O24'
_cell_volume   442.04937485
_cell_formula_units_Z   2
loop_
 _symmetry_equiv_pos_site_id
 _symmetry_equiv_pos_as_xyz
  1  'x, y, z'
loop_
 _atom_site_type_symbol
 _atom_site_label
 _atom_site_symmetry_multiplicity
 _atom_site_fract_x
 _atom_site_fract_y
 _atom_site_fract_z
 _atom_site_occupancy
  Li  Li0  1  0.83341700  0.33331800  0.08318200  1
  Li  Li1  1  0.83341900  0.33332300  0.58352200  1
  Li  Li2  1  0.33340000  0.83341600  0.08329400  1
  Li  Li3  1  0.33371200  0.83341800  0.58332100  1
  Li  Li4  1  0.83336300  0.83334400  0.83325600  1
  Li  Li5  1  0.83333800  0.83333600  0.33330500  1
  Li  Li6  1  0.49687200  0.99127000  0.75415900  1
  Li  Li7  1  0.49685900  0.99127200  0.25447900  1
  Li  Li8  1  0.16973400  0.67544200  0.91240400  1
  Li  Li9  1  0.16973200  0.67545000  0.41210100  1
  Li  Li10  1  0.65597300  0.16472500  0.41764900  1
  Li  Li11  1  0.65570900  0.16488700  0.91755400  1
  Li  Li12  1  0.01082500  0.50197400  0.24900100  1
  Li  Li13  1  0.01112600  0.50176800  0.74909700  1
  Mn  Mn14  1  0.33341600  0.33335200  0.33337800  1
  Mn  Mn15  1  0.33319800  0.33329200  0.83316800  1
  Mn  Mn16  1  0.96915700  0.99131700  0.00442900  1
  Mn  Mn17  1  0.96939900  0.99132600  0.50427000  1
  Mn  Mn18  1  0.69718500  0.67534900  0.16233800  1
  Mn  Mn19  1  0.69742800  0.67534000  0.66238900  1
  Mn  Mn20  1  0.14567500  0.16291600  0.16880100  1
  Mn  Mn21  1  0.14564400  0.16290100  0.66844000  1
  Mn  Mn22  1  0.52103200  0.50372700  0.99836800  1
  Mn  Mn23  1  0.52098800  0.50376700  0.49794600  1
  O  O24  1  0.14396000  0.92473300  0.78769200  1
  O  O25  1  0.14397300  0.92472000  0.28756700  1
  O  O26  1  0.52253500  0.74194800  0.87892800  1
  O  O27  1  0.52251000  0.74196100  0.37907800  1
  O  O28  1  0.28050200  0.08354900  0.45823600  1
  O  O29  1  0.28009700  0.08386300  0.95809700  1
  O  O30  1  0.38611800  0.58307000  0.20848100  1
  O  O31  1  0.38654500  0.58276100  0.70864600  1
  O  O32  1  0.48436600  0.25663300  0.12186600  1
  O  O33  1  0.48441400  0.25660300  0.62152700  1
  O  O34  1  0.18243800  0.40997800  0.04512200  1
  O  O35  1  0.18237000  0.41000400  0.54490600  1
  O  O36  1  0.66877700  0.42646000  0.28682200  1
  O  O37  1  0.66772500  0.42590500  0.78705700  1
  O  O38  1  0.99792800  0.24015500  0.37998500  1
  O  O39  1  0.99895900  0.24071100  0.87966800  1
  O  O40  1  0.97590800  0.74356300  0.12819200  1
  O  O41  1  0.97605200  0.74352900  0.62819200  1
  O  O42  1  0.69045600  0.92315600  0.03840100  1
  O  O43  1  0.69057500  0.92312700  0.53839500  1
  O  O44  1  0.84036200  0.59595300  0.95189000  1
  O  O45  1  0.84039200  0.59594300  0.45210300  1
  O  O46  1  0.82622000  0.07072400  0.21452900  1
  O  O47  1  0.82621500  0.07071900  0.71477200  1
