# generated using pymatgen
data_Li4MnCo3O8
_symmetry_space_group_name_H-M   'P 1'
_cell_length_a   3.03833850
_cell_length_b   6.01247216
_cell_length_c   16.15164541
_cell_angle_alpha   89.02938901
_cell_angle_beta   89.40464646
_cell_angle_gamma   92.86858409
_symmetry_Int_Tables_number   1
_chemical_formula_structural   Li4MnCo3O8
_chemical_formula_sum   'Li8 Mn2 Co6 O16'
_cell_volume   294.62639259
_cell_formula_units_Z   2
loop_
 _symmetry_equiv_pos_site_id
 _symmetry_equiv_pos_as_xyz
  1  'x, y, z'
loop_
 _atom_site_type_symbol
 _atom_site_label
 _atom_site_symmetry_multiplicity
 _atom_site_fract_x
 _atom_site_fract_y
 _atom_site_fract_z
 _atom_site_occupancy
  Li  Li0  1  0.50307300  0.25000400  0.12549500  1
  Li  Li1  1  0.49685700  0.25003100  0.62454800  1
  Li  Li2  1  0.49997900  0.75021400  0.37502600  1
  Li  Li3  1  0.49990700  0.74973900  0.87502400  1
  Li  Li4  1  0.99307600  0.50068100  0.00100800  1
  Li  Li5  1  0.99862000  0.50031800  0.50184600  1
  Li  Li6  1  0.00120500  0.99971700  0.24827800  1
  Li  Li7  1  0.00694600  0.99918100  0.74889000  1
  Mn  Mn8  1  0.50030200  0.24978100  0.87494800  1
  Mn  Mn9  1  0.49976700  0.25016300  0.37500900  1
  Co  Co10  1  0.48929200  0.74634100  0.12506800  1
  Co  Co11  1  0.51055000  0.75356600  0.62495600  1
  Co  Co12  1  0.01171800  0.99721600  0.00156400  1
  Co  Co13  1  0.01965500  0.99908000  0.50059800  1
  Co  Co14  1  0.98027000  0.50108100  0.24939100  1
  Co  Co15  1  0.98826100  0.50278300  0.74841000  1
  O  O16  1  0.47375800  0.23714200  0.49608300  1
  O  O17  1  0.51883600  0.23744800  0.99466700  1
  O  O18  1  0.52590300  0.26305600  0.25398700  1
  O  O19  1  0.48181600  0.26228000  0.75521500  1
  O  O20  1  0.00118200  0.98956600  0.12033700  1
  O  O21  1  0.02478000  0.98781000  0.61863300  1
  O  O22  1  0.97503000  0.51214800  0.13134500  1
  O  O23  1  0.99880700  0.51064000  0.62968300  1
  O  O24  1  0.96009100  0.49334100  0.36837600  1
  O  O25  1  0.97482700  0.49111800  0.86820800  1
  O  O26  1  0.03945200  0.00701600  0.38167100  1
  O  O27  1  0.02618100  0.00838500  0.88171000  1
  O  O28  1  0.44439300  0.73726500  0.24468400  1
  O  O29  1  0.50652100  0.74390700  0.74429100  1
  O  O30  1  0.49347700  0.75624100  0.00572700  1
  O  O31  1  0.55546900  0.76274300  0.50532600  1
