# generated using pymatgen
data_Li3MnV(PO4)3
_symmetry_space_group_name_H-M   'P 1'
_cell_length_a   8.50427200
_cell_length_b   8.89709939
_cell_length_c   12.27748789
_cell_angle_alpha   90.60893694
_cell_angle_beta   91.92230399
_cell_angle_gamma   90.80144327
_symmetry_Int_Tables_number   1
_chemical_formula_structural   Li3MnV(PO4)3
_chemical_formula_sum   'Li12 Mn4 V4 P12 O48'
_cell_volume   928.28505435
_cell_formula_units_Z   4
loop_
 _symmetry_equiv_pos_site_id
 _symmetry_equiv_pos_as_xyz
  1  'x, y, z'
loop_
 _atom_site_type_symbol
 _atom_site_label
 _atom_site_symmetry_multiplicity
 _atom_site_fract_x
 _atom_site_fract_y
 _atom_site_fract_z
 _atom_site_occupancy
  Li  Li0  1  0.99909700  0.99874400  0.99873500  1
  Li  Li1  1  0.98651500  0.89479800  0.25196200  1
  Li  Li2  1  0.99584100  0.99871300  0.50453200  1
  Li  Li3  1  0.00476900  0.10380300  0.74508300  1
  Li  Li4  1  0.70938500  0.19214400  0.04967300  1
  Li  Li5  1  0.71498600  0.80796000  0.54719300  1
  Li  Li6  1  0.49486600  0.49578600  0.99907200  1
  Li  Li7  1  0.49696700  0.60230100  0.25144400  1
  Li  Li8  1  0.49365400  0.50452300  0.50190800  1
  Li  Li9  1  0.49665800  0.39944300  0.75427700  1
  Li  Li10  1  0.28902900  0.19442500  0.45211600  1
  Li  Li11  1  0.28376500  0.80465400  0.94215900  1
  Mn  Mn12  1  0.71051000  0.00947100  0.35747600  1
  Mn  Mn13  1  0.28905700  0.99699400  0.64147300  1
  Mn  Mn14  1  0.21076200  0.49585800  0.35341300  1
  Mn  Mn15  1  0.21130100  0.50231100  0.85341300  1
  V  V16  1  0.78481400  0.49936600  0.14427300  1
  V  V17  1  0.78712500  0.50184200  0.64410200  1
  V  V18  1  0.71546300  0.99442600  0.85748400  1
  V  V19  1  0.28232400  0.00078500  0.14201500  1
  P  P20  1  0.99498500  0.19847800  0.24922000  1
  P  P21  1  0.00126300  0.80300000  0.74936200  1
  P  P22  1  0.85195900  0.64292800  0.39536200  1
  P  P23  1  0.84621300  0.35507900  0.89450700  1
  P  P24  1  0.65024600  0.85154400  0.10421700  1
  P  P25  1  0.65033300  0.14891400  0.60216200  1
  P  P26  1  0.49393800  0.29671400  0.24871900  1
  P  P27  1  0.49772300  0.70413900  0.74825700  1
  P  P28  1  0.35552900  0.85506800  0.39904800  1
  P  P29  1  0.35331800  0.14266700  0.89610300  1
  P  P30  1  0.15709500  0.64350100  0.10473200  1
  P  P31  1  0.15528900  0.35825700  0.60543700  1
  O  O32  1  0.98959700  0.58478300  0.10774100  1
  O  O33  1  0.99185400  0.42366200  0.60800200  1
  O  O34  1  0.92049400  0.09100000  0.33585100  1
  O  O35  1  0.93052700  0.91497600  0.83417100  1
  O  O36  1  0.87274500  0.29418100  0.18811700  1
  O  O37  1  0.87356000  0.70525100  0.69043100  1
  O  O38  1  0.86838900  0.81665600  0.40975600  1
  O  O39  1  0.85338700  0.18020200  0.90923700  1
  O  O40  1  0.75581400  0.59465300  0.29140200  1
  O  O41  1  0.74832800  0.93712100  0.01866400  1
  O  O42  1  0.75161600  0.58964600  0.49200400  1
  O  O43  1  0.75239700  0.40390100  0.79178800  1
  O  O44  1  0.74971500  0.05977600  0.51834100  1
  O  O45  1  0.72863400  0.90158400  0.21474300  1
  O  O46  1  0.74910300  0.40954600  0.99263400  1
  O  O47  1  0.72149100  0.09812600  0.71250500  1
  O  O48  1  0.65374300  0.67800800  0.08944300  1
  O  O49  1  0.66057000  0.32120500  0.58684900  1
  O  O50  1  0.61144700  0.20745700  0.31644100  1
  O  O51  1  0.62136900  0.79963200  0.81108100  1
  O  O52  1  0.56596500  0.40403200  0.16321500  1
  O  O53  1  0.56811100  0.59171600  0.66461400  1
  O  O54  1  0.53329100  0.89824900  0.40981800  1
  O  O55  1  0.52625700  0.09261400  0.90857900  1
  O  O56  1  0.47449800  0.89247100  0.09494200  1
  O  O57  1  0.47209900  0.11330500  0.58857700  1
  O  O58  1  0.41805800  0.40566000  0.33506900  1
  O  O59  1  0.42349700  0.60210800  0.83884000  1
  O  O60  1  0.37739800  0.19560100  0.18495200  1
  O  O61  1  0.38142100  0.79923800  0.68510200  1
  O  O62  1  0.35529700  0.68364000  0.41261600  1
  O  O63  1  0.35997500  0.31447700  0.90957000  1
  O  O64  1  0.27688400  0.90786500  0.29134800  1
  O  O65  1  0.25316300  0.58798100  0.00600000  1
  O  O66  1  0.27475300  0.09224900  0.78466000  1
  O  O67  1  0.25794600  0.94272500  0.48566700  1
  O  O68  1  0.25402300  0.59972500  0.20774700  1
  O  O69  1  0.25798600  0.41127100  0.50986400  1
  O  O70  1  0.25128100  0.05770700  0.98024900  1
  O  O71  1  0.25172500  0.40297900  0.71099700  1
  O  O72  1  0.14610800  0.81825400  0.09009000  1
  O  O73  1  0.13592500  0.18463700  0.59058200  1
  O  O74  1  0.12339400  0.28506100  0.31439700  1
  O  O75  1  0.12733200  0.71759600  0.81286800  1
  O  O76  1  0.06231900  0.08590800  0.16373800  1
  O  O77  1  0.06574800  0.91091700  0.65984800  1
  O  O78  1  0.01918500  0.58140700  0.39367600  1
  O  O79  1  0.01680700  0.41060500  0.89424300  1
