# generated using pymatgen
data_Li2YGa
_symmetry_space_group_name_H-M   'P 1'
_cell_length_a   11.90928999
_cell_length_b   11.90928999
_cell_length_c   11.90928999
_cell_angle_alpha   121.67071170
_cell_angle_beta   119.50009336
_cell_angle_gamma   88.99947057
_symmetry_Int_Tables_number   1
_chemical_formula_structural   Li2YGa
_chemical_formula_sum   'Li2 Y1 Ga1'
_cell_volume   1183.07368662
_cell_formula_units_Z   1
loop_
 _symmetry_equiv_pos_site_id
 _symmetry_equiv_pos_as_xyz
  1  'x, y, z'
loop_
 _atom_site_type_symbol
 _atom_site_label
 _atom_site_symmetry_multiplicity
 _atom_site_fract_x
 _atom_site_fract_y
 _atom_site_fract_z
 _atom_site_occupancy
  Li  Li0  1  0.00000000  0.23364200  0.23364200  1
  Li  Li1  1  0.00000000  0.76635800  0.76635800  1
  Y  Y2  1  0.00000000  0.50000000  0.50000000  1
  Ga  Ga3  1  0.00000000  0.00000000  0.00000000  1
