# generated using pymatgen
data_Li4Mn3SbO8
_symmetry_space_group_name_H-M   'P 1'
_cell_length_a   6.09914414
_cell_length_b   6.09721732
_cell_length_c   10.77720194
_cell_angle_alpha   90.38703345
_cell_angle_beta   72.85329280
_cell_angle_gamma   62.07008207
_symmetry_Int_Tables_number   1
_chemical_formula_structural   Li4Mn3SbO8
_chemical_formula_sum   'Li8 Mn6 Sb2 O16'
_cell_volume   333.34241949
_cell_formula_units_Z   2
loop_
 _symmetry_equiv_pos_site_id
 _symmetry_equiv_pos_as_xyz
  1  'x, y, z'
loop_
 _atom_site_type_symbol
 _atom_site_label
 _atom_site_symmetry_multiplicity
 _atom_site_fract_x
 _atom_site_fract_y
 _atom_site_fract_z
 _atom_site_occupancy
  Li  Li0  1  0.50027000  0.74974600  0.24997500  1
  Li  Li1  1  0.49998300  0.25013400  0.75002800  1
  Li  Li2  1  0.52734100  0.96911200  0.98481700  1
  Li  Li3  1  0.47255600  0.53107900  0.51520600  1
  Li  Li4  1  0.99997900  0.75008200  0.75004200  1
  Li  Li5  1  0.99967200  0.25006100  0.25004500  1
  Li  Li6  1  0.01634400  0.48721200  0.01499800  1
  Li  Li7  1  0.98348200  0.01298400  0.48496700  1
  Mn  Mn8  1  0.50156500  0.49844800  0.00111100  1
  Mn  Mn9  1  0.49858200  0.00148800  0.49883100  1
  Mn  Mn10  1  0.50007000  0.75001800  0.75005200  1
  Mn  Mn11  1  0.00041700  0.74989300  0.25001400  1
  Mn  Mn12  1  0.00022500  0.24982600  0.74989300  1
  Mn  Mn13  1  0.49938800  0.24977700  0.24992200  1
  Sb  Sb14  1  0.00119200  0.49930600  0.50014300  1
  Sb  Sb15  1  0.99867700  0.00085600  0.99994900  1
  O  O16  1  0.28048700  0.86659300  0.64204400  1
  O  O17  1  0.22480000  0.42080000  0.14213300  1
  O  O18  1  0.77530000  0.07893900  0.35770100  1
  O  O19  1  0.71970100  0.63336500  0.85793000  1
  O  O20  1  0.23472600  0.65652100  0.87984500  1
  O  O21  1  0.22544600  0.15104300  0.38678400  1
  O  O22  1  0.76437200  0.87505000  0.11377800  1
  O  O23  1  0.76139000  0.37890400  0.61356700  1
  O  O24  1  0.76550100  0.11158200  0.88639800  1
  O  O25  1  0.77920100  0.61303100  0.37907000  1
  O  O26  1  0.77429800  0.34898500  0.11339400  1
  O  O27  1  0.76528000  0.84365700  0.62017100  1
  O  O28  1  0.23849500  0.12130200  0.88650700  1
  O  O29  1  0.23571200  0.62482400  0.38618500  1
  O  O30  1  0.22095000  0.88687100  0.12091500  1
  O  O31  1  0.23458900  0.38850900  0.61358400  1
