# generated using pymatgen
data_Li2VF4
_symmetry_space_group_name_H-M   'P 1'
_cell_length_a   6.36256300
_cell_length_b   10.45740700
_cell_length_c   11.44625320
_cell_angle_alpha   57.95137424
_cell_angle_beta   90.00000000
_cell_angle_gamma   90.00000000
_symmetry_Int_Tables_number   1
_chemical_formula_structural   Li2VF4
_chemical_formula_sum   'Li16 V8 F32'
_cell_volume   645.51956371
_cell_formula_units_Z   8
loop_
 _symmetry_equiv_pos_site_id
 _symmetry_equiv_pos_as_xyz
  1  'x, y, z'
loop_
 _atom_site_type_symbol
 _atom_site_label
 _atom_site_symmetry_multiplicity
 _atom_site_fract_x
 _atom_site_fract_y
 _atom_site_fract_z
 _atom_site_occupancy
  Li  Li0  1  0.46333400  0.65623100  0.92504300  1
  Li  Li1  1  0.03204000  0.84362700  0.07464600  1
  Li  Li2  1  0.96185600  0.65626300  0.92353500  1
  Li  Li3  1  0.53522000  0.84339100  0.07116500  1
  Li  Li4  1  0.03666600  0.65623100  0.42504300  1
  Li  Li5  1  0.46796000  0.84362700  0.57464600  1
  Li  Li6  1  0.53814400  0.65626300  0.42353500  1
  Li  Li7  1  0.96478000  0.84339100  0.57116500  1
  Li  Li8  1  0.03522000  0.15660900  0.42883500  1
  Li  Li9  1  0.46185600  0.34373700  0.57646500  1
  Li  Li10  1  0.53204000  0.15637300  0.42535400  1
  Li  Li11  1  0.96333400  0.34376900  0.57495700  1
  Li  Li12  1  0.46478000  0.15660900  0.92883500  1
  Li  Li13  1  0.03814400  0.34373700  0.07646500  1
  Li  Li14  1  0.96796000  0.15637300  0.92535400  1
  Li  Li15  1  0.53666600  0.34376900  0.07495700  1
  V  V16  1  0.21739600  0.99955400  0.74887900  1
  V  V17  1  0.28260400  0.99955400  0.24887900  1
  V  V18  1  0.27692500  0.50065700  0.24841900  1
  V  V19  1  0.77692500  0.49934300  0.25158100  1
  V  V20  1  0.22307500  0.50065700  0.74841900  1
  V  V21  1  0.72307500  0.49934300  0.75158100  1
  V  V22  1  0.71739600  0.00044600  0.75112100  1
  V  V23  1  0.78260400  0.00044600  0.25112100  1
  F  F24  1  0.46998800  0.99869700  0.62291000  1
  F  F25  1  0.46656300  0.00434600  0.87550900  1
  F  F26  1  0.21201500  0.76417000  0.86882600  1
  F  F27  1  0.71135100  0.76563600  0.88384900  1
  F  F28  1  0.03001200  0.99869700  0.12291000  1
  F  F29  1  0.03343700  0.00434600  0.37550900  1
  F  F30  1  0.28402900  0.73609900  0.12875400  1
  F  F31  1  0.28798500  0.76417000  0.36882600  1
  F  F32  1  0.52740000  0.49881200  0.12290200  1
  F  F33  1  0.78864900  0.76563600  0.38384900  1
  F  F34  1  0.78401000  0.73479700  0.14464200  1
  F  F35  1  0.02429900  0.50101900  0.12190600  1
  F  F36  1  0.52429900  0.49898100  0.37809400  1
  F  F37  1  0.21597100  0.73609900  0.62875400  1
  F  F38  1  0.28401000  0.26520300  0.35535800  1
  F  F39  1  0.02740000  0.50118800  0.37709800  1
  F  F40  1  0.97260000  0.49881200  0.62290200  1
  F  F41  1  0.71599000  0.73479700  0.64464200  1
  F  F42  1  0.78402900  0.26390100  0.37124600  1
  F  F43  1  0.47570100  0.50101900  0.62190600  1
  F  F44  1  0.97570100  0.49898100  0.87809400  1
  F  F45  1  0.21599000  0.26520300  0.85535800  1
  F  F46  1  0.21135100  0.23436400  0.61615100  1
  F  F47  1  0.47260000  0.50118800  0.87709800  1
  F  F48  1  0.71201500  0.23583000  0.63117400  1
  F  F49  1  0.71597100  0.26390100  0.87124600  1
  F  F50  1  0.96656300  0.99565400  0.62449100  1
  F  F51  1  0.96998800  0.00130300  0.87709000  1
  F  F52  1  0.28864900  0.23436400  0.11615100  1
  F  F53  1  0.78798500  0.23583000  0.13117400  1
  F  F54  1  0.53343700  0.99565400  0.12449100  1
  F  F55  1  0.53001200  0.00130300  0.37709000  1
