# generated using pymatgen
data_LiBeNF4
_symmetry_space_group_name_H-M   'P 1'
_cell_length_a   5.96579800
_cell_length_b   8.86848700
_cell_length_c   9.49008200
_cell_angle_alpha   90.00000000
_cell_angle_beta   90.00000000
_cell_angle_gamma   90.00000000
_symmetry_Int_Tables_number   1
_chemical_formula_structural   LiBeNF4
_chemical_formula_sum   'Li4 Be4 N4 F16'
_cell_volume   502.09748148
_cell_formula_units_Z   4
loop_
 _symmetry_equiv_pos_site_id
 _symmetry_equiv_pos_as_xyz
  1  'x, y, z'
loop_
 _atom_site_type_symbol
 _atom_site_label
 _atom_site_symmetry_multiplicity
 _atom_site_fract_x
 _atom_site_fract_y
 _atom_site_fract_z
 _atom_site_occupancy
  Li  Li0  1  0.08984900  0.84172300  0.09450400  1
  Li  Li1  1  0.58984900  0.15827700  0.90549600  1
  Li  Li2  1  0.58984900  0.65827700  0.59450400  1
  Li  Li3  1  0.08984900  0.34172300  0.40549600  1
  Be  Be4  1  0.93698100  0.68841000  0.38365600  1
  Be  Be5  1  0.43698100  0.31159000  0.61634400  1
  Be  Be6  1  0.43698100  0.81159000  0.88365600  1
  Be  Be7  1  0.93698100  0.18841000  0.11634400  1
  N  N8  1  0.53996700  0.06028300  0.33231000  1
  N  N9  1  0.03996700  0.93971700  0.66769000  1
  N  N10  1  0.03996700  0.43971700  0.83231000  1
  N  N11  1  0.53996700  0.56028300  0.16769000  1
  F  F12  1  0.00016400  0.53627000  0.43345000  1
  F  F13  1  0.50016400  0.46373000  0.56655000  1
  F  F14  1  0.50016400  0.96373000  0.93345000  1
  F  F15  1  0.00016400  0.03627000  0.06655000  1
  F  F16  1  0.64425600  0.68512500  0.12010500  1
  F  F17  1  0.14425600  0.31487500  0.87989500  1
  F  F18  1  0.14425600  0.81487500  0.62010500  1
  F  F19  1  0.64425600  0.18512500  0.37989500  1
  F  F20  1  0.73474400  0.75645400  0.44810800  1
  F  F21  1  0.23474400  0.24354600  0.55189200  1
  F  F22  1  0.23474400  0.74354600  0.94810800  1
  F  F23  1  0.73474400  0.25645400  0.05189200  1
  F  F24  1  0.06803800  0.76346500  0.27220400  1
  F  F25  1  0.56803800  0.23653500  0.72779600  1
  F  F26  1  0.56803800  0.73653500  0.77220400  1
  F  F27  1  0.06803800  0.26346500  0.22779600  1
