# generated using pymatgen
data_Li2Ti3(GaO4)3
_symmetry_space_group_name_H-M   'P 1'
_cell_length_a   10.41016427
_cell_length_b   10.41016427
_cell_length_c   5.99711093
_cell_angle_alpha   73.28860245
_cell_angle_beta   73.28860245
_cell_angle_gamma   120.78856750
_symmetry_Int_Tables_number   1
_chemical_formula_structural   Li2Ti3(GaO4)3
_chemical_formula_sum   'Li4 Ti6 Ga6 O24'
_cell_volume   453.99674313
_cell_formula_units_Z   2
loop_
 _symmetry_equiv_pos_site_id
 _symmetry_equiv_pos_as_xyz
  1  'x, y, z'
loop_
 _atom_site_type_symbol
 _atom_site_label
 _atom_site_symmetry_multiplicity
 _atom_site_fract_x
 _atom_site_fract_y
 _atom_site_fract_z
 _atom_site_occupancy
  Li  Li0  1  0.00000000  0.50000000  0.50000000  1
  Li  Li1  1  0.50000000  0.00000000  0.50000000  1
  Li  Li2  1  0.00000000  0.00000000  0.50000000  1
  Li  Li3  1  0.00000000  0.00000000  0.00000000  1
  Ti  Ti4  1  0.33490200  0.66509800  0.50000000  1
  Ti  Ti5  1  0.66509800  0.33490200  0.50000000  1
  Ti  Ti6  1  0.84000600  0.67664800  0.49446300  1
  Ti  Ti7  1  0.15999400  0.32335200  0.50553700  1
  Ti  Ti8  1  0.32335200  0.15999400  0.50553700  1
  Ti  Ti9  1  0.67664800  0.84000600  0.49446300  1
  Ga  Ga10  1  0.29708300  0.96410000  0.12310100  1
  Ga  Ga11  1  0.70291700  0.03590000  0.87689900  1
  Ga  Ga12  1  0.03590000  0.70291700  0.87689900  1
  Ga  Ga13  1  0.96410000  0.29708300  0.12310100  1
  Ga  Ga14  1  0.67369900  0.32630100  0.00000000  1
  Ga  Ga15  1  0.32630100  0.67369900  0.00000000  1
  O  O16  1  0.07369200  0.89509100  0.26706500  1
  O  O17  1  0.92630800  0.10490900  0.73293500  1
  O  O18  1  0.10490900  0.92630800  0.73293500  1
  O  O19  1  0.89509100  0.07369200  0.26706500  1
  O  O20  1  0.73647100  0.24527000  0.75410600  1
  O  O21  1  0.26352900  0.75473000  0.24589400  1
  O  O22  1  0.75473000  0.26352900  0.24589400  1
  O  O23  1  0.24527000  0.73647100  0.75410600  1
  O  O24  1  0.23627200  0.23627200  0.30928500  1
  O  O25  1  0.76128500  0.76128500  0.28743700  1
  O  O26  1  0.76372800  0.76372800  0.69071500  1
  O  O27  1  0.23871600  0.23871600  0.71256300  1
  O  O28  1  0.62738200  0.42332500  0.72124700  1
  O  O29  1  0.37261800  0.57667500  0.27875300  1
  O  O30  1  0.57667500  0.37261800  0.27875300  1
  O  O31  1  0.42332500  0.62738200  0.72124700  1
  O  O32  1  0.09646900  0.42418600  0.24864400  1
  O  O33  1  0.90290900  0.57846100  0.26287800  1
  O  O34  1  0.57846100  0.90290900  0.26287800  1
  O  O35  1  0.42418600  0.09646900  0.24864400  1
  O  O36  1  0.90353100  0.57581400  0.75135600  1
  O  O37  1  0.09709100  0.42153900  0.73712200  1
  O  O38  1  0.42153900  0.09709100  0.73712200  1
  O  O39  1  0.57581400  0.90353100  0.75135600  1
