# generated using pymatgen
data_Li9Mn2Co5O16
_symmetry_space_group_name_H-M   'P 1'
_cell_length_a   6.61714135
_cell_length_b   6.61714135
_cell_length_c   15.31420722
_cell_angle_alpha   87.65834296
_cell_angle_beta   87.65834296
_cell_angle_gamma   25.55807837
_symmetry_Int_Tables_number   1
_chemical_formula_structural   Li9Mn2Co5O16
_chemical_formula_sum   'Li9 Mn2 Co5 O16'
_cell_volume   289.04133632
_cell_formula_units_Z   1
loop_
 _symmetry_equiv_pos_site_id
 _symmetry_equiv_pos_as_xyz
  1  'x, y, z'
loop_
 _atom_site_type_symbol
 _atom_site_label
 _atom_site_symmetry_multiplicity
 _atom_site_fract_x
 _atom_site_fract_y
 _atom_site_fract_z
 _atom_site_occupancy
  Li  Li0  1  0.81722100  0.81722100  0.56256200  1
  Li  Li1  1  0.18277900  0.18277900  0.43743800  1
  Li  Li2  1  0.56073800  0.56073800  0.31633000  1
  Li  Li3  1  0.43926200  0.43926200  0.68367000  1
  Li  Li4  1  0.06095500  0.06095500  0.81353400  1
  Li  Li5  1  0.68755900  0.68755900  0.93772900  1
  Li  Li6  1  0.93904500  0.93904500  0.18646600  1
  Li  Li7  1  0.31244100  0.31244100  0.06227100  1
  Li  Li8  1  0.50000000  0.50000000  0.50000000  1
  Mn  Mn9  1  0.11890700  0.11890700  0.62187300  1
  Mn  Mn10  1  0.88109300  0.88109300  0.37812700  1
  Co  Co11  1  0.25027100  0.25027100  0.25072900  1
  Co  Co12  1  0.62582700  0.62582700  0.12509100  1
  Co  Co13  1  0.00000000  0.00000000  0.00000000  1
  Co  Co14  1  0.37417300  0.37417300  0.87490900  1
  Co  Co15  1  0.74972900  0.74972900  0.74927100  1
  O  O16  1  0.65412300  0.65412300  0.54225200  1
  O  O17  1  0.01832900  0.01832900  0.40181800  1
  O  O18  1  0.40087200  0.40087200  0.29075700  1
  O  O19  1  0.27033100  0.27033100  0.66059500  1
  O  O20  1  0.90026300  0.90026300  0.78782100  1
  O  O21  1  0.52702900  0.52702900  0.91207900  1
  O  O22  1  0.77790200  0.77790200  0.16274900  1
  O  O23  1  0.15224200  0.15224200  0.03672500  1
  O  O24  1  0.98167100  0.98167100  0.59818200  1
  O  O25  1  0.34587700  0.34587700  0.45774800  1
  O  O26  1  0.72966900  0.72966900  0.33940500  1
  O  O27  1  0.59912800  0.59912800  0.70924300  1
  O  O28  1  0.22209800  0.22209800  0.83725100  1
  O  O29  1  0.84775800  0.84775800  0.96327500  1
  O  O30  1  0.09973700  0.09973700  0.21217900  1
  O  O31  1  0.47297100  0.47297100  0.08792100  1
