# generated using pymatgen
data_Li4Mg
_symmetry_space_group_name_H-M   'P 1'
_cell_length_a   12.49980318
_cell_length_b   12.49980318
_cell_length_c   12.49980272
_cell_angle_alpha   14.28238337
_cell_angle_beta   14.28238337
_cell_angle_gamma   14.28238048
_symmetry_Int_Tables_number   1
_chemical_formula_structural   Li4Mg
_chemical_formula_sum   'Li4 Mg1'
_cell_volume   103.47251220
_cell_formula_units_Z   1
loop_
 _symmetry_equiv_pos_site_id
 _symmetry_equiv_pos_as_xyz
  1  'x, y, z'
loop_
 _atom_site_type_symbol
 _atom_site_label
 _atom_site_symmetry_multiplicity
 _atom_site_fract_x
 _atom_site_fract_y
 _atom_site_fract_z
 _atom_site_occupancy
  Li  Li0  1  0.59948900  0.59948900  0.59948900  1
  Li  Li1  1  0.19997000  0.19997000  0.19997000  1
  Li  Li2  1  0.80003000  0.80003000  0.80003000  1
  Li  Li3  1  0.40051100  0.40051100  0.40051100  1
  Mg  Mg4  1  0.00000000  0.00000000  0.00000000  1
