# generated using pymatgen
data_Li2TiV3O8
_symmetry_space_group_name_H-M   'P 1'
_cell_length_a   5.93051581
_cell_length_b   6.03617665
_cell_length_c   8.58264717
_cell_angle_alpha   89.15478215
_cell_angle_beta   89.87119432
_cell_angle_gamma   90.42405833
_symmetry_Int_Tables_number   1
_chemical_formula_structural   Li2TiV3O8
_chemical_formula_sum   'Li4 Ti2 V6 O16'
_cell_volume   307.19582559
_cell_formula_units_Z   2
loop_
 _symmetry_equiv_pos_site_id
 _symmetry_equiv_pos_as_xyz
  1  'x, y, z'
loop_
 _atom_site_type_symbol
 _atom_site_label
 _atom_site_symmetry_multiplicity
 _atom_site_fract_x
 _atom_site_fract_y
 _atom_site_fract_z
 _atom_site_occupancy
  Li  Li0  1  0.75000600  0.74992600  0.75002900  1
  Li  Li1  1  0.25001900  0.24995200  0.25003800  1
  Li  Li2  1  0.25002900  0.75003800  0.75001500  1
  Li  Li3  1  0.75004100  0.25000900  0.25000000  1
  Ti  Ti4  1  0.99799100  0.00485400  0.00121600  1
  Ti  Ti5  1  0.50211500  0.49488900  0.49871400  1
  V  V6  1  0.49815500  0.99887000  0.00128700  1
  V  V7  1  0.00198800  0.50134200  0.49883600  1
  V  V8  1  0.25012800  0.75005100  0.24999800  1
  V  V9  1  0.75022400  0.24998100  0.74994900  1
  V  V10  1  0.74978200  0.75001200  0.25000300  1
  V  V11  1  0.24980700  0.25006800  0.75000200  1
  O  O12  1  0.00072400  0.51545600  0.26805400  1
  O  O13  1  0.50083900  0.01734000  0.76861500  1
  O  O14  1  0.99912900  0.48263100  0.73134900  1
  O  O15  1  0.49918900  0.98451300  0.23190700  1
  O  O16  1  0.49769000  0.51478200  0.26987200  1
  O  O17  1  0.99825000  0.01629600  0.77028900  1
  O  O18  1  0.50178100  0.48369400  0.72972500  1
  O  O19  1  0.00222700  0.98524100  0.23015100  1
  O  O20  1  0.25631600  0.78842200  0.00696600  1
  O  O21  1  0.75613200  0.28774400  0.50518800  1
  O  O22  1  0.75153000  0.78455700  0.01046100  1
  O  O23  1  0.25124600  0.28359700  0.50809200  1
  O  O24  1  0.24869500  0.21642300  0.99191300  1
  O  O25  1  0.74843100  0.71543900  0.48953400  1
  O  O26  1  0.74386600  0.21225800  0.99478700  1
  O  O27  1  0.24366100  0.71162600  0.49305600  1
