# generated using pymatgen
data_Li7PS6
_symmetry_space_group_name_H-M   'P 1'
_cell_length_a   7.17337000
_cell_length_b   9.85700700
_cell_length_c   14.16857300
_cell_angle_alpha   90.00000000
_cell_angle_beta   90.00000000
_cell_angle_gamma   90.00000000
_symmetry_Int_Tables_number   1
_chemical_formula_structural   Li7PS6
_chemical_formula_sum   'Li28 P4 S24'
_cell_volume   1001.83086891
_cell_formula_units_Z   4
loop_
 _symmetry_equiv_pos_site_id
 _symmetry_equiv_pos_as_xyz
  1  'x, y, z'
loop_
 _atom_site_type_symbol
 _atom_site_label
 _atom_site_symmetry_multiplicity
 _atom_site_fract_x
 _atom_site_fract_y
 _atom_site_fract_z
 _atom_site_occupancy
  Li  Li0  1  0.24317700  0.19212800  0.32073300  1
  Li  Li1  1  0.75682300  0.69212800  0.67926700  1
  Li  Li2  1  0.25682300  0.19212800  0.82073300  1
  Li  Li3  1  0.74317700  0.69212800  0.17926700  1
  Li  Li4  1  0.97594100  0.46573000  0.26548100  1
  Li  Li5  1  0.02405900  0.96573000  0.73451900  1
  Li  Li6  1  0.52405900  0.46573000  0.76548100  1
  Li  Li7  1  0.47594100  0.96573000  0.23451900  1
  Li  Li8  1  0.17167800  0.33139300  0.02645200  1
  Li  Li9  1  0.82832200  0.83139300  0.97354800  1
  Li  Li10  1  0.32832200  0.33139300  0.52645200  1
  Li  Li11  1  0.67167800  0.83139300  0.47354800  1
  Li  Li12  1  0.04925800  0.02014400  0.10911300  1
  Li  Li13  1  0.95074200  0.52014400  0.89088700  1
  Li  Li14  1  0.45074200  0.02014400  0.60911300  1
  Li  Li15  1  0.54925800  0.52014400  0.39088700  1
  Li  Li16  1  0.44540200  0.98363700  0.04270400  1
  Li  Li17  1  0.55459800  0.48363700  0.95729600  1
  Li  Li18  1  0.05459800  0.98363700  0.54270400  1
  Li  Li19  1  0.94540200  0.48363700  0.45729600  1
  Li  Li20  1  0.39411700  0.38265200  0.21730500  1
  Li  Li21  1  0.60588300  0.88265200  0.78269500  1
  Li  Li22  1  0.10588300  0.38265200  0.71730500  1
  Li  Li23  1  0.89411700  0.88265200  0.28269500  1
  Li  Li24  1  0.64646800  0.17104100  0.12775300  1
  Li  Li25  1  0.35353200  0.67104100  0.87224700  1
  Li  Li26  1  0.85353200  0.17104100  0.62775300  1
  Li  Li27  1  0.14646800  0.67104100  0.37224700  1
  P  P28  1  0.23187300  0.68484100  0.11469600  1
  P  P29  1  0.76812700  0.18484100  0.88530400  1
  P  P30  1  0.26812700  0.68484100  0.61469600  1
  P  P31  1  0.73187300  0.18484100  0.38530400  1
  S  S32  1  0.23697200  0.43018800  0.36917800  1
  S  S33  1  0.76302800  0.93018800  0.63082200  1
  S  S34  1  0.26302800  0.43018800  0.86917800  1
  S  S35  1  0.73697200  0.93018800  0.13082200  1
  S  S36  1  0.72041700  0.30486300  0.26766900  1
  S  S37  1  0.27958300  0.80486300  0.73233100  1
  S  S38  1  0.77958300  0.30486300  0.76766900  1
  S  S39  1  0.22041700  0.80486300  0.23233100  1
  S  S40  1  0.30430100  0.16830300  0.14436400  1
  S  S41  1  0.69569900  0.66830300  0.85563600  1
  S  S42  1  0.19569900  0.16830300  0.64436400  1
  S  S43  1  0.80430100  0.66830300  0.35563600  1
  S  S44  1  0.51097100  0.05197400  0.39522600  1
  S  S45  1  0.48902900  0.55197400  0.60477400  1
  S  S46  1  0.98902900  0.05197400  0.89522600  1
  S  S47  1  0.01097100  0.55197400  0.10477400  1
  S  S48  1  0.97410000  0.07165000  0.38596100  1
  S  S49  1  0.02590000  0.57165000  0.61403900  1
  S  S50  1  0.52590000  0.07165000  0.88596100  1
  S  S51  1  0.47410000  0.57165000  0.11403900  1
  S  S52  1  0.21225700  0.81095500  0.99921000  1
  S  S53  1  0.78774300  0.31095500  0.00079000  1
  S  S54  1  0.28774300  0.81095500  0.49921000  1
  S  S55  1  0.71225700  0.31095500  0.50079000  1
