# generated using pymatgen
data_Li2MgSi5O12
_symmetry_space_group_name_H-M   'P 1'
_cell_length_a   9.85423071
_cell_length_b   9.85423071
_cell_length_c   9.85423071
_cell_angle_alpha   109.65788127
_cell_angle_beta   109.65788127
_cell_angle_gamma   109.09854091
_symmetry_Int_Tables_number   1
_chemical_formula_structural   Li2MgSi5O12
_chemical_formula_sum   'Li8 Mg4 Si20 O48'
_cell_volume   736.60136118
_cell_formula_units_Z   4
loop_
 _symmetry_equiv_pos_site_id
 _symmetry_equiv_pos_as_xyz
  1  'x, y, z'
loop_
 _atom_site_type_symbol
 _atom_site_label
 _atom_site_symmetry_multiplicity
 _atom_site_fract_x
 _atom_site_fract_y
 _atom_site_fract_z
 _atom_site_occupancy
  Li  Li0  1  0.75106100  0.37500000  0.87606100  1
  Li  Li1  1  0.49893900  0.87500000  0.12393900  1
  Li  Li2  1  0.12500000  0.74894000  0.12393900  1
  Li  Li3  1  0.62500000  0.00106100  0.87606100  1
  Li  Li4  1  0.99893900  0.87500000  0.62393900  1
  Li  Li5  1  0.25106100  0.37500000  0.37606100  1
  Li  Li6  1  0.62500000  0.50106100  0.37606100  1
  Li  Li7  1  0.12500000  0.24893900  0.62393900  1
  Mg  Mg8  1  0.50000000  0.00000000  0.50000000  1
  Mg  Mg9  1  0.75000000  0.75000000  0.00000000  1
  Mg  Mg10  1  0.25000000  0.25000000  0.00000000  1
  Mg  Mg11  1  0.00000000  0.50000000  0.50000000  1
  Si  Si12  1  0.75000000  0.25000000  0.50000000  1
  Si  Si13  1  0.50000000  0.50000000  0.00000000  1
  Si  Si14  1  0.99906600  0.37500000  0.12406600  1
  Si  Si15  1  0.25093400  0.87500000  0.87593400  1
  Si  Si16  1  0.12500000  0.00093400  0.37593400  1
  Si  Si17  1  0.62500000  0.74906600  0.62406600  1
  Si  Si18  1  0.00000000  0.00000000  0.00000000  1
  Si  Si19  1  0.25000000  0.75000000  0.50000000  1
  Si  Si20  1  0.75093400  0.87500000  0.37593400  1
  Si  Si21  1  0.49906600  0.37500000  0.62406600  1
  Si  Si22  1  0.62500000  0.24906600  0.12406600  1
  Si  Si23  1  0.12500000  0.50093400  0.87593400  1
  Si  Si24  1  0.37500000  0.12500000  0.75000000  1
  Si  Si25  1  0.37500000  0.62500000  0.25000000  1
  Si  Si26  1  0.87500000  0.62500000  0.75000000  1
  Si  Si27  1  0.87500000  0.12500000  0.25000000  1
  Si  Si28  1  0.87500000  0.12500000  0.75000000  1
  Si  Si29  1  0.87500000  0.62500000  0.25000000  1
  Si  Si30  1  0.37500000  0.12500000  0.25000000  1
  Si  Si31  1  0.37500000  0.62500000  0.75000000  1
  O  O32  1  0.44839900  0.50583100  0.14358500  1
  O  O33  1  0.36224600  0.30481400  0.85641500  1
  O  O34  1  0.88775400  0.24416900  0.44256900  1
  O  O35  1  0.80160100  0.44518600  0.55743100  1
  O  O36  1  0.25975800  0.02296700  0.82856600  1
  O  O37  1  0.05559900  0.72703300  0.73679100  1
  O  O38  1  0.99024200  0.31880800  0.26320900  1
  O  O39  1  0.19440100  0.43119200  0.17143400  1
  O  O40  1  0.77187800  0.70157700  0.63651300  1
  O  O41  1  0.47812200  0.61463500  0.42969900  1
  O  O42  1  0.06506400  0.13536500  0.36348700  1
  O  O43  1  0.18493600  0.04842300  0.57030100  1
  O  O44  1  0.30160100  0.74416900  0.35641500  1
  O  O45  1  0.38775400  0.94518600  0.64358500  1
  O  O46  1  0.86224600  0.00583100  0.05743100  1
  O  O47  1  0.94839900  0.80481400  0.94256900  1
  O  O48  1  0.49024200  0.22703300  0.67143400  1
  O  O49  1  0.69440100  0.52296700  0.76320900  1
  O  O50  1  0.75975800  0.93119200  0.23679100  1
  O  O51  1  0.55559900  0.81880800  0.32856600  1
  O  O52  1  0.97812200  0.54842300  0.86348700  1
  O  O53  1  0.27187800  0.63536500  0.07030100  1
  O  O54  1  0.68493600  0.11463500  0.13651300  1
  O  O55  1  0.56506400  0.20157700  0.92969900  1
  O  O56  1  0.95157700  0.52187800  0.13651300  1
  O  O57  1  0.86463500  0.22812200  0.92969900  1
  O  O58  1  0.38536500  0.81506400  0.86348700  1
  O  O59  1  0.29842300  0.93493600  0.07030100  1
  O  O60  1  0.75583100  0.19839900  0.64358500  1
  O  O61  1  0.55481400  0.11224600  0.35641500  1
  O  O62  1  0.49416900  0.63775400  0.94256900  1
  O  O63  1  0.69518600  0.55160100  0.05743100  1
  O  O64  1  0.27296700  0.00975800  0.32856600  1
  O  O65  1  0.97703300  0.80559900  0.23679100  1
  O  O66  1  0.56880800  0.74024200  0.76320900  1
  O  O67  1  0.68119200  0.94440100  0.67143400  1
  O  O68  1  0.79842300  0.72812200  0.36348700  1
  O  O69  1  0.88536500  0.02187800  0.57030100  1
  O  O70  1  0.36463500  0.43493600  0.63651300  1
  O  O71  1  0.45157700  0.31506400  0.42969900  1
  O  O72  1  0.99416900  0.05160100  0.85641500  1
  O  O73  1  0.19518600  0.13775400  0.14358500  1
  O  O74  1  0.25583100  0.61224600  0.55743100  1
  O  O75  1  0.05481400  0.69839900  0.44256900  1
  O  O76  1  0.47703300  0.24024200  0.17143400  1
  O  O77  1  0.77296700  0.44440100  0.26320900  1
  O  O78  1  0.18119200  0.50975800  0.73679100  1
  O  O79  1  0.06880800  0.30559900  0.82856600  1
