# generated using pymatgen
data_LiCr4(PO4)3
_symmetry_space_group_name_H-M   'P 1'
_cell_length_a   6.31577604
_cell_length_b   10.54395467
_cell_length_c   14.50998419
_cell_angle_alpha   90.00000000
_cell_angle_beta   90.00000000
_cell_angle_gamma   90.00000000
_symmetry_Int_Tables_number   1
_chemical_formula_structural   LiCr4(PO4)3
_chemical_formula_sum   'Li4 Cr16 P12 O48'
_cell_volume   966.26709566
_cell_formula_units_Z   4
loop_
 _symmetry_equiv_pos_site_id
 _symmetry_equiv_pos_as_xyz
  1  'x, y, z'
loop_
 _atom_site_type_symbol
 _atom_site_label
 _atom_site_symmetry_multiplicity
 _atom_site_fract_x
 _atom_site_fract_y
 _atom_site_fract_z
 _atom_site_occupancy
  Li  Li0  1  0.14483945  0.53082706  0.91600687  1
  Li  Li1  1  0.64483945  0.96917294  0.58399313  1
  Li  Li2  1  0.85516055  0.46917294  0.41600687  1
  Li  Li3  1  0.35516055  0.03082706  0.08399313  1
  Cr  Cr4  1  0.43423712  0.64776431  0.36951002  1
  Cr  Cr5  1  0.93423712  0.85223569  0.13048998  1
  Cr  Cr6  1  0.56576288  0.35223569  0.86951002  1
  Cr  Cr7  1  0.06576288  0.14776431  0.63048998  1
  Cr  Cr8  1  0.57707821  0.34204655  0.62814491  1
  Cr  Cr9  1  0.07707821  0.15795345  0.87185509  1
  Cr  Cr10  1  0.42292179  0.65795345  0.12814491  1
  Cr  Cr11  1  0.92292179  0.84204655  0.37185509  1
  Cr  Cr12  1  0.43225540  0.75420082  0.75036200  1
  Cr  Cr13  1  0.93225540  0.74579918  0.74963800  1
  Cr  Cr14  1  0.56774460  0.24579918  0.25036200  1
  Cr  Cr15  1  0.06774460  0.25420082  0.24963800  1
  Cr  Cr16  1  0.85858242  0.45972314  0.08318930  1
  Cr  Cr17  1  0.35858242  0.04027686  0.41681070  1
  Cr  Cr18  1  0.14141758  0.54027686  0.58318930  1
  Cr  Cr19  1  0.64141758  0.95972314  0.91681070  1
  P  P20  1  0.13713272  0.87350095  0.92545825  1
  P  P21  1  0.63713272  0.62649905  0.57454175  1
  P  P22  1  0.86286728  0.12649905  0.42545825  1
  P  P23  1  0.36286728  0.37350095  0.07454175  1
  P  P24  1  0.86325537  0.12671365  0.07367453  1
  P  P25  1  0.36325537  0.37328635  0.42632547  1
  P  P26  1  0.13674463  0.87328635  0.57367453  1
  P  P27  1  0.63674463  0.62671365  0.92632547  1
  P  P28  1  0.49567052  0.09584430  0.75202957  1
  P  P29  1  0.99567052  0.40415570  0.74797043  1
  P  P30  1  0.50432948  0.90415570  0.25202957  1
  P  P31  1  0.00432948  0.59584430  0.24797043  1
  O  O32  1  0.05957226  0.54503474  0.73539129  1
  O  O33  1  0.55957226  0.95496526  0.76460871  1
  O  O34  1  0.94042774  0.45496526  0.23539129  1
  O  O35  1  0.44042774  0.04503474  0.26460871  1
  O  O36  1  0.32901298  0.95795463  0.94746604  1
  O  O37  1  0.82901298  0.54204537  0.55253396  1
  O  O38  1  0.67098702  0.04204537  0.44746604  1
  O  O39  1  0.17098702  0.45795463  0.05253396  1
  O  O40  1  0.66710707  0.04424618  0.05074186  1
  O  O41  1  0.16710707  0.45575382  0.44925814  1
  O  O42  1  0.33289293  0.95575382  0.55074186  1
  O  O43  1  0.83289293  0.54424618  0.94925814  1
  O  O44  1  0.46026644  0.53703837  0.88926158  1
  O  O45  1  0.96026644  0.96296163  0.61073842  1
  O  O46  1  0.53973356  0.46296163  0.38926158  1
  O  O47  1  0.03973356  0.03703837  0.11073842  1
  O  O48  1  0.53783156  0.46903886  0.10996098  1
  O  O49  1  0.03783156  0.03096114  0.39003902  1
  O  O50  1  0.46216844  0.53096114  0.60996098  1
  O  O51  1  0.96216844  0.96903886  0.89003902  1
  O  O52  1  0.06117611  0.79212039  0.49210752  1
  O  O53  1  0.56117611  0.70787961  0.00789248  1
  O  O54  1  0.93882389  0.20787961  0.99210752  1
  O  O55  1  0.43882389  0.29212039  0.50789248  1
  O  O56  1  0.93977567  0.20382510  0.50799074  1
  O  O57  1  0.43977567  0.29617490  0.99200926  1
  O  O58  1  0.06022433  0.79617490  0.00799074  1
  O  O59  1  0.56022433  0.70382510  0.49200926  1
  O  O60  1  0.18115333  0.77836864  0.84390823  1
  O  O61  1  0.68115333  0.72163136  0.65609177  1
  O  O62  1  0.81884667  0.22163136  0.34390823  1
  O  O63  1  0.31884667  0.27836864  0.15609177  1
  O  O64  1  0.81335461  0.22498265  0.15405839  1
  O  O65  1  0.31335461  0.27501735  0.34594161  1
  O  O66  1  0.18664539  0.77501735  0.65405839  1
  O  O67  1  0.68664539  0.72498265  0.84594161  1
  O  O68  1  0.41537147  0.83548200  0.33828798  1
  O  O69  1  0.91537147  0.66451800  0.16171202  1
  O  O70  1  0.58462853  0.16451800  0.83828798  1
  O  O71  1  0.08462853  0.33548200  0.66171202  1
  O  O72  1  0.58923425  0.14903973  0.66141218  1
  O  O73  1  0.08923425  0.35096027  0.83858782  1
  O  O74  1  0.41076575  0.85096027  0.16141218  1
  O  O75  1  0.91076575  0.64903973  0.33858782  1
  O  O76  1  0.24559819  0.11041585  0.75065960  1
  O  O77  1  0.74559819  0.38958415  0.74934040  1
  O  O78  1  0.75440181  0.88958415  0.25065960  1
  O  O79  1  0.25440181  0.61041585  0.24934040  1
