# generated using pymatgen
data_Li9Mn2Co5O16
_symmetry_space_group_name_H-M   'P 1'
_cell_length_a   7.71593230
_cell_length_b   7.71593230
_cell_length_c   5.83132204
_cell_angle_alpha   68.16691333
_cell_angle_beta   68.16691333
_cell_angle_gamma   96.14700931
_symmetry_Int_Tables_number   1
_chemical_formula_structural   Li9Mn2Co5O16
_chemical_formula_sum   'Li9 Mn2 Co5 O16'
_cell_volume   286.76599915
_cell_formula_units_Z   1
loop_
 _symmetry_equiv_pos_site_id
 _symmetry_equiv_pos_as_xyz
  1  'x, y, z'
loop_
 _atom_site_type_symbol
 _atom_site_label
 _atom_site_symmetry_multiplicity
 _atom_site_fract_x
 _atom_site_fract_y
 _atom_site_fract_z
 _atom_site_occupancy
  Li  Li0  1  0.87075400  0.87075400  0.50196700  1
  Li  Li1  1  0.37830600  0.37830600  0.49285000  1
  Li  Li2  1  0.75721700  0.51338100  0.48251200  1
  Li  Li3  1  0.23864100  0.98972300  0.51540000  1
  Li  Li4  1  0.62678200  0.12635900  0.50085000  1
  Li  Li5  1  0.12635900  0.62678200  0.50085000  1
  Li  Li6  1  0.51338100  0.75721700  0.48251200  1
  Li  Li7  1  0.98972300  0.23864100  0.51540000  1
  Li  Li8  1  0.87180300  0.87180300  0.00591000  1
  Mn  Mn9  1  0.99290700  0.24335300  0.00783200  1
  Mn  Mn10  1  0.24335300  0.99290700  0.00783200  1
  Co  Co11  1  0.51140400  0.75946000  0.99031200  1
  Co  Co12  1  0.37696500  0.37696500  0.99432700  1
  Co  Co13  1  0.75946000  0.51140400  0.99031200  1
  Co  Co14  1  0.62601500  0.12300000  0.00105800  1
  Co  Co15  1  0.12300000  0.62601500  0.00105800  1
  O  O16  1  0.11182100  0.11182100  0.24453200  1
  O  O17  1  0.61852300  0.61852300  0.24109800  1
  O  O18  1  0.02786000  0.76132900  0.21880200  1
  O  O19  1  0.51707300  0.26887000  0.19814700  1
  O  O20  1  0.87568700  0.36409500  0.24129200  1
  O  O21  1  0.36409500  0.87568700  0.24129200  1
  O  O22  1  0.76132900  0.02786000  0.21880200  1
  O  O23  1  0.26887000  0.51707300  0.19814700  1
  O  O24  1  0.63641700  0.63641700  0.74594500  1
  O  O25  1  0.12702500  0.12702500  0.77525200  1
  O  O26  1  0.47251700  0.22982300  0.79715600  1
  O  O27  1  0.99728300  0.72562600  0.78601100  1
  O  O28  1  0.37033600  0.88964500  0.75968700  1
  O  O29  1  0.88964500  0.37033600  0.75968700  1
  O  O30  1  0.22982300  0.47251700  0.79715600  1
  O  O31  1  0.72562600  0.99728300  0.78601100  1
