# generated using pymatgen
data_Li4MnCo2O7
_symmetry_space_group_name_H-M   'P 1'
_cell_length_a   5.03553500
_cell_length_b   6.59198399
_cell_length_c   7.68877011
_cell_angle_alpha   85.93430193
_cell_angle_beta   76.99287163
_cell_angle_gamma   82.20679790
_symmetry_Int_Tables_number   1
_chemical_formula_structural   Li4MnCo2O7
_chemical_formula_sum   'Li8 Mn2 Co4 O14'
_cell_volume   246.16141836
_cell_formula_units_Z   2
loop_
 _symmetry_equiv_pos_site_id
 _symmetry_equiv_pos_as_xyz
  1  'x, y, z'
loop_
 _atom_site_type_symbol
 _atom_site_label
 _atom_site_symmetry_multiplicity
 _atom_site_fract_x
 _atom_site_fract_y
 _atom_site_fract_z
 _atom_site_occupancy
  Li  Li0  1  0.79038100  0.43443200  0.92418900  1
  Li  Li1  1  0.93171700  0.13889200  0.64240200  1
  Li  Li2  1  0.64601000  0.71518000  0.21396000  1
  Li  Li3  1  0.49196100  0.98995900  0.50477200  1
  Li  Li4  1  0.35322900  0.28876900  0.78423900  1
  Li  Li5  1  0.21632900  0.57448800  0.06445500  1
  Li  Li6  1  0.07307700  0.85269400  0.36526900  1
  Li  Li7  1  0.14236300  0.71605300  0.71550400  1
  Mn  Mn8  1  0.00415800  0.99257500  0.99316400  1
  Mn  Mn9  1  0.71044300  0.57976900  0.57591500  1
  Co  Co10  1  0.28125200  0.43787700  0.43709700  1
  Co  Co11  1  0.42718500  0.14114400  0.14532600  1
  Co  Co12  1  0.57113200  0.85522500  0.85548700  1
  Co  Co13  1  0.85460600  0.28754900  0.28641300  1
  O  O14  1  0.68266500  0.11989000  0.90394600  1
  O  O15  1  0.79925700  0.84273300  0.61724200  1
  O  O16  1  0.53492200  0.41578200  0.19044300  1
  O  O17  1  0.41316900  0.70049000  0.46816200  1
  O  O18  1  0.25331400  0.99425300  0.76867200  1
  O  O19  1  0.10203200  0.26813800  0.03860800  1
  O  O20  1  0.95661600  0.56612600  0.33483100  1
  O  O21  1  0.87968800  0.73910200  0.96142300  1
  O  O22  1  0.02909200  0.43286500  0.66061600  1
  O  O23  1  0.76011900  0.00989200  0.23510200  1
  O  O24  1  0.61274100  0.30614900  0.53428300  1
  O  O25  1  0.48909700  0.58642800  0.81194900  1
  O  O26  1  0.31225300  0.86642300  0.08899900  1
  O  O27  1  0.18119200  0.14712300  0.37753300  1
