# generated using pymatgen
data_Li3W2N5
_symmetry_space_group_name_H-M   'P 1'
_cell_length_a   9.16157055
_cell_length_b   11.51280541
_cell_length_c   8.40530224
_cell_angle_alpha   90.00016320
_cell_angle_beta   62.69516732
_cell_angle_gamma   128.92651807
_symmetry_Int_Tables_number   1
_chemical_formula_structural   Li3W2N5
_chemical_formula_sum   'Li12 W8 N20'
_cell_volume   557.03681352
_cell_formula_units_Z   4
loop_
 _symmetry_equiv_pos_site_id
 _symmetry_equiv_pos_as_xyz
  1  'x, y, z'
loop_
 _atom_site_type_symbol
 _atom_site_label
 _atom_site_symmetry_multiplicity
 _atom_site_fract_x
 _atom_site_fract_y
 _atom_site_fract_z
 _atom_site_occupancy
  Li  Li0  1  0.50276823  0.65939002  0.98144066  1
  Li  Li1  1  0.49723224  0.34061086  0.48420944  1
  Li  Li2  1  0.81601289  0.65662132  0.07481769  1
  Li  Li3  1  0.18398868  0.34338002  0.89082828  1
  Li  Li4  1  0.67384507  0.26829220  0.61593273  1
  Li  Li5  1  0.32615425  0.73170723  0.28978013  1
  Li  Li6  1  0.86274125  0.09444839  0.27148311  1
  Li  Li7  1  0.13725937  0.90555164  0.13422401  1
  Li  Li8  1  0.99999929  0.99999925  0.61476323  1
  Li  Li9  1  0.99999903  0.49999991  0.86476670  1
  Li  Li10  1  0.99999925  0.49999925  0.21490104  1
  Li  Li11  1  0.99999925  0.99999919  0.96490337  1
  W  W12  1  0.15895157  0.39198213  0.46249681  1
  W  W13  1  0.84105257  0.60801757  0.62144557  1
  W  W14  1  0.62502684  0.73304118  0.47945483  1
  W  W15  1  0.37497601  0.26696520  0.10448297  1
  W  W16  1  0.42417356  0.81248955  0.81710488  1
  W  W17  1  0.57581916  0.18750588  0.24127270  1
  W  W18  1  0.20081145  0.88831706  0.67877929  1
  W  W19  1  0.79919047  0.11168004  0.87959111  1
  N  N20  1  0.20294395  0.51360840  0.28117344  1
  N  N21  1  0.79705794  0.48639317  0.48411689  1
  N  N22  1  0.82427704  0.81066596  0.22050250  1
  N  N23  1  0.17572626  0.18933691  0.04478049  1
  N  N24  1  0.93554010  0.83542328  0.81339787  1
  N  N25  1  0.06445923  0.16457653  0.74893702  1
  N  N26  1  0.73530464  0.39988230  0.16351525  1
  N  N27  1  0.26469330  0.60011590  0.89882127  1
  N  N28  1  0.26385103  0.29851538  0.33483841  1
  N  N29  1  0.73615052  0.70148621  0.59868563  1
  N  N30  1  0.33318160  0.53466504  0.55017337  1
  N  N31  1  0.66682053  0.46533531  0.88335149  1
  N  N32  1  0.20370016  0.82536893  0.88990619  1
  N  N33  1  0.79630019  0.17463152  0.09360586  1
  N  N34  1  0.44703704  0.12167007  0.51823570  1
  N  N35  1  0.55296166  0.87832908  0.96527740  1
  N  N36  1  0.63972474  0.90483851  0.53758961  1
  N  N37  1  0.36026865  0.09515868  0.17731297  1
  N  N38  1  0.16995234  0.76511300  0.52247389  1
  N  N39  1  0.83004860  0.23488791  0.69242521  1
