# generated using pymatgen
data_Li4MnCo2O7
_symmetry_space_group_name_H-M   'P 1'
_cell_length_a   10.26620600
_cell_length_b   10.26620600
_cell_length_c   5.18520671
_cell_angle_alpha   84.48407268
_cell_angle_beta   84.48407268
_cell_angle_gamma   150.60906244
_symmetry_Int_Tables_number   1
_chemical_formula_structural   Li4MnCo2O7
_chemical_formula_sum   'Li8 Mn2 Co4 O14'
_cell_volume   248.20222008
_cell_formula_units_Z   2
loop_
 _symmetry_equiv_pos_site_id
 _symmetry_equiv_pos_as_xyz
  1  'x, y, z'
loop_
 _atom_site_type_symbol
 _atom_site_label
 _atom_site_symmetry_multiplicity
 _atom_site_fract_x
 _atom_site_fract_y
 _atom_site_fract_z
 _atom_site_occupancy
  Li  Li0  1  0.92687400  0.07312600  0.50000000  1
  Li  Li1  1  0.35818900  0.64181100  0.50000000  1
  Li  Li2  1  0.78444700  0.21555300  0.50000000  1
  Li  Li3  1  0.21269000  0.78731000  0.50000000  1
  Li  Li4  1  0.64314100  0.35685900  0.50000000  1
  Li  Li5  1  0.07451600  0.92548400  0.50000000  1
  Li  Li6  1  0.50043900  0.49956100  0.50000000  1
  Li  Li7  1  0.14412400  0.85587600  0.00000000  1
  Mn  Mn8  1  0.00007700  0.99992300  0.00000000  1
  Mn  Mn9  1  0.57248700  0.42751300  0.00000000  1
  Co  Co10  1  0.42823700  0.57176300  0.00000000  1
  Co  Co11  1  0.85586900  0.14413100  0.00000000  1
  Co  Co12  1  0.28583300  0.71416700  0.00000000  1
  Co  Co13  1  0.71516900  0.28483100  0.00000000  1
  O  O14  1  0.69929800  0.84747000  0.22940700  1
  O  O15  1  0.13240700  0.41825700  0.22339000  1
  O  O16  1  0.56199900  0.99259100  0.23007100  1
  O  O17  1  0.96015000  0.52356100  0.20475600  1
  O  O18  1  0.42508700  0.13668500  0.23526100  1
  O  O19  1  0.80864900  0.67165800  0.21407400  1
  O  O20  1  0.27687000  0.27633000  0.23417800  1
  O  O21  1  0.15253000  0.30070200  0.77059300  1
  O  O22  1  0.58174300  0.86759300  0.77661000  1
  O  O23  1  0.00740900  0.43800100  0.76992900  1
  O  O24  1  0.47643900  0.03985000  0.79524400  1
  O  O25  1  0.86331500  0.57491300  0.76473900  1
  O  O26  1  0.32834200  0.19135100  0.78592600  1
  O  O27  1  0.72367000  0.72313000  0.76582200  1
