# generated using pymatgen
data_Li2Mn3(BO3)3
_symmetry_space_group_name_H-M   'P 1'
_cell_length_a   6.33822000
_cell_length_b   8.19356373
_cell_length_c   8.83170368
_cell_angle_alpha   117.14211647
_cell_angle_beta   110.53740693
_cell_angle_gamma   90.82468689
_symmetry_Int_Tables_number   1
_chemical_formula_structural   Li2Mn3(BO3)3
_chemical_formula_sum   'Li4 Mn6 B6 O18'
_cell_volume   373.73761849
_cell_formula_units_Z   2
loop_
 _symmetry_equiv_pos_site_id
 _symmetry_equiv_pos_as_xyz
  1  'x, y, z'
loop_
 _atom_site_type_symbol
 _atom_site_label
 _atom_site_symmetry_multiplicity
 _atom_site_fract_x
 _atom_site_fract_y
 _atom_site_fract_z
 _atom_site_occupancy
  Li  Li0  1  0.59419300  0.01856100  0.71804200  1
  Li  Li1  1  0.40291600  0.27737100  0.29631600  1
  Li  Li2  1  0.74072400  0.69987500  0.98364400  1
  Li  Li3  1  0.25056100  0.70124900  0.98298600  1
  Mn  Mn4  1  0.30464500  0.62547100  0.60523800  1
  Mn  Mn5  1  0.82983600  0.66509200  0.63980200  1
  Mn  Mn6  1  0.50688000  0.36976500  0.01455300  1
  Mn  Mn7  1  0.00008600  0.34608000  0.00685900  1
  Mn  Mn8  1  0.68682800  0.00082400  0.36926300  1
  Mn  Mn9  1  0.17471900  0.00034400  0.36348300  1
  B  B10  1  0.09788300  0.34482300  0.67841700  1
  B  B11  1  0.57888700  0.33959500  0.66979000  1
  B  B12  1  0.40965200  0.66586000  0.33283700  1
  B  B13  1  0.91742500  0.66028000  0.32234600  1
  B  B14  1  0.49704300  0.99344000  0.99425000  1
  B  B15  1  0.99824700  0.99042100  0.99910100  1
  O  O16  1  0.91424600  0.06051300  0.87930300  1
  O  O17  1  0.45824300  0.09076100  0.89786800  1
  O  O18  1  0.52542200  0.14654500  0.55976200  1
  O  O19  1  0.02183300  0.15940600  0.54919900  1
  O  O20  1  0.19175900  0.41022900  0.86837800  1
  O  O21  1  0.68183900  0.42203100  0.85997600  1
  O  O22  1  0.11215400  0.10665700  0.18766800  1
  O  O23  1  0.56879200  0.09096300  0.18442000  1
  O  O24  1  0.52934400  0.45058600  0.58328100  1
  O  O25  1  0.07694200  0.48091100  0.62252400  1
  O  O26  1  0.96647300  0.79566600  0.92517400  1
  O  O27  1  0.46121300  0.79748600  0.89884300  1
  O  O28  1  0.35683400  0.47317800  0.22465000  1
  O  O29  1  0.84495100  0.46948600  0.20713700  1
  O  O30  1  0.03987000  0.73195200  0.51423500  1
  O  O31  1  0.49770000  0.74504900  0.52950300  1
  O  O32  1  0.38199000  0.78388100  0.25917500  1
  O  O33  1  0.87170700  0.78563900  0.25564700  1
