# generated using pymatgen
data_LiMn3(PO4)3
_symmetry_space_group_name_H-M   'P 1'
_cell_length_a   12.11717000
_cell_length_b   6.76886600
_cell_length_c   10.91052977
_cell_angle_alpha   84.06167050
_cell_angle_beta   90.00000000
_cell_angle_gamma   90.00000000
_symmetry_Int_Tables_number   1
_chemical_formula_structural   LiMn3(PO4)3
_chemical_formula_sum   'Li4 Mn12 P12 O48'
_cell_volume   890.07413797
_cell_formula_units_Z   4
loop_
 _symmetry_equiv_pos_site_id
 _symmetry_equiv_pos_as_xyz
  1  'x, y, z'
loop_
 _atom_site_type_symbol
 _atom_site_label
 _atom_site_symmetry_multiplicity
 _atom_site_fract_x
 _atom_site_fract_y
 _atom_site_fract_z
 _atom_site_occupancy
  Li  Li0  1  0.98962900  0.75113700  0.74928000  1
  Li  Li1  1  0.48962900  0.24886300  0.25072000  1
  Li  Li2  1  0.50020900  0.00070400  0.74910900  1
  Li  Li3  1  0.00020900  0.99929600  0.25089100  1
  Mn  Mn4  1  0.65796700  0.92055400  0.47461600  1
  Mn  Mn5  1  0.83975800  0.92625900  0.97733600  1
  Mn  Mn6  1  0.27600000  0.74194800  0.75059000  1
  Mn  Mn7  1  0.23039300  0.74406100  0.25101500  1
  Mn  Mn8  1  0.83789000  0.57706400  0.52408600  1
  Mn  Mn9  1  0.65973200  0.58132800  0.02645600  1
  Mn  Mn10  1  0.33789000  0.42293600  0.47591400  1
  Mn  Mn11  1  0.15973200  0.41867200  0.97354400  1
  Mn  Mn12  1  0.73039300  0.25593900  0.74898500  1
  Mn  Mn13  1  0.77600000  0.25805200  0.24941000  1
  Mn  Mn14  1  0.15796700  0.07944600  0.52538400  1
  Mn  Mn15  1  0.33975800  0.07374100  0.02266400  1
  P  P16  1  0.39142300  0.89463800  0.48802600  1
  P  P17  1  0.10774100  0.88951200  0.98640300  1
  P  P18  1  0.70976300  0.75000900  0.75183400  1
  P  P19  1  0.79002400  0.75013000  0.25189300  1
  P  P20  1  0.10713300  0.61810000  0.51419600  1
  P  P21  1  0.39196200  0.61319700  0.01260800  1
  P  P22  1  0.60713300  0.38190000  0.48580400  1
  P  P23  1  0.89196200  0.38680300  0.98739200  1
  P  P24  1  0.29002400  0.24987000  0.74810700  1
  P  P25  1  0.20976300  0.24999100  0.24816600  1
  P  P26  1  0.89142300  0.10536200  0.51197400  1
  P  P27  1  0.60774100  0.11048800  0.01359700  1
  O  O28  1  0.50301100  0.95517300  0.42425800  1
  O  O29  1  0.99335700  0.92805500  0.92140900  1
  O  O30  1  0.71571200  0.91337800  0.30039400  1
  O  O31  1  0.78762700  0.91074100  0.79904800  1
  O  O32  1  0.81514700  0.91315500  0.52747900  1
  O  O33  1  0.68125500  0.91520200  0.02961600  1
  O  O34  1  0.63063600  0.86065400  0.65517000  1
  O  O35  1  0.86972000  0.86231100  0.15588900  1
  O  O36  1  0.40531400  0.82841100  0.62488400  1
  O  O37  1  0.09682100  0.82598100  0.12368400  1
  O  O38  1  0.16473500  0.76123100  0.59765000  1
  O  O39  1  0.33386000  0.76185400  0.09148800  1
  O  O40  1  0.33555500  0.73559000  0.41651800  1
  O  O41  1  0.16395100  0.73585400  0.91022500  1
  O  O42  1  0.09900500  0.70823400  0.38150900  1
  O  O43  1  0.40354200  0.70645100  0.88062800  1
  O  O44  1  0.86748400  0.64270000  0.35065100  1
  O  O45  1  0.63278600  0.64521100  0.85123600  1
  O  O46  1  0.67730200  0.58097600  0.47679100  1
  O  O47  1  0.81885700  0.58288000  0.97868700  1
  O  O48  1  0.78355100  0.58625800  0.70119100  1
  O  O49  1  0.71932400  0.58461600  0.20032500  1
  O  O50  1  0.99233100  0.57681300  0.57782200  1
  O  O51  1  0.50402600  0.55043600  0.07435300  1
  O  O52  1  0.49233100  0.42318700  0.42217800  1
  O  O53  1  0.00402600  0.44956400  0.92564700  1
  O  O54  1  0.28355100  0.41374200  0.29880900  1
  O  O55  1  0.21932400  0.41538400  0.79967500  1
  O  O56  1  0.17730200  0.41902400  0.52320900  1
  O  O57  1  0.31885700  0.41712000  0.02131300  1
  O  O58  1  0.36748400  0.35730000  0.64934900  1
  O  O59  1  0.13278600  0.35478900  0.14876400  1
  O  O60  1  0.59900500  0.29176600  0.61849100  1
  O  O61  1  0.90354200  0.29354900  0.11937200  1
  O  O62  1  0.83555500  0.26441000  0.58348200  1
  O  O63  1  0.66395100  0.26414600  0.08977500  1
  O  O64  1  0.66473500  0.23876900  0.40235000  1
  O  O65  1  0.83386000  0.23814600  0.90851200  1
  O  O66  1  0.90531400  0.17158900  0.37511600  1
  O  O67  1  0.59682100  0.17401900  0.87631600  1
  O  O68  1  0.13063600  0.13934600  0.34483000  1
  O  O69  1  0.36972000  0.13768900  0.84411100  1
  O  O70  1  0.31514700  0.08684500  0.47252100  1
  O  O71  1  0.18125500  0.08479800  0.97038400  1
  O  O72  1  0.21571200  0.08662200  0.69960600  1
  O  O73  1  0.28762700  0.08925900  0.20095200  1
  O  O74  1  0.00301100  0.04482700  0.57574200  1
  O  O75  1  0.49335700  0.07194500  0.07859100  1
