# generated using pymatgen
data_Li9Mn2Co5O16
_symmetry_space_group_name_H-M   'P 1'
_cell_length_a   5.78553500
_cell_length_b   6.59419340
_cell_length_c   7.70826370
_cell_angle_alpha   89.72499495
_cell_angle_beta   100.62818124
_cell_angle_gamma   102.70215196
_symmetry_Int_Tables_number   1
_chemical_formula_structural   Li9Mn2Co5O16
_chemical_formula_sum   'Li9 Mn2 Co5 O16'
_cell_volume   281.76269250
_cell_formula_units_Z   1
loop_
 _symmetry_equiv_pos_site_id
 _symmetry_equiv_pos_as_xyz
  1  'x, y, z'
loop_
 _atom_site_type_symbol
 _atom_site_label
 _atom_site_symmetry_multiplicity
 _atom_site_fract_x
 _atom_site_fract_y
 _atom_site_fract_z
 _atom_site_occupancy
  Li  Li0  1  0.38159500  0.37615900  0.12276400  1
  Li  Li1  1  0.62664000  0.12169000  0.37006900  1
  Li  Li2  1  0.61762400  0.62962800  0.87337700  1
  Li  Li3  1  0.86459000  0.36632000  0.12412600  1
  Li  Li4  1  0.87750600  0.87637000  0.62795400  1
  Li  Li5  1  0.13426400  0.63441500  0.87023200  1
  Li  Li6  1  0.12087400  0.11848700  0.37587000  1
  Li  Li7  1  0.37759600  0.87903600  0.63680500  1
  Li  Li8  1  0.50045700  0.99519900  0.99971400  1
  Mn  Mn9  1  0.99651900  0.99712300  0.00137900  1
  Mn  Mn10  1  0.25559600  0.75563300  0.24672900  1
  Co  Co11  1  0.50118000  0.49807700  0.50108500  1
  Co  Co12  1  0.74309900  0.23994900  0.75476100  1
  Co  Co13  1  0.74918900  0.75337800  0.24745800  1
  Co  Co14  1  0.99946100  0.50437600  0.50261400  1
  Co  Co15  1  0.25442500  0.24060600  0.75547300  1
  O  O16  1  0.29237400  0.03876600  0.18115700  1
  O  O17  1  0.55530000  0.80751400  0.41534800  1
  O  O18  1  0.55916300  0.31402400  0.91904100  1
  O  O19  1  0.81795600  0.04024000  0.17998300  1
  O  O20  1  0.80866100  0.55389000  0.67443400  1
  O  O21  1  0.05595200  0.28411100  0.94357800  1
  O  O22  1  0.05552700  0.80340800  0.41788100  1
  O  O23  1  0.30921300  0.55628600  0.67690600  1
  O  O24  1  0.44023900  0.69012500  0.08439600  1
  O  O25  1  0.69428300  0.46355100  0.31651200  1
  O  O26  1  0.70710300  0.94443800  0.82248200  1
  O  O27  1  0.94806600  0.70763200  0.07548000  1
  O  O28  1  0.94518600  0.20152900  0.57608600  1
  O  O29  1  0.17648900  0.94576000  0.82269800  1
  O  O30  1  0.19321100  0.46513600  0.31882700  1
  O  O31  1  0.44066300  0.19714500  0.56478200  1
