# generated using pymatgen
data_Li4MnCo2O7
_symmetry_space_group_name_H-M   'P 1'
_cell_length_a   5.03630100
_cell_length_b   5.15599421
_cell_length_c   10.21553154
_cell_angle_alpha   99.16788108
_cell_angle_beta   99.69358983
_cell_angle_gamma   99.97700428
_symmetry_Int_Tables_number   1
_chemical_formula_structural   Li4MnCo2O7
_chemical_formula_sum   'Li8 Mn2 Co4 O14'
_cell_volume   252.62533645
_cell_formula_units_Z   2
loop_
 _symmetry_equiv_pos_site_id
 _symmetry_equiv_pos_as_xyz
  1  'x, y, z'
loop_
 _atom_site_type_symbol
 _atom_site_label
 _atom_site_symmetry_multiplicity
 _atom_site_fract_x
 _atom_site_fract_y
 _atom_site_fract_z
 _atom_site_occupancy
  Li  Li0  1  0.35616100  0.21723100  0.70529700  1
  Li  Li1  1  0.92827300  0.35778500  0.85479100  1
  Li  Li2  1  0.50000000  0.50000000  0.00000000  1
  Li  Li3  1  0.21859500  0.93722700  0.43402400  1
  Li  Li4  1  0.78140500  0.06277300  0.56597600  1
  Li  Li5  1  0.07172700  0.64221500  0.14520900  1
  Li  Li6  1  0.64383900  0.78276900  0.29470300  1
  Li  Li7  1  0.50000000  0.50000000  0.50000000  1
  Mn  Mn8  1  0.64154100  0.78146800  0.78532500  1
  Mn  Mn9  1  0.35845900  0.21853200  0.21467500  1
  Co  Co10  1  0.21181200  0.92667900  0.92584200  1
  Co  Co11  1  0.78818800  0.07332100  0.07415800  1
  Co  Co12  1  0.93226400  0.36685200  0.36493600  1
  Co  Co13  1  0.06773600  0.63314800  0.63506400  1
  O  O14  1  0.42736000  0.84966800  0.62532600  1
  O  O15  1  0.98805900  0.98498800  0.76154100  1
  O  O16  1  0.57945200  0.11259000  0.89562200  1
  O  O17  1  0.26979600  0.53130500  0.31135300  1
  O  O18  1  0.87303400  0.70373200  0.46472800  1
  O  O19  1  0.14827100  0.27116200  0.04248600  1
  O  O20  1  0.69166200  0.41042000  0.17718900  1
  O  O21  1  0.30833800  0.58958000  0.82281100  1
  O  O22  1  0.85172900  0.72883800  0.95751400  1
  O  O23  1  0.42054800  0.88741000  0.10437800  1
  O  O24  1  0.12696600  0.29626800  0.53527200  1
  O  O25  1  0.73020400  0.46869500  0.68864700  1
  O  O26  1  0.01194100  0.01501200  0.23845900  1
  O  O27  1  0.57264000  0.15033200  0.37467400  1
