# generated using pymatgen
data_Li9Mn2Co5O16
_symmetry_space_group_name_H-M   'P 1'
_cell_length_a   5.02634800
_cell_length_b   5.86307769
_cell_length_c   9.88565286
_cell_angle_alpha   88.12617177
_cell_angle_beta   80.39607299
_cell_angle_gamma   88.08582609
_symmetry_Int_Tables_number   1
_chemical_formula_structural   Li9Mn2Co5O16
_chemical_formula_sum   'Li9 Mn2 Co5 O16'
_cell_volume   286.97672867
_cell_formula_units_Z   1
loop_
 _symmetry_equiv_pos_site_id
 _symmetry_equiv_pos_as_xyz
  1  'x, y, z'
loop_
 _atom_site_type_symbol
 _atom_site_label
 _atom_site_symmetry_multiplicity
 _atom_site_fract_x
 _atom_site_fract_y
 _atom_site_fract_z
 _atom_site_occupancy
  Li  Li0  1  0.24651700  0.99892200  0.25882300  1
  Li  Li1  1  0.26321500  0.25295100  0.73104800  1
  Li  Li2  1  0.26019400  0.50593400  0.26151000  1
  Li  Li3  1  0.74253600  0.25770000  0.26688000  1
  Li  Li4  1  0.73980600  0.49406600  0.73849000  1
  Li  Li5  1  0.73678500  0.74704900  0.26895200  1
  Li  Li6  1  0.25746400  0.74230000  0.73312000  1
  Li  Li7  1  0.75348300  0.00107800  0.74117700  1
  Li  Li8  1  0.50000000  0.50000000  0.50000000  1
  Mn  Mn9  1  0.00000000  0.00000000  0.00000000  1
  Mn  Mn10  1  0.00000000  0.50000000  0.00000000  1
  Co  Co11  1  0.98185500  0.25965600  0.50329200  1
  Co  Co12  1  0.01814500  0.74034400  0.49670800  1
  Co  Co13  1  0.49984300  0.75177700  0.00123800  1
  Co  Co14  1  0.50000000  0.00000000  0.50000000  1
  Co  Co15  1  0.50015700  0.24822300  0.99876200  1
  O  O16  1  0.14537600  0.76866300  0.11215300  1
  O  O17  1  0.13649700  0.00253800  0.61581000  1
  O  O18  1  0.12949000  0.24333700  0.10458800  1
  O  O19  1  0.63294400  0.99401500  0.10449800  1
  O  O20  1  0.63774200  0.24573900  0.61997300  1
  O  O21  1  0.62183800  0.48993100  0.10610400  1
  O  O22  1  0.10200900  0.50849400  0.62428900  1
  O  O23  1  0.62320000  0.77560200  0.61067000  1
  O  O24  1  0.37680000  0.22439800  0.38933000  1
  O  O25  1  0.37816200  0.51006900  0.89389600  1
  O  O26  1  0.36225800  0.75426100  0.38002700  1
  O  O27  1  0.89799100  0.49150600  0.37571100  1
  O  O28  1  0.87051000  0.75666300  0.89541200  1
  O  O29  1  0.86350300  0.99746200  0.38419000  1
  O  O30  1  0.36705600  0.00598500  0.89550200  1
  O  O31  1  0.85462400  0.23133700  0.88784700  1
