# generated using pymatgen
data_Li7Mn2(CoO4)3
_symmetry_space_group_name_H-M   'P 1'
_cell_length_a   5.21589135
_cell_length_b   10.63002947
_cell_length_c   8.52113223
_cell_angle_alpha   66.41151742
_cell_angle_beta   90.07097403
_cell_angle_gamma   97.59895257
_symmetry_Int_Tables_number   1
_chemical_formula_structural   Li7Mn2(CoO4)3
_chemical_formula_sum   'Li14 Mn4 Co6 O24'
_cell_volume   428.48053073
_cell_formula_units_Z   2
loop_
 _symmetry_equiv_pos_site_id
 _symmetry_equiv_pos_as_xyz
  1  'x, y, z'
loop_
 _atom_site_type_symbol
 _atom_site_label
 _atom_site_symmetry_multiplicity
 _atom_site_fract_x
 _atom_site_fract_y
 _atom_site_fract_z
 _atom_site_occupancy
  Li  Li0  1  0.24577000  0.50117900  0.91789200  1
  Li  Li1  1  0.74996000  0.50027700  0.41537600  1
  Li  Li2  1  0.36618400  0.25742800  0.53823800  1
  Li  Li3  1  0.87375300  0.25670000  0.03939200  1
  Li  Li4  1  0.13356600  0.74158800  0.29497700  1
  Li  Li5  1  0.62931500  0.74322400  0.79525800  1
  Li  Li6  1  0.36405700  0.25573400  0.20150200  1
  Li  Li7  1  0.87610300  0.25359900  0.70014600  1
  Li  Li8  1  0.13402900  0.74366800  0.95737700  1
  Li  Li9  1  0.62346300  0.74602900  0.45428500  1
  Li  Li10  1  0.87860300  0.25386700  0.37832400  1
  Li  Li11  1  0.37392400  0.25244400  0.87868600  1
  Li  Li12  1  0.62201400  0.74724200  0.13268800  1
  Li  Li13  1  0.12624900  0.74766800  0.63115500  1
  Mn  Mn14  1  0.99968500  0.99940200  0.00001900  1
  Mn  Mn15  1  0.50041200  0.00074300  0.49921000  1
  Mn  Mn16  1  0.99996400  0.99946400  0.33388100  1
  Mn  Mn17  1  0.50038500  0.00033200  0.83348300  1
  Co  Co18  1  0.25073600  0.49987800  0.58840700  1
  Co  Co19  1  0.00022800  0.99914300  0.66744500  1
  Co  Co20  1  0.50002100  0.00083300  0.16660700  1
  Co  Co21  1  0.25022500  0.49935600  0.24493900  1
  Co  Co22  1  0.75131000  0.49982000  0.74289900  1
  Co  Co23  1  0.74457500  0.50115100  0.08360200  1
  O  O24  1  0.16340900  0.12017900  0.10636800  1
  O  O25  1  0.66407700  0.12122500  0.60624400  1
  O  O26  1  0.33656400  0.87997600  0.72624300  1
  O  O27  1  0.83640400  0.87867000  0.22733100  1
  O  O28  1  0.41035100  0.60888800  0.36385700  1
  O  O29  1  0.90940100  0.60907700  0.85959400  1
  O  O30  1  0.09008800  0.39106800  0.47237800  1
  O  O31  1  0.59328100  0.39219200  0.97071900  1
  O  O32  1  0.15924200  0.11707800  0.77217900  1
  O  O33  1  0.65986700  0.11808800  0.27147200  1
  O  O34  1  0.15965200  0.11620900  0.44533000  1
  O  O35  1  0.65957400  0.11789100  0.94394000  1
  O  O36  1  0.34113400  0.88293300  0.38927000  1
  O  O37  1  0.84033300  0.88207700  0.88984200  1
  O  O38  1  0.34060100  0.88375800  0.06164900  1
  O  O39  1  0.84053500  0.88243600  0.56157800  1
  O  O40  1  0.43745000  0.61530500  0.04263400  1
  O  O41  1  0.95683200  0.60751900  0.54477000  1
  O  O42  1  0.95415900  0.60414800  0.18137600  1
  O  O43  1  0.45739100  0.60718500  0.68165900  1
  O  O44  1  0.06677400  0.38493400  0.15732900  1
  O  O45  1  0.54367100  0.39200000  0.65249700  1
  O  O46  1  0.54141900  0.39445800  0.28729000  1
  O  O47  1  0.04325900  0.39193800  0.78866300  1
