# generated using pymatgen
data_Li7Mn4CoO12
_symmetry_space_group_name_H-M   'P 1'
_cell_length_a   2.97082208
_cell_length_b   13.64576540
_cell_length_c   11.26934066
_cell_angle_alpha   74.31817940
_cell_angle_beta   83.16962694
_cell_angle_gamma   87.06190294
_symmetry_Int_Tables_number   1
_chemical_formula_structural   Li7Mn4CoO12
_chemical_formula_sum   'Li14 Mn8 Co2 O24'
_cell_volume   436.63531263
_cell_formula_units_Z   2
loop_
 _symmetry_equiv_pos_site_id
 _symmetry_equiv_pos_as_xyz
  1  'x, y, z'
loop_
 _atom_site_type_symbol
 _atom_site_label
 _atom_site_symmetry_multiplicity
 _atom_site_fract_x
 _atom_site_fract_y
 _atom_site_fract_z
 _atom_site_occupancy
  Li  Li0  1  0.49916000  0.16660400  0.83336500  1
  Li  Li1  1  0.00082400  0.66672700  0.33330200  1
  Li  Li2  1  0.85517800  0.21359800  0.02721400  1
  Li  Li3  1  0.36324700  0.71330600  0.52677400  1
  Li  Li4  1  0.64481900  0.61973300  0.13945500  1
  Li  Li5  1  0.13674600  0.12002400  0.63989300  1
  Li  Li6  1  0.11922300  0.46559300  0.28999900  1
  Li  Li7  1  0.61182800  0.96520900  0.78915500  1
  Li  Li8  1  0.38076600  0.36773700  0.87666600  1
  Li  Li9  1  0.88815500  0.86812200  0.37751100  1
  Li  Li10  1  0.88489700  0.54411600  0.71020600  1
  Li  Li11  1  0.38066800  0.04308500  0.20984000  1
  Li  Li12  1  0.11932700  0.79024600  0.95682500  1
  Li  Li13  1  0.61510400  0.28921800  0.45646100  1
  Mn  Mn14  1  0.51202400  0.50312200  0.49328500  1
  Mn  Mn15  1  0.01029300  0.00318500  0.99299300  1
  Mn  Mn16  1  0.98796600  0.33020800  0.67338300  1
  Mn  Mn17  1  0.48968400  0.83014900  0.17367500  1
  Mn  Mn18  1  0.23438900  0.24919600  0.24835100  1
  Mn  Mn19  1  0.75026000  0.75175900  0.74649700  1
  Mn  Mn20  1  0.26563700  0.58414900  0.91831000  1
  Mn  Mn21  1  0.74976200  0.08157700  0.42017100  1
  Co  Co22  1  0.25000800  0.91666900  0.58332900  1
  Co  Co23  1  0.75001100  0.41666600  0.08333600  1
  O  O24  1  0.47701700  0.08721300  0.02060900  1
  O  O25  1  0.97835400  0.58747600  0.52055200  1
  O  O26  1  0.02296000  0.74612000  0.14605700  1
  O  O27  1  0.52164000  0.24585400  0.64611600  1
  O  O28  1  0.64043700  0.35416600  0.26021200  1
  O  O29  1  0.15384200  0.85584600  0.75766600  1
  O  O30  1  0.85959700  0.47916700  0.90646000  1
  O  O31  1  0.34617000  0.97749200  0.40899200  1
  O  O32  1  0.92878100  0.27721600  0.84057900  1
  O  O33  1  0.43350600  0.77711300  0.34055500  1
  O  O34  1  0.57121000  0.55611600  0.32608700  1
  O  O35  1  0.06647300  0.05621900  0.82611300  1
  O  O36  1  0.20650300  0.52092400  0.09696100  1
  O  O37  1  0.65797800  0.01932400  0.59796300  1
  O  O38  1  0.29351400  0.31240700  0.06970700  1
  O  O39  1  0.84202800  0.81401200  0.56870200  1
  O  O40  1  0.45812200  0.42758600  0.67799700  1
  O  O41  1  0.95830500  0.92765800  0.17817100  1
  O  O42  1  0.54166900  0.90567500  0.98849800  1
  O  O43  1  0.04187300  0.40574400  0.48866900  1
  O  O44  1  0.66145700  0.69144100  0.92790700  1
  O  O45  1  0.14827200  0.18933000  0.42943600  1
  O  O46  1  0.35174700  0.64400400  0.73723400  1
  O  O47  1  0.83857200  0.14189500  0.23876000  1
