# generated using pymatgen
data_RbLiCrO4
_symmetry_space_group_name_H-M   'P 1'
_cell_length_a   5.49656085
_cell_length_b   5.49656085
_cell_length_c   9.33624900
_cell_angle_alpha   90.00000000
_cell_angle_beta   90.00000000
_cell_angle_gamma   119.99998618
_symmetry_Int_Tables_number   1
_chemical_formula_structural   RbLiCrO4
_chemical_formula_sum   'Rb2 Li2 Cr2 O8'
_cell_volume   244.27847431
_cell_formula_units_Z   2
loop_
 _symmetry_equiv_pos_site_id
 _symmetry_equiv_pos_as_xyz
  1  'x, y, z'
loop_
 _atom_site_type_symbol
 _atom_site_label
 _atom_site_symmetry_multiplicity
 _atom_site_fract_x
 _atom_site_fract_y
 _atom_site_fract_z
 _atom_site_occupancy
  Rb  Rb0  1  0.00000000  0.00000000  0.49824300  1
  Rb  Rb1  1  0.00000000  0.00000000  0.99824300  1
  Li  Li2  1  0.66666700  0.33333300  0.68127100  1
  Li  Li3  1  0.33333300  0.66666700  0.18127100  1
  Cr  Cr4  1  0.33333300  0.66666700  0.79235200  1
  Cr  Cr5  1  0.66666700  0.33333300  0.29235200  1
  O  O6  1  0.61127400  0.64908200  0.73519100  1
  O  O7  1  0.96219200  0.61127400  0.23519100  1
  O  O8  1  0.64908200  0.03780800  0.23519100  1
  O  O9  1  0.35091800  0.96219200  0.73519100  1
  O  O10  1  0.66666700  0.33333300  0.47096200  1
  O  O11  1  0.33333300  0.66666700  0.97096200  1
  O  O12  1  0.38872600  0.35091800  0.23519100  1
  O  O13  1  0.03780800  0.38872600  0.73519100  1
