# generated using pymatgen
data_Li4Cr3CoO8
_symmetry_space_group_name_H-M   'P 1'
_cell_length_a   5.90901805
_cell_length_b   8.88520727
_cell_length_c   6.62947631
_cell_angle_alpha   98.73140745
_cell_angle_beta   116.47422043
_cell_angle_gamma   70.60400547
_symmetry_Int_Tables_number   1
_chemical_formula_structural   Li4Cr3CoO8
_chemical_formula_sum   'Li8 Cr6 Co2 O16'
_cell_volume   293.88084170
_cell_formula_units_Z   2
loop_
 _symmetry_equiv_pos_site_id
 _symmetry_equiv_pos_as_xyz
  1  'x, y, z'
loop_
 _atom_site_type_symbol
 _atom_site_label
 _atom_site_symmetry_multiplicity
 _atom_site_fract_x
 _atom_site_fract_y
 _atom_site_fract_z
 _atom_site_occupancy
  Li  Li0  1  0.00477400  0.49920300  0.49096300  1
  Li  Li1  1  0.49455200  0.00096400  0.99675600  1
  Li  Li2  1  0.49521900  0.50078800  0.50904800  1
  Li  Li3  1  0.00544800  0.99902700  0.00325500  1
  Li  Li4  1  0.74655900  0.74857400  0.75087300  1
  Li  Li5  1  0.24718700  0.25109800  0.25043300  1
  Li  Li6  1  0.75339800  0.25143600  0.24911200  1
  Li  Li7  1  0.25282100  0.74889000  0.74956800  1
  Cr  Cr8  1  0.24994200  0.50001100  0.00000200  1
  Cr  Cr9  1  0.75007100  0.99994800  0.50002600  1
  Cr  Cr10  1  0.49687200  0.25092700  0.74916900  1
  Cr  Cr11  1  0.00316000  0.74912000  0.25087500  1
  Cr  Cr12  1  0.99852700  0.25000800  0.75084300  1
  Cr  Cr13  1  0.50150300  0.74994700  0.24916100  1
  Co  Co14  1  0.24999400  0.00001900  0.49999000  1
  Co  Co15  1  0.74995600  0.50001200  0.99999200  1
  O  O16  1  0.36147300  0.25836700  0.98363800  1
  O  O17  1  0.86382100  0.75820900  0.48366400  1
  O  O18  1  0.13851100  0.74167500  0.01635800  1
  O  O19  1  0.63622200  0.24177700  0.51633900  1
  O  O20  1  0.85892100  0.25778700  0.98339400  1
  O  O21  1  0.36835500  0.75393100  0.48386200  1
  O  O22  1  0.64108500  0.74221200  0.01658800  1
  O  O23  1  0.13166700  0.24606900  0.51612100  1
  O  O24  1  0.37954800  0.49073800  0.76111800  1
  O  O25  1  0.89234200  0.99235900  0.26924400  1
  O  O26  1  0.88198300  0.49241900  0.77519700  1
  O  O27  1  0.38971100  0.99055800  0.26301400  1
  O  O28  1  0.12042700  0.50927000  0.23889900  1
  O  O29  1  0.60768700  0.00763500  0.73074500  1
  O  O30  1  0.61795300  0.50758300  0.22477500  1
  O  O31  1  0.11031200  0.00943600  0.73698100  1
