# generated using pymatgen
data_LiMgAl3(SO4)6
_symmetry_space_group_name_H-M   'P 1'
_cell_length_a   8.75061691
_cell_length_b   17.50176748
_cell_length_c   15.44425821
_cell_angle_alpha   27.96462662
_cell_angle_beta   50.62089318
_cell_angle_gamma   55.75395912
_symmetry_Int_Tables_number   1
_chemical_formula_structural   LiMgAl3(SO4)6
_chemical_formula_sum   'Li2 Mg2 Al6 S12 O48'
_cell_volume   857.31957899
_cell_formula_units_Z   2
loop_
 _symmetry_equiv_pos_site_id
 _symmetry_equiv_pos_as_xyz
  1  'x, y, z'
loop_
 _atom_site_type_symbol
 _atom_site_label
 _atom_site_symmetry_multiplicity
 _atom_site_fract_x
 _atom_site_fract_y
 _atom_site_fract_z
 _atom_site_occupancy
  Li  Li0  1  0.27768295  0.39648367  0.67848054  1
  Li  Li1  1  0.72231705  0.60351633  0.32151946  1
  Mg  Mg2  1  0.35647304  0.49877897  0.35535760  1
  Mg  Mg3  1  0.64352696  0.50122103  0.64464240  1
  Al  Al4  1  0.14148230  0.99839766  0.15782145  1
  Al  Al5  1  0.35871344  0.99482281  0.35936227  1
  Al  Al6  1  0.15883068  0.50317603  0.14218187  1
  Al  Al7  1  0.64128656  0.00517719  0.64063773  1
  Al  Al8  1  0.84116932  0.49682397  0.85781813  1
  Al  Al9  1  0.85851770  0.00160234  0.84217855  1
  S  S10  1  0.03232698  0.14685118  0.45865016  1
  S  S11  1  0.74530408  0.20653249  0.04548831  1
  S  S12  1  0.53641706  0.35145511  0.25294447  1
  S  S13  1  0.04468230  0.64321339  0.46800610  1
  S  S14  1  0.45346516  0.13060980  0.76741997  1
  S  S15  1  0.76355362  0.71034392  0.03674626  1
  S  S16  1  0.23644638  0.28965608  0.96325374  1
  S  S17  1  0.54653484  0.86939020  0.23258003  1
  S  S18  1  0.95531770  0.35678661  0.53199390  1
  S  S19  1  0.46358294  0.64854489  0.74705553  1
  S  S20  1  0.25469592  0.79346751  0.95451169  1
  S  S21  1  0.96767302  0.85314882  0.54134984  1
  O  O22  1  0.29254844  0.18269754  0.12205971  1
  O  O23  1  0.03459338  0.31923125  0.31255187  1
  O  O24  1  0.01778113  0.03490964  0.65138324  1
  O  O25  1  0.21579610  0.10722080  0.38564057  1
  O  O26  1  0.58983869  0.08227648  0.23629702  1
  O  O27  1  0.34220968  0.35491128  0.27343679  1
  O  O28  1  0.10567291  0.38255293  0.51765330  1
  O  O29  1  0.73252659  0.31397922  0.01986476  1
  O  O30  1  0.94237080  0.12532001  0.05170318  1
  O  O31  1  0.28029339  0.70402621  0.11561974  1
  O  O32  1  0.60569723  0.17994545  0.39962591  1
  O  O33  1  0.67896592  0.45634864  0.05030768  1
  O  O34  1  0.03258220  0.81260975  0.33338062  1
  O  O35  1  0.51989996  0.41256280  0.28590702  1
  O  O36  1  0.02062171  0.52665233  0.66936550  1
  O  O37  1  0.24599774  0.60153656  0.40621359  1
  O  O38  1  0.46958849  0.08353529  0.71669476  1
  O  O39  1  0.31162922  0.02155411  0.97157686  1
  O  O40  1  0.38109453  0.30108449  0.63014741  1
  O  O41  1  0.62584428  0.57528500  0.23457214  1
  O  O42  1  0.03292293  0.35139600  0.98841771  1
  O  O43  1  0.24603625  0.19691738  0.96718287  1
  O  O44  1  0.85937710  0.12421310  0.48581042  1
  O  O45  1  0.34874179  0.87495700  0.25658111  1
  O  O46  1  0.65125821  0.12504300  0.74341889  1
  O  O47  1  0.14062290  0.87578690  0.51418958  1
  O  O48  1  0.75396375  0.80308262  0.03281713  1
  O  O49  1  0.96707707  0.64860400  0.01158229  1
  O  O50  1  0.37415572  0.42471500  0.76542786  1
  O  O51  1  0.61890547  0.69891551  0.36985259  1
  O  O52  1  0.68837078  0.97844589  0.02842314  1
  O  O53  1  0.53041151  0.91646471  0.28330524  1
  O  O54  1  0.75400226  0.39846344  0.59378641  1
  O  O55  1  0.97937829  0.47334767  0.33063450  1
  O  O56  1  0.48010004  0.58743720  0.71409298  1
  O  O57  1  0.96741780  0.18739025  0.66661938  1
  O  O58  1  0.32103408  0.54365136  0.94969232  1
  O  O59  1  0.39430277  0.82005455  0.60037409  1
  O  O60  1  0.71970661  0.29597379  0.88438026  1
  O  O61  1  0.05762920  0.87467999  0.94829682  1
  O  O62  1  0.26747341  0.68602078  0.98013524  1
  O  O63  1  0.89432709  0.61744707  0.48234670  1
  O  O64  1  0.65779032  0.64508872  0.72656321  1
  O  O65  1  0.41016131  0.91772352  0.76370298  1
  O  O66  1  0.78420390  0.89277920  0.61435943  1
  O  O67  1  0.98221887  0.96509036  0.34861676  1
  O  O68  1  0.96540662  0.68076875  0.68744813  1
  O  O69  1  0.70745156  0.81730246  0.87794029  1
