# generated using pymatgen
data_Li7Mn5O12
_symmetry_space_group_name_H-M   'P 1'
_cell_length_a   6.05697085
_cell_length_b   7.81419428
_cell_length_c   10.16658002
_cell_angle_alpha   105.95083252
_cell_angle_beta   92.81600701
_cell_angle_gamma   104.56960811
_symmetry_Int_Tables_number   1
_chemical_formula_structural   Li7Mn5O12
_chemical_formula_sum   'Li14 Mn10 O24'
_cell_volume   444.15258858
_cell_formula_units_Z   2
loop_
 _symmetry_equiv_pos_site_id
 _symmetry_equiv_pos_as_xyz
  1  'x, y, z'
loop_
 _atom_site_type_symbol
 _atom_site_label
 _atom_site_symmetry_multiplicity
 _atom_site_fract_x
 _atom_site_fract_y
 _atom_site_fract_z
 _atom_site_occupancy
  Li  Li0  1  0.56292856  0.34700066  0.26592968  1
  Li  Li1  1  0.10391837  0.31951911  0.73409286  1
  Li  Li2  1  0.08687792  0.34006827  0.25433924  1
  Li  Li3  1  0.57993097  0.32671224  0.74555666  1
  Li  Li4  1  0.83332306  0.33332168  0.99993319  1
  Li  Li5  1  0.33343844  0.33319651  0.49997904  1
  Li  Li6  1  0.42173007  0.66463106  0.25182155  1
  Li  Li7  1  0.92360329  0.66238525  0.74313085  1
  Li  Li8  1  0.74318206  0.00422227  0.25680546  1
  Li  Li9  1  0.24502437  0.00199094  0.74813123  1
  Li  Li10  1  0.90496830  0.67651401  0.25821324  1
  Li  Li11  1  0.43730221  0.64007749  0.72905589  1
  Li  Li12  1  0.22937917  0.02656614  0.27090578  1
  Li  Li13  1  0.76180568  0.99006612  0.74169440  1
  Mn  Mn14  1  0.83349072  0.33329985  0.50006585  1
  Mn  Mn15  1  0.33327838  0.33338390  0.99998588  1
  Mn  Mn16  1  0.99383870  0.00485233  0.00237223  1
  Mn  Mn17  1  0.49190023  0.00683566  0.50381535  1
  Mn  Mn18  1  0.17494543  0.65978675  0.49623493  1
  Mn  Mn19  1  0.67265297  0.66189386  0.99754033  1
  Mn  Mn20  1  0.50318659  0.00404229  0.99947352  1
  Mn  Mn21  1  0.99914868  0.00509343  0.50420569  1
  Mn  Mn22  1  0.16345547  0.66284353  0.00047039  1
  Mn  Mn23  1  0.66723516  0.66131254  0.49574492  1
  O  O24  1  0.15402088  0.48832053  0.10156859  1
  O  O25  1  0.65152334  0.48857552  0.60614733  1
  O  O26  1  0.01523034  0.17800315  0.39388432  1
  O  O27  1  0.51248954  0.17843227  0.89837644  1
  O  O28  1  0.94390433  0.83538083  0.11705570  1
  O  O29  1  0.44780801  0.83341822  0.61914249  1
  O  O30  1  0.21898559  0.83320250  0.38094037  1
  O  O31  1  0.72246771  0.83147545  0.88293651  1
  O  O32  1  0.61441481  0.50248534  0.11236241  1
  O  O33  1  0.11262168  0.50165537  0.61750240  1
  O  O34  1  0.55421305  0.16498066  0.38266175  1
  O  O35  1  0.05202414  0.16430845  0.88761246  1
  O  O36  1  0.47249274  0.81256840  0.09711944  1
  O  O37  1  0.94433484  0.83461604  0.61731231  1
  O  O38  1  0.72230865  0.83199061  0.38291868  1
  O  O39  1  0.19392986  0.85416751  0.90294143  1
  O  O40  1  0.27240428  0.17197737  0.11954341  1
  O  O41  1  0.77554157  0.17682222  0.62100377  1
  O  O42  1  0.89146836  0.49001519  0.37906912  1
  O  O43  1  0.39415491  0.49466576  0.88042993  1
  O  O44  1  0.80143534  0.13801781  0.10342743  1
  O  O45  1  0.27456411  0.15888114  0.62094023  1
  O  O46  1  0.39208287  0.50770696  0.37904928  1
  O  O47  1  0.86503428  0.52871683  0.89655603  1
