# generated using pymatgen
data_Li5Bi(P2O7)2
_symmetry_space_group_name_H-M   'P 1'
_cell_length_a   7.24412800
_cell_length_b   8.72835211
_cell_length_c   9.90152968
_cell_angle_alpha   76.99104268
_cell_angle_beta   76.74650724
_cell_angle_gamma   69.02949814
_symmetry_Int_Tables_number   1
_chemical_formula_structural   Li5Bi(P2O7)2
_chemical_formula_sum   'Li10 Bi2 P8 O28'
_cell_volume   561.93609223
_cell_formula_units_Z   2
loop_
 _symmetry_equiv_pos_site_id
 _symmetry_equiv_pos_as_xyz
  1  'x, y, z'
loop_
 _atom_site_type_symbol
 _atom_site_label
 _atom_site_symmetry_multiplicity
 _atom_site_fract_x
 _atom_site_fract_y
 _atom_site_fract_z
 _atom_site_occupancy
  Li  Li0  1  0.33613700  0.18855300  0.27782300  1
  Li  Li1  1  0.28303800  0.26165400  0.58418400  1
  Li  Li2  1  0.75827700  0.26840700  0.09018700  1
  Li  Li3  1  0.03542600  0.48576700  0.13922000  1
  Li  Li4  1  0.44142700  0.48772000  0.35699400  1
  Li  Li5  1  0.55857300  0.51228000  0.64300600  1
  Li  Li6  1  0.96457400  0.51423300  0.86078000  1
  Li  Li7  1  0.24172300  0.73159300  0.90981300  1
  Li  Li8  1  0.71696200  0.73834600  0.41581600  1
  Li  Li9  1  0.66386300  0.81144700  0.72217700  1
  Bi  Bi10  1  0.87187900  0.12750600  0.76272900  1
  Bi  Bi11  1  0.12812100  0.87249400  0.23727100  1
  P  P12  1  0.16628000  0.14117800  0.96575700  1
  P  P13  1  0.69328000  0.10238100  0.45545800  1
  P  P14  1  0.41198400  0.34303100  0.94818100  1
  P  P15  1  0.87956300  0.36531900  0.42629600  1
  P  P16  1  0.12043700  0.63468100  0.57370400  1
  P  P17  1  0.58801600  0.65696900  0.05181900  1
  P  P18  1  0.30672000  0.89761900  0.54454200  1
  P  P19  1  0.83372000  0.85882200  0.03424300  1
  O  O20  1  0.21656500  0.04891900  0.62196600  1
  O  O21  1  0.08111600  0.18300700  0.11475900  1
  O  O22  1  0.78897100  0.04163700  0.03886000  1
  O  O23  1  0.68114100  0.05591700  0.61640200  1
  O  O24  1  0.02693400  0.25866700  0.85922000  1
  O  O25  1  0.49514800  0.22461100  0.41225400  1
  O  O26  1  0.37429900  0.18075000  0.91485500  1
  O  O27  1  0.07662500  0.37061400  0.33633900  1
  O  O28  1  0.46021200  0.30516300  0.09592100  1
  O  O29  1  0.85838300  0.19679000  0.39623300  1
  O  O30  1  0.59186500  0.35352100  0.82997200  1
  O  O31  1  0.87588000  0.34147600  0.58710100  1
  O  O32  1  0.22112200  0.49228300  0.93111700  1
  O  O33  1  0.30546000  0.48596200  0.60654200  1
  O  O34  1  0.69454000  0.51403800  0.39345800  1
  O  O35  1  0.77887800  0.50771700  0.06888300  1
  O  O36  1  0.12412000  0.65852400  0.41289900  1
  O  O37  1  0.40813500  0.64647900  0.17002800  1
  O  O38  1  0.14161700  0.80321000  0.60376700  1
  O  O39  1  0.53978800  0.69483700  0.90407900  1
  O  O40  1  0.92337500  0.62938600  0.66366100  1
  O  O41  1  0.62570100  0.81925000  0.08514500  1
  O  O42  1  0.50485200  0.77538900  0.58774600  1
  O  O43  1  0.97306600  0.74133300  0.14078000  1
  O  O44  1  0.31885900  0.94408300  0.38359800  1
  O  O45  1  0.21102900  0.95836300  0.96114000  1
  O  O46  1  0.91888400  0.81699300  0.88524100  1
  O  O47  1  0.78343500  0.95108100  0.37803400  1
