# generated using pymatgen
data_Li4MnCo2O7
_symmetry_space_group_name_H-M   'P 1'
_cell_length_a   10.30887995
_cell_length_b   10.30887995
_cell_length_c   5.15424728
_cell_angle_alpha   84.97654608
_cell_angle_beta   84.97654608
_cell_angle_gamma   151.33513889
_symmetry_Int_Tables_number   1
_chemical_formula_structural   Li4MnCo2O7
_chemical_formula_sum   'Li8 Mn2 Co4 O14'
_cell_volume   245.76431022
_cell_formula_units_Z   2
loop_
 _symmetry_equiv_pos_site_id
 _symmetry_equiv_pos_as_xyz
  1  'x, y, z'
loop_
 _atom_site_type_symbol
 _atom_site_label
 _atom_site_symmetry_multiplicity
 _atom_site_fract_x
 _atom_site_fract_y
 _atom_site_fract_z
 _atom_site_occupancy
  Li  Li0  1  0.92600300  0.07399700  0.50000000  1
  Li  Li1  1  0.35615400  0.64384600  0.50000000  1
  Li  Li2  1  0.78289200  0.21710800  0.50000000  1
  Li  Li3  1  0.21337800  0.78662200  0.50000000  1
  Li  Li4  1  0.64825600  0.35174400  0.50000000  1
  Li  Li5  1  0.07404700  0.92595300  0.50000000  1
  Li  Li6  1  0.49877300  0.50122700  0.50000000  1
  Li  Li7  1  0.71532600  0.28467400  0.00000000  1
  Mn  Mn8  1  0.99916100  0.00083900  0.00000000  1
  Mn  Mn9  1  0.57431300  0.42568700  0.00000000  1
  Co  Co10  1  0.42814600  0.57185400  0.00000000  1
  Co  Co11  1  0.85492200  0.14507800  0.00000000  1
  Co  Co12  1  0.27989800  0.72010200  0.00000000  1
  Co  Co13  1  0.14462100  0.85537900  0.00000000  1
  O  O14  1  0.70234700  0.84714200  0.22829300  1
  O  O15  1  0.10878300  0.39201000  0.21137600  1
  O  O16  1  0.55775400  0.97223600  0.22820100  1
  O  O17  1  0.98506400  0.55986200  0.24078600  1
  O  O18  1  0.38459800  0.10741800  0.22087700  1
  O  O19  1  0.82299100  0.67871500  0.21632900  1
  O  O20  1  0.28079100  0.28083400  0.23321700  1
  O  O21  1  0.15285800  0.29765300  0.77170700  1
  O  O22  1  0.60799000  0.89121700  0.78862400  1
  O  O23  1  0.02776400  0.44224600  0.77179900  1
  O  O24  1  0.44013800  0.01493600  0.75921400  1
  O  O25  1  0.89258200  0.61540200  0.77912300  1
  O  O26  1  0.32128500  0.17700900  0.78367100  1
  O  O27  1  0.71916600  0.71920900  0.76678300  1
