# generated using pymatgen
data_Li3As
_symmetry_space_group_name_H-M   'P 1'
_cell_length_a   7.55805197
_cell_length_b   7.55805197
_cell_length_c   7.56456100
_cell_angle_alpha   90.00000000
_cell_angle_beta   90.00000000
_cell_angle_gamma   119.99999973
_symmetry_Int_Tables_number   1
_chemical_formula_structural   Li3As
_chemical_formula_sum   'Li18 As6'
_cell_volume   374.22613122
_cell_formula_units_Z   6
loop_
 _symmetry_equiv_pos_site_id
 _symmetry_equiv_pos_as_xyz
  1  'x, y, z'
loop_
 _atom_site_type_symbol
 _atom_site_label
 _atom_site_symmetry_multiplicity
 _atom_site_fract_x
 _atom_site_fract_y
 _atom_site_fract_z
 _atom_site_occupancy
  Li  Li0  1  0.00000000  0.00000000  0.50000000  1
  Li  Li1  1  0.00000000  0.00000000  0.00000000  1
  Li  Li2  1  0.66666700  0.33333300  0.28678300  1
  Li  Li3  1  0.66666700  0.33333300  0.78678300  1
  Li  Li4  1  0.33333300  0.66666700  0.71321700  1
  Li  Li5  1  0.33333300  0.66666700  0.21321700  1
  Li  Li6  1  0.64511700  0.97676800  0.41119000  1
  Li  Li7  1  0.33165100  0.35488300  0.41119000  1
  Li  Li8  1  0.02323200  0.66834900  0.41119000  1
  Li  Li9  1  0.64511700  0.66834900  0.91119000  1
  Li  Li10  1  0.02323200  0.35488300  0.91119000  1
  Li  Li11  1  0.33165100  0.97676800  0.91119000  1
  Li  Li12  1  0.35488300  0.02323200  0.58881000  1
  Li  Li13  1  0.66834900  0.64511700  0.58881000  1
  Li  Li14  1  0.97676800  0.33165100  0.58881000  1
  Li  Li15  1  0.35488300  0.33165100  0.08881000  1
  Li  Li16  1  0.97676800  0.64511700  0.08881000  1
  Li  Li17  1  0.66834900  0.02323200  0.08881000  1
  As  As18  1  0.32187300  0.00000000  0.25000000  1
  As  As19  1  0.67812700  0.67812700  0.25000000  1
  As  As20  1  0.00000000  0.32187300  0.25000000  1
  As  As21  1  0.32187300  0.32187300  0.75000000  1
  As  As22  1  0.00000000  0.67812700  0.75000000  1
  As  As23  1  0.67812700  0.00000000  0.75000000  1
