# generated using pymatgen
data_Li2MnV3O8
_symmetry_space_group_name_H-M   'P 1'
_cell_length_a   5.94871470
_cell_length_b   10.28847926
_cell_length_c   5.94850396
_cell_angle_alpha   90.70239792
_cell_angle_beta   119.48703459
_cell_angle_gamma   106.34408106
_symmetry_Int_Tables_number   1
_chemical_formula_structural   Li2MnV3O8
_chemical_formula_sum   'Li4 Mn2 V6 O16'
_cell_volume   299.10717661
_cell_formula_units_Z   2
loop_
 _symmetry_equiv_pos_site_id
 _symmetry_equiv_pos_as_xyz
  1  'x, y, z'
loop_
 _atom_site_type_symbol
 _atom_site_label
 _atom_site_symmetry_multiplicity
 _atom_site_fract_x
 _atom_site_fract_y
 _atom_site_fract_z
 _atom_site_occupancy
  Li  Li0  1  0.12937400  0.19093700  0.06154700  1
  Li  Li1  1  0.12938500  0.69095300  0.56156500  1
  Li  Li2  1  0.87062200  0.30907900  0.43849600  1
  Li  Li3  1  0.87063900  0.80908600  0.93844200  1
  Mn  Mn4  1  0.49984900  0.25008000  0.74967500  1
  Mn  Mn5  1  0.50013800  0.75010800  0.25010800  1
  V  V6  1  0.49901200  0.49913700  0.49958800  1
  V  V7  1  0.50097200  0.00084900  0.00043200  1
  V  V8  1  0.49936100  0.49924100  0.99995800  1
  V  V9  1  0.50067300  0.00072800  0.50006200  1
  V  V10  1  0.99956500  0.49911600  0.00013800  1
  V  V11  1  0.00041900  0.00085800  0.49987300  1
  O  O12  1  0.27186400  0.39460500  0.12281600  1
  O  O13  1  0.27273900  0.89624600  0.62349200  1
  O  O14  1  0.72818700  0.10544400  0.37726700  1
  O  O15  1  0.72726500  0.60379800  0.87652400  1
  O  O16  1  0.71396800  0.62379300  0.34916700  1
  O  O17  1  0.71539300  0.12614400  0.85051500  1
  O  O18  1  0.26770600  0.62237800  0.35473600  1
  O  O19  1  0.26970900  0.12513100  0.85533300  1
  O  O20  1  0.27455900  0.62376200  0.90982500  1
  O  O21  1  0.27577900  0.12620200  0.41082300  1
  O  O22  1  0.72524900  0.87613800  0.59002700  1
  O  O23  1  0.72427600  0.37378600  0.08920000  1
  O  O24  1  0.73239500  0.87759800  0.14535000  1
  O  O25  1  0.73018300  0.37483100  0.64464800  1
  O  O26  1  0.28607600  0.87619100  0.15077300  1
  O  O27  1  0.28464300  0.37378500  0.64961900  1
