# generated using pymatgen
data_Li9Mn7O16
_symmetry_space_group_name_H-M   'P 1'
_cell_length_a   3.01000000
_cell_length_b   9.96361799
_cell_length_c   10.40236555
_cell_angle_alpha   73.68169112
_cell_angle_beta   83.36592804
_cell_angle_gamma   86.00824243
_symmetry_Int_Tables_number   1
_chemical_formula_structural   Li9Mn7O16
_chemical_formula_sum   'Li9 Mn7 O16'
_cell_volume   297.17373404
_cell_formula_units_Z   1
loop_
 _symmetry_equiv_pos_site_id
 _symmetry_equiv_pos_as_xyz
  1  'x, y, z'
loop_
 _atom_site_type_symbol
 _atom_site_label
 _atom_site_symmetry_multiplicity
 _atom_site_fract_x
 _atom_site_fract_y
 _atom_site_fract_z
 _atom_site_occupancy
  Li  Li0  1  0.54340000  0.31407200  0.88878900  1
  Li  Li1  1  0.04451700  0.80094800  0.88084300  1
  Li  Li2  1  0.95548300  0.19905200  0.11915700  1
  Li  Li3  1  0.45660000  0.68592800  0.11121100  1
  Li  Li4  1  0.30536600  0.05638000  0.37549900  1
  Li  Li5  1  0.80653400  0.55984100  0.37503100  1
  Li  Li6  1  0.69463400  0.94362000  0.62450100  1
  Li  Li7  1  0.19346600  0.44015900  0.62496900  1
  Li  Li8  1  0.00000000  0.50000000  0.00000000  1
  Mn  Mn9  1  0.61365000  0.62130000  0.76016900  1
  Mn  Mn10  1  0.38635000  0.37870000  0.23983100  1
  Mn  Mn11  1  0.12690700  0.12713900  0.74957800  1
  Mn  Mn12  1  0.50000000  0.00000000  0.00000000  1
  Mn  Mn13  1  0.87309300  0.87286100  0.25042200  1
  Mn  Mn14  1  0.76602000  0.25436500  0.49784200  1
  Mn  Mn15  1  0.23398000  0.74563500  0.50215800  1
  O  O16  1  0.12563100  0.49146800  0.80436000  1
  O  O17  1  0.55662900  0.97643000  0.81736000  1
  O  O18  1  0.45397400  0.34285900  0.07671600  1
  O  O19  1  0.93011500  0.84644700  0.06883300  1
  O  O20  1  0.88148200  0.23987400  0.31031300  1
  O  O21  1  0.30391400  0.72207400  0.31976900  1
  O  O22  1  0.19007400  0.09894600  0.56634500  1
  O  O23  1  0.67625400  0.60037200  0.57014500  1
  O  O24  1  0.06988500  0.15355300  0.93116700  1
  O  O25  1  0.54602600  0.65714100  0.92328400  1
  O  O26  1  0.44337100  0.02357000  0.18264000  1
  O  O27  1  0.87436900  0.50853200  0.19564000  1
  O  O28  1  0.80992600  0.90105400  0.43365500  1
  O  O29  1  0.32374600  0.39962800  0.42985500  1
  O  O30  1  0.11851800  0.76012600  0.68968700  1
  O  O31  1  0.69608600  0.27792600  0.68023100  1
