# generated using pymatgen
data_Li12Mo5O17
_symmetry_space_group_name_H-M   'P 1'
_cell_length_a   6.65697700
_cell_length_b   9.29119948
_cell_length_c   11.62972906
_cell_angle_alpha   101.21253437
_cell_angle_beta   96.50902609
_cell_angle_gamma   107.14521184
_symmetry_Int_Tables_number   1
_chemical_formula_structural   Li12Mo5O17
_chemical_formula_sum   'Li24 Mo10 O34'
_cell_volume   662.95585594
_cell_formula_units_Z   2
loop_
 _symmetry_equiv_pos_site_id
 _symmetry_equiv_pos_as_xyz
  1  'x, y, z'
loop_
 _atom_site_type_symbol
 _atom_site_label
 _atom_site_symmetry_multiplicity
 _atom_site_fract_x
 _atom_site_fract_y
 _atom_site_fract_z
 _atom_site_occupancy
  Li  Li0  1  0.54683000  0.15999100  0.57772100  1
  Li  Li1  1  0.45317000  0.84000900  0.42227900  1
  Li  Li2  1  0.92783100  0.42283800  0.59620200  1
  Li  Li3  1  0.07216900  0.57716200  0.40379800  1
  Li  Li4  1  0.01993100  0.76260500  0.75086400  1
  Li  Li5  1  0.98006900  0.23739500  0.24913600  1
  Li  Li6  1  0.40319100  0.01270000  0.77933200  1
  Li  Li7  1  0.59680900  0.98730000  0.22066800  1
  Li  Li8  1  0.27568200  0.86039700  0.98816000  1
  Li  Li9  1  0.72431800  0.13960300  0.01184000  1
  Li  Li10  1  0.14703800  0.88764500  0.55485200  1
  Li  Li11  1  0.85296200  0.11235500  0.44514800  1
  Li  Li12  1  0.33074100  0.69546000  0.62850100  1
  Li  Li13  1  0.66925900  0.30454000  0.37149900  1
  Li  Li14  1  0.60186100  0.47302100  0.72573800  1
  Li  Li15  1  0.39813900  0.52697900  0.27426200  1
  Li  Li16  1  0.79410800  0.27019100  0.81660400  1
  Li  Li17  1  0.20589200  0.72980900  0.18339600  1
  Li  Li18  1  0.51398400  0.65471900  0.07716200  1
  Li  Li19  1  0.48601600  0.34528100  0.92283800  1
  Li  Li20  1  0.94434700  0.93431900  0.10282100  1
  Li  Li21  1  0.05565300  0.06568100  0.89717900  1
  Li  Li22  1  0.88034900  0.60581400  0.96148000  1
  Li  Li23  1  0.11965100  0.39418600  0.03852000  1
  Mo  Mo24  1  0.18726800  0.21640600  0.69593000  1
  Mo  Mo25  1  0.81273200  0.78359400  0.30407000  1
  Mo  Mo26  1  0.21184400  0.54413700  0.84036500  1
  Mo  Mo27  1  0.78815600  0.45586300  0.15963500  1
  Mo  Mo28  1  0.24708700  0.04630800  0.34013900  1
  Mo  Mo29  1  0.75291300  0.95369200  0.65986100  1
  Mo  Mo30  1  0.65556800  0.81291500  0.88148200  1
  Mo  Mo31  1  0.34443200  0.18708500  0.11851800  1
  Mo  Mo32  1  0.71960500  0.63179600  0.51660900  1
  Mo  Mo33  1  0.28039500  0.36820400  0.48339100  1
  O  O34  1  0.49137800  0.24808300  0.74947300  1
  O  O35  1  0.50862200  0.75191700  0.25052700  1
  O  O36  1  0.15704700  0.32122100  0.86275400  1
  O  O37  1  0.84295300  0.67877900  0.13724600  1
  O  O38  1  0.25962600  0.44852000  0.66580700  1
  O  O39  1  0.74037400  0.55148000  0.33419300  1
  O  O40  1  0.86028800  0.17364700  0.63559800  1
  O  O41  1  0.13971200  0.82635300  0.36440200  1
  O  O42  1  0.21868900  0.14625600  0.51894700  1
  O  O43  1  0.78131100  0.85374400  0.48105300  1
  O  O44  1  0.08260700  0.98769000  0.71952700  1
  O  O45  1  0.91739300  0.01231000  0.28047300  1
  O  O46  1  0.20731900  0.62414800  0.00607500  1
  O  O47  1  0.79268100  0.37585200  0.99392500  1
  O  O48  1  0.54283400  0.58334900  0.89030900  1
  O  O49  1  0.45716600  0.41665100  0.10969100  1
  O  O50  1  0.93154400  0.51234900  0.77809600  1
  O  O51  1  0.06845600  0.48765100  0.22190400  1
  O  O52  1  0.32961600  0.76430900  0.81406300  1
  O  O53  1  0.67038400  0.23569100  0.18593700  1
  O  O54  1  0.54700700  0.07839400  0.39530000  1
  O  O55  1  0.45299300  0.92160600  0.60470000  1
  O  O56  1  0.31441500  0.26723400  0.30412900  1
  O  O57  1  0.68558500  0.73276600  0.69587100  1
  O  O58  1  0.26773700  0.97244400  0.15857700  1
  O  O59  1  0.73226300  0.02755600  0.84142300  1
  O  O60  1  0.94847000  0.82756100  0.92002500  1
  O  O61  1  0.05153000  0.17243900  0.07997500  1
  O  O62  1  0.61654500  0.89416800  0.03236800  1
  O  O63  1  0.38345500  0.10583200  0.96763200  1
  O  O64  1  0.01850900  0.66268500  0.57057500  1
  O  O65  1  0.98149100  0.33731500  0.42942500  1
  O  O66  1  0.38771900  0.58707700  0.45900900  1
  O  O67  1  0.61228100  0.41292300  0.54099100  1
