# generated using pymatgen
data_Li4Cr3CoO8
_symmetry_space_group_name_H-M   'P 1'
_cell_length_a   5.09607442
_cell_length_b   9.84401966
_cell_length_c   5.90114568
_cell_angle_alpha   90.29355974
_cell_angle_beta   89.67166963
_cell_angle_gamma   100.07756250
_symmetry_Int_Tables_number   1
_chemical_formula_structural   Li4Cr3CoO8
_chemical_formula_sum   'Li8 Cr6 Co2 O16'
_cell_volume   291.46138117
_cell_formula_units_Z   2
loop_
 _symmetry_equiv_pos_site_id
 _symmetry_equiv_pos_as_xyz
  1  'x, y, z'
loop_
 _atom_site_type_symbol
 _atom_site_label
 _atom_site_symmetry_multiplicity
 _atom_site_fract_x
 _atom_site_fract_y
 _atom_site_fract_z
 _atom_site_occupancy
  Li  Li0  1  0.99666700  0.99851100  0.99830100  1
  Li  Li1  1  0.50334300  0.50149300  0.50170900  1
  Li  Li2  1  0.00219000  0.99886800  0.50307200  1
  Li  Li3  1  0.49782300  0.50113700  0.99691600  1
  Li  Li4  1  0.48868000  0.00204700  0.25333800  1
  Li  Li5  1  0.98755700  0.50258100  0.75541200  1
  Li  Li6  1  0.01134600  0.49796500  0.24665200  1
  Li  Li7  1  0.51245900  0.99742700  0.74458500  1
  Cr  Cr8  1  0.74972600  0.74988300  0.24998000  1
  Cr  Cr9  1  0.25011000  0.75005600  0.99736700  1
  Cr  Cr10  1  0.24990300  0.74996300  0.50263600  1
  Cr  Cr11  1  0.25012800  0.25001300  0.74999200  1
  Cr  Cr12  1  0.74826700  0.24865200  0.49868500  1
  Cr  Cr13  1  0.75177400  0.25136600  0.00133100  1
  Co  Co14  1  0.25000700  0.25000700  0.24999800  1
  Co  Co15  1  0.75000400  0.75000400  0.75000600  1
  O  O16  1  0.88506700  0.13885900  0.24629200  1
  O  O17  1  0.38795300  0.63925500  0.74844200  1
  O  O18  1  0.61495300  0.36115800  0.25371000  1
  O  O19  1  0.11204600  0.86074800  0.75156400  1
  O  O20  1  0.62159000  0.36263400  0.75039800  1
  O  O21  1  0.12297900  0.86293600  0.25107600  1
  O  O22  1  0.87845400  0.13738400  0.74960500  1
  O  O23  1  0.37696900  0.63704500  0.24893000  1
  O  O24  1  0.38490600  0.13115700  0.51033700  1
  O  O25  1  0.87449600  0.63934000  0.99297600  1
  O  O26  1  0.37270400  0.14060700  0.00817000  1
  O  O27  1  0.87549300  0.63857400  0.50507900  1
  O  O28  1  0.12733900  0.35940500  0.49183000  1
  O  O29  1  0.62446400  0.86141800  0.99492800  1
  O  O30  1  0.11513800  0.36885500  0.98965900  1
  O  O31  1  0.62546300  0.86065000  0.50702500  1
