# generated using pymatgen
data_Li2Ni3SnO8
_symmetry_space_group_name_H-M   'P 1'
_cell_length_a   5.91767012
_cell_length_b   10.05147862
_cell_length_c   6.08838210
_cell_angle_alpha   103.71721475
_cell_angle_beta   59.21580111
_cell_angle_gamma   88.12163124
_symmetry_Int_Tables_number   1
_chemical_formula_structural   Li2Ni3SnO8
_chemical_formula_sum   'Li4 Ni6 Sn2 O16'
_cell_volume   297.04585143
_cell_formula_units_Z   2
loop_
 _symmetry_equiv_pos_site_id
 _symmetry_equiv_pos_as_xyz
  1  'x, y, z'
loop_
 _atom_site_type_symbol
 _atom_site_label
 _atom_site_symmetry_multiplicity
 _atom_site_fract_x
 _atom_site_fract_y
 _atom_site_fract_z
 _atom_site_occupancy
  Li  Li0  1  0.33506900  0.56338100  0.35554800  1
  Li  Li1  1  0.83517400  0.06335600  0.35552200  1
  Li  Li2  1  0.16513900  0.93651500  0.64360900  1
  Li  Li3  1  0.66526900  0.43647100  0.64348500  1
  Ni  Ni4  1  0.24992200  0.75001800  0.00022500  1
  Ni  Ni5  1  0.74985100  0.75016000  0.00009300  1
  Ni  Ni6  1  0.00009400  0.49986000  0.00002900  1
  Ni  Ni7  1  0.74995900  0.25002800  0.00004500  1
  Ni  Ni8  1  0.24993600  0.25015100  0.00002300  1
  Ni  Ni9  1  0.50006000  0.99987200  0.00008500  1
  Sn  Sn10  1  0.74989400  0.75013200  0.50022900  1
  Sn  Sn11  1  0.25014000  0.25008800  0.50015100  1
  O  O12  1  0.11048900  0.63956700  0.80881600  1
  O  O13  1  0.61054600  0.13959200  0.80885000  1
  O  O14  1  0.38898500  0.86036600  0.19181900  1
  O  O15  1  0.88904800  0.36042400  0.19180700  1
  O  O16  1  0.90137400  0.86197800  0.22633700  1
  O  O17  1  0.40139700  0.36205500  0.22628600  1
  O  O18  1  0.13040700  0.63301900  0.22708900  1
  O  O19  1  0.63039600  0.13307600  0.22708700  1
  O  O20  1  0.66839200  0.62925700  0.22111500  1
  O  O21  1  0.16846900  0.12928800  0.22101000  1
  O  O22  1  0.83208400  0.87066600  0.77855800  1
  O  O23  1  0.33212000  0.37073100  0.77845600  1
  O  O24  1  0.36951200  0.86689300  0.77304800  1
  O  O25  1  0.86948300  0.36693900  0.77302400  1
  O  O26  1  0.59838600  0.63801300  0.77386300  1
  O  O27  1  0.09840600  0.13810200  0.77379300  1
