# generated using pymatgen
data_LiVSiO4
_symmetry_space_group_name_H-M   'P 1'
_cell_length_a   5.89008200
_cell_length_b   5.18754900
_cell_length_c   10.38670318
_cell_angle_alpha   66.16485971
_cell_angle_beta   90.00000000
_cell_angle_gamma   90.00000000
_symmetry_Int_Tables_number   1
_chemical_formula_structural   LiVSiO4
_chemical_formula_sum   'Li4 V4 Si4 O16'
_cell_volume   290.29907278
_cell_formula_units_Z   4
loop_
 _symmetry_equiv_pos_site_id
 _symmetry_equiv_pos_as_xyz
  1  'x, y, z'
loop_
 _atom_site_type_symbol
 _atom_site_label
 _atom_site_symmetry_multiplicity
 _atom_site_fract_x
 _atom_site_fract_y
 _atom_site_fract_z
 _atom_site_occupancy
  Li  Li0  1  0.63347000  0.91498000  0.93361800  1
  Li  Li1  1  0.13347000  0.08502000  0.56638200  1
  Li  Li2  1  0.86653000  0.91498000  0.43361800  1
  Li  Li3  1  0.36653000  0.08502000  0.06638200  1
  V  V4  1  0.61600700  0.45715100  0.34808900  1
  V  V5  1  0.11600700  0.54284900  0.15191100  1
  V  V6  1  0.88399300  0.45715100  0.84808900  1
  V  V7  1  0.38399300  0.54284900  0.65191100  1
  Si  Si8  1  0.65141500  0.10333300  0.63790600  1
  Si  Si9  1  0.15141500  0.89666700  0.86209400  1
  Si  Si10  1  0.84858500  0.10333300  0.13790600  1
  Si  Si11  1  0.34858500  0.89666700  0.36209400  1
  O  O12  1  0.65955600  0.25136500  0.75122500  1
  O  O13  1  0.13532300  0.24131200  0.77708700  1
  O  O14  1  0.41859400  0.25245700  0.54814700  1
  O  O15  1  0.83650800  0.21013500  0.51066700  1
  O  O16  1  0.33650800  0.78986500  0.98933300  1
  O  O17  1  0.91859400  0.74754300  0.95185300  1
  O  O18  1  0.84044400  0.25136500  0.25122500  1
  O  O19  1  0.36467700  0.24131200  0.27708700  1
  O  O20  1  0.63532300  0.75868800  0.72291300  1
  O  O21  1  0.15955600  0.74863500  0.74877500  1
  O  O22  1  0.08140600  0.25245700  0.04814700  1
  O  O23  1  0.66349200  0.21013500  0.01066700  1
  O  O24  1  0.16349200  0.78986500  0.48933300  1
  O  O25  1  0.58140600  0.74754300  0.45185300  1
  O  O26  1  0.86467700  0.75868800  0.22291300  1
  O  O27  1  0.34044400  0.74863500  0.24877500  1
