# generated using pymatgen
data_Li2IrN2
_symmetry_space_group_name_H-M   'P 1'
_cell_length_a   6.00782132
_cell_length_b   11.01814449
_cell_length_c   5.66793703
_cell_angle_alpha   89.99999750
_cell_angle_beta   87.12526916
_cell_angle_gamma   23.51102034
_symmetry_Int_Tables_number   1
_chemical_formula_structural   Li2IrN2
_chemical_formula_sum   'Li6 Ir3 N6'
_cell_volume   148.48506066
_cell_formula_units_Z   3
loop_
 _symmetry_equiv_pos_site_id
 _symmetry_equiv_pos_as_xyz
  1  'x, y, z'
loop_
 _atom_site_type_symbol
 _atom_site_label
 _atom_site_symmetry_multiplicity
 _atom_site_fract_x
 _atom_site_fract_y
 _atom_site_fract_z
 _atom_site_occupancy
  Li  Li0  1  0.72233482  0.95945023  0.83665612  1
  Li  Li1  1  0.72233482  0.31821495  0.83665612  1
  Li  Li2  1  0.27766518  0.04054977  0.16334388  1
  Li  Li3  1  0.27766518  0.68178505  0.16334388  1
  Li  Li4  1  0.21418028  0.89290986  0.68296426  1
  Li  Li5  1  0.78581972  0.10709014  0.31703574  1
  Ir  Ir6  1  0.00000000  0.50000000  0.00000000  1
  Ir  Ir7  1  0.00000000  0.35016757  0.50000000  1
  Ir  Ir8  1  0.00000000  0.64983243  0.50000000  1
  N  N9  1  0.59685979  0.83857885  0.82723656  1
  N  N10  1  0.59685979  0.56456137  0.82723656  1
  N  N11  1  0.40314021  0.16142115  0.17276344  1
  N  N12  1  0.40314021  0.43543863  0.17276344  1
  N  N13  1  0.59497913  0.70251044  0.34760642  1
  N  N14  1  0.40502087  0.29748956  0.65239358  1
