# generated using pymatgen
data_Li2FeCo3O8
_symmetry_space_group_name_H-M   'P 1'
_cell_length_a   5.74517109
_cell_length_b   5.73946467
_cell_length_c   10.12104407
_cell_angle_alpha   89.86006170
_cell_angle_beta   106.53024508
_cell_angle_gamma   120.08933237
_symmetry_Int_Tables_number   1
_chemical_formula_structural   Li2FeCo3O8
_chemical_formula_sum   'Li4 Fe2 Co6 O16'
_cell_volume   272.84351318
_cell_formula_units_Z   2
loop_
 _symmetry_equiv_pos_site_id
 _symmetry_equiv_pos_as_xyz
  1  'x, y, z'
loop_
 _atom_site_type_symbol
 _atom_site_label
 _atom_site_symmetry_multiplicity
 _atom_site_fract_x
 _atom_site_fract_y
 _atom_site_fract_z
 _atom_site_occupancy
  Li  Li0  1  0.87869900  0.44384900  0.31706700  1
  Li  Li1  1  0.87368600  0.93919500  0.81721400  1
  Li  Li2  1  0.12631500  0.06080600  0.18278600  1
  Li  Li3  1  0.12130200  0.55615200  0.68293300  1
  Fe  Fe4  1  0.49604000  0.74551500  0.25037200  1
  Fe  Fe5  1  0.50394600  0.25447500  0.74962600  1
  Co  Co6  1  0.50000100  0.00000100  0.50000000  1
  Co  Co7  1  0.50000100  0.50000000  0.50000000  1
  Co  Co8  1  0.00000000  0.50000000  0.00000000  1
  Co  Co9  1  0.50000100  0.50000100  0.00000000  1
  Co  Co10  1  0.50000100  0.00000000  0.00000000  1
  Co  Co11  1  0.00000000  0.00000000  0.50000000  1
  O  O12  1  0.26385600  0.13245500  0.39576800  1
  O  O13  1  0.26319600  0.63172500  0.89581300  1
  O  O14  1  0.73680500  0.36827500  0.10418700  1
  O  O15  1  0.73614500  0.86754500  0.60423200  1
  O  O16  1  0.74810800  0.10213600  0.39323600  1
  O  O17  1  0.74042100  0.60094900  0.89053100  1
  O  O18  1  0.74919600  0.65130100  0.38945900  1
  O  O19  1  0.73799700  0.14059800  0.88959900  1
  O  O20  1  0.29023600  0.65141200  0.39048900  1
  O  O21  1  0.29064500  0.14524800  0.89311400  1
  O  O22  1  0.70935500  0.85475300  0.10688600  1
  O  O23  1  0.70976500  0.34858800  0.60951200  1
  O  O24  1  0.26200300  0.85940400  0.11040100  1
  O  O25  1  0.25080400  0.34870000  0.61054100  1
  O  O26  1  0.25958000  0.39905100  0.10947000  1
  O  O27  1  0.25189300  0.89786500  0.60676400  1
