# generated using pymatgen
data_Li9Mn2Co5O16
_symmetry_space_group_name_H-M   'P 1'
_cell_length_a   5.89914500
_cell_length_b   6.49671974
_cell_length_c   7.77284178
_cell_angle_alpha   89.01776377
_cell_angle_beta   98.83242830
_cell_angle_gamma   102.95736401
_symmetry_Int_Tables_number   1
_chemical_formula_structural   Li9Mn2Co5O16
_chemical_formula_sum   'Li9 Mn2 Co5 O16'
_cell_volume   286.82081351
_cell_formula_units_Z   1
loop_
 _symmetry_equiv_pos_site_id
 _symmetry_equiv_pos_as_xyz
  1  'x, y, z'
loop_
 _atom_site_type_symbol
 _atom_site_label
 _atom_site_symmetry_multiplicity
 _atom_site_fract_x
 _atom_site_fract_y
 _atom_site_fract_z
 _atom_site_occupancy
  Li  Li0  1  0.12638600  0.11573100  0.37339300  1
  Li  Li1  1  0.62657000  0.62822000  0.87550300  1
  Li  Li2  1  0.35394800  0.87021000  0.60545100  1
  Li  Li3  1  0.89710400  0.38311800  0.13914800  1
  Li  Li4  1  0.61649200  0.11906300  0.36826800  1
  Li  Li5  1  0.13159900  0.62804700  0.88243700  1
  Li  Li6  1  0.87173700  0.87023900  0.62193200  1
  Li  Li7  1  0.37440700  0.38434100  0.13427700  1
  Li  Li8  1  0.24910100  0.74867000  0.24801500  1
  Mn  Mn9  1  0.00736600  0.00140100  0.00606600  1
  Mn  Mn10  1  0.24620500  0.24944700  0.74820200  1
  Co  Co11  1  0.49764300  0.50854600  0.49218500  1
  Co  Co12  1  0.74852300  0.24968000  0.75049200  1
  Co  Co13  1  0.50131600  0.99826400  0.00355400  1
  Co  Co14  1  0.00392400  0.50541200  0.48900900  1
  Co  Co15  1  0.75328600  0.74911400  0.24947200  1
  O  O16  1  0.83000200  0.06025500  0.17964400  1
  O  O17  1  0.30458800  0.54392300  0.68614700  1
  O  O18  1  0.04148500  0.80048600  0.43407300  1
  O  O19  1  0.54096400  0.28877700  0.91418300  1
  O  O20  1  0.30199700  0.05478000  0.16112200  1
  O  O21  1  0.80164400  0.53399800  0.67811100  1
  O  O22  1  0.56807500  0.79866500  0.44105100  1
  O  O23  1  0.07453200  0.29897000  0.93389900  1
  O  O24  1  0.42283400  0.19507900  0.57138000  1
  O  O25  1  0.93553900  0.70902600  0.05985900  1
  O  O26  1  0.70958800  0.96398700  0.83659300  1
  O  O27  1  0.18743600  0.43474400  0.32827700  1
  O  O28  1  0.94988100  0.19916500  0.58978100  1
  O  O29  1  0.45938500  0.71374800  0.06688600  1
  O  O30  1  0.17526700  0.95482600  0.81684800  1
  O  O31  1  0.69117400  0.44006900  0.31473900  1
