# generated using pymatgen
data_Li7Mn4CoO12
_symmetry_space_group_name_H-M   'P 1'
_cell_length_a   5.08432062
_cell_length_b   10.32065452
_cell_length_c   8.65364614
_cell_angle_alpha   90.24292040
_cell_angle_beta   106.50590461
_cell_angle_gamma   97.96346242
_symmetry_Int_Tables_number   1
_chemical_formula_structural   Li7Mn4CoO12
_chemical_formula_sum   'Li14 Mn8 Co2 O24'
_cell_volume   430.72123245
_cell_formula_units_Z   2
loop_
 _symmetry_equiv_pos_site_id
 _symmetry_equiv_pos_as_xyz
  1  'x, y, z'
loop_
 _atom_site_type_symbol
 _atom_site_label
 _atom_site_symmetry_multiplicity
 _atom_site_fract_x
 _atom_site_fract_y
 _atom_site_fract_z
 _atom_site_occupancy
  Li  Li0  1  0.99889000  0.25116900  0.83607700  1
  Li  Li1  1  0.00217700  0.74865100  0.83331900  1
  Li  Li2  1  0.48686600  0.13023000  0.91515100  1
  Li  Li3  1  0.48656700  0.62440300  0.91440100  1
  Li  Li4  1  0.50714000  0.37248500  0.75809100  1
  Li  Li5  1  0.52131600  0.87298000  0.75573500  1
  Li  Li6  1  0.50021400  0.38452000  0.07702300  1
  Li  Li7  1  0.50721700  0.87743200  0.08201900  1
  Li  Li8  1  0.49727600  0.12334600  0.58726900  1
  Li  Li9  1  0.50376600  0.62251200  0.58603400  1
  Li  Li10  1  0.50837200  0.38082800  0.41518500  1
  Li  Li11  1  0.50073000  0.87530800  0.41538500  1
  Li  Li12  1  0.49481900  0.12317100  0.24581600  1
  Li  Li13  1  0.48789800  0.61589800  0.24608300  1
  Mn  Mn14  1  0.99902600  0.00062700  0.00029400  1
  Mn  Mn15  1  0.99855900  0.50034700  0.99915700  1
  Mn  Mn16  1  0.00622800  0.00164500  0.66972500  1
  Mn  Mn17  1  0.99464900  0.49664400  0.66745600  1
  Mn  Mn18  1  0.99786300  0.25015600  0.16350800  1
  Mn  Mn19  1  0.00054600  0.75069200  0.16345700  1
  Mn  Mn20  1  0.99923500  0.24838000  0.50443700  1
  Mn  Mn21  1  0.00341500  0.75066700  0.50241400  1
  Co  Co22  1  0.99622700  0.49987400  0.33135800  1
  Co  Co23  1  0.00362600  0.00266600  0.33398500  1
  O  O24  1  0.22257300  0.44532000  0.86913800  1
  O  O25  1  0.22977300  0.94942500  0.87067800  1
  O  O26  1  0.77400700  0.05235800  0.79576500  1
  O  O27  1  0.77178100  0.55109500  0.79262100  1
  O  O28  1  0.21555600  0.17532900  0.04386400  1
  O  O29  1  0.22068500  0.67555400  0.04370200  1
  O  O30  1  0.77639400  0.31819800  0.61943000  1
  O  O31  1  0.78622500  0.82911400  0.62152600  1
  O  O32  1  0.22106500  0.17862600  0.69625300  1
  O  O33  1  0.22237700  0.66928800  0.69276200  1
  O  O34  1  0.77354300  0.32417500  0.97058100  1
  O  O35  1  0.78184500  0.82537700  0.96999000  1
  O  O36  1  0.21950200  0.41976300  0.54721200  1
  O  O37  1  0.23383100  0.95037100  0.53994000  1
  O  O38  1  0.76991400  0.05242800  0.12777600  1
  O  O39  1  0.75880700  0.55901200  0.11309500  1
  O  O40  1  0.21319500  0.18079000  0.37238400  1
  O  O41  1  0.22843100  0.69359600  0.37128800  1
  O  O42  1  0.77429600  0.30305500  0.30015900  1
  O  O43  1  0.79036000  0.82590400  0.29913900  1
  O  O44  1  0.23904500  0.44220900  0.19540000  1
  O  O45  1  0.23193400  0.94970500  0.20583600  1
  O  O46  1  0.78561600  0.06913900  0.46674300  1
  O  O47  1  0.75662400  0.55554000  0.47133800  1
