# generated using pymatgen
data_LiMnPO4
_symmetry_space_group_name_H-M   'P 1'
_cell_length_a   4.90192600
_cell_length_b   7.92596400
_cell_length_c   17.35440600
_cell_angle_alpha   90.00000000
_cell_angle_beta   90.00000000
_cell_angle_gamma   90.00000000
_symmetry_Int_Tables_number   1
_chemical_formula_structural   LiMnPO4
_chemical_formula_sum   'Li8 Mn8 P8 O32'
_cell_volume   674.26186833
_cell_formula_units_Z   8
loop_
 _symmetry_equiv_pos_site_id
 _symmetry_equiv_pos_as_xyz
  1  'x, y, z'
loop_
 _atom_site_type_symbol
 _atom_site_label
 _atom_site_symmetry_multiplicity
 _atom_site_fract_x
 _atom_site_fract_y
 _atom_site_fract_z
 _atom_site_occupancy
  Li  Li0  1  0.71391300  0.01839400  0.44394900  1
  Li  Li1  1  0.24170600  0.16965300  0.85630400  1
  Li  Li2  1  0.74170600  0.33034700  0.35630400  1
  Li  Li3  1  0.21391300  0.48160600  0.94394900  1
  Li  Li4  1  0.71391300  0.51839400  0.05605100  1
  Li  Li5  1  0.24170600  0.66965300  0.64369600  1
  Li  Li6  1  0.74170600  0.83034700  0.14369600  1
  Li  Li7  1  0.21391300  0.98160600  0.55605100  1
  Mn  Mn8  1  0.28170300  0.07607300  0.25681400  1
  Mn  Mn9  1  0.27724300  0.15081100  0.05247000  1
  Mn  Mn10  1  0.77724300  0.34918900  0.55247000  1
  Mn  Mn11  1  0.78170300  0.42392700  0.75681400  1
  Mn  Mn12  1  0.28170300  0.57607300  0.24318600  1
  Mn  Mn13  1  0.27724300  0.65081100  0.44753000  1
  Mn  Mn14  1  0.77724300  0.84918900  0.94753000  1
  Mn  Mn15  1  0.78170300  0.92392700  0.74318600  1
  P  P16  1  0.71420500  0.21366500  0.17535600  1
  P  P17  1  0.21744500  0.24033800  0.43126000  1
  P  P18  1  0.71744500  0.25966200  0.93126000  1
  P  P19  1  0.21420500  0.28633500  0.67535600  1
  P  P20  1  0.71420500  0.71366500  0.32464400  1
  P  P21  1  0.21744500  0.74033800  0.06874000  1
  P  P22  1  0.71744500  0.75966200  0.56874000  1
  P  P23  1  0.21420500  0.78633500  0.82464400  1
  O  O24  1  0.55577800  0.05189200  0.14697300  1
  O  O25  1  0.07601900  0.08891600  0.46795300  1
  O  O26  1  0.58942800  0.09365600  0.96553900  1
  O  O27  1  0.09734000  0.13343100  0.63291500  1
  O  O28  1  0.02935500  0.18890700  0.16483100  1
  O  O29  1  0.53068800  0.24073700  0.44667400  1
  O  O30  1  0.64352800  0.22317600  0.26235500  1
  O  O31  1  0.14737100  0.24044000  0.34316500  1
  O  O32  1  0.64737100  0.25956000  0.84316500  1
  O  O33  1  0.14352800  0.27682400  0.76235500  1
  O  O34  1  0.03068800  0.25926300  0.94667400  1
  O  O35  1  0.52935500  0.31109300  0.66483100  1
  O  O36  1  0.59734000  0.36656900  0.13291500  1
  O  O37  1  0.08942800  0.40634400  0.46553900  1
  O  O38  1  0.57601900  0.41108400  0.96795300  1
  O  O39  1  0.05577800  0.44810800  0.64697300  1
  O  O40  1  0.55577800  0.55189200  0.35302700  1
  O  O41  1  0.07601900  0.58891600  0.03204700  1
  O  O42  1  0.58942800  0.59365600  0.53446100  1
  O  O43  1  0.09734000  0.63343100  0.86708500  1
  O  O44  1  0.02935500  0.68890700  0.33516900  1
  O  O45  1  0.53068800  0.74073700  0.05332600  1
  O  O46  1  0.64352800  0.72317600  0.23764500  1
  O  O47  1  0.14737100  0.74044000  0.15683500  1
  O  O48  1  0.64737100  0.75956000  0.65683500  1
  O  O49  1  0.14352800  0.77682400  0.73764500  1
  O  O50  1  0.03068800  0.75926300  0.55332600  1
  O  O51  1  0.52935500  0.81109300  0.83516900  1
  O  O52  1  0.59734000  0.86656900  0.36708500  1
  O  O53  1  0.08942800  0.90634400  0.03446100  1
  O  O54  1  0.57601900  0.91108400  0.53204700  1
  O  O55  1  0.05577800  0.94810800  0.85302700  1
