# generated using pymatgen
data_SrLiTi4CrO11
_symmetry_space_group_name_H-M   'P 1'
_cell_length_a   5.83632400
_cell_length_b   10.01627200
_cell_length_c   13.97670500
_cell_angle_alpha   90.00000000
_cell_angle_beta   90.00000000
_cell_angle_gamma   90.00000000
_symmetry_Int_Tables_number   1
_chemical_formula_structural   SrLiTi4CrO11
_chemical_formula_sum   'Sr4 Li4 Ti16 Cr4 O44'
_cell_volume   817.05313733
_cell_formula_units_Z   4
loop_
 _symmetry_equiv_pos_site_id
 _symmetry_equiv_pos_as_xyz
  1  'x, y, z'
loop_
 _atom_site_type_symbol
 _atom_site_label
 _atom_site_symmetry_multiplicity
 _atom_site_fract_x
 _atom_site_fract_y
 _atom_site_fract_z
 _atom_site_occupancy
  Sr  Sr0  1  0.25000000  0.39566100  0.59423100  1
  Sr  Sr1  1  0.25000000  0.10433900  0.09423100  1
  Sr  Sr2  1  0.75000000  0.60433900  0.40576900  1
  Sr  Sr3  1  0.75000000  0.89566100  0.90576900  1
  Li  Li4  1  0.25000000  0.08120500  0.54127000  1
  Li  Li5  1  0.25000000  0.41879500  0.04127000  1
  Li  Li6  1  0.75000000  0.91879500  0.45873000  1
  Li  Li7  1  0.75000000  0.58120500  0.95873000  1
  Ti  Ti8  1  0.00159000  0.83646500  0.67186300  1
  Ti  Ti9  1  0.49841000  0.66353500  0.17186300  1
  Ti  Ti10  1  0.50159000  0.16353500  0.32813700  1
  Ti  Ti11  1  0.99841000  0.33646500  0.82813700  1
  Ti  Ti12  1  0.99841000  0.16353500  0.32813700  1
  Ti  Ti13  1  0.50159000  0.33646500  0.82813700  1
  Ti  Ti14  1  0.49841000  0.83646500  0.67186300  1
  Ti  Ti15  1  0.00159000  0.66353500  0.17186300  1
  Ti  Ti16  1  0.25000000  0.07140400  0.83790000  1
  Ti  Ti17  1  0.25000000  0.42859600  0.33790000  1
  Ti  Ti18  1  0.75000000  0.92859600  0.16210000  1
  Ti  Ti19  1  0.75000000  0.57140400  0.66210000  1
  Ti  Ti20  1  0.25000000  0.73672400  0.49134500  1
  Ti  Ti21  1  0.25000000  0.76327600  0.99134500  1
  Ti  Ti22  1  0.75000000  0.26327600  0.50865500  1
  Ti  Ti23  1  0.75000000  0.23672400  0.00865500  1
  Cr  Cr24  1  0.25000000  0.60096900  0.82501500  1
  Cr  Cr25  1  0.25000000  0.89903100  0.32501500  1
  Cr  Cr26  1  0.75000000  0.39903100  0.17498500  1
  Cr  Cr27  1  0.75000000  0.10096900  0.67498500  1
  O  O28  1  0.25000000  0.89544500  0.58718100  1
  O  O29  1  0.25000000  0.60455500  0.08718100  1
  O  O30  1  0.75000000  0.10455500  0.41281900  1
  O  O31  1  0.75000000  0.39544500  0.91281900  1
  O  O32  1  0.00225500  0.49923200  0.74483500  1
  O  O33  1  0.49774500  0.00076800  0.24483500  1
  O  O34  1  0.50225500  0.50076800  0.25516500  1
  O  O35  1  0.99774500  0.99923200  0.75516500  1
  O  O36  1  0.99774500  0.50076800  0.25516500  1
  O  O37  1  0.50225500  0.99923200  0.75516500  1
  O  O38  1  0.49774500  0.49923200  0.74483500  1
  O  O39  1  0.00225500  0.00076800  0.24483500  1
  O  O40  1  0.25000000  0.42810400  0.89820900  1
  O  O41  1  0.25000000  0.07189600  0.39820900  1
  O  O42  1  0.75000000  0.57189600  0.10179100  1
  O  O43  1  0.75000000  0.92810400  0.60179100  1
  O  O44  1  0.25000000  0.24836800  0.76024600  1
  O  O45  1  0.25000000  0.25163200  0.26024600  1
  O  O46  1  0.75000000  0.75163200  0.23975400  1
  O  O47  1  0.75000000  0.74836800  0.73975400  1
  O  O48  1  0.02443200  0.68804300  0.91666800  1
  O  O49  1  0.47556800  0.81195700  0.41666800  1
  O  O50  1  0.52443200  0.31195700  0.08333200  1
  O  O51  1  0.97556800  0.18804300  0.58333200  1
  O  O52  1  0.97556800  0.31195700  0.08333200  1
  O  O53  1  0.52443200  0.18804300  0.58333200  1
  O  O54  1  0.47556800  0.68804300  0.91666800  1
  O  O55  1  0.02443200  0.81195700  0.41666800  1
  O  O56  1  0.00891600  0.17448900  0.91030900  1
  O  O57  1  0.49108400  0.32551100  0.41030900  1
  O  O58  1  0.50891600  0.82551100  0.08969100  1
  O  O59  1  0.99108400  0.67448900  0.58969100  1
  O  O60  1  0.99108400  0.82551100  0.08969100  1
  O  O61  1  0.50891600  0.67448900  0.58969100  1
  O  O62  1  0.49108400  0.17448900  0.91030900  1
  O  O63  1  0.00891600  0.32551100  0.41030900  1
  O  O64  1  0.25000000  0.94184300  0.93425400  1
  O  O65  1  0.25000000  0.55815700  0.43425400  1
  O  O66  1  0.75000000  0.05815700  0.06574600  1
  O  O67  1  0.75000000  0.44184300  0.56574600  1
  O  O68  1  0.25000000  0.76432700  0.74623100  1
  O  O69  1  0.25000000  0.73567300  0.24623100  1
  O  O70  1  0.75000000  0.23567300  0.25376900  1
  O  O71  1  0.75000000  0.26432700  0.75376900  1
