# generated using pymatgen
data_Li3Fe2(SiO4)2
_symmetry_space_group_name_H-M   'P 1'
_cell_length_a   7.34950621
_cell_length_b   7.60495204
_cell_length_c   8.29221858
_cell_angle_alpha   116.43988975
_cell_angle_beta   63.69523141
_cell_angle_gamma   90.00062070
_symmetry_Int_Tables_number   1
_chemical_formula_structural   Li3Fe2(SiO4)2
_chemical_formula_sum   'Li6 Fe4 Si4 O16'
_cell_volume   360.60862727
_cell_formula_units_Z   2
loop_
 _symmetry_equiv_pos_site_id
 _symmetry_equiv_pos_as_xyz
  1  'x, y, z'
loop_
 _atom_site_type_symbol
 _atom_site_label
 _atom_site_symmetry_multiplicity
 _atom_site_fract_x
 _atom_site_fract_y
 _atom_site_fract_z
 _atom_site_occupancy
  Li  Li0  1  0.54406000  0.62500300  0.25000000  1
  Li  Li1  1  0.06488700  0.12503900  0.25002000  1
  Li  Li2  1  0.74716600  0.55982800  0.50634200  1
  Li  Li3  1  0.25541800  0.05582900  0.49281700  1
  Li  Li4  1  0.49824100  0.19415300  0.00718600  1
  Li  Li5  1  0.00350900  0.69017200  0.99366700  1
  Fe  Fe6  1  0.51470400  0.81465800  0.98443200  1
  Fe  Fe7  1  0.24924800  0.43532500  0.51557000  1
  Fe  Fe8  1  0.00248400  0.31252200  0.99469600  1
  Fe  Fe9  1  0.74719100  0.93746700  0.50529000  1
  Si  Si10  1  0.18887000  0.62499400  0.25000500  1
  Si  Si11  1  0.69228400  0.12498900  0.24998100  1
  Si  Si12  1  0.29608500  0.88621000  0.75951100  1
  Si  Si13  1  0.80561100  0.36379400  0.74049400  1
  O  O14  1  0.68554700  0.54647900  0.74633700  1
  O  O15  1  0.16959700  0.06449000  0.75736500  1
  O  O16  1  0.67695700  0.18551600  0.74262100  1
  O  O17  1  0.18183600  0.70354000  0.75365200  1
  O  O18  1  0.84138100  0.29435700  0.24252800  1
  O  O19  1  0.33139100  0.79080900  0.24005700  1
  O  O20  1  0.83390200  0.95564000  0.25746500  1
  O  O21  1  0.32148200  0.45923300  0.25995900  1
  O  O22  1  0.95055700  0.73555200  0.45207300  1
  O  O23  1  0.46605400  0.22131200  0.45889100  1
  O  O24  1  0.15261100  0.51444700  0.04793600  1
  O  O25  1  0.67497500  0.02865000  0.04107200  1
  O  O26  1  0.53198400  0.78869900  0.54181700  1
  O  O27  1  0.03765300  0.25333000  0.52916000  1
  O  O28  1  0.31675900  0.99666300  0.97086200  1
  O  O29  1  0.82381100  0.46130000  0.95819300  1
