# generated using pymatgen
data_Li9Co7O16
_symmetry_space_group_name_H-M   'P 1'
_cell_length_a   5.00331200
_cell_length_b   7.67176873
_cell_length_c   7.74054665
_cell_angle_alpha   97.65308378
_cell_angle_beta   101.64749561
_cell_angle_gamma   103.05466045
_symmetry_Int_Tables_number   1
_chemical_formula_structural   Li9Co7O16
_chemical_formula_sum   'Li9 Co7 O16'
_cell_volume   278.45513027
_cell_formula_units_Z   1
loop_
 _symmetry_equiv_pos_site_id
 _symmetry_equiv_pos_as_xyz
  1  'x, y, z'
loop_
 _atom_site_type_symbol
 _atom_site_label
 _atom_site_symmetry_multiplicity
 _atom_site_fract_x
 _atom_site_fract_y
 _atom_site_fract_z
 _atom_site_occupancy
  Li  Li0  1  0.50282400  0.75675100  0.75293600  1
  Li  Li1  1  0.99351200  0.36834900  0.11737600  1
  Li  Li2  1  0.50236200  0.00067200  0.50515800  1
  Li  Li3  1  0.01073700  0.88042400  0.63082800  1
  Li  Li4  1  0.49497900  0.49184800  0.99830400  1
  Li  Li5  1  0.99751000  0.12629800  0.37542800  1
  Li  Li6  1  0.00290500  0.62428200  0.87513200  1
  Li  Li7  1  0.49515000  0.24891800  0.24143700  1
  Li  Li8  1  0.50024800  0.12641100  0.87830700  1
  Co  Co9  1  0.00201800  0.00167500  0.99856400  1
  Co  Co10  1  0.99658100  0.24495800  0.75644100  1
  Co  Co11  1  0.49674000  0.62669200  0.37324300  1
  Co  Co12  1  0.49828900  0.88057000  0.11658100  1
  Co  Co13  1  0.00055200  0.49943000  0.50342000  1
  Co  Co14  1  0.99697500  0.74870200  0.24640300  1
  Co  Co15  1  0.50059900  0.36745300  0.63244900  1
  O  O16  1  0.74742900  0.76816900  0.00780300  1
  O  O17  1  0.25535900  0.39670000  0.38149900  1
  O  O18  1  0.79031600  0.01630900  0.76560200  1
  O  O19  1  0.25816900  0.88125600  0.90137300  1
  O  O20  1  0.75054800  0.50960600  0.25561800  1
  O  O21  1  0.24242500  0.14246000  0.62956200  1
  O  O22  1  0.26288600  0.64801700  0.13157700  1
  O  O23  1  0.76459000  0.25157300  0.52026800  1
  O  O24  1  0.25036200  0.74669900  0.49264500  1
  O  O25  1  0.76818100  0.36653200  0.86149500  1
  O  O26  1  0.24395700  0.99007800  0.22836800  1
  O  O27  1  0.72410200  0.85826200  0.35209900  1
  O  O28  1  0.23340100  0.48164900  0.74581400  1
  O  O29  1  0.74894200  0.09867900  0.12150900  1
  O  O30  1  0.74584600  0.61207500  0.61654100  1
  O  O31  1  0.22150500  0.23849600  0.98621900  1
