# generated using pymatgen
data_Li7V3P8O29
_symmetry_space_group_name_H-M   'P 1'
_cell_length_a   9.80586800
_cell_length_b   9.83194362
_cell_length_c   13.91141075
_cell_angle_alpha   90.18086448
_cell_angle_beta   89.92246700
_cell_angle_gamma   119.83664691
_symmetry_Int_Tables_number   1
_chemical_formula_structural   Li7V3P8O29
_chemical_formula_sum   'Li14 V6 P16 O58'
_cell_volume   1163.42280329
_cell_formula_units_Z   2
loop_
 _symmetry_equiv_pos_site_id
 _symmetry_equiv_pos_as_xyz
  1  'x, y, z'
loop_
 _atom_site_type_symbol
 _atom_site_label
 _atom_site_symmetry_multiplicity
 _atom_site_fract_x
 _atom_site_fract_y
 _atom_site_fract_z
 _atom_site_occupancy
  Li  Li0  1  0.76657100  0.66876100  0.56161000  1
  Li  Li1  1  0.90063000  0.24007300  0.55922000  1
  Li  Li2  1  0.67233900  0.33850100  0.88644800  1
  Li  Li3  1  0.76684700  0.09285300  0.06443500  1
  Li  Li4  1  0.31531500  0.22099000  0.06123600  1
  Li  Li5  1  0.66894100  0.90471300  0.43901300  1
  Li  Li6  1  0.33496800  0.09493700  0.56171900  1
  Li  Li7  1  0.22783900  0.90503700  0.93768600  1
  Li  Li8  1  0.34433300  0.67445200  0.11389000  1
  Li  Li9  1  0.09663900  0.76724500  0.43402000  1
  Li  Li10  1  0.24407100  0.34425800  0.44054900  1
  Li  Li11  1  0.09255800  0.32540300  0.94224500  1
  Li  Li12  1  0.90095700  0.90086600  0.97924000  1
  Li  Li13  1  0.00857800  0.01191700  0.49807900  1
  V  V14  1  0.56449400  0.99818600  0.25273000  1
  V  V15  1  0.43668900  0.00175900  0.75101700  1
  V  V16  1  0.56638300  0.56980500  0.74920200  1
  V  V17  1  0.43918900  0.43807900  0.24894400  1
  V  V18  1  0.99729900  0.56529000  0.24940600  1
  V  V19  1  0.00311300  0.44028700  0.74947700  1
  P  P20  1  0.90960100  0.69137800  0.83594600  1
  P  P21  1  0.77188100  0.68806900  0.34529400  1
  P  P22  1  0.91832400  0.22902700  0.34474300  1
  P  P23  1  0.66764000  0.33367200  0.12853700  1
  P  P24  1  0.66984700  0.33538100  0.62821100  1
  P  P25  1  0.78040500  0.09308800  0.84644700  1
  P  P26  1  0.69120500  0.91726500  0.65853100  1
  P  P27  1  0.32030000  0.23263500  0.84507700  1
  P  P28  1  0.69045000  0.77462100  0.15716500  1
  P  P29  1  0.31171100  0.08877600  0.34271900  1
  P  P30  1  0.22355800  0.90505500  0.15768200  1
  P  P31  1  0.33134500  0.66073800  0.37255100  1
  P  P32  1  0.33194400  0.66617600  0.87219600  1
  P  P33  1  0.08595000  0.77239600  0.65081300  1
  P  P34  1  0.22694600  0.31191800  0.65831600  1
  P  P35  1  0.09103500  0.31975100  0.15826200  1
  O  O36  1  0.00000600  0.77075500  0.55964100  1
  O  O37  1  0.91713300  0.66662200  0.34281600  1
  O  O38  1  0.78093800  0.76356100  0.07512600  1
  O  O39  1  0.73929500  0.66133400  0.83684500  1
  O  O40  1  0.90060600  0.52935300  0.83154300  1
  O  O41  1  0.81197200  0.47761800  0.17572700  1
  O  O42  1  0.91807700  0.38414300  0.33295700  1
  O  O43  1  0.99502600  0.24095000  0.06981800  1
  O  O44  1  0.92699700  0.25918400  0.84216800  1
  O  O45  1  0.67864100  0.49190000  0.66391600  1
  O  O46  1  0.61799300  0.53048300  0.33385700  1
  O  O47  1  0.81397900  0.32860400  0.67793700  1
  O  O48  1  0.66419000  0.34118700  0.02089900  1
  O  O49  1  0.68888200  0.33263200  0.52171100  1
  O  O50  1  0.66753100  0.18408700  0.16274300  1
  O  O51  1  0.48621200  0.37465400  0.82608600  1
  O  O52  1  0.51569000  0.33243500  0.17042900  1
  O  O53  1  0.75413800  0.08497200  0.34554700  1
  O  O54  1  0.79435500  0.00137800  0.75342700  1
  O  O55  1  0.78892300  0.00480800  0.57069700  1
  O  O56  1  0.78898100  0.01021200  0.93540400  1
  O  O57  1  0.63247300  0.10896600  0.83798400  1
  O  O58  1  0.51454400  0.19418500  0.66677800  1
  O  O59  1  0.66925700  0.91929700  0.15600600  1
  O  O60  1  0.46731300  0.09123200  0.33601500  1
  O  O61  1  0.33208900  0.25486700  0.34135300  1
  O  O62  1  0.78699600  0.79627800  0.25620200  1
  O  O63  1  0.77483100  0.77633100  0.43595100  1
  O  O64  1  0.22351600  0.21818200  0.57037500  1
  O  O65  1  0.67002200  0.74992600  0.65905000  1
  O  O66  1  0.53478500  0.91313200  0.66567100  1
  O  O67  1  0.33199600  0.08346000  0.84696900  1
  O  O68  1  0.48682800  0.80772700  0.33988600  1
  O  O69  1  0.36881900  0.88464600  0.16898500  1
  O  O70  1  0.22911700  0.99391900  0.06759000  1
  O  O71  1  0.21323800  0.00129700  0.43052600  1
  O  O72  1  0.20996200  0.00276800  0.24741100  1
  O  O73  1  0.24883600  0.91809000  0.65560500  1
  O  O74  1  0.47674000  0.66904100  0.82510100  1
  O  O75  1  0.52296700  0.62702400  0.17030100  1
  O  O76  1  0.32484300  0.81347900  0.84034000  1
  O  O77  1  0.32042800  0.64499700  0.97949600  1
  O  O78  1  0.32127500  0.63285500  0.47863300  1
  O  O79  1  0.18799000  0.67475300  0.33282200  1
  O  O80  1  0.38458500  0.46632700  0.66880100  1
  O  O81  1  0.32438700  0.51113800  0.32174900  1
  O  O82  1  0.07596100  0.74217800  0.16295700  1
  O  O83  1  0.98434800  0.78540300  0.73800700  1
  O  O84  1  0.00338900  0.79607700  0.91757200  1
  O  O85  1  0.09060400  0.61984000  0.66590400  1
  O  O86  1  0.18202000  0.51675700  0.82728700  1
  O  O87  1  0.11315300  0.48592600  0.17439400  1
  O  O88  1  0.25452600  0.33407800  0.15396700  1
  O  O89  1  0.24274900  0.25091100  0.93420000  1
  O  O90  1  0.20863200  0.21264900  0.75410900  1
  O  O91  1  0.08428600  0.33673200  0.65666400  1
  O  O92  1  0.00986500  0.22775000  0.43306200  1
  O  O93  1  0.00583400  0.21175500  0.25032000  1
