# generated using pymatgen
data_NaLiCoPO4F
_symmetry_space_group_name_H-M   'P 1'
_cell_length_a   6.35230400
_cell_length_b   11.02338100
_cell_length_c   11.45747800
_cell_angle_alpha   90.00000000
_cell_angle_beta   90.00000000
_cell_angle_gamma   90.00000000
_symmetry_Int_Tables_number   1
_chemical_formula_structural   NaLiCoPO4F
_chemical_formula_sum   'Na8 Li8 Co8 P8 O32 F8'
_cell_volume   802.29691815
_cell_formula_units_Z   8
loop_
 _symmetry_equiv_pos_site_id
 _symmetry_equiv_pos_as_xyz
  1  'x, y, z'
loop_
 _atom_site_type_symbol
 _atom_site_label
 _atom_site_symmetry_multiplicity
 _atom_site_fract_x
 _atom_site_fract_y
 _atom_site_fract_z
 _atom_site_occupancy
  Na  Na0  1  0.00799600  0.22329000  0.65338400  1
  Na  Na1  1  0.49200400  0.72329000  0.84661600  1
  Na  Na2  1  0.50799600  0.77671000  0.34661600  1
  Na  Na3  1  0.99200400  0.27671000  0.15338400  1
  Na  Na4  1  0.99200400  0.77671000  0.34661600  1
  Na  Na5  1  0.50799600  0.27671000  0.15338400  1
  Na  Na6  1  0.49200400  0.22329000  0.65338400  1
  Na  Na7  1  0.00799600  0.72329000  0.84661600  1
  Li  Li8  1  0.25000000  0.27378900  0.40965500  1
  Li  Li9  1  0.25000000  0.77378900  0.09034500  1
  Li  Li10  1  0.75000000  0.72621100  0.59034500  1
  Li  Li11  1  0.75000000  0.22621100  0.90965500  1
  Li  Li12  1  0.25000000  0.94930000  0.73180700  1
  Li  Li13  1  0.25000000  0.44930000  0.76819300  1
  Li  Li14  1  0.75000000  0.05070000  0.26819300  1
  Li  Li15  1  0.75000000  0.55070000  0.23180700  1
  Co  Co16  1  0.00000000  0.00000000  0.00000000  1
  Co  Co17  1  0.50000000  0.50000000  0.50000000  1
  Co  Co18  1  0.50000000  0.00000000  0.00000000  1
  Co  Co19  1  0.00000000  0.50000000  0.50000000  1
  Co  Co20  1  0.00000000  0.00000000  0.50000000  1
  Co  Co21  1  0.50000000  0.50000000  0.00000000  1
  Co  Co22  1  0.50000000  0.00000000  0.50000000  1
  Co  Co23  1  0.00000000  0.50000000  0.00000000  1
  P  P24  1  0.25000000  0.04187400  0.25742800  1
  P  P25  1  0.25000000  0.54187400  0.24257200  1
  P  P26  1  0.75000000  0.95812600  0.74257200  1
  P  P27  1  0.75000000  0.45812600  0.75742800  1
  P  P28  1  0.25000000  0.24671800  0.92155000  1
  P  P29  1  0.25000000  0.74671800  0.57845000  1
  P  P30  1  0.75000000  0.75328200  0.07845000  1
  P  P31  1  0.75000000  0.25328200  0.42155000  1
  O  O32  1  0.04812800  0.18033900  0.96450200  1
  O  O33  1  0.45187200  0.68033900  0.53549800  1
  O  O34  1  0.54812800  0.81966100  0.03549800  1
  O  O35  1  0.95187200  0.31966100  0.46450200  1
  O  O36  1  0.95187200  0.81966100  0.03549800  1
  O  O37  1  0.54812800  0.31966100  0.46450200  1
  O  O38  1  0.45187200  0.18033900  0.96450200  1
  O  O39  1  0.04812800  0.68033900  0.53549800  1
  O  O40  1  0.25000000  0.26609500  0.79002600  1
  O  O41  1  0.25000000  0.76609500  0.70997400  1
  O  O42  1  0.75000000  0.73390500  0.20997400  1
  O  O43  1  0.75000000  0.23390500  0.29002600  1
  O  O44  1  0.25000000  0.18158800  0.25828600  1
  O  O45  1  0.25000000  0.68158800  0.24171400  1
  O  O46  1  0.75000000  0.81841200  0.74171400  1
  O  O47  1  0.75000000  0.31841200  0.75828600  1
  O  O48  1  0.25000000  0.37537000  0.98389200  1
  O  O49  1  0.25000000  0.87537000  0.51610800  1
  O  O50  1  0.75000000  0.62463000  0.01610800  1
  O  O51  1  0.75000000  0.12463000  0.48389200  1
  O  O52  1  0.25000000  0.49191500  0.37119200  1
  O  O53  1  0.25000000  0.99191500  0.12880800  1
  O  O54  1  0.75000000  0.50808500  0.62880800  1
  O  O55  1  0.75000000  0.00808500  0.87119200  1
  O  O56  1  0.54741200  0.00742700  0.68006500  1
  O  O57  1  0.95258800  0.50742700  0.81993500  1
  O  O58  1  0.04741200  0.99257300  0.31993500  1
  O  O59  1  0.45258800  0.49257300  0.18006500  1
  O  O60  1  0.45258800  0.99257300  0.31993500  1
  O  O61  1  0.04741200  0.49257300  0.18006500  1
  O  O62  1  0.95258800  0.00742700  0.68006500  1
  O  O63  1  0.54741200  0.50742700  0.81993500  1
  F  F64  1  0.25000000  0.12780300  0.52681900  1
  F  F65  1  0.25000000  0.62780300  0.97318100  1
  F  F66  1  0.75000000  0.87219700  0.47318100  1
  F  F67  1  0.75000000  0.37219700  0.02681900  1
  F  F68  1  0.25000000  0.44104800  0.60604300  1
  F  F69  1  0.25000000  0.94104800  0.89395700  1
  F  F70  1  0.75000000  0.55895200  0.39395700  1
  F  F71  1  0.75000000  0.05895200  0.10604300  1
