# generated using pymatgen
data_Li9Mn2Co5O16
_symmetry_space_group_name_H-M   'P 1'
_cell_length_a   3.02282500
_cell_length_b   7.79535792
_cell_length_c   12.49609157
_cell_angle_alpha   89.40139223
_cell_angle_beta   89.78653119
_cell_angle_gamma   82.32925312
_symmetry_Int_Tables_number   1
_chemical_formula_structural   Li9Mn2Co5O16
_chemical_formula_sum   'Li9 Mn2 Co5 O16'
_cell_volume   291.80623976
_cell_formula_units_Z   1
loop_
 _symmetry_equiv_pos_site_id
 _symmetry_equiv_pos_as_xyz
  1  'x, y, z'
loop_
 _atom_site_type_symbol
 _atom_site_label
 _atom_site_symmetry_multiplicity
 _atom_site_fract_x
 _atom_site_fract_y
 _atom_site_fract_z
 _atom_site_occupancy
  Li  Li0  1  0.18979200  0.62416000  0.06459200  1
  Li  Li1  1  0.93894500  0.12058300  0.31744800  1
  Li  Li2  1  0.68244400  0.62550000  0.56011100  1
  Li  Li3  1  0.81420700  0.37272400  0.93677600  1
  Li  Li4  1  0.56625700  0.87379800  0.19035700  1
  Li  Li5  1  0.31708600  0.37637600  0.44041900  1
  Li  Li6  1  0.43593000  0.12615300  0.80916200  1
  Li  Li7  1  0.05720500  0.87965200  0.68121800  1
  Li  Li8  1  0.50014600  0.99965000  0.49934700  1
  Mn  Mn9  1  0.98874700  0.00222400  0.00078400  1
  Mn  Mn10  1  0.63080900  0.74686000  0.87265300  1
  Co  Co11  1  0.75817700  0.50228700  0.25359300  1
  Co  Co12  1  0.25643900  0.49627200  0.74487600  1
  Co  Co13  1  0.37355800  0.25484500  0.12902000  1
  Co  Co14  1  0.11487700  0.76047300  0.37982200  1
  Co  Co15  1  0.88342300  0.23727400  0.62022700  1
  O  O16  1  0.62227200  0.81289000  0.02475800  1
  O  O17  1  0.38683000  0.32086600  0.27804100  1
  O  O18  1  0.09836900  0.80226800  0.51634200  1
  O  O19  1  0.26072300  0.55859900  0.89583100  1
  O  O20  1  0.95173600  0.07231000  0.14995000  1
  O  O21  1  0.73199100  0.57455000  0.39736700  1
  O  O22  1  0.83572500  0.31349700  0.76587600  1
  O  O23  1  0.48511400  0.07607500  0.65211900  1
  O  O24  1  0.79904200  0.43431700  0.10712400  1
  O  O25  1  0.50153200  0.92374200  0.34631200  1
  O  O26  1  0.25365200  0.42948000  0.60020400  1
  O  O27  1  0.36271500  0.18845200  0.97663800  1
  O  O28  1  0.12906800  0.68256900  0.23358000  1
  O  O29  1  0.90041600  0.19789800  0.48308100  1
  O  O30  1  0.00159200  0.93264900  0.85012400  1
  O  O31  1  0.67117900  0.68100900  0.72224400  1
