# generated using pymatgen
data_Li3InBr6
_symmetry_space_group_name_H-M   'P 1'
_cell_length_a   6.83925894
_cell_length_b   6.83925894
_cell_length_c   13.27844739
_cell_angle_alpha   84.84875890
_cell_angle_beta   84.84875890
_cell_angle_gamma   119.78858880
_symmetry_Int_Tables_number   1
_chemical_formula_structural   Li3InBr6
_chemical_formula_sum   'Li6 In2 Br12'
_cell_volume   530.32961638
_cell_formula_units_Z   2
loop_
 _symmetry_equiv_pos_site_id
 _symmetry_equiv_pos_as_xyz
  1  'x, y, z'
loop_
 _atom_site_type_symbol
 _atom_site_label
 _atom_site_symmetry_multiplicity
 _atom_site_fract_x
 _atom_site_fract_y
 _atom_site_fract_z
 _atom_site_occupancy
  Li  Li0  1  0.66050800  0.82111200  0.00038700  1
  Li  Li1  1  0.59300200  0.40699800  0.25000000  1
  Li  Li2  1  0.17888800  0.33949200  0.49961300  1
  Li  Li3  1  0.82111200  0.66050800  0.50038700  1
  Li  Li4  1  0.40699800  0.59300200  0.75000000  1
  Li  Li5  1  0.33949200  0.17888800  0.99961300  1
  In  In6  1  0.00000000  0.50000000  0.00000000  1
  In  In7  1  0.50000000  0.00000000  0.50000000  1
  Br  Br8  1  0.63162800  0.13908900  0.11788500  1
  Br  Br9  1  0.94908900  0.77789100  0.11944200  1
  Br  Br10  1  0.29108400  0.45963300  0.11915700  1
  Br  Br11  1  0.54036700  0.70891600  0.38084300  1
  Br  Br12  1  0.22210900  0.05091100  0.38055800  1
  Br  Br13  1  0.86091100  0.36837200  0.38211500  1
  Br  Br14  1  0.13908900  0.63162800  0.61788500  1
  Br  Br15  1  0.45963300  0.29108400  0.61915700  1
  Br  Br16  1  0.77789100  0.94908900  0.61944200  1
  Br  Br17  1  0.70891600  0.54036700  0.88084300  1
  Br  Br18  1  0.05091100  0.22210900  0.88055800  1
  Br  Br19  1  0.36837200  0.86091100  0.88211500  1
