# generated using pymatgen
data_Li2FeSiO4
_symmetry_space_group_name_H-M   'P 1'
_cell_length_a   6.37568876
_cell_length_b   5.11710690
_cell_length_c   10.90160947
_cell_angle_alpha   90.00000000
_cell_angle_beta   88.34017909
_cell_angle_gamma   90.00000000
_symmetry_Int_Tables_number   1
_chemical_formula_structural   Li2FeSiO4
_chemical_formula_sum   'Li8 Fe4 Si4 O16'
_cell_volume   355.51666032
_cell_formula_units_Z   4
loop_
 _symmetry_equiv_pos_site_id
 _symmetry_equiv_pos_as_xyz
  1  'x, y, z'
loop_
 _atom_site_type_symbol
 _atom_site_label
 _atom_site_symmetry_multiplicity
 _atom_site_fract_x
 _atom_site_fract_y
 _atom_site_fract_z
 _atom_site_occupancy
  Li  Li0  1  0.00462749  0.20012297  0.83044069  1
  Li  Li1  1  0.00462749  0.29987703  0.33044069  1
  Li  Li2  1  0.21609510  0.30199679  0.57119404  1
  Li  Li3  1  0.21609510  0.19800321  0.07119404  1
  Li  Li4  1  0.78390490  0.80199679  0.92880596  1
  Li  Li5  1  0.78390490  0.69800321  0.42880596  1
  Li  Li6  1  0.99537251  0.70012297  0.66955931  1
  Li  Li7  1  0.99537251  0.79987703  0.16955931  1
  Fe  Fe8  1  0.50575802  0.20661709  0.84288202  1
  Fe  Fe9  1  0.49424198  0.70661709  0.65711798  1
  Fe  Fe10  1  0.50575802  0.29338291  0.34288202  1
  Fe  Fe11  1  0.49424198  0.79338291  0.15711798  1
  Si  Si12  1  0.24590217  0.69859943  0.91028383  1
  Si  Si13  1  0.24590217  0.80140057  0.41028383  1
  Si  Si14  1  0.75409783  0.19859943  0.58971617  1
  Si  Si15  1  0.75409783  0.30140057  0.08971617  1
  O  O16  1  0.04866103  0.81397048  0.83664746  1
  O  O17  1  0.04866103  0.68602952  0.33664746  1
  O  O18  1  0.24217028  0.37468720  0.91086434  1
  O  O19  1  0.24631844  0.69258982  0.55288645  1
  O  O20  1  0.24217028  0.12531280  0.41086434  1
  O  O21  1  0.47586039  0.78970272  0.84187813  1
  O  O22  1  0.24631844  0.80741018  0.05288645  1
  O  O23  1  0.47586039  0.71029728  0.34187813  1
  O  O24  1  0.52413961  0.28970272  0.65812187  1
  O  O25  1  0.75368156  0.19258982  0.94711355  1
  O  O26  1  0.52413961  0.21029728  0.15812187  1
  O  O27  1  0.75782972  0.87468720  0.58913566  1
  O  O28  1  0.75368156  0.30741018  0.44711355  1
  O  O29  1  0.75782972  0.62531280  0.08913566  1
  O  O30  1  0.95133897  0.31397048  0.66335254  1
  O  O31  1  0.95133897  0.18602952  0.16335254  1
