# generated using pymatgen
data_Li4MnCo2O7
_symmetry_space_group_name_H-M   'P 1'
_cell_length_a   2.97817500
_cell_length_b   8.08496610
_cell_length_c   10.67428049
_cell_angle_alpha   78.32814455
_cell_angle_beta   85.99897317
_cell_angle_gamma   89.05352025
_symmetry_Int_Tables_number   1
_chemical_formula_structural   Li4MnCo2O7
_chemical_formula_sum   'Li8 Mn2 Co4 O14'
_cell_volume   251.09126568
_cell_formula_units_Z   2
loop_
 _symmetry_equiv_pos_site_id
 _symmetry_equiv_pos_as_xyz
  1  'x, y, z'
loop_
 _atom_site_type_symbol
 _atom_site_label
 _atom_site_symmetry_multiplicity
 _atom_site_fract_x
 _atom_site_fract_y
 _atom_site_fract_z
 _atom_site_occupancy
  Li  Li0  1  0.14921600  0.07444300  0.71015400  1
  Li  Li1  1  0.84905000  0.92299200  0.28605100  1
  Li  Li2  1  0.55868800  0.77980200  0.86453200  1
  Li  Li3  1  0.71683700  0.35755400  0.57093000  1
  Li  Li4  1  0.43186700  0.21791400  0.14232300  1
  Li  Li5  1  0.29282200  0.63723600  0.42753600  1
  Li  Li6  1  0.99736100  0.50919900  0.00439400  1
  Li  Li7  1  0.44230700  0.71086200  0.13613900  1
  Mn  Mn8  1  0.99494400  0.99249900  0.00336200  1
  Mn  Mn9  1  0.71235200  0.85702100  0.57040200  1
  Co  Co10  1  0.13721600  0.57034400  0.71603500  1
  Co  Co11  1  0.86622700  0.44006000  0.28008900  1
  Co  Co12  1  0.55817000  0.28700600  0.85992200  1
  Co  Co13  1  0.29110500  0.14604700  0.42661600  1
  O  O14  1  0.53483600  0.04239800  0.87431300  1
  O  O15  1  0.31552600  0.90693100  0.42684400  1
  O  O16  1  0.00785900  0.76737600  0.99784700  1
  O  O17  1  0.16354400  0.32954300  0.72291400  1
  O  O18  1  0.88406400  0.19631400  0.29315900  1
  O  O19  1  0.73951300  0.61212900  0.57891300  1
  O  O20  1  0.45117200  0.45919800  0.15526500  1
  O  O21  1  0.68583900  0.10086800  0.56629900  1
  O  O22  1  0.46313900  0.96986800  0.12495200  1
  O  O23  1  0.11660200  0.81165400  0.70916700  1
  O  O24  1  0.26523800  0.38105500  0.42122100  1
  O  O25  1  0.97313500  0.24278000  0.99054200  1
  O  O26  1  0.85049800  0.65107700  0.29104800  1
  O  O27  1  0.55087400  0.52582800  0.84903100  1
