# generated using pymatgen
data_Li9Mn2Co5O16
_symmetry_space_group_name_H-M   'P 1'
_cell_length_a   5.88717000
_cell_length_b   5.89002876
_cell_length_c   8.58292931
_cell_angle_alpha   70.61612698
_cell_angle_beta   87.99090175
_cell_angle_gamma   86.79341649
_symmetry_Int_Tables_number   1
_chemical_formula_structural   Li9Mn2Co5O16
_chemical_formula_sum   'Li9 Mn2 Co5 O16'
_cell_volume   280.26553298
_cell_formula_units_Z   1
loop_
 _symmetry_equiv_pos_site_id
 _symmetry_equiv_pos_as_xyz
  1  'x, y, z'
loop_
 _atom_site_type_symbol
 _atom_site_label
 _atom_site_symmetry_multiplicity
 _atom_site_fract_x
 _atom_site_fract_y
 _atom_site_fract_z
 _atom_site_occupancy
  Li  Li0  1  0.50000000  0.50000000  0.50000000  1
  Li  Li1  1  0.75533900  0.36675000  0.25871700  1
  Li  Li2  1  0.50000000  0.00000000  0.50000000  1
  Li  Li3  1  0.75499100  0.87425200  0.25769500  1
  Li  Li4  1  0.99730700  0.75045000  0.00112100  1
  Li  Li5  1  0.00269300  0.24955000  0.99887900  1
  Li  Li6  1  0.24500900  0.12574800  0.74230500  1
  Li  Li7  1  0.24466100  0.63325000  0.74128300  1
  Li  Li8  1  0.00000000  0.00000000  0.50000000  1
  Mn  Mn9  1  0.75510200  0.63427700  0.74594200  1
  Mn  Mn10  1  0.24489800  0.36572300  0.25405800  1
  Co  Co11  1  0.00000000  0.50000000  0.50000000  1
  Co  Co12  1  0.50320800  0.25097800  0.00208500  1
  Co  Co13  1  0.75500600  0.13030400  0.74770200  1
  Co  Co14  1  0.24499400  0.86969600  0.25229800  1
  Co  Co15  1  0.49679200  0.74902200  0.99791500  1
  O  O16  1  0.75541600  0.73387100  0.51199900  1
  O  O17  1  0.00105000  0.59713300  0.25983500  1
  O  O18  1  0.77388400  0.26094400  0.51910700  1
  O  O19  1  0.03356200  0.13094000  0.24852300  1
  O  O20  1  0.26418600  0.98017500  0.01087200  1
  O  O21  1  0.26261900  0.47807200  0.01141100  1
  O  O22  1  0.53185200  0.38037700  0.76219800  1
  O  O23  1  0.50314900  0.85813200  0.75732800  1
  O  O24  1  0.24458400  0.26612900  0.48800100  1
  O  O25  1  0.49685100  0.14186800  0.24267200  1
  O  O26  1  0.22611600  0.73905600  0.48089300  1
  O  O27  1  0.46814800  0.61962300  0.23780200  1
  O  O28  1  0.73738100  0.52192800  0.98858900  1
  O  O29  1  0.73581400  0.01982500  0.98912800  1
  O  O30  1  0.96643800  0.86906000  0.75147700  1
  O  O31  1  0.99895000  0.40286700  0.74016500  1
