# generated using pymatgen
data_Li9Mn7O16
_symmetry_space_group_name_H-M   'P 1'
_cell_length_a   5.09267200
_cell_length_b   5.10521497
_cell_length_c   12.06202784
_cell_angle_alpha   91.81898231
_cell_angle_beta   93.46371743
_cell_angle_gamma   107.33179163
_symmetry_Int_Tables_number   1
_chemical_formula_structural   Li9Mn7O16
_chemical_formula_sum   'Li9 Mn7 O16'
_cell_volume   298.40968602
_cell_formula_units_Z   1
loop_
 _symmetry_equiv_pos_site_id
 _symmetry_equiv_pos_as_xyz
  1  'x, y, z'
loop_
 _atom_site_type_symbol
 _atom_site_label
 _atom_site_symmetry_multiplicity
 _atom_site_fract_x
 _atom_site_fract_y
 _atom_site_fract_z
 _atom_site_occupancy
  Li  Li0  1  0.00000000  0.50000000  0.00000000  1
  Li  Li1  1  0.50151200  0.49477100  0.12087200  1
  Li  Li2  1  0.00661100  0.50430300  0.24236700  1
  Li  Li3  1  0.49437800  0.49516700  0.37733200  1
  Li  Li4  1  0.00000000  0.50000000  0.50000000  1
  Li  Li5  1  0.50562200  0.50483300  0.62266800  1
  Li  Li6  1  0.99338900  0.49569700  0.75763300  1
  Li  Li7  1  0.49848800  0.50522900  0.87912800  1
  Li  Li8  1  0.50000000  0.00000000  0.00000000  1
  Mn  Mn9  1  0.99369700  0.98745400  0.88119000  1
  Mn  Mn10  1  0.00630300  0.01254600  0.11881000  1
  Mn  Mn11  1  0.50993800  0.01169100  0.24090200  1
  Mn  Mn12  1  0.00621100  0.00471200  0.37181000  1
  Mn  Mn13  1  0.50000000  0.00000000  0.50000000  1
  Mn  Mn14  1  0.99378900  0.99528800  0.62819000  1
  Mn  Mn15  1  0.49006200  0.98830900  0.75909800  1
  O  O16  1  0.22727600  0.76084600  0.87839200  1
  O  O17  1  0.78552000  0.78068300  0.99670600  1
  O  O18  1  0.25165400  0.77799000  0.13202100  1
  O  O19  1  0.78009900  0.79184400  0.23860600  1
  O  O20  1  0.24878100  0.77056000  0.38171900  1
  O  O21  1  0.74625600  0.76499000  0.50565000  1
  O  O22  1  0.24380600  0.76900600  0.63397100  1
  O  O23  1  0.74069700  0.75891100  0.76092800  1
  O  O24  1  0.77272400  0.23915400  0.12160800  1
  O  O25  1  0.25930300  0.24108900  0.23907200  1
  O  O26  1  0.75619400  0.23099400  0.36602900  1
  O  O27  1  0.25374400  0.23501000  0.49435000  1
  O  O28  1  0.75121900  0.22944000  0.61828100  1
  O  O29  1  0.21990100  0.20815600  0.76139400  1
  O  O30  1  0.74834600  0.22201000  0.86797900  1
  O  O31  1  0.21448000  0.21931700  0.00329400  1
