# generated using pymatgen
data_LiCuS
_symmetry_space_group_name_H-M   'P 1'
_cell_length_a   6.99701072
_cell_length_b   6.98023737
_cell_length_c   6.06425988
_cell_angle_alpha   64.42967935
_cell_angle_beta   64.14411161
_cell_angle_gamma   51.42620904
_symmetry_Int_Tables_number   1
_chemical_formula_structural   LiCuS
_chemical_formula_sum   'Li4 Cu4 S4'
_cell_volume   202.93831633
_cell_formula_units_Z   4
loop_
 _symmetry_equiv_pos_site_id
 _symmetry_equiv_pos_as_xyz
  1  'x, y, z'
loop_
 _atom_site_type_symbol
 _atom_site_label
 _atom_site_symmetry_multiplicity
 _atom_site_fract_x
 _atom_site_fract_y
 _atom_site_fract_z
 _atom_site_occupancy
  Li  Li0  1  0.63919500  0.63919500  0.36080500  1
  Li  Li1  1  0.88919500  0.88919500  0.61080500  1
  Li  Li2  1  0.36080500  0.36080500  0.63919500  1
  Li  Li3  1  0.61080500  0.61080500  0.88919500  1
  Cu  Cu4  1  0.62500000  0.12500000  0.12500000  1
  Cu  Cu5  1  0.12500000  0.12500000  0.12500000  1
  Cu  Cu6  1  0.12500000  0.62500000  0.12500000  1
  Cu  Cu7  1  0.12500000  0.12500000  0.62500000  1
  S  S8  1  0.97961900  0.52038100  0.97961900  1
  S  S9  1  0.52038100  0.97961900  0.52038100  1
  S  S10  1  0.27038100  0.72961900  0.27038100  1
  S  S11  1  0.72961900  0.27038100  0.72961900  1
