# generated using pymatgen
data_Li4MnCo2O7
_symmetry_space_group_name_H-M   'P 1'
_cell_length_a   2.98448000
_cell_length_b   7.79589229
_cell_length_c   11.20846298
_cell_angle_alpha   79.81310548
_cell_angle_beta   82.90513882
_cell_angle_gamma   81.62198645
_symmetry_Int_Tables_number   1
_chemical_formula_structural   Li4MnCo2O7
_chemical_formula_sum   'Li8 Mn2 Co4 O14'
_cell_volume   252.65109100
_cell_formula_units_Z   2
loop_
 _symmetry_equiv_pos_site_id
 _symmetry_equiv_pos_as_xyz
  1  'x, y, z'
loop_
 _atom_site_type_symbol
 _atom_site_label
 _atom_site_symmetry_multiplicity
 _atom_site_fract_x
 _atom_site_fract_y
 _atom_site_fract_z
 _atom_site_occupancy
  Li  Li0  1  0.79065900  0.35388700  0.07525700  1
  Li  Li1  1  0.93915000  0.77347500  0.35766000  1
  Li  Li2  1  0.07005000  0.21498100  0.64161900  1
  Li  Li3  1  0.21383700  0.64556100  0.92654700  1
  Li  Li4  1  0.33539300  0.07626900  0.22324500  1
  Li  Li5  1  0.50645700  0.49951400  0.49040200  1
  Li  Li6  1  0.64689300  0.92771800  0.78278900  1
  Li  Li7  1  0.12418000  0.43446200  0.29198300  1
  Mn  Mn8  1  0.01023000  0.00156000  0.99808600  1
  Mn  Mn9  1  0.58185400  0.70356200  0.14806200  1
  Co  Co10  1  0.28760800  0.85831900  0.56873900  1
  Co  Co11  1  0.41866400  0.28885400  0.85677400  1
  Co  Co12  1  0.70904400  0.15363800  0.42451500  1
  Co  Co13  1  0.85327700  0.57106000  0.71235800  1
  O  O14  1  0.36585500  0.17965200  0.02878300  1
  O  O15  1  0.53133900  0.61700900  0.31012000  1
  O  O16  1  0.69381100  0.03543600  0.59222100  1
  O  O17  1  0.78316400  0.46114600  0.88415700  1
  O  O18  1  0.00365900  0.87357900  0.16832300  1
  O  O19  1  0.08467100  0.30509300  0.46290000  1
  O  O20  1  0.25599000  0.75196800  0.73925000  1
  O  O21  1  0.15510200  0.55613000  0.11245300  1
  O  O22  1  0.35160500  0.96893600  0.40267700  1
  O  O23  1  0.44453500  0.39705600  0.69008200  1
  O  O24  1  0.64577600  0.82432500  0.97195300  1
  O  O25  1  0.75125100  0.23143100  0.26749000  1
  O  O26  1  0.88725300  0.67938600  0.54348800  1
  O  O27  1  0.05869400  0.11599300  0.82806700  1
