# generated using pymatgen
data_Li2Ga3Te6(HO2)12
_symmetry_space_group_name_H-M   'P 1'
_cell_length_a   10.22304848
_cell_length_b   10.22304848
_cell_length_c   10.22304810
_cell_angle_alpha   54.67386226
_cell_angle_beta   54.67386226
_cell_angle_gamma   54.67386007
_symmetry_Int_Tables_number   1
_chemical_formula_structural   Li2Ga3Te6(HO2)12
_chemical_formula_sum   'Li2 Ga3 Te6 H12 O24'
_cell_volume   661.74051775
_cell_formula_units_Z   1
loop_
 _symmetry_equiv_pos_site_id
 _symmetry_equiv_pos_as_xyz
  1  'x, y, z'
loop_
 _atom_site_type_symbol
 _atom_site_label
 _atom_site_symmetry_multiplicity
 _atom_site_fract_x
 _atom_site_fract_y
 _atom_site_fract_z
 _atom_site_occupancy
  Li  Li0  1  0.30423600  0.30423600  0.30423600  1
  Li  Li1  1  0.69576400  0.69576400  0.69576400  1
  Ga  Ga2  1  0.19283800  0.19283800  0.19283800  1
  Ga  Ga3  1  0.80716200  0.80716200  0.80716200  1
  Ga  Ga4  1  0.00000000  0.00000000  0.00000000  1
  Te  Te5  1  0.07813300  0.60814500  0.01904800  1
  Te  Te6  1  0.60814500  0.01904800  0.07813300  1
  Te  Te7  1  0.01904800  0.07813300  0.60814500  1
  Te  Te8  1  0.92186700  0.39185500  0.98095200  1
  Te  Te9  1  0.39185500  0.98095200  0.92186700  1
  Te  Te10  1  0.98095200  0.92186700  0.39185500  1
  H  H11  1  0.15879300  0.43943200  0.51485800  1
  H  H12  1  0.43943200  0.51485800  0.15879300  1
  H  H13  1  0.51485800  0.15879300  0.43943200  1
  H  H14  1  0.84120700  0.56056800  0.48514200  1
  H  H15  1  0.56056800  0.48514200  0.84120700  1
  H  H16  1  0.48514200  0.84120700  0.56056800  1
  H  H17  1  0.12587700  0.27439100  0.66677200  1
  H  H18  1  0.27439100  0.66677200  0.12587700  1
  H  H19  1  0.66677200  0.12587700  0.27439100  1
  H  H20  1  0.87412300  0.72560900  0.33322800  1
  H  H21  1  0.72560900  0.33322800  0.87412300  1
  H  H22  1  0.33322800  0.87412300  0.72560900  1
  O  O23  1  0.07483800  0.41521400  0.22952200  1
  O  O24  1  0.41521400  0.22952200  0.07483800  1
  O  O25  1  0.22952200  0.07483800  0.41521400  1
  O  O26  1  0.92516200  0.58478600  0.77047800  1
  O  O27  1  0.58478600  0.77047800  0.92516200  1
  O  O28  1  0.77047800  0.92516200  0.58478600  1
  O  O29  1  0.86113800  0.66437100  0.02342300  1
  O  O30  1  0.66437100  0.02342300  0.86113800  1
  O  O31  1  0.02342300  0.86113800  0.66437100  1
  O  O32  1  0.13886200  0.33562900  0.97657700  1
  O  O33  1  0.33562900  0.97657700  0.13886200  1
  O  O34  1  0.97657700  0.13886200  0.33562900  1
  O  O35  1  0.98382200  0.76958900  0.11784800  1
  O  O36  1  0.76958900  0.11784800  0.98382200  1
  O  O37  1  0.11784800  0.98382200  0.76958900  1
  O  O38  1  0.01617800  0.23041100  0.88215200  1
  O  O39  1  0.23041100  0.88215200  0.01617800  1
  O  O40  1  0.88215200  0.01617800  0.23041100  1
  O  O41  1  0.18524900  0.32155000  0.53924800  1
  O  O42  1  0.32155000  0.53924800  0.18524900  1
  O  O43  1  0.53924800  0.18524900  0.32155000  1
  O  O44  1  0.81475100  0.67845000  0.46075200  1
  O  O45  1  0.67845000  0.46075200  0.81475100  1
  O  O46  1  0.46075200  0.81475100  0.67845000  1
