# generated using pymatgen
data_Li2MnV3O8
_symmetry_space_group_name_H-M   'P 1'
_cell_length_a   5.96355289
_cell_length_b   10.32949419
_cell_length_c   5.97028016
_cell_angle_alpha   90.41840687
_cell_angle_beta   119.88473649
_cell_angle_gamma   106.74177907
_symmetry_Int_Tables_number   1
_chemical_formula_structural   Li2MnV3O8
_chemical_formula_sum   'Li4 Mn2 V6 O16'
_cell_volume   300.27255539
_cell_formula_units_Z   2
loop_
 _symmetry_equiv_pos_site_id
 _symmetry_equiv_pos_as_xyz
  1  'x, y, z'
loop_
 _atom_site_type_symbol
 _atom_site_label
 _atom_site_symmetry_multiplicity
 _atom_site_fract_x
 _atom_site_fract_y
 _atom_site_fract_z
 _atom_site_occupancy
  Li  Li0  1  0.12800200  0.19002800  0.06123400  1
  Li  Li1  1  0.12368800  0.69131500  0.56157500  1
  Li  Li2  1  0.87631800  0.30869100  0.43842100  1
  Li  Li3  1  0.87200200  0.80997700  0.93876100  1
  Mn  Mn4  1  0.49223900  0.75065200  0.25017700  1
  Mn  Mn5  1  0.50773800  0.24935500  0.74987500  1
  V  V6  1  0.49998300  0.99997800  0.00001400  1
  V  V7  1  0.50000300  0.99994200  0.49994100  1
  V  V8  1  0.00002200  0.50002300  0.00004100  1
  V  V9  1  0.49997800  0.50001700  0.49999300  1
  V  V10  1  0.50001600  0.49999900  0.99998200  1
  V  V11  1  0.99996100  0.99997800  0.50001600  1
  O  O12  1  0.24838100  0.39582600  0.12294100  1
  O  O13  1  0.26984100  0.89578800  0.62217100  1
  O  O14  1  0.73016500  0.10422000  0.37782500  1
  O  O15  1  0.75162200  0.60417800  0.87705400  1
  O  O16  1  0.70574000  0.62409700  0.35331300  1
  O  O17  1  0.71705900  0.12209600  0.85193500  1
  O  O18  1  0.25636500  0.62309100  0.34934600  1
  O  O19  1  0.26815700  0.12428400  0.84982300  1
  O  O20  1  0.25791400  0.62495400  0.91136900  1
  O  O21  1  0.27872000  0.12508400  0.41035400  1
  O  O22  1  0.72128200  0.87492600  0.58964000  1
  O  O23  1  0.74209000  0.37505200  0.08862400  1
  O  O24  1  0.73185300  0.87572400  0.15017500  1
  O  O25  1  0.74364100  0.37691300  0.65064300  1
  O  O26  1  0.28295500  0.87791200  0.14806800  1
  O  O27  1  0.29426700  0.37590800  0.64668600  1
