# generated using pymatgen
data_Li7Mn5O12
_symmetry_space_group_name_H-M   'P 1'
_cell_length_a   5.27123392
_cell_length_b   6.03437454
_cell_length_c   15.11355825
_cell_angle_alpha   97.48876758
_cell_angle_beta   94.46372762
_cell_angle_gamma   110.57979034
_symmetry_Int_Tables_number   1
_chemical_formula_structural   Li7Mn5O12
_chemical_formula_sum   'Li14 Mn10 O24'
_cell_volume   442.24657167
_cell_formula_units_Z   2
loop_
 _symmetry_equiv_pos_site_id
 _symmetry_equiv_pos_as_xyz
  1  'x, y, z'
loop_
 _atom_site_type_symbol
 _atom_site_label
 _atom_site_symmetry_multiplicity
 _atom_site_fract_x
 _atom_site_fract_y
 _atom_site_fract_z
 _atom_site_occupancy
  Li  Li0  1  0.33335400  0.16667100  0.33332600  1
  Li  Li1  1  0.83335400  0.66663700  0.83333400  1
  Li  Li2  1  0.57393400  0.16778000  0.08221600  1
  Li  Li3  1  0.10368300  0.66399800  0.58930600  1
  Li  Li4  1  0.56301500  0.66938900  0.07735200  1
  Li  Li5  1  0.09276100  0.16555600  0.58447500  1
  Li  Li6  1  0.74860600  0.01111300  0.25165500  1
  Li  Li7  1  0.23395400  0.51965800  0.75142500  1
  Li  Li8  1  0.91821800  0.32222700  0.41502900  1
  Li  Li9  1  0.43261400  0.81363800  0.91524700  1
  Li  Li10  1  0.91959400  0.83992000  0.41256900  1
  Li  Li11  1  0.42110700  0.34249000  0.90877200  1
  Li  Li12  1  0.74710100  0.49346200  0.25409400  1
  Li  Li13  1  0.24554200  0.99084800  0.75786100  1
  Mn  Mn14  1  0.83315800  0.16661200  0.83337600  1
  Mn  Mn15  1  0.33345000  0.66667600  0.33335100  1
  Mn  Mn16  1  0.49816400  0.50222500  0.49806800  1
  Mn  Mn17  1  0.99217200  0.99850100  0.99837300  1
  Mn  Mn18  1  0.16844500  0.83112500  0.16859100  1
  Mn  Mn19  1  0.67437300  0.33477000  0.66825400  1
  Mn  Mn20  1  0.49552200  0.00767400  0.49785500  1
  Mn  Mn21  1  0.99241100  0.50356800  0.99638000  1
  Mn  Mn22  1  0.17110800  0.32568800  0.16880400  1
  Mn  Mn23  1  0.67449100  0.82973700  0.67031200  1
  O  O24  1  0.27796500  0.31747200  0.05065800  1
  O  O25  1  0.74364100  0.84287000  0.54022900  1
  O  O26  1  0.92304500  0.49048400  0.12643100  1
  O  O27  1  0.38863100  0.01587900  0.61599700  1
  O  O28  1  0.41540100  0.16545600  0.20341600  1
  O  O29  1  0.94579700  0.64799200  0.70279700  1
  O  O30  1  0.25123300  0.16792200  0.46324000  1
  O  O31  1  0.72086900  0.68529400  0.96385400  1
  O  O32  1  0.61110400  0.98457300  0.37759800  1
  O  O33  1  0.11121900  0.48391200  0.87730200  1
  O  O34  1  0.05559100  0.34882000  0.28907400  1
  O  O35  1  0.55536600  0.84934800  0.78937800  1
  O  O36  1  0.27499400  0.81607000  0.04597900  1
  O  O37  1  0.77936100  0.31495300  0.54088300  1
  O  O38  1  0.88728500  0.01839900  0.12576600  1
  O  O39  1  0.39173200  0.51731500  0.62069400  1
  O  O40  1  0.45254000  0.64471500  0.21525200  1
  O  O41  1  0.95239700  0.14634500  0.71502400  1
  O  O42  1  0.21419100  0.68865300  0.45141500  1
  O  O43  1  0.71423600  0.18697300  0.95166100  1
  O  O44  1  0.58636500  0.52039800  0.37725800  1
  O  O45  1  0.08664400  0.02205900  0.87762000  1
  O  O46  1  0.08031200  0.81293600  0.28940800  1
  O  O47  1  0.57995100  0.31120200  0.78903900  1
