# generated using pymatgen
data_Li7Co5O12
_symmetry_space_group_name_H-M   'P 1'
_cell_length_a   5.01463022
_cell_length_b   9.69793723
_cell_length_c   8.65032437
_cell_angle_alpha   89.87512266
_cell_angle_beta   90.14052972
_cell_angle_gamma   99.18866326
_symmetry_Int_Tables_number   1
_chemical_formula_structural   Li7Co5O12
_chemical_formula_sum   'Li14 Co10 O24'
_cell_volume   415.27871558
_cell_formula_units_Z   2
loop_
 _symmetry_equiv_pos_site_id
 _symmetry_equiv_pos_as_xyz
  1  'x, y, z'
loop_
 _atom_site_type_symbol
 _atom_site_label
 _atom_site_symmetry_multiplicity
 _atom_site_fract_x
 _atom_site_fract_y
 _atom_site_fract_z
 _atom_site_occupancy
  Li  Li0  1  0.50030800  0.50074800  0.33202300  1
  Li  Li1  1  0.50000800  0.00002000  0.83598600  1
  Li  Li2  1  0.24231800  0.24155500  0.83320100  1
  Li  Li3  1  0.25453100  0.74632200  0.32809300  1
  Li  Li4  1  0.75839500  0.75805200  0.83301600  1
  Li  Li5  1  0.74543300  0.25276800  0.32934900  1
  Li  Li6  1  0.24940900  0.75505600  0.00172700  1
  Li  Li7  1  0.25098500  0.25444400  0.49521200  1
  Li  Li8  1  0.26016100  0.25520400  0.17132800  1
  Li  Li9  1  0.24817800  0.75556500  0.67049700  1
  Li  Li10  1  0.75018400  0.24582500  0.00039300  1
  Li  Li11  1  0.74845600  0.74538400  0.49526200  1
  Li  Li12  1  0.73739300  0.74486700  0.17266300  1
  Li  Li13  1  0.75135700  0.24454400  0.67053500  1
  Co  Co14  1  0.00058900  0.49886900  0.83264400  1
  Co  Co15  1  0.99987200  0.00002400  0.99924500  1
  Co  Co16  1  0.99987700  0.00001900  0.67017100  1
  Co  Co17  1  0.50007900  0.00005100  0.51036300  1
  Co  Co18  1  0.50002000  0.00003800  0.15955900  1
  Co  Co19  1  0.00036400  0.00005300  0.33106300  1
  Co  Co20  1  0.00018000  0.50009700  0.49119700  1
  Co  Co21  1  0.00250100  0.50136000  0.16874700  1
  Co  Co22  1  0.49882200  0.50070400  0.00163300  1
  Co  Co23  1  0.50125300  0.49898400  0.66790300  1
  O  O24  1  0.36377400  0.60326500  0.83352800  1
  O  O25  1  0.38050600  0.11096300  0.32528900  1
  O  O26  1  0.64094300  0.39356100  0.82925600  1
  O  O27  1  0.61966700  0.88978000  0.32624100  1
  O  O28  1  0.89312600  0.62442900  0.33434900  1
  O  O29  1  0.89074800  0.10926800  0.83085300  1
  O  O30  1  0.10294000  0.37551500  0.33381200  1
  O  O31  1  0.10945600  0.89039200  0.83151400  1
  O  O32  1  0.36054600  0.11008800  0.01364200  1
  O  O33  1  0.36749900  0.61125900  0.52285100  1
  O  O34  1  0.36110900  0.61345000  0.15657900  1
  O  O35  1  0.34740400  0.11331800  0.65875100  1
  O  O36  1  0.63942900  0.88995600  0.01413300  1
  O  O37  1  0.63128200  0.38909700  0.52032300  1
  O  O38  1  0.63584100  0.39137000  0.15256100  1
  O  O39  1  0.65266700  0.88612300  0.65916100  1
  O  O40  1  0.88589800  0.61376700  0.98265300  1
  O  O41  1  0.87732100  0.11351300  0.50615300  1
  O  O42  1  0.86130500  0.60707200  0.67605100  1
  O  O43  1  0.85841900  0.10986300  0.16161600  1
  O  O44  1  0.11495800  0.38417700  0.98475600  1
  O  O45  1  0.12191400  0.88679600  0.50599400  1
  O  O46  1  0.14093200  0.39185000  0.67635000  1
  O  O47  1  0.14164200  0.89057800  0.16177300  1
