# generated using pymatgen
data_NaLi2FePCO7
_symmetry_space_group_name_H-M   'P 1'
_cell_length_a   6.57355700
_cell_length_b   8.68276325
_cell_length_c   10.22044440
_cell_angle_alpha   87.29457277
_cell_angle_beta   89.70034689
_cell_angle_gamma   89.22258524
_symmetry_Int_Tables_number   1
_chemical_formula_structural   NaLi2FePCO7
_chemical_formula_sum   'Na4 Li8 Fe4 P4 C4 O28'
_cell_volume   582.63863285
_cell_formula_units_Z   4
loop_
 _symmetry_equiv_pos_site_id
 _symmetry_equiv_pos_as_xyz
  1  'x, y, z'
loop_
 _atom_site_type_symbol
 _atom_site_label
 _atom_site_symmetry_multiplicity
 _atom_site_fract_x
 _atom_site_fract_y
 _atom_site_fract_z
 _atom_site_occupancy
  Na  Na0  1  0.75412200  0.91381200  0.12059500  1
  Na  Na1  1  0.76616700  0.91438000  0.62126100  1
  Na  Na2  1  0.49646800  0.74521800  0.87823800  1
  Na  Na3  1  0.49747700  0.25624400  0.62453400  1
  Li  Li4  1  0.97120700  0.71986200  0.38181300  1
  Li  Li5  1  0.53247200  0.72055100  0.38138400  1
  Li  Li6  1  0.97072000  0.71787400  0.88951900  1
  Li  Li7  1  0.47723700  0.27232000  0.11859700  1
  Li  Li8  1  0.01682800  0.27069700  0.11957900  1
  Li  Li9  1  0.02587200  0.27660700  0.61972800  1
  Li  Li10  1  0.23991200  0.09089100  0.37288200  1
  Li  Li11  1  0.21941300  0.09746900  0.87748800  1
  Fe  Fe12  1  0.24108800  0.65079000  0.11729100  1
  Fe  Fe13  1  0.25343700  0.65444300  0.60226500  1
  Fe  Fe14  1  0.76036000  0.34278300  0.38888400  1
  Fe  Fe15  1  0.75041800  0.34841300  0.89477900  1
  P  P16  1  0.74580600  0.58132800  0.14874400  1
  P  P17  1  0.76347200  0.58119000  0.63944600  1
  P  P18  1  0.25360100  0.41080800  0.34936500  1
  P  P19  1  0.24078300  0.41691800  0.85871300  1
  C  C20  1  0.24764400  0.96347700  0.13677100  1
  C  C21  1  0.23912900  0.95788900  0.64126000  1
  C  C22  1  0.75393900  0.04303400  0.36092600  1
  C  C23  1  0.76186400  0.05084600  0.86218700  1
  O  O24  1  0.74462700  0.89344500  0.35545700  1
  O  O25  1  0.77860800  0.90194700  0.85458100  1
  O  O26  1  0.25129300  0.92865900  0.01448100  1
  O  O27  1  0.24790000  0.92598400  0.51846600  1
  O  O28  1  0.23537700  0.85337300  0.22773800  1
  O  O29  1  0.24890100  0.84548800  0.73067100  1
  O  O30  1  0.92750700  0.67511600  0.09172800  1
  O  O31  1  0.55489500  0.67675800  0.10682600  1
  O  O32  1  0.94194500  0.68100900  0.58295400  1
  O  O33  1  0.56740100  0.66996000  0.59097800  1
  O  O34  1  0.75796600  0.57100700  0.30245500  1
  O  O35  1  0.25305000  0.57744200  0.39864200  1
  O  O36  1  0.76989200  0.57267300  0.79228800  1
  O  O37  1  0.22717600  0.57770000  0.91681200  1
  O  O38  1  0.74322500  0.41553800  0.09867900  1
  O  O39  1  0.23790100  0.42189400  0.19617400  1
  O  O40  1  0.77388100  0.41714900  0.58867200  1
  O  O41  1  0.23162100  0.43336600  0.70621900  1
  O  O42  1  0.44754700  0.31790100  0.38963200  1
  O  O43  1  0.07690400  0.31088100  0.40778500  1
  O  O44  1  0.43703000  0.32654300  0.90242300  1
  O  O45  1  0.06518500  0.31031300  0.91092100  1
  O  O46  1  0.76938200  0.13148400  0.25519100  1
  O  O47  1  0.75583800  0.14105900  0.75699800  1
  O  O48  1  0.74895000  0.10769400  0.47301000  1
  O  O49  1  0.75094100  0.11259300  0.97542700  1
  O  O50  1  0.25513500  0.10609400  0.17067400  1
  O  O51  1  0.22049100  0.09908800  0.67786700  1
