# generated using pymatgen
data_Li2V3SnO8
_symmetry_space_group_name_H-M   'P 1'
_cell_length_a   6.00943340
_cell_length_b   6.16873138
_cell_length_c   10.45636532
_cell_angle_alpha   106.22873674
_cell_angle_beta   89.98704740
_cell_angle_gamma   60.90822128
_symmetry_Int_Tables_number   1
_chemical_formula_structural   Li2V3SnO8
_chemical_formula_sum   'Li4 V6 Sn2 O16'
_cell_volume   320.91701972
_cell_formula_units_Z   2
loop_
 _symmetry_equiv_pos_site_id
 _symmetry_equiv_pos_as_xyz
  1  'x, y, z'
loop_
 _atom_site_type_symbol
 _atom_site_label
 _atom_site_symmetry_multiplicity
 _atom_site_fract_x
 _atom_site_fract_y
 _atom_site_fract_z
 _atom_site_occupancy
  Li  Li0  1  0.31421300  0.36579700  0.56241200  1
  Li  Li1  1  0.82047900  0.36571700  0.06198600  1
  Li  Li2  1  0.18575500  0.63421900  0.93761500  1
  Li  Li3  1  0.67949500  0.63430900  0.43805500  1
  V  V4  1  0.74997400  0.00000200  0.74990600  1
  V  V5  1  0.24996000  0.99997800  0.74991100  1
  V  V6  1  0.75007300  0.00006600  0.25011300  1
  V  V7  1  0.25011800  0.99994600  0.24999700  1
  V  V8  1  0.99544200  0.99951700  0.49990600  1
  V  V9  1  0.50455800  0.00043900  0.00013600  1
  Sn  Sn10  1  0.74997800  0.50004700  0.75002600  1
  Sn  Sn11  1  0.25001600  0.50000700  0.25002500  1
  O  O12  1  0.08622000  0.79970200  0.63766700  1
  O  O13  1  0.61448800  0.79991100  0.13759700  1
  O  O14  1  0.41391500  0.19994600  0.86214200  1
  O  O15  1  0.88554600  0.20022800  0.36250000  1
  O  O16  1  0.87332500  0.23371000  0.85908700  1
  O  O17  1  0.39174900  0.23119600  0.35867600  1
  O  O18  1  0.64958300  0.23147400  0.63263900  1
  O  O19  1  0.15803000  0.23237900  0.12878800  1
  O  O20  1  0.11200900  0.23102300  0.63001100  1
  O  O21  1  0.61936700  0.23232000  0.13343200  1
  O  O22  1  0.38782300  0.76916600  0.86993900  1
  O  O23  1  0.88064600  0.76760900  0.36664800  1
  O  O24  1  0.85041300  0.76858500  0.86732800  1
  O  O25  1  0.34194500  0.76762800  0.37124200  1
  O  O26  1  0.62664200  0.76625600  0.64085000  1
  O  O27  1  0.10823900  0.76882300  0.14136500  1
