# generated using pymatgen
data_Li5V3P8O29
_symmetry_space_group_name_H-M   'P 1'
_cell_length_a   9.80871900
_cell_length_b   9.81262966
_cell_length_c   13.96339051
_cell_angle_alpha   89.74333863
_cell_angle_beta   89.70578492
_cell_angle_gamma   60.18027896
_symmetry_Int_Tables_number   1
_chemical_formula_structural   Li5V3P8O29
_chemical_formula_sum   'Li10 V6 P16 O58'
_cell_volume   1165.99986906
_cell_formula_units_Z   2
loop_
 _symmetry_equiv_pos_site_id
 _symmetry_equiv_pos_as_xyz
  1  'x, y, z'
loop_
 _atom_site_type_symbol
 _atom_site_label
 _atom_site_symmetry_multiplicity
 _atom_site_fract_x
 _atom_site_fract_y
 _atom_site_fract_z
 _atom_site_occupancy
  Li  Li0  1  0.67641300  0.09452700  0.44053500  1
  Li  Li1  1  0.33700500  0.33391800  0.11558400  1
  Li  Li2  1  0.09069100  0.68306800  0.93958700  1
  Li  Li3  1  0.22566600  0.08631300  0.93894300  1
  Li  Li4  1  0.91034700  0.77328500  0.56042500  1
  Li  Li5  1  0.09584700  0.22743300  0.43991000  1
  Li  Li6  1  0.77287600  0.90868100  0.05958700  1
  Li  Li7  1  0.90226900  0.32368800  0.05822400  1
  Li  Li8  1  0.77104100  0.32448900  0.56132300  1
  Li  Li9  1  0.32415000  0.90205900  0.55957500  1
  V  V10  1  0.99943000  0.56832900  0.74828500  1
  V  V11  1  0.99876300  0.43232700  0.25253800  1
  V  V12  1  0.56879600  0.00019400  0.25012300  1
  V  V13  1  0.43435100  0.99780500  0.75188700  1
  V  V14  1  0.56455500  0.43426400  0.75392300  1
  V  V15  1  0.42908500  0.57468600  0.25016000  1
  P  P16  1  0.68221100  0.23202300  0.15760500  1
  P  P17  1  0.67974500  0.09007300  0.65948200  1
  P  P18  1  0.23252800  0.68377200  0.65660700  1
  P  P19  1  0.33050700  0.33483800  0.87302000  1
  P  P20  1  0.33555800  0.33340200  0.37286200  1
  P  P21  1  0.09049800  0.68026900  0.15935300  1
  P  P22  1  0.91325800  0.76866900  0.34349000  1
  P  P23  1  0.22944000  0.09156800  0.15612100  1
  P  P24  1  0.76894900  0.91283300  0.84290300  1
  P  P25  1  0.08998600  0.23029200  0.65876000  1
  P  P26  1  0.91045600  0.32037500  0.84068900  1
  P  P27  1  0.66593900  0.66581700  0.62658000  1
  P  P28  1  0.66894700  0.66432900  0.12630000  1
  P  P29  1  0.76531900  0.31842000  0.34296400  1
  P  P30  1  0.31765200  0.91371300  0.33967700  1
  P  P31  1  0.31418800  0.76871900  0.84357300  1
  O  O32  1  0.75369500  0.24397800  0.43438900  1
  O  O33  1  0.66346400  0.25626800  0.66201800  1
  O  O34  1  0.75864000  0.99395800  0.93409000  1
  O  O35  1  0.66078300  0.08417200  0.15908200  1
  O  O36  1  0.51652000  0.37777700  0.17284300  1
  O  O37  1  0.47964000  0.33517100  0.82756500  1
  O  O38  1  0.38392200  0.52382000  0.67733400  1
  O  O39  1  0.23581200  0.75465100  0.93065600  1
  O  O40  1  0.25709100  0.66169800  0.16424500  1
  O  O41  1  0.48904000  0.18460500  0.33278800  1
  O  O42  1  0.51999600  0.10256800  0.67664100  1
  O  O43  1  0.33671100  0.47947700  0.32422500  1
  O  O44  1  0.33354200  0.33616100  0.98044900  1
  O  O45  1  0.33804900  0.33329800  0.47924400  1
  O  O46  1  0.18449700  0.48733600  0.83485600  1
  O  O47  1  0.37318300  0.11382400  0.17408100  1
  O  O48  1  0.32837600  0.18496700  0.83648000  1
  O  O49  1  0.08660500  0.66101600  0.65915600  1
  O  O50  1  0.00047700  0.78873600  0.25024600  1
  O  O51  1  0.99434500  0.75997000  0.43416200  1
  O  O52  1  0.00202900  0.75923700  0.07004900  1
  O  O53  1  0.11257100  0.51399900  0.17379800  1
  O  O54  1  0.18646600  0.32811500  0.33458400  1
  O  O55  1  0.91601000  0.74588700  0.83816000  1
  O  O56  1  0.10216300  0.37825900  0.67641300  1
  O  O57  1  0.25519000  0.08122800  0.66123500  1
  O  O58  1  0.79010300  0.00081200  0.75068300  1
  O  O59  1  0.76063900  0.00374800  0.56939600  1
  O  O60  1  0.24115900  0.99894400  0.43029900  1
  O  O61  1  0.74687500  0.91620300  0.33881000  1
  O  O62  1  0.90528100  0.61696600  0.32191700  1
  O  O63  1  0.07983900  0.25862100  0.16228900  1
  O  O64  1  0.81312400  0.67287900  0.66633200  1
  O  O65  1  0.90219100  0.47905800  0.82395900  1
  O  O66  1  0.99688900  0.24116300  0.93051700  1
  O  O67  1  0.00230700  0.23938600  0.56875200  1
  O  O68  1  0.00043500  0.20861100  0.74997000  1
  O  O69  1  0.91464200  0.33432300  0.34195400  1
  O  O70  1  0.67066800  0.81284100  0.16628800  1
  O  O71  1  0.61771200  0.90288100  0.82242800  1
  O  O72  1  0.81486100  0.51256100  0.16688000  1
  O  O73  1  0.66386300  0.66293400  0.02005600  1
  O  O74  1  0.66932000  0.65820800  0.51981700  1
  O  O75  1  0.66988900  0.51279400  0.67033000  1
  O  O76  1  0.47750200  0.90528400  0.32239200  1
  O  O77  1  0.51350300  0.81196200  0.66617000  1
  O  O78  1  0.74310800  0.34222000  0.83448000  1
  O  O79  1  0.78456000  0.20771400  0.25389000  1
  O  O80  1  0.76992100  0.23778700  0.07276900  1
  O  O81  1  0.61603700  0.47663500  0.32209900  1
  O  O82  1  0.52126600  0.66157300  0.17514000  1
  O  O83  1  0.47688400  0.61758800  0.82332400  1
  O  O84  1  0.33594200  0.91425300  0.84161900  1
  O  O85  1  0.23471000  0.01001700  0.06604200  1
  O  O86  1  0.20956700  0.00279100  0.24878500  1
  O  O87  1  0.33951200  0.74637200  0.33517800  1
  O  O88  1  0.24143700  0.76571400  0.56985400  1
  O  O89  1  0.20939200  0.78991400  0.75025300  1
