# generated using pymatgen
data_Li2Cr2(SO4)3
_symmetry_space_group_name_H-M   'P 1'
_cell_length_a   8.84439485
_cell_length_b   8.87109867
_cell_length_c   24.60548084
_cell_angle_alpha   90.00000000
_cell_angle_beta   90.00000000
_cell_angle_gamma   90.00000000
_symmetry_Int_Tables_number   1
_chemical_formula_structural   Li2Cr2(SO4)3
_chemical_formula_sum   'Li16 Cr16 S24 O96'
_cell_volume   1930.53370898
_cell_formula_units_Z   8
loop_
 _symmetry_equiv_pos_site_id
 _symmetry_equiv_pos_as_xyz
  1  'x, y, z'
loop_
 _atom_site_type_symbol
 _atom_site_label
 _atom_site_symmetry_multiplicity
 _atom_site_fract_x
 _atom_site_fract_y
 _atom_site_fract_z
 _atom_site_occupancy
  Li  Li0  1  0.03840746  0.62224384  0.29078388  1
  Li  Li1  1  0.03840746  0.87775616  0.79078388  1
  Li  Li2  1  0.14214918  0.93185037  0.00935791  1
  Li  Li3  1  0.14214918  0.56814963  0.50935791  1
  Li  Li4  1  0.35785082  0.06814963  0.50935791  1
  Li  Li5  1  0.35785082  0.43185037  0.00935791  1
  Li  Li6  1  0.46159254  0.12224384  0.29078388  1
  Li  Li7  1  0.46159254  0.37775616  0.79078388  1
  Li  Li8  1  0.53840746  0.62224384  0.20921612  1
  Li  Li9  1  0.53840746  0.87775616  0.70921612  1
  Li  Li10  1  0.64214918  0.56814963  0.99064209  1
  Li  Li11  1  0.64214918  0.93185037  0.49064209  1
  Li  Li12  1  0.85785082  0.43185037  0.49064209  1
  Li  Li13  1  0.85785082  0.06814963  0.99064209  1
  Li  Li14  1  0.96159254  0.12224384  0.20921612  1
  Li  Li15  1  0.96159254  0.37775616  0.70921612  1
  Cr  Cr16  1  0.00682375  0.40301483  0.06594568  1
  Cr  Cr17  1  0.00682375  0.09698517  0.56594568  1
  Cr  Cr18  1  0.99726386  0.79466325  0.18033062  1
  Cr  Cr19  1  0.99726386  0.70533675  0.68033062  1
  Cr  Cr20  1  0.50273614  0.29466325  0.18033062  1
  Cr  Cr21  1  0.50273614  0.20533675  0.68033062  1
  Cr  Cr22  1  0.49317625  0.59698517  0.56594568  1
  Cr  Cr23  1  0.49317625  0.90301483  0.06594568  1
  Cr  Cr24  1  0.50682375  0.40301483  0.43405432  1
  Cr  Cr25  1  0.50682375  0.09698517  0.93405432  1
  Cr  Cr26  1  0.49726386  0.70533675  0.81966938  1
  Cr  Cr27  1  0.49726386  0.79466325  0.31966938  1
  Cr  Cr28  1  0.00273614  0.29466325  0.31966938  1
  Cr  Cr29  1  0.00273614  0.20533675  0.81966938  1
  Cr  Cr30  1  0.99317625  0.90301483  0.43405432  1
  Cr  Cr31  1  0.99317625  0.59698517  0.93405432  1
  S  S32  1  0.14412671  0.94575239  0.29605774  1
  S  S33  1  0.14412671  0.55424761  0.79605774  1
  S  S34  1  0.14620428  0.25139731  0.44511156  1
  S  S35  1  0.14620428  0.24860269  0.94511156  1
  S  S36  1  0.19263063  0.09742701  0.11525577  1
  S  S37  1  0.19263063  0.40257299  0.61525577  1
  S  S38  1  0.30736937  0.59742701  0.11525577  1
  S  S39  1  0.30736937  0.90257299  0.61525577  1
  S  S40  1  0.35379572  0.75139731  0.44511156  1
  S  S41  1  0.35379572  0.74860269  0.94511156  1
  S  S42  1  0.35587329  0.44575239  0.29605774  1
  S  S43  1  0.35587329  0.05424761  0.79605774  1
  S  S44  1  0.64412671  0.55424761  0.70394226  1
  S  S45  1  0.64412671  0.94575239  0.20394226  1
  S  S46  1  0.64620428  0.25139731  0.05488844  1
  S  S47  1  0.64620428  0.24860269  0.55488844  1
  S  S48  1  0.69263063  0.09742701  0.38474423  1
  S  S49  1  0.69263063  0.40257299  0.88474423  1
  S  S50  1  0.80736937  0.59742701  0.38474423  1
  S  S51  1  0.80736937  0.90257299  0.88474423  1
  S  S52  1  0.85379572  0.75139731  0.05488844  1
  S  S53  1  0.85379572  0.74860269  0.55488844  1
  S  S54  1  0.85587329  0.44575239  0.20394226  1
  S  S55  1  0.85587329  0.05424761  0.70394226  1
  O  O56  1  0.06306012  0.38376116  0.46587779  1
  O  O57  1  0.06306012  0.11623884  0.96587779  1
  O  O58  1  0.08001856  0.09032375  0.27586376  1
  O  O59  1  0.08001856  0.40967625  0.77586376  1
  O  O60  1  0.08224367  0.10680569  0.46950813  1
  O  O61  1  0.08224367  0.39319431  0.96950813  1
  O  O62  1  0.08903015  0.90943396  0.35066578  1
  O  O63  1  0.08903015  0.59056604  0.85066578  1
  O  O64  1  0.09439208  0.19551147  0.08160838  1
  O  O65  1  0.09439208  0.30448853  0.58160838  1
  O  O66  1  0.09497216  0.82044624  0.25830613  1
  O  O67  1  0.09497216  0.67955376  0.75830613  1
  O  O68  1  0.09458732  0.01674018  0.15499549  1
  O  O69  1  0.09458732  0.48325982  0.65499549  1
  O  O70  1  0.13664701  0.24017159  0.38553524  1
  O  O71  1  0.13664701  0.25982841  0.88553524  1
  O  O72  1  0.18807534  0.45652116  0.29483957  1
  O  O73  1  0.18807534  0.04347884  0.79483957  1
  O  O74  1  0.19002650  0.68202683  0.14394497  1
  O  O75  1  0.19002650  0.81797317  0.64394497  1
  O  O76  1  0.19281302  0.75962117  0.46317843  1
  O  O77  1  0.19281302  0.74037883  0.96317843  1
  O  O78  1  0.23636738  0.01382940  0.57645471  1
  O  O79  1  0.23636738  0.48617060  0.07645471  1
  O  O80  1  0.26363262  0.51382940  0.57645471  1
  O  O81  1  0.26363262  0.98617060  0.07645471  1
  O  O82  1  0.30718698  0.24037883  0.96317843  1
  O  O83  1  0.30718698  0.25962117  0.46317843  1
  O  O84  1  0.30997350  0.18202683  0.14394497  1
  O  O85  1  0.30997350  0.31797317  0.64394497  1
  O  O86  1  0.31192466  0.95652116  0.29483957  1
  O  O87  1  0.31192466  0.54347884  0.79483957  1
  O  O88  1  0.36335299  0.74017159  0.38553524  1
  O  O89  1  0.36335299  0.75982841  0.88553524  1
  O  O90  1  0.40541268  0.98325982  0.65499549  1
  O  O91  1  0.40541268  0.51674018  0.15499549  1
  O  O92  1  0.40502784  0.32044624  0.25830613  1
  O  O93  1  0.40502784  0.17955376  0.75830613  1
  O  O94  1  0.40560792  0.69551147  0.08160838  1
  O  O95  1  0.40560792  0.80448853  0.58160838  1
  O  O96  1  0.41096985  0.09056604  0.85066578  1
  O  O97  1  0.41096985  0.40943396  0.35066578  1
  O  O98  1  0.41775633  0.89319431  0.96950813  1
  O  O99  1  0.41775633  0.60680569  0.46950813  1
  O  O100  1  0.41998144  0.59032375  0.27586376  1
  O  O101  1  0.41998144  0.90967625  0.77586376  1
  O  O102  1  0.43693988  0.61623884  0.96587779  1
  O  O103  1  0.43693988  0.88376116  0.46587779  1
  O  O104  1  0.56306012  0.38376116  0.03412221  1
  O  O105  1  0.56306012  0.11623884  0.53412221  1
  O  O106  1  0.58001856  0.09032375  0.22413624  1
  O  O107  1  0.58001856  0.40967625  0.72413624  1
  O  O108  1  0.58224367  0.10680569  0.03049187  1
  O  O109  1  0.58224367  0.39319431  0.53049187  1
  O  O110  1  0.58903015  0.59056604  0.64933422  1
  O  O111  1  0.58903015  0.90943396  0.14933422  1
  O  O112  1  0.59439208  0.19551147  0.41839162  1
  O  O113  1  0.59439208  0.30448853  0.91839162  1
  O  O114  1  0.59497216  0.82044624  0.24169387  1
  O  O115  1  0.59497216  0.67955376  0.74169387  1
  O  O116  1  0.59458732  0.01674018  0.34500451  1
  O  O117  1  0.59458732  0.48325982  0.84500451  1
  O  O118  1  0.63664701  0.24017159  0.11446476  1
  O  O119  1  0.63664701  0.25982841  0.61446476  1
  O  O120  1  0.68807534  0.45652116  0.20516043  1
  O  O121  1  0.68807534  0.04347884  0.70516043  1
  O  O122  1  0.69002650  0.68202683  0.35605503  1
  O  O123  1  0.69002650  0.81797317  0.85605503  1
  O  O124  1  0.69281302  0.75962117  0.03682157  1
  O  O125  1  0.69281302  0.74037883  0.53682157  1
  O  O126  1  0.73636738  0.48617060  0.42354529  1
  O  O127  1  0.73636738  0.01382940  0.92354529  1
  O  O128  1  0.76363262  0.98617060  0.42354529  1
  O  O129  1  0.76363262  0.51382940  0.92354529  1
  O  O130  1  0.80718698  0.25962117  0.03682157  1
  O  O131  1  0.80718698  0.24037883  0.53682157  1
  O  O132  1  0.80997350  0.18202683  0.35605503  1
  O  O133  1  0.80997350  0.31797317  0.85605503  1
  O  O134  1  0.81192466  0.54347884  0.70516043  1
  O  O135  1  0.81192466  0.95652116  0.20516043  1
  O  O136  1  0.86335299  0.74017159  0.11446476  1
  O  O137  1  0.86335299  0.75982841  0.61446476  1
  O  O138  1  0.90541268  0.51674018  0.34500451  1
  O  O139  1  0.90541268  0.98325982  0.84500451  1
  O  O140  1  0.90502784  0.32044624  0.24169387  1
  O  O141  1  0.90502784  0.17955376  0.74169387  1
  O  O142  1  0.90560792  0.69551147  0.41839162  1
  O  O143  1  0.90560792  0.80448853  0.91839162  1
  O  O144  1  0.91096985  0.40943396  0.14933422  1
  O  O145  1  0.91096985  0.09056604  0.64933422  1
  O  O146  1  0.91775633  0.60680569  0.03049187  1
  O  O147  1  0.91775633  0.89319431  0.53049187  1
  O  O148  1  0.91998144  0.59032375  0.22413624  1
  O  O149  1  0.91998144  0.90967625  0.72413624  1
  O  O150  1  0.93693988  0.61623884  0.53412221  1
  O  O151  1  0.93693988  0.88376116  0.03412221  1
