# generated using pymatgen
data_Li4MnCo2O7
_symmetry_space_group_name_H-M   'P 1'
_cell_length_a   5.04192500
_cell_length_b   5.16668506
_cell_length_c   10.09911112
_cell_angle_alpha   98.82195966
_cell_angle_beta   100.03430064
_cell_angle_gamma   100.52440085
_symmetry_Int_Tables_number   1
_chemical_formula_structural   Li4MnCo2O7
_chemical_formula_sum   'Li8 Mn2 Co4 O14'
_cell_volume   249.99682110
_cell_formula_units_Z   2
loop_
 _symmetry_equiv_pos_site_id
 _symmetry_equiv_pos_as_xyz
  1  'x, y, z'
loop_
 _atom_site_type_symbol
 _atom_site_label
 _atom_site_symmetry_multiplicity
 _atom_site_fract_x
 _atom_site_fract_y
 _atom_site_fract_z
 _atom_site_occupancy
  Li  Li0  1  0.27274400  0.07844700  0.57298300  1
  Li  Li1  1  0.87170300  0.21705300  0.71051800  1
  Li  Li2  1  0.42148700  0.35691100  0.85795900  1
  Li  Li3  1  0.12829700  0.78294700  0.28948200  1
  Li  Li4  1  0.72725600  0.92155300  0.42701700  1
  Li  Li5  1  0.00000000  0.50000000  0.00000000  1
  Li  Li6  1  0.57851300  0.64308900  0.14204100  1
  Li  Li7  1  0.00000000  0.50000000  0.50000000  1
  Mn  Mn8  1  0.56817100  0.63450500  0.64000900  1
  Mn  Mn9  1  0.43182900  0.36549500  0.35999100  1
  Co  Co10  1  0.13984600  0.77357100  0.77929700  1
  Co  Co11  1  0.71841900  0.93049400  0.92799400  1
  Co  Co12  1  0.28158100  0.06950600  0.07200600  1
  Co  Co13  1  0.86015400  0.22642900  0.22070300  1
  O  O14  1  0.37809100  0.69035300  0.46720800  1
  O  O15  1  0.92089100  0.84547400  0.62044300  1
  O  O16  1  0.48753200  0.95725500  0.74449600  1
  O  O17  1  0.22167600  0.42393400  0.18805800  1
  O  O18  1  0.76412200  0.55537200  0.32010800  1
  O  O19  1  0.06185700  0.13532800  0.90025200  1
  O  O20  1  0.63969100  0.26766800  0.04111700  1
  O  O21  1  0.23587800  0.44462800  0.67989200  1
  O  O22  1  0.77832400  0.57606600  0.81194200  1
  O  O23  1  0.36030900  0.73233200  0.95888300  1
  O  O24  1  0.07910900  0.15452600  0.37955700  1
  O  O25  1  0.62190900  0.30964700  0.53279200  1
  O  O26  1  0.93814300  0.86467200  0.09974800  1
  O  O27  1  0.51246800  0.04274500  0.25550400  1
