# generated using pymatgen
data_Li4Ti3Fe2Co3O16
_symmetry_space_group_name_H-M   'P 1'
_cell_length_a   5.82261000
_cell_length_b   5.84902362
_cell_length_c   9.58366717
_cell_angle_alpha   90.23638271
_cell_angle_beta   90.36422352
_cell_angle_gamma   119.00685554
_symmetry_Int_Tables_number   1
_chemical_formula_structural   Li4Ti3Fe2Co3O16
_chemical_formula_sum   'Li4 Ti3 Fe2 Co3 O16'
_cell_volume   285.43006947
_cell_formula_units_Z   1
loop_
 _symmetry_equiv_pos_site_id
 _symmetry_equiv_pos_as_xyz
  1  'x, y, z'
loop_
 _atom_site_type_symbol
 _atom_site_label
 _atom_site_symmetry_multiplicity
 _atom_site_fract_x
 _atom_site_fract_y
 _atom_site_fract_z
 _atom_site_occupancy
  Li  Li0  1  0.67335400  0.33347100  0.11086800  1
  Li  Li1  1  0.99091500  0.00643400  0.00520800  1
  Li  Li2  1  0.99467000  0.00519100  0.50229800  1
  Li  Li3  1  0.33570900  0.66646700  0.60377800  1
  Ti  Ti4  1  0.34083600  0.16579800  0.78396900  1
  Ti  Ti5  1  0.83309100  0.65988600  0.78459900  1
  Ti  Ti6  1  0.17371200  0.83068100  0.28411800  1
  Fe  Fe7  1  0.66376200  0.32923500  0.50852400  1
  Fe  Fe8  1  0.33901700  0.66302700  0.01097600  1
  Co  Co9  1  0.83099200  0.17057200  0.78899500  1
  Co  Co10  1  0.16998600  0.33853300  0.28536000  1
  Co  Co11  1  0.66119100  0.82976600  0.28826500  1
  O  O12  1  0.32350500  0.15922800  0.39903500  1
  O  O13  1  0.51553600  0.48052900  0.66579900  1
  O  O14  1  0.66945600  0.33348900  0.89617300  1
  O  O15  1  0.99344300  0.00418300  0.69058300  1
  O  O16  1  0.98596200  0.98849900  0.19124100  1
  O  O17  1  0.83148200  0.67606600  0.39632200  1
  O  O18  1  0.51077200  0.03570200  0.66051900  1
  O  O19  1  0.96285200  0.48865400  0.65729900  1
  O  O20  1  0.16580600  0.83737600  0.89825400  1
  O  O21  1  0.82153300  0.14832000  0.39220600  1
  O  O22  1  0.04161900  0.52121500  0.16171100  1
  O  O23  1  0.48695100  0.96277800  0.16524600  1
  O  O24  1  0.34259000  0.67471500  0.39572200  1
  O  O25  1  0.17045100  0.32739200  0.89981800  1
  O  O26  1  0.49825000  0.53329900  0.16770800  1
  O  O27  1  0.67225800  0.82920000  0.89756300  1
