# generated using pymatgen
data_Li7Mg8Zn9
_symmetry_space_group_name_H-M   'P 1'
_cell_length_a   10.43997116
_cell_length_b   10.43997116
_cell_length_c   17.45678500
_cell_angle_alpha   90.00000000
_cell_angle_beta   90.00000000
_cell_angle_gamma   119.99999469
_symmetry_Int_Tables_number   1
_chemical_formula_structural   Li7Mg8Zn9
_chemical_formula_sum   'Li28 Mg32 Zn36'
_cell_volume   1647.75833124
_cell_formula_units_Z   4
loop_
 _symmetry_equiv_pos_site_id
 _symmetry_equiv_pos_as_xyz
  1  'x, y, z'
loop_
 _atom_site_type_symbol
 _atom_site_label
 _atom_site_symmetry_multiplicity
 _atom_site_fract_x
 _atom_site_fract_y
 _atom_site_fract_z
 _atom_site_occupancy
  Li  Li0  1  0.08191800  0.41546500  0.25000000  1
  Li  Li1  1  0.91808200  0.58453500  0.75000000  1
  Li  Li2  1  0.58453500  0.66645300  0.25000000  1
  Li  Li3  1  0.41546500  0.08191800  0.75000000  1
  Li  Li4  1  0.41546500  0.33354700  0.75000000  1
  Li  Li5  1  0.58453500  0.91808200  0.25000000  1
  Li  Li6  1  0.33354700  0.91808200  0.25000000  1
  Li  Li7  1  0.66645300  0.58453500  0.75000000  1
  Li  Li8  1  0.66645300  0.08191800  0.75000000  1
  Li  Li9  1  0.33354700  0.41546500  0.25000000  1
  Li  Li10  1  0.91808200  0.33354700  0.75000000  1
  Li  Li11  1  0.08191800  0.66645300  0.25000000  1
  Li  Li12  1  0.33333300  0.66666700  0.62343900  1
  Li  Li13  1  0.66666700  0.33333300  0.37656100  1
  Li  Li14  1  0.66666700  0.33333300  0.12343900  1
  Li  Li15  1  0.33333300  0.66666700  0.87656100  1
  Li  Li16  1  0.25131800  0.00000000  0.00000000  1
  Li  Li17  1  0.74868200  0.00000000  0.00000000  1
  Li  Li18  1  0.00000000  0.25131800  0.00000000  1
  Li  Li19  1  0.74868200  0.00000000  0.50000000  1
  Li  Li20  1  0.00000000  0.74868200  0.00000000  1
  Li  Li21  1  0.25131800  0.00000000  0.50000000  1
  Li  Li22  1  0.74868200  0.74868200  0.00000000  1
  Li  Li23  1  0.00000000  0.74868200  0.50000000  1
  Li  Li24  1  0.25131800  0.25131800  0.00000000  1
  Li  Li25  1  0.00000000  0.25131800  0.50000000  1
  Li  Li26  1  0.25131800  0.25131800  0.50000000  1
  Li  Li27  1  0.74868200  0.74868200  0.50000000  1
  Mg  Mg28  1  0.16685700  0.33371400  0.65605600  1
  Mg  Mg29  1  0.83314300  0.66628600  0.34394400  1
  Mg  Mg30  1  0.66628600  0.83314300  0.65605600  1
  Mg  Mg31  1  0.83314300  0.66628600  0.15605600  1
  Mg  Mg32  1  0.33371400  0.16685700  0.34394400  1
  Mg  Mg33  1  0.16685700  0.33371400  0.84394400  1
  Mg  Mg34  1  0.16685700  0.83314300  0.65605600  1
  Mg  Mg35  1  0.33371400  0.16685700  0.15605600  1
  Mg  Mg36  1  0.83314300  0.16685700  0.34394400  1
  Mg  Mg37  1  0.66628600  0.83314300  0.84394400  1
  Mg  Mg38  1  0.83314300  0.16685700  0.15605600  1
  Mg  Mg39  1  0.16685700  0.83314300  0.84394400  1
  Mg  Mg40  1  0.49973900  0.99947900  0.09426200  1
  Mg  Mg41  1  0.50026100  0.00052100  0.90573800  1
  Mg  Mg42  1  0.00052100  0.50026100  0.09426200  1
  Mg  Mg43  1  0.50026100  0.00052100  0.59426200  1
  Mg  Mg44  1  0.99947900  0.49973900  0.90573800  1
  Mg  Mg45  1  0.49973900  0.99947900  0.40573800  1
  Mg  Mg46  1  0.49973900  0.50026100  0.09426200  1
  Mg  Mg47  1  0.99947900  0.49973900  0.59426200  1
  Mg  Mg48  1  0.50026100  0.49973900  0.90573800  1
  Mg  Mg49  1  0.00052100  0.50026100  0.40573800  1
  Mg  Mg50  1  0.50026100  0.49973900  0.59426200  1
  Mg  Mg51  1  0.49973900  0.50026100  0.40573800  1
  Mg  Mg52  1  0.33333300  0.66666700  0.15342800  1
  Mg  Mg53  1  0.66666700  0.33333300  0.84657200  1
  Mg  Mg54  1  0.66666700  0.33333300  0.65342800  1
  Mg  Mg55  1  0.33333300  0.66666700  0.34657200  1
  Mg  Mg56  1  0.00000000  0.00000000  0.09709900  1
  Mg  Mg57  1  0.00000000  0.00000000  0.90290100  1
  Mg  Mg58  1  0.00000000  0.00000000  0.59709900  1
  Mg  Mg59  1  0.00000000  0.00000000  0.40290100  1
  Zn  Zn60  1  0.16722000  0.33444000  0.12483100  1
  Zn  Zn61  1  0.83278000  0.66556000  0.87516900  1
  Zn  Zn62  1  0.66556000  0.83278000  0.12483100  1
  Zn  Zn63  1  0.83278000  0.66556000  0.62483100  1
  Zn  Zn64  1  0.33444000  0.16722000  0.87516900  1
  Zn  Zn65  1  0.16722000  0.33444000  0.37516900  1
  Zn  Zn66  1  0.16722000  0.83278000  0.12483100  1
  Zn  Zn67  1  0.33444000  0.16722000  0.62483100  1
  Zn  Zn68  1  0.83278000  0.16722000  0.87516900  1
  Zn  Zn69  1  0.66556000  0.83278000  0.37516900  1
  Zn  Zn70  1  0.83278000  0.16722000  0.62483100  1
  Zn  Zn71  1  0.16722000  0.83278000  0.37516900  1
  Zn  Zn72  1  0.58350000  0.16700000  0.25000000  1
  Zn  Zn73  1  0.41650000  0.83300000  0.75000000  1
  Zn  Zn74  1  0.83300000  0.41650000  0.25000000  1
  Zn  Zn75  1  0.16700000  0.58350000  0.75000000  1
  Zn  Zn76  1  0.58350000  0.41650000  0.25000000  1
  Zn  Zn77  1  0.41650000  0.58350000  0.75000000  1
  Zn  Zn78  1  0.24950500  0.49900900  0.00141600  1
  Zn  Zn79  1  0.75049500  0.50099100  0.99858400  1
  Zn  Zn80  1  0.50099100  0.75049500  0.00141600  1
  Zn  Zn81  1  0.75049500  0.50099100  0.50141600  1
  Zn  Zn82  1  0.49900900  0.24950500  0.99858400  1
  Zn  Zn83  1  0.24950500  0.49900900  0.49858400  1
  Zn  Zn84  1  0.24950500  0.75049500  0.00141600  1
  Zn  Zn85  1  0.49900900  0.24950500  0.50141600  1
  Zn  Zn86  1  0.75049500  0.24950500  0.99858400  1
  Zn  Zn87  1  0.50099100  0.75049500  0.49858400  1
  Zn  Zn88  1  0.75049500  0.24950500  0.50141600  1
  Zn  Zn89  1  0.24950500  0.75049500  0.49858400  1
  Zn  Zn90  1  0.08325300  0.16650600  0.25000000  1
  Zn  Zn91  1  0.91674700  0.83349400  0.75000000  1
  Zn  Zn92  1  0.83349400  0.91674700  0.25000000  1
  Zn  Zn93  1  0.16650600  0.08325300  0.75000000  1
  Zn  Zn94  1  0.08325300  0.91674700  0.25000000  1
  Zn  Zn95  1  0.91674700  0.08325300  0.75000000  1
