# generated using pymatgen
data_Li3Co4SnO8
_symmetry_space_group_name_H-M   'P 1'
_cell_length_a   6.04811847
_cell_length_b   6.03349812
_cell_length_c   10.55573889
_cell_angle_alpha   73.57559150
_cell_angle_beta   73.82313780
_cell_angle_gamma   60.31772349
_symmetry_Int_Tables_number   1
_chemical_formula_structural   Li3Co4SnO8
_chemical_formula_sum   'Li6 Co8 Sn2 O16'
_cell_volume   316.52364385
_cell_formula_units_Z   2
loop_
 _symmetry_equiv_pos_site_id
 _symmetry_equiv_pos_as_xyz
  1  'x, y, z'
loop_
 _atom_site_type_symbol
 _atom_site_label
 _atom_site_symmetry_multiplicity
 _atom_site_fract_x
 _atom_site_fract_y
 _atom_site_fract_z
 _atom_site_occupancy
  Li  Li0  1  0.75000100  0.74999800  0.25000000  1
  Li  Li1  1  0.24999700  0.25000200  0.75000100  1
  Li  Li2  1  0.00069500  0.50775700  0.99498800  1
  Li  Li3  1  0.49930500  0.99224300  0.50501200  1
  Li  Li4  1  0.00591000  0.50534400  0.49102400  1
  Li  Li5  1  0.49409100  0.99465500  0.00897800  1
  Co  Co6  1  0.74999900  0.75000100  0.75000100  1
  Co  Co7  1  0.25000000  0.24999900  0.25000000  1
  Co  Co8  1  0.00327200  0.00002000  0.99774900  1
  Co  Co9  1  0.49673000  0.49998100  0.50225000  1
  Co  Co10  1  0.75000200  0.24999900  0.24999900  1
  Co  Co11  1  0.24999900  0.75000100  0.75000100  1
  Co  Co12  1  0.25000000  0.74999900  0.24999900  1
  Co  Co13  1  0.74999800  0.25000100  0.74999900  1
  Sn  Sn14  1  0.99733500  0.99638600  0.50071600  1
  Sn  Sn15  1  0.50267400  0.50360800  0.99928500  1
  O  O16  1  0.88512700  0.87741500  0.37230700  1
  O  O17  1  0.37036400  0.40860900  0.86832100  1
  O  O18  1  0.12963300  0.09139500  0.63168000  1
  O  O19  1  0.61487200  0.62258400  0.12769300  1
  O  O20  1  0.90941400  0.87057600  0.86057600  1
  O  O21  1  0.37088700  0.40164600  0.36275200  1
  O  O22  1  0.12911200  0.09835300  0.13724600  1
  O  O23  1  0.59058300  0.62942700  0.63942500  1
  O  O24  1  0.63418400  0.12083400  0.62138200  1
  O  O25  1  0.13864400  0.62305300  0.12401700  1
  O  O26  1  0.11836400  0.62826400  0.61986600  1
  O  O27  1  0.62183900  0.13653800  0.11750700  1
  O  O28  1  0.87816100  0.36345900  0.38249300  1
  O  O29  1  0.38163600  0.87173500  0.88013500  1
  O  O30  1  0.36135500  0.87694600  0.37598100  1
  O  O31  1  0.86581800  0.37917000  0.87861700  1
