# generated using pymatgen
data_Li9Mn2Co5O16
_symmetry_space_group_name_H-M   'P 1'
_cell_length_a   5.92816245
_cell_length_b   5.92816245
_cell_length_c   9.71321167
_cell_angle_alpha   81.48756945
_cell_angle_beta   81.48756945
_cell_angle_gamma   58.74788393
_symmetry_Int_Tables_number   1
_chemical_formula_structural   Li9Mn2Co5O16
_chemical_formula_sum   'Li9 Mn2 Co5 O16'
_cell_volume   287.57897230
_cell_formula_units_Z   1
loop_
 _symmetry_equiv_pos_site_id
 _symmetry_equiv_pos_as_xyz
  1  'x, y, z'
loop_
 _atom_site_type_symbol
 _atom_site_label
 _atom_site_symmetry_multiplicity
 _atom_site_fract_x
 _atom_site_fract_y
 _atom_site_fract_z
 _atom_site_occupancy
  Li  Li0  1  0.49943500  0.00043800  0.00017800  1
  Li  Li1  1  0.00043800  0.49943500  0.00017800  1
  Li  Li2  1  0.12578100  0.12578100  0.24654700  1
  Li  Li3  1  0.62580700  0.62580700  0.23759600  1
  Li  Li4  1  0.74916100  0.25049500  0.50063900  1
  Li  Li5  1  0.25049500  0.74916100  0.50063900  1
  Li  Li6  1  0.37716900  0.37716900  0.75735300  1
  Li  Li7  1  0.87187800  0.87187800  0.75509400  1
  Li  Li8  1  0.49965400  0.49965400  0.00063900  1
  Mn  Mn9  1  0.00096900  0.00096900  0.99994900  1
  Mn  Mn10  1  0.25132900  0.25132900  0.50136600  1
  Co  Co11  1  0.62600700  0.13392900  0.24382600  1
  Co  Co12  1  0.13392900  0.62600700  0.24382600  1
  Co  Co13  1  0.74622000  0.74622000  0.49839500  1
  Co  Co14  1  0.86212400  0.37757600  0.75707400  1
  Co  Co15  1  0.37757600  0.86212400  0.75707400  1
  O  O16  1  0.71395100  0.18005600  0.87667600  1
  O  O17  1  0.18005600  0.71395100  0.87667600  1
  O  O18  1  0.31650100  0.31650100  0.14126500  1
  O  O19  1  0.82538700  0.82538700  0.11726500  1
  O  O20  1  0.95356900  0.43655400  0.38583200  1
  O  O21  1  0.43655400  0.95356900  0.38583200  1
  O  O22  1  0.56788800  0.56788800  0.62745100  1
  O  O23  1  0.08094600  0.08094600  0.62611800  1
  O  O24  1  0.28999600  0.81809700  0.12140300  1
  O  O25  1  0.81809700  0.28999600  0.12140300  1
  O  O26  1  0.92535500  0.92535500  0.36655400  1
  O  O27  1  0.42489600  0.42489600  0.38033900  1
  O  O28  1  0.54668300  0.06160500  0.61590100  1
  O  O29  1  0.06160500  0.54668300  0.61590100  1
  O  O30  1  0.17389500  0.17389500  0.88338200  1
  O  O31  1  0.68664900  0.68664900  0.85762900  1
