# generated using pymatgen
data_LiV3O4
_symmetry_space_group_name_H-M   'P 1'
_cell_length_a   5.35123083
_cell_length_b   5.96844633
_cell_length_c   6.05826488
_cell_angle_alpha   119.51069000
_cell_angle_beta   73.34144626
_cell_angle_gamma   90.00022485
_symmetry_Int_Tables_number   1
_chemical_formula_structural   LiV3O4
_chemical_formula_sum   'Li2 V6 O8'
_cell_volume   158.99139897
_cell_formula_units_Z   2
loop_
 _symmetry_equiv_pos_site_id
 _symmetry_equiv_pos_as_xyz
  1  'x, y, z'
loop_
 _atom_site_type_symbol
 _atom_site_label
 _atom_site_symmetry_multiplicity
 _atom_site_fract_x
 _atom_site_fract_y
 _atom_site_fract_z
 _atom_site_occupancy
  Li  Li0  1  0.00001000  0.99998200  0.50002400  1
  Li  Li1  1  0.00001200  0.49997700  0.50002000  1
  V  V2  1  0.00001400  0.99996500  0.00002000  1
  V  V3  1  0.49908900  0.25324700  0.50634300  1
  V  V4  1  0.50094000  0.74670800  0.49369900  1
  V  V5  1  0.49998800  0.76305100  0.00007500  1
  V  V6  1  0.50004100  0.23690200  0.99996900  1
  V  V7  1  0.00001200  0.49997200  0.00002200  1
  O  O8  1  0.73073600  0.38488900  0.76985200  1
  O  O9  1  0.74732600  0.87343400  0.74702800  1
  O  O10  1  0.26929500  0.61506100  0.23019700  1
  O  O11  1  0.25269600  0.12652100  0.25300900  1
  O  O12  1  0.25874600  0.11967800  0.74441600  1
  O  O13  1  0.25866400  0.62472700  0.74451500  1
  O  O14  1  0.74127800  0.88026700  0.25563100  1
  O  O15  1  0.74136600  0.37522800  0.25552100  1
