# generated using pymatgen
data_Li9Mn2Co5O16
_symmetry_space_group_name_H-M   'P 1'
_cell_length_a   6.43252100
_cell_length_b   6.44960565
_cell_length_c   7.86868400
_cell_angle_alpha   87.68600238
_cell_angle_beta   113.91313301
_cell_angle_gamma   108.38462964
_symmetry_Int_Tables_number   1
_chemical_formula_structural   Li9Mn2Co5O16
_chemical_formula_sum   'Li9 Mn2 Co5 O16'
_cell_volume   281.75295189
_cell_formula_units_Z   1
loop_
 _symmetry_equiv_pos_site_id
 _symmetry_equiv_pos_as_xyz
  1  'x, y, z'
loop_
 _atom_site_type_symbol
 _atom_site_label
 _atom_site_symmetry_multiplicity
 _atom_site_fract_x
 _atom_site_fract_y
 _atom_site_fract_z
 _atom_site_occupancy
  Li  Li0  1  0.87819200  0.05442000  0.31748000  1
  Li  Li1  1  0.87057700  0.56004700  0.81232400  1
  Li  Li2  1  0.12517700  0.93933700  0.67859100  1
  Li  Li3  1  0.13331000  0.44466600  0.19287400  1
  Li  Li4  1  0.38257100  0.81642100  0.07522200  1
  Li  Li5  1  0.37654300  0.31095700  0.56194500  1
  Li  Li6  1  0.61454600  0.68954400  0.43223600  1
  Li  Li7  1  0.61991900  0.18545000  0.93267500  1
  Li  Li8  1  0.25180300  0.87371400  0.37556300  1
  Mn  Mn9  1  0.00340700  0.00152200  0.00375700  1
  Mn  Mn10  1  0.00163200  0.50431900  0.49863000  1
  Co  Co11  1  0.24872900  0.37362000  0.87380500  1
  Co  Co12  1  0.49598600  0.74864300  0.74209100  1
  Co  Co13  1  0.49973300  0.24688500  0.25296600  1
  Co  Co14  1  0.75889100  0.63326400  0.13466700  1
  Co  Co15  1  0.74465300  0.12116900  0.61825700  1
  O  O16  1  0.70660400  0.90107800  0.03592100  1
  O  O17  1  0.70349000  0.39865900  0.53775700  1
  O  O18  1  0.93891700  0.76462400  0.41419000  1
  O  O19  1  0.95875300  0.27581000  0.91076000  1
  O  O20  1  0.18636500  0.63751700  0.76019200  1
  O  O21  1  0.18449000  0.14579500  0.25257400  1
  O  O22  1  0.45577200  0.51947800  0.15523500  1
  O  O23  1  0.46428500  0.02385300  0.66575300  1
  O  O24  1  0.04239900  0.22521700  0.59027700  1
  O  O25  1  0.03742100  0.72383900  0.08243700  1
  O  O26  1  0.29425900  0.09682000  0.96152900  1
  O  O27  1  0.29616500  0.58537200  0.47185400  1
  O  O28  1  0.55928700  0.98929800  0.33896900  1
  O  O29  1  0.53998700  0.47882500  0.84253400  1
  O  O30  1  0.81033500  0.86229000  0.73677100  1
  O  O31  1  0.81580400  0.36755100  0.24016500  1
