# generated using pymatgen
data_Li9Fe4(BO3)8
_symmetry_space_group_name_H-M   'P 1'
_cell_length_a   5.25444100
_cell_length_b   8.95329956
_cell_length_c   9.99408539
_cell_angle_alpha   89.99683757
_cell_angle_beta   92.65169355
_cell_angle_gamma   90.22585474
_symmetry_Int_Tables_number   1
_chemical_formula_structural   Li9Fe4(BO3)8
_chemical_formula_sum   'Li9 Fe4 B8 O24'
_cell_volume   469.66050120
_cell_formula_units_Z   1
loop_
 _symmetry_equiv_pos_site_id
 _symmetry_equiv_pos_as_xyz
  1  'x, y, z'
loop_
 _atom_site_type_symbol
 _atom_site_label
 _atom_site_symmetry_multiplicity
 _atom_site_fract_x
 _atom_site_fract_y
 _atom_site_fract_z
 _atom_site_occupancy
  Li  Li0  1  0.81887400  0.66436400  0.36631600  1
  Li  Li1  1  0.82802000  0.98978300  0.89507700  1
  Li  Li2  1  0.67869700  0.16584100  0.13371300  1
  Li  Li3  1  0.66957200  0.49094300  0.61370600  1
  Li  Li4  1  0.33249100  0.51088400  0.38862100  1
  Li  Li5  1  0.33296500  0.82737900  0.87684200  1
  Li  Li6  1  0.17012100  0.00798700  0.11644100  1
  Li  Li7  1  0.18202300  0.34766600  0.63211700  1
  Li  Li8  1  0.15552900  0.01881400  0.66323000  1
  Fe  Fe9  1  0.84921800  0.32808500  0.87368100  1
  Fe  Fe10  1  0.64776400  0.82197300  0.62474700  1
  Fe  Fe11  1  0.34740400  0.17203700  0.37663900  1
  Fe  Fe12  1  0.15031600  0.67173400  0.12617100  1
  B  B13  1  0.83189300  0.33082100  0.38492900  1
  B  B14  1  0.83497500  0.66432000  0.87050000  1
  B  B15  1  0.67195500  0.83242300  0.11840100  1
  B  B16  1  0.66069000  0.15982500  0.63222900  1
  B  B17  1  0.33338000  0.83577100  0.36812300  1
  B  B18  1  0.32981400  0.17170800  0.87619000  1
  B  B19  1  0.16743100  0.33502000  0.12877400  1
  B  B20  1  0.17098800  0.67535900  0.61790400  1
  O  O21  1  0.93016400  0.31216600  0.06673400  1
  O  O22  1  0.90757200  0.67158400  0.59571800  1
  O  O23  1  0.80806700  0.95794200  0.09390900  1
  O  O24  1  0.79271900  0.28859800  0.67149200  1
  O  O25  1  0.78949800  0.70155700  0.16224600  1
  O  O26  1  0.78205500  0.02320200  0.64705300  1
  O  O27  1  0.70636600  0.20080300  0.34324500  1
  O  O28  1  0.73485700  0.52575300  0.84603500  1
  O  O29  1  0.70317200  0.79089100  0.82562900  1
  O  O30  1  0.69669900  0.45669100  0.40664700  1
  O  O31  1  0.56841800  0.81268800  0.43156200  1
  O  O32  1  0.59117400  0.17275600  0.90245800  1
  O  O33  1  0.40869100  0.82939000  0.09627200  1
  O  O34  1  0.40956300  0.16772300  0.58038200  1
  O  O35  1  0.31316900  0.55298200  0.59585400  1
  O  O36  1  0.30001800  0.20834300  0.17173700  1
  O  O37  1  0.26630900  0.47386200  0.15366000  1
  O  O38  1  0.28089800  0.81203000  0.65931000  1
  O  O39  1  0.23013700  0.97399700  0.34696700  1
  O  O40  1  0.21143100  0.30539500  0.84141400  1
  O  O41  1  0.20151800  0.70822300  0.32436800  1
  O  O42  1  0.19479400  0.04103000  0.87922400  1
  O  O43  1  0.09511600  0.32724100  0.40626200  1
  O  O44  1  0.06984300  0.68667300  0.93494900  1
