# generated using pymatgen
data_Li2V3TeO8
_symmetry_space_group_name_H-M   'P 1'
_cell_length_a   6.03584806
_cell_length_b   6.23534837
_cell_length_c   8.69519550
_cell_angle_alpha   87.53084849
_cell_angle_beta   89.99987099
_cell_angle_gamma   90.00816646
_symmetry_Int_Tables_number   1
_chemical_formula_structural   Li2V3TeO8
_chemical_formula_sum   'Li4 V6 Te2 O16'
_cell_volume   326.94519954
_cell_formula_units_Z   2
loop_
 _symmetry_equiv_pos_site_id
 _symmetry_equiv_pos_as_xyz
  1  'x, y, z'
loop_
 _atom_site_type_symbol
 _atom_site_label
 _atom_site_symmetry_multiplicity
 _atom_site_fract_x
 _atom_site_fract_y
 _atom_site_fract_z
 _atom_site_occupancy
  Li  Li0  1  0.00000500  0.25646200  0.12899800  1
  Li  Li1  1  0.50000400  0.75637600  0.62894100  1
  Li  Li2  1  0.99999900  0.74179500  0.87080900  1
  Li  Li3  1  0.49999500  0.24161600  0.37073100  1
  V  V4  1  0.50000900  0.00180700  0.00011900  1
  V  V5  1  0.74803500  0.25172200  0.75198700  1
  V  V6  1  0.25196300  0.25172900  0.75199000  1
  V  V7  1  0.99999600  0.50186500  0.50005000  1
  V  V8  1  0.24810500  0.75162900  0.25206900  1
  V  V9  1  0.75189400  0.75160200  0.25204700  1
  Te  Te10  1  0.99998700  0.00434000  0.50288200  1
  Te  Te11  1  0.50000400  0.50417700  0.00305900  1
  O  O12  1  0.99998800  0.53218900  0.26676900  1
  O  O13  1  0.49996300  0.03212100  0.76684700  1
  O  O14  1  0.00001700  0.46854200  0.73461300  1
  O  O15  1  0.50004100  0.96831400  0.23470400  1
  O  O16  1  0.23080300  0.74566600  0.48805400  1
  O  O17  1  0.73061700  0.24569900  0.98822200  1
  O  O18  1  0.76918400  0.74562700  0.48805000  1
  O  O19  1  0.26927600  0.24576100  0.98814100  1
  O  O20  1  0.00003900  0.97409200  0.25598700  1
  O  O21  1  0.50007800  0.47379400  0.75565600  1
  O  O22  1  0.99993100  0.02002400  0.73928100  1
  O  O23  1  0.49994400  0.51948500  0.23912200  1
  O  O24  1  0.22776900  0.25343700  0.51011800  1
  O  O25  1  0.72787500  0.75332100  0.01034400  1
  O  O26  1  0.77224600  0.25338400  0.51009700  1
  O  O27  1  0.27223400  0.75342400  0.01031300  1
