# generated using pymatgen
data_LiLa2Ge
_symmetry_space_group_name_H-M   'P 1'
_cell_length_a   12.40967399
_cell_length_b   12.40967399
_cell_length_c   12.40967399
_cell_angle_alpha   120.61562155
_cell_angle_beta   120.07993175
_cell_angle_gamma   89.39931396
_symmetry_Int_Tables_number   1
_chemical_formula_structural   LiLa2Ge
_chemical_formula_sum   'Li1 La2 Ge1'
_cell_volume   1344.12382055
_cell_formula_units_Z   1
loop_
 _symmetry_equiv_pos_site_id
 _symmetry_equiv_pos_as_xyz
  1  'x, y, z'
loop_
 _atom_site_type_symbol
 _atom_site_label
 _atom_site_symmetry_multiplicity
 _atom_site_fract_x
 _atom_site_fract_y
 _atom_site_fract_z
 _atom_site_occupancy
  Li  Li0  1  0.00000000  0.00000000  0.00000000  1
  La  La1  1  0.28477600  0.00000000  0.28477600  1
  La  La2  1  0.71522400  0.00000000  0.71522400  1
  Ge  Ge3  1  0.50000000  0.00000000  0.50000000  1
