# generated using pymatgen
data_Li3V4O8
_symmetry_space_group_name_H-M   'P 1'
_cell_length_a   5.92555512
_cell_length_b   10.19886475
_cell_length_c   6.12359140
_cell_angle_alpha   73.92006910
_cell_angle_beta   119.22862629
_cell_angle_gamma   89.87101110
_symmetry_Int_Tables_number   1
_chemical_formula_structural   Li3V4O8
_chemical_formula_sum   'Li6 V8 O16'
_cell_volume   306.11891186
_cell_formula_units_Z   2
loop_
 _symmetry_equiv_pos_site_id
 _symmetry_equiv_pos_as_xyz
  1  'x, y, z'
loop_
 _atom_site_type_symbol
 _atom_site_label
 _atom_site_symmetry_multiplicity
 _atom_site_fract_x
 _atom_site_fract_y
 _atom_site_fract_z
 _atom_site_occupancy
  Li  Li0  1  0.50165000  0.99955300  0.50065300  1
  Li  Li1  1  0.99840400  0.50042200  0.49934200  1
  Li  Li2  1  0.28519600  0.06861400  0.06938000  1
  Li  Li3  1  0.78249100  0.56815700  0.06705600  1
  Li  Li4  1  0.21446700  0.43138800  0.93059900  1
  Li  Li5  1  0.71782900  0.93184800  0.93298500  1
  V  V6  1  0.74977500  0.25004200  0.49969100  1
  V  V7  1  0.24985700  0.75002900  0.49979400  1
  V  V8  1  0.25020300  0.24997100  0.50010900  1
  V  V9  1  0.75010500  0.75001600  0.50012400  1
  V  V10  1  0.00335200  0.99878500  0.50236300  1
  V  V11  1  0.49665300  0.50120400  0.49765200  1
  V  V12  1  0.25019600  0.74994400  0.00006800  1
  V  V13  1  0.74981300  0.25003500  0.00000000  1
  O  O14  1  0.10594800  0.12487200  0.70241700  1
  O  O15  1  0.60177900  0.62527300  0.70085700  1
  O  O16  1  0.39388400  0.37516800  0.29750300  1
  O  O17  1  0.89811600  0.87473600  0.29919500  1
  O  O18  1  0.65074900  0.12220000  0.27474500  1
  O  O19  1  0.14579400  0.62382100  0.26294800  1
  O  O20  1  0.88248600  0.36128800  0.26364000  1
  O  O21  1  0.38365000  0.86216100  0.26916500  1
  O  O22  1  0.10964100  0.12233600  0.26093600  1
  O  O23  1  0.61185400  0.62442100  0.26080400  1
  O  O24  1  0.61758200  0.13871400  0.73640700  1
  O  O25  1  0.11643100  0.63784800  0.73084600  1
  O  O26  1  0.39031700  0.37766300  0.73914500  1
  O  O27  1  0.88837700  0.87551700  0.73940300  1
  O  O28  1  0.84910900  0.37777600  0.72521500  1
  O  O29  1  0.35429300  0.87620000  0.73695900  1
