# generated using pymatgen
data_Li4MnCo2O7
_symmetry_space_group_name_H-M   'P 1'
_cell_length_a   5.03255100
_cell_length_b   6.59568917
_cell_length_c   7.75508597
_cell_angle_alpha   86.19274684
_cell_angle_beta   76.73050554
_cell_angle_gamma   82.70975317
_symmetry_Int_Tables_number   1
_chemical_formula_structural   Li4MnCo2O7
_chemical_formula_sum   'Li8 Mn2 Co4 O14'
_cell_volume   248.33232259
_cell_formula_units_Z   2
loop_
 _symmetry_equiv_pos_site_id
 _symmetry_equiv_pos_as_xyz
  1  'x, y, z'
loop_
 _atom_site_type_symbol
 _atom_site_label
 _atom_site_symmetry_multiplicity
 _atom_site_fract_x
 _atom_site_fract_y
 _atom_site_fract_z
 _atom_site_occupancy
  Li  Li0  1  0.92233500  0.14741100  0.63839300  1
  Li  Li1  1  0.65122900  0.70464800  0.22585300  1
  Li  Li2  1  0.50229100  0.99347300  0.49927600  1
  Li  Li3  1  0.22828200  0.56936000  0.07113400  1
  Li  Li4  1  0.06120000  0.85177300  0.36474500  1
  Li  Li5  1  0.78316500  0.43352800  0.92472100  1
  Li  Li6  1  0.36550400  0.29442500  0.77684000  1
  Li  Li7  1  0.71398700  0.57654400  0.57588000  1
  Mn  Mn8  1  0.99870500  0.99838900  0.00018700  1
  Mn  Mn9  1  0.14516700  0.71170900  0.71068000  1
  Co  Co10  1  0.41913300  0.14521200  0.14972100  1
  Co  Co11  1  0.84320800  0.29188100  0.29802900  1
  Co  Co12  1  0.57084800  0.85579300  0.85543600  1
  Co  Co13  1  0.27539300  0.43999100  0.42696800  1
  O  O14  1  0.25198500  0.98030000  0.76536600  1
  O  O15  1  0.98388000  0.55587500  0.31911000  1
  O  O16  1  0.83143800  0.85170300  0.62961400  1
  O  O17  1  0.54232400  0.41901400  0.17930400  1
  O  O18  1  0.37424100  0.71243300  0.47866500  1
  O  O19  1  0.09972800  0.26119300  0.03964600  1
  O  O20  1  0.68283000  0.12086000  0.90582700  1
  O  O21  1  0.60646200  0.28430000  0.51906100  1
  O  O22  1  0.31032000  0.86985500  0.08708300  1
  O  O23  1  0.18833600  0.14690800  0.38102300  1
  O  O24  1  0.88787700  0.73586500  0.94903000  1
  O  O25  1  0.75981800  0.00181400  0.23151600  1
  O  O26  1  0.44730100  0.59844100  0.81789800  1
  O  O27  1  0.05301500  0.44730200  0.67899300  1
