# generated using pymatgen
data_LiCoPO4
_symmetry_space_group_name_H-M   'P 1'
_cell_length_a   4.76278303
_cell_length_b   6.02550408
_cell_length_c   10.19691608
_cell_angle_alpha   90.01456803
_cell_angle_beta   89.99857177
_cell_angle_gamma   89.98865456
_symmetry_Int_Tables_number   1
_chemical_formula_structural   LiCoPO4
_chemical_formula_sum   'Li4 Co4 P4 O16'
_cell_volume   292.63280100
_cell_formula_units_Z   4
loop_
 _symmetry_equiv_pos_site_id
 _symmetry_equiv_pos_as_xyz
  1  'x, y, z'
loop_
 _atom_site_type_symbol
 _atom_site_label
 _atom_site_symmetry_multiplicity
 _atom_site_fract_x
 _atom_site_fract_y
 _atom_site_fract_z
 _atom_site_occupancy
  Li  Li0  1  0.50000400  0.00000400  0.50000400  1
  Li  Li1  1  0.00001200  0.49999400  0.99999800  1
  Li  Li2  1  0.49999700  0.50000300  0.49999400  1
  Li  Li3  1  0.99998700  0.99999400  0.00000300  1
  Co  Co4  1  0.01968600  0.74999800  0.72430100  1
  Co  Co5  1  0.48032400  0.74997000  0.22430300  1
  Co  Co6  1  0.98031700  0.25003800  0.27570000  1
  Co  Co7  1  0.51966600  0.25003100  0.77569600  1
  P  P8  1  0.58819300  0.75003500  0.90705300  1
  P  P9  1  0.91180800  0.75000100  0.40706100  1
  P  P10  1  0.41181100  0.24999100  0.09294600  1
  P  P11  1  0.08819300  0.25004600  0.59294000  1
  O  O12  1  0.26551900  0.75014300  0.90025400  1
  O  O13  1  0.23449600  0.74992000  0.40024900  1
  O  O14  1  0.73448700  0.24983800  0.09974900  1
  O  O15  1  0.76550400  0.25001400  0.59974600  1
  O  O16  1  0.79734200  0.74985300  0.55033000  1
  O  O17  1  0.70265700  0.74997600  0.05032900  1
  O  O18  1  0.20266000  0.25018800  0.44966900  1
  O  O19  1  0.29734100  0.24999500  0.94967000  1
  O  O20  1  0.77104600  0.95517000  0.33774900  1
  O  O21  1  0.72895800  0.54483200  0.83763500  1
  O  O22  1  0.22903000  0.45511700  0.66241500  1
  O  O23  1  0.27084600  0.04487300  0.16229300  1
  O  O24  1  0.22905000  0.04486000  0.66223100  1
  O  O25  1  0.27105700  0.45512700  0.16234900  1
  O  O26  1  0.77086900  0.54491100  0.33760100  1
  O  O27  1  0.72914000  0.95507900  0.83773100  1
