# generated using pymatgen
data_Li10Zn(PS4)4
_symmetry_space_group_name_H-M   'P 1'
_cell_length_a   7.90147600
_cell_length_b   12.41924800
_cell_length_c   17.94927604
_cell_angle_alpha   46.27863119
_cell_angle_beta   90.00000000
_cell_angle_gamma   90.00000000
_symmetry_Int_Tables_number   1
_chemical_formula_structural   Li10Zn(PS4)4
_chemical_formula_sum   'Li20 Zn2 P8 S32'
_cell_volume   1272.95831168
_cell_formula_units_Z   2
loop_
 _symmetry_equiv_pos_site_id
 _symmetry_equiv_pos_as_xyz
  1  'x, y, z'
loop_
 _atom_site_type_symbol
 _atom_site_label
 _atom_site_symmetry_multiplicity
 _atom_site_fract_x
 _atom_site_fract_y
 _atom_site_fract_z
 _atom_site_occupancy
  Li  Li0  1  0.23858400  0.34988400  0.15424800  1
  Li  Li1  1  0.24564200  0.84156500  0.15672300  1
  Li  Li2  1  0.24068200  0.84209200  0.65374200  1
  Li  Li3  1  0.24035000  0.34475600  0.65482000  1
  Li  Li4  1  0.23583600  0.90068600  0.35150100  1
  Li  Li5  1  0.25442800  0.41244100  0.33622300  1
  Li  Li6  1  0.26231000  0.89827900  0.84855100  1
  Li  Li7  1  0.73769000  0.89827900  0.34855100  1
  Li  Li8  1  0.74557200  0.41244100  0.83622300  1
  Li  Li9  1  0.76416400  0.90068600  0.85150100  1
  Li  Li10  1  0.75965000  0.34475600  0.15482000  1
  Li  Li11  1  0.75931800  0.84209200  0.15374200  1
  Li  Li12  1  0.75435800  0.84156500  0.65672300  1
  Li  Li13  1  0.76141600  0.34988400  0.65424800  1
  Li  Li14  1  0.99765900  0.16393100  0.07478200  1
  Li  Li15  1  0.00234100  0.16393100  0.57478200  1
  Li  Li16  1  0.49741300  0.06309800  0.42675500  1
  Li  Li17  1  0.48896900  0.57312900  0.42538800  1
  Li  Li18  1  0.51103100  0.57312900  0.92538800  1
  Li  Li19  1  0.50258700  0.06309800  0.92675500  1
  Zn  Zn20  1  0.25721400  0.41172600  0.83812100  1
  Zn  Zn21  1  0.74278600  0.41172600  0.33812100  1
  P  P22  1  0.99190200  0.09004000  0.40972200  1
  P  P23  1  0.99929500  0.58549100  0.41068500  1
  P  P24  1  0.00070500  0.58549100  0.91068500  1
  P  P25  1  0.00809800  0.09004000  0.90972200  1
  P  P26  1  0.49288100  0.15923400  0.09240100  1
  P  P27  1  0.49848700  0.65366200  0.09561100  1
  P  P28  1  0.50151300  0.65366200  0.59561100  1
  P  P29  1  0.50711900  0.15923400  0.59240100  1
  S  S30  1  0.00101500  0.37760900  0.05799800  1
  S  S31  1  0.00524600  0.89198800  0.05646400  1
  S  S32  1  0.99475400  0.89198800  0.55646400  1
  S  S33  1  0.99898500  0.37760900  0.55799800  1
  S  S34  1  0.98754000  0.74830800  0.40959500  1
  S  S35  1  0.99413200  0.27115400  0.39947500  1
  S  S36  1  0.00586800  0.27115400  0.89947500  1
  S  S37  1  0.01246000  0.74830800  0.90959500  1
  S  S38  1  0.20856000  0.11406400  0.33555400  1
  S  S39  1  0.21246500  0.60613200  0.33565300  1
  S  S40  1  0.22355500  0.60359000  0.83652800  1
  S  S41  1  0.22166100  0.10990300  0.83530400  1
  S  S42  1  0.28005000  0.03089400  0.16490100  1
  S  S43  1  0.28126800  0.53831700  0.15882500  1
  S  S44  1  0.27871700  0.53111400  0.66474300  1
  S  S45  1  0.29150100  0.03236100  0.66073700  1
  S  S46  1  0.49656800  0.32067100  0.09619800  1
  S  S47  1  0.50218100  0.81577400  0.10011100  1
  S  S48  1  0.49781900  0.81577400  0.60011100  1
  S  S49  1  0.50343200  0.32067100  0.59619800  1
  S  S50  1  0.48558000  0.75250600  0.44442800  1
  S  S51  1  0.50427800  0.25651300  0.43853800  1
  S  S52  1  0.49572200  0.25651300  0.93853800  1
  S  S53  1  0.51442000  0.75250600  0.94442800  1
  S  S54  1  0.70849900  0.03236100  0.16073700  1
  S  S55  1  0.72128300  0.53111400  0.16474300  1
  S  S56  1  0.71873200  0.53831700  0.65882500  1
  S  S57  1  0.71995000  0.03089400  0.66490100  1
  S  S58  1  0.77833900  0.10990300  0.33530400  1
  S  S59  1  0.77644500  0.60359000  0.33652800  1
  S  S60  1  0.78753500  0.60613200  0.83565300  1
  S  S61  1  0.79144000  0.11406400  0.83555400  1
