# generated using pymatgen
data_Li9Mn7O16
_symmetry_space_group_name_H-M   'P 1'
_cell_length_a   5.08577900
_cell_length_b   7.77881951
_cell_length_c   8.00235437
_cell_angle_alpha   99.46289772
_cell_angle_beta   98.54739710
_cell_angle_gamma   104.10989417
_symmetry_Int_Tables_number   1
_chemical_formula_structural   Li9Mn7O16
_chemical_formula_sum   'Li9 Mn7 O16'
_cell_volume   296.90375671
_cell_formula_units_Z   1
loop_
 _symmetry_equiv_pos_site_id
 _symmetry_equiv_pos_as_xyz
  1  'x, y, z'
loop_
 _atom_site_type_symbol
 _atom_site_label
 _atom_site_symmetry_multiplicity
 _atom_site_fract_x
 _atom_site_fract_y
 _atom_site_fract_z
 _atom_site_occupancy
  Li  Li0  1  0.49628800  0.63400300  0.37882800  1
  Li  Li1  1  0.97833400  0.24591500  0.73839000  1
  Li  Li2  1  0.50411700  0.87525200  0.13762200  1
  Li  Li3  1  0.02166600  0.75408500  0.26161000  1
  Li  Li4  1  0.50371200  0.36599700  0.62117200  1
  Li  Li5  1  0.00000000  0.00000000  0.00000000  1
  Li  Li6  1  0.00000000  0.50000000  0.50000000  1
  Li  Li7  1  0.49588300  0.12474800  0.86237800  1
  Li  Li8  1  0.50000000  0.00000000  0.50000000  1
  Mn  Mn9  1  0.99360800  0.87563600  0.61521500  1
  Mn  Mn10  1  0.00639200  0.12436400  0.38478500  1
  Mn  Mn11  1  0.50000000  0.50000000  0.00000000  1
  Mn  Mn12  1  0.49088700  0.75412200  0.73852600  1
  Mn  Mn13  1  0.00653400  0.37358600  0.12895600  1
  Mn  Mn14  1  0.99346600  0.62641400  0.87104400  1
  Mn  Mn15  1  0.50911300  0.24587800  0.26147400  1
  O  O16  1  0.74327700  0.64411100  0.62140100  1
  O  O17  1  0.24940300  0.26644600  0.00354300  1
  O  O18  1  0.78630700  0.88648300  0.39479000  1
  O  O19  1  0.22642200  0.75990700  0.50480200  1
  O  O20  1  0.74280900  0.38628700  0.87495600  1
  O  O21  1  0.24981800  0.01690300  0.25234600  1
  O  O22  1  0.24388900  0.52220300  0.75476300  1
  O  O23  1  0.77773900  0.13087400  0.15488600  1
  O  O24  1  0.25719100  0.61371300  0.12504400  1
  O  O25  1  0.77357800  0.24009300  0.49519800  1
  O  O26  1  0.22226100  0.86912600  0.84511400  1
  O  O27  1  0.75059700  0.73355400  0.99645700  1
  O  O28  1  0.25672300  0.35588900  0.37859900  1
  O  O29  1  0.75018200  0.98309700  0.74765400  1
  O  O30  1  0.75611100  0.47779700  0.24523700  1
  O  O31  1  0.21369300  0.11351700  0.60521000  1
