# generated using pymatgen
data_Li4V3P8O29
_symmetry_space_group_name_H-M   'P 1'
_cell_length_a   9.77192000
_cell_length_b   9.78940813
_cell_length_c   14.22464709
_cell_angle_alpha   89.72040748
_cell_angle_beta   89.64852126
_cell_angle_gamma   60.49634981
_symmetry_Int_Tables_number   1
_chemical_formula_structural   Li4V3P8O29
_chemical_formula_sum   'Li8 V6 P16 O58'
_cell_volume   1184.26746161
_cell_formula_units_Z   2
loop_
 _symmetry_equiv_pos_site_id
 _symmetry_equiv_pos_as_xyz
  1  'x, y, z'
loop_
 _atom_site_type_symbol
 _atom_site_label
 _atom_site_symmetry_multiplicity
 _atom_site_fract_x
 _atom_site_fract_y
 _atom_site_fract_z
 _atom_site_occupancy
  Li  Li0  1  0.90532200  0.32981200  0.94116200  1
  Li  Li1  1  0.90649500  0.77658400  0.44194900  1
  Li  Li2  1  0.33205500  0.76591200  0.94675200  1
  Li  Li3  1  0.68130800  0.09556200  0.55533100  1
  Li  Li4  1  0.31358800  0.91654000  0.43554000  1
  Li  Li5  1  0.22277500  0.69065100  0.55678000  1
  Li  Li6  1  0.09469400  0.67066100  0.05862300  1
  Li  Li7  1  0.94593600  0.03112100  0.00523700  1
  V  V8  1  0.56720800  0.99626300  0.75580400  1
  V  V9  1  0.43185400  0.00294300  0.24338700  1
  V  V10  1  0.56825600  0.42866500  0.25144200  1
  V  V11  1  0.44006500  0.56051400  0.74963700  1
  V  V12  1  0.00060400  0.43056400  0.74861500  1
  V  V13  1  0.00054500  0.56034100  0.25023600  1
  P  P14  1  0.91223100  0.31100900  0.15906500  1
  P  P15  1  0.77301000  0.31493900  0.65619500  1
  P  P16  1  0.91065300  0.77071800  0.66183400  1
  P  P17  1  0.66430200  0.66515400  0.86928400  1
  P  P18  1  0.66264400  0.66877000  0.36718700  1
  P  P19  1  0.78175000  0.91148400  0.15920200  1
  P  P20  1  0.68183200  0.08503100  0.33953700  1
  P  P21  1  0.31721900  0.76838100  0.16082000  1
  P  P22  1  0.69274800  0.22332200  0.83958000  1
  P  P23  1  0.32117000  0.91025600  0.65572700  1
  P  P24  1  0.22321400  0.08159000  0.83798700  1
  P  P25  1  0.33865200  0.32811800  0.63342800  1
  P  P26  1  0.33026100  0.34080600  0.13122600  1
  P  P27  1  0.08490100  0.22536200  0.34135600  1
  P  P28  1  0.23037900  0.67902300  0.34173600  1
  P  P29  1  0.08985600  0.68284100  0.84135700  1
  O  O30  1  0.99349600  0.24114600  0.42659600  1
  O  O31  1  0.91313200  0.34485000  0.66436900  1
  O  O32  1  0.78911900  0.21276100  0.92295300  1
  O  O33  1  0.74100200  0.34330200  0.17063000  1
  O  O34  1  0.91274300  0.46908700  0.17308100  1
  O  O35  1  0.81159600  0.51204000  0.83526300  1
  O  O36  1  0.89570200  0.62478000  0.67955500  1
  O  O37  1  0.01995100  0.76676000  0.93119100  1
  O  O38  1  0.92130200  0.73752700  0.16666500  1
  O  O39  1  0.65823700  0.52330300  0.32257600  1
  O  O40  1  0.62016100  0.47502800  0.67828800  1
  O  O41  1  0.81628300  0.66523900  0.32418900  1
  O  O42  1  0.64447400  0.67754000  0.97307300  1
  O  O43  1  0.67128100  0.66601500  0.47140000  1
  O  O44  1  0.66942000  0.81192000  0.82397200  1
  O  O45  1  0.47213500  0.61414400  0.17419200  1
  O  O46  1  0.51158100  0.67231800  0.82478600  1
  O  O47  1  0.74544900  0.92068000  0.66469200  1
  O  O48  1  0.80052600  0.99043500  0.25577000  1
  O  O49  1  0.75398100  0.00263400  0.43034500  1
  O  O50  1  0.81195400  0.98744800  0.07772100  1
  O  O51  1  0.62348400  0.91638000  0.16609900  1
  O  O52  1  0.51474400  0.81674100  0.32839600  1
  O  O53  1  0.65450100  0.08752700  0.83435400  1
  O  O54  1  0.47902500  0.90480900  0.67968600  1
  O  O55  1  0.34145600  0.74142800  0.66433900  1
  O  O56  1  0.79358200  0.20531400  0.74679100  1
  O  O57  1  0.75782800  0.23838100  0.57120300  1
  O  O58  1  0.23913100  0.75907900  0.42948200  1
  O  O59  1  0.65687000  0.25377300  0.33363600  1
  O  O60  1  0.52347900  0.09194400  0.32011000  1
  O  O61  1  0.34531200  0.90981400  0.16490200  1
  O  O62  1  0.48837700  0.17903600  0.67412900  1
  O  O63  1  0.38254000  0.08327700  0.82665000  1
  O  O64  1  0.22084900  0.98555700  0.91858700  1
  O  O65  1  0.25668000  0.98048500  0.56321700  1
  O  O66  1  0.20409900  0.00847200  0.74010700  1
  O  O67  1  0.25360800  0.08313400  0.33627700  1
  O  O68  1  0.47849300  0.33831500  0.17739700  1
  O  O69  1  0.53696200  0.38195100  0.82856800  1
  O  O70  1  0.32499800  0.19634500  0.16999300  1
  O  O71  1  0.32110800  0.36666200  0.02788000  1
  O  O72  1  0.34653300  0.33996100  0.52972600  1
  O  O73  1  0.19311700  0.32922200  0.67695700  1
  O  O74  1  0.38036900  0.52128200  0.32468200  1
  O  O75  1  0.34078500  0.47823100  0.67845700  1
  O  O76  1  0.08404000  0.25095500  0.83959300  1
  O  O77  1  0.00583300  0.20219600  0.24559700  1
  O  O78  1  0.97866600  0.23457400  0.06683300  1
  O  O79  1  0.09371100  0.37961900  0.31825500  1
  O  O80  1  0.18178700  0.49422200  0.17550900  1
  O  O81  1  0.08548700  0.52884700  0.82741500  1
  O  O82  1  0.26240700  0.65323800  0.83376100  1
  O  O83  1  0.23036600  0.77056400  0.07324000  1
  O  O84  1  0.20814400  0.78863200  0.25168900  1
  O  O85  1  0.08199100  0.65944200  0.34243700  1
  O  O86  1  0.99667200  0.76454900  0.57230000  1
  O  O87  1  0.00302900  0.79120300  0.75052800  1
