# generated using pymatgen
data_Li2Mn(SeO3)2
_symmetry_space_group_name_H-M   'P 1'
_cell_length_a   8.73438287
_cell_length_b   9.61294080
_cell_length_c   8.73422183
_cell_angle_alpha   111.53973836
_cell_angle_beta   101.08227630
_cell_angle_gamma   68.46130061
_symmetry_Int_Tables_number   1
_chemical_formula_structural   Li2Mn(SeO3)2
_chemical_formula_sum   'Li8 Mn4 Se8 O24'
_cell_volume   633.10435608
_cell_formula_units_Z   4
loop_
 _symmetry_equiv_pos_site_id
 _symmetry_equiv_pos_as_xyz
  1  'x, y, z'
loop_
 _atom_site_type_symbol
 _atom_site_label
 _atom_site_symmetry_multiplicity
 _atom_site_fract_x
 _atom_site_fract_y
 _atom_site_fract_z
 _atom_site_occupancy
  Li  Li0  1  0.26936400  0.15386800  0.73076100  1
  Li  Li1  1  0.51947600  0.65371300  0.98055800  1
  Li  Li2  1  0.76925600  0.15383000  0.23067200  1
  Li  Li3  1  0.01933500  0.65379600  0.48072900  1
  Li  Li4  1  0.23052500  0.84621100  0.76941100  1
  Li  Li5  1  0.48064000  0.34617200  0.01936900  1
  Li  Li6  1  0.73073700  0.84613800  0.26936100  1
  Li  Li7  1  0.98086500  0.34596500  0.51919100  1
  Mn  Mn8  1  0.49975200  0.99973400  0.49968100  1
  Mn  Mn9  1  0.75012900  0.50013000  0.74989700  1
  Mn  Mn10  1  0.99950300  0.00003500  0.99956500  1
  Mn  Mn11  1  0.25054000  0.49998200  0.25064600  1
  Se  Se12  1  0.43124000  0.37919300  0.56884700  1
  Se  Se13  1  0.68116300  0.87936400  0.81880700  1
  Se  Se14  1  0.93114300  0.37932000  0.06893200  1
  Se  Se15  1  0.18099200  0.87931700  0.31886200  1
  Se  Se16  1  0.06892100  0.62070300  0.93122200  1
  Se  Se17  1  0.31884900  0.12071900  0.18109500  1
  Se  Se18  1  0.56885400  0.62069800  0.43116900  1
  Se  Se19  1  0.81871800  0.12075000  0.68115900  1
  O  O20  1  0.25087000  0.49915300  0.99548600  1
  O  O21  1  0.50095200  0.99927600  0.24557300  1
  O  O22  1  0.75095300  0.49907300  0.49517000  1
  O  O23  1  0.00081400  0.99936700  0.74572700  1
  O  O24  1  0.37226200  0.25407800  0.62738900  1
  O  O25  1  0.62258500  0.75414900  0.87765800  1
  O  O26  1  0.87234400  0.25415600  0.12772200  1
  O  O27  1  0.12235100  0.75410000  0.37770900  1
  O  O28  1  0.49554900  0.50085900  0.75080900  1
  O  O29  1  0.74563000  0.00071700  0.00095400  1
  O  O30  1  0.99541400  0.50091500  0.25094300  1
  O  O31  1  0.24559400  0.00068000  0.50101600  1
  O  O32  1  0.00452400  0.49932500  0.74898100  1
  O  O33  1  0.25458900  0.99915300  0.99913700  1
  O  O34  1  0.50434500  0.49931400  0.24916500  1
  O  O35  1  0.75449700  0.99912700  0.49919300  1
  O  O36  1  0.24911900  0.50070700  0.50445300  1
  O  O37  1  0.49912500  0.00084400  0.75451200  1
  O  O38  1  0.74911400  0.50066500  0.00412400  1
  O  O39  1  0.99902300  0.00092900  0.25467800  1
  O  O40  1  0.12755300  0.74606000  0.87251200  1
  O  O41  1  0.37762200  0.24599100  0.12246500  1
  O  O42  1  0.62743000  0.74588700  0.37221000  1
  O  O43  1  0.87773300  0.24583600  0.62247200  1
