# generated using pymatgen
data_LiMn2P2O9
_symmetry_space_group_name_H-M   'P 1'
_cell_length_a   6.30082400
_cell_length_b   7.53102100
_cell_length_c   13.90028000
_cell_angle_alpha   90.00000000
_cell_angle_beta   90.00000000
_cell_angle_gamma   90.00000000
_symmetry_Int_Tables_number   1
_chemical_formula_structural   LiMn2P2O9
_chemical_formula_sum   'Li4 Mn8 P8 O36'
_cell_volume   659.59105273
_cell_formula_units_Z   4
loop_
 _symmetry_equiv_pos_site_id
 _symmetry_equiv_pos_as_xyz
  1  'x, y, z'
loop_
 _atom_site_type_symbol
 _atom_site_label
 _atom_site_symmetry_multiplicity
 _atom_site_fract_x
 _atom_site_fract_y
 _atom_site_fract_z
 _atom_site_occupancy
  Li  Li0  1  0.75000000  0.93869800  0.77944200  1
  Li  Li1  1  0.75000000  0.56130200  0.27944200  1
  Li  Li2  1  0.25000000  0.43869800  0.72055800  1
  Li  Li3  1  0.25000000  0.06130200  0.22055800  1
  Mn  Mn4  1  0.75000000  0.35284500  0.87824400  1
  Mn  Mn5  1  0.25000000  0.64715500  0.12175600  1
  Mn  Mn6  1  0.25000000  0.85284500  0.62175600  1
  Mn  Mn7  1  0.75000000  0.14715500  0.37824400  1
  Mn  Mn8  1  0.50000000  0.00000000  0.00000000  1
  Mn  Mn9  1  0.50000000  0.50000000  0.50000000  1
  Mn  Mn10  1  0.00000000  0.50000000  0.50000000  1
  Mn  Mn11  1  0.00000000  0.00000000  0.00000000  1
  P  P12  1  0.25000000  0.36642600  0.93287200  1
  P  P13  1  0.75000000  0.63357400  0.06712800  1
  P  P14  1  0.75000000  0.86642600  0.56712800  1
  P  P15  1  0.25000000  0.13357400  0.43287200  1
  P  P16  1  0.75000000  0.39385000  0.69295200  1
  P  P17  1  0.75000000  0.10615000  0.19295200  1
  P  P18  1  0.25000000  0.89385000  0.80704800  1
  P  P19  1  0.25000000  0.60615000  0.30704800  1
  O  O20  1  0.04534000  0.59500600  0.36775400  1
  O  O21  1  0.54534000  0.40499400  0.63224600  1
  O  O22  1  0.95466000  0.09500600  0.13224600  1
  O  O23  1  0.45466000  0.90499400  0.86775400  1
  O  O24  1  0.95466000  0.40499400  0.63224600  1
  O  O25  1  0.45466000  0.59500600  0.36775400  1
  O  O26  1  0.04534000  0.90499400  0.86775400  1
  O  O27  1  0.54534000  0.09500600  0.13224600  1
  O  O28  1  0.25000000  0.31509300  0.48514600  1
  O  O29  1  0.75000000  0.68490700  0.51485400  1
  O  O30  1  0.75000000  0.81509300  0.01485400  1
  O  O31  1  0.25000000  0.18490700  0.98514600  1
  O  O32  1  0.75000000  0.12950500  0.94815900  1
  O  O33  1  0.25000000  0.87049500  0.05184100  1
  O  O34  1  0.25000000  0.62950500  0.55184100  1
  O  O35  1  0.75000000  0.37049500  0.44815900  1
  O  O36  1  0.75000000  0.21976600  0.75611900  1
  O  O37  1  0.25000000  0.78023400  0.24388100  1
  O  O38  1  0.25000000  0.71976600  0.74388100  1
  O  O39  1  0.75000000  0.28023400  0.25611900  1
  O  O40  1  0.44103000  0.12568400  0.36305900  1
  O  O41  1  0.94103000  0.87431600  0.63694100  1
  O  O42  1  0.55897000  0.62568400  0.13694100  1
  O  O43  1  0.05897000  0.37431600  0.86305900  1
  O  O44  1  0.55897000  0.87431600  0.63694100  1
  O  O45  1  0.05897000  0.12568400  0.36305900  1
  O  O46  1  0.44103000  0.37431600  0.86305900  1
  O  O47  1  0.94103000  0.62568400  0.13694100  1
  O  O48  1  0.75000000  0.47815300  0.99672400  1
  O  O49  1  0.25000000  0.03618900  0.72502500  1
  O  O50  1  0.25000000  0.46381100  0.22502500  1
  O  O51  1  0.75000000  0.53618900  0.77497500  1
  O  O52  1  0.75000000  0.02184700  0.49672400  1
  O  O53  1  0.25000000  0.97815300  0.50327600  1
  O  O54  1  0.25000000  0.52184700  0.00327600  1
  O  O55  1  0.75000000  0.96381100  0.27497500  1
