# generated using pymatgen
data_LiSbN2
_symmetry_space_group_name_H-M   'P 1'
_cell_length_a   5.96237978
_cell_length_b   12.13719839
_cell_length_c   15.15073899
_cell_angle_alpha   90.00000000
_cell_angle_beta   90.00000000
_cell_angle_gamma   90.00000000
_symmetry_Int_Tables_number   1
_chemical_formula_structural   LiSbN2
_chemical_formula_sum   'Li16 Sb16 N32'
_cell_volume   1096.40726012
_cell_formula_units_Z   16
loop_
 _symmetry_equiv_pos_site_id
 _symmetry_equiv_pos_as_xyz
  1  'x, y, z'
loop_
 _atom_site_type_symbol
 _atom_site_label
 _atom_site_symmetry_multiplicity
 _atom_site_fract_x
 _atom_site_fract_y
 _atom_site_fract_z
 _atom_site_occupancy
  Li  Li0  1  0.48043799  0.05150414  0.23994371  1
  Li  Li1  1  0.98043799  0.44849586  0.76005629  1
  Li  Li2  1  0.51956201  0.55150414  0.26005629  1
  Li  Li3  1  0.01956201  0.94849586  0.73994371  1
  Li  Li4  1  0.51956201  0.94849586  0.76005629  1
  Li  Li5  1  0.01956201  0.55150414  0.23994371  1
  Li  Li6  1  0.48043799  0.44849586  0.73994371  1
  Li  Li7  1  0.98043799  0.05150414  0.26005629  1
  Li  Li8  1  0.88472364  0.31445555  0.01736913  1
  Li  Li9  1  0.38472364  0.18554445  0.98263087  1
  Li  Li10  1  0.11527636  0.81445555  0.48263087  1
  Li  Li11  1  0.61527636  0.68554445  0.51736913  1
  Li  Li12  1  0.11527636  0.68554445  0.98263087  1
  Li  Li13  1  0.61527636  0.81445555  0.01736913  1
  Li  Li14  1  0.88472364  0.18554445  0.51736913  1
  Li  Li15  1  0.38472364  0.31445555  0.48263087  1
  Sb  Sb16  1  0.63474732  0.94306969  0.43725510  1
  Sb  Sb17  1  0.13474732  0.55693031  0.56274490  1
  Sb  Sb18  1  0.36525268  0.44306969  0.06274490  1
  Sb  Sb19  1  0.86525268  0.05693031  0.93725510  1
  Sb  Sb20  1  0.36525268  0.05693031  0.56274490  1
  Sb  Sb21  1  0.86525268  0.44306969  0.43725510  1
  Sb  Sb22  1  0.63474732  0.55693031  0.93725510  1
  Sb  Sb23  1  0.13474732  0.94306969  0.06274490  1
  Sb  Sb24  1  0.69577520  0.29564149  0.30202150  1
  Sb  Sb25  1  0.19577520  0.20435851  0.69797850  1
  Sb  Sb26  1  0.30422480  0.79564149  0.19797850  1
  Sb  Sb27  1  0.80422480  0.70435851  0.80202150  1
  Sb  Sb28  1  0.30422480  0.70435851  0.69797850  1
  Sb  Sb29  1  0.80422480  0.79564149  0.30202150  1
  Sb  Sb30  1  0.69577520  0.20435851  0.80202150  1
  Sb  Sb31  1  0.19577520  0.29564149  0.19797850  1
  N  N32  1  0.78198513  0.46147342  0.30610856  1
  N  N33  1  0.28198513  0.03852658  0.69389144  1
  N  N34  1  0.21801487  0.96147342  0.19389144  1
  N  N35  1  0.71801487  0.53852658  0.80610856  1
  N  N36  1  0.21801487  0.53852658  0.69389144  1
  N  N37  1  0.71801487  0.96147342  0.30610856  1
  N  N38  1  0.78198513  0.03852658  0.80610856  1
  N  N39  1  0.28198513  0.46147342  0.19389144  1
  N  N40  1  0.72102856  0.29113858  0.43722912  1
  N  N41  1  0.22102856  0.20886142  0.56277088  1
  N  N42  1  0.27897144  0.79113858  0.06277088  1
  N  N43  1  0.77897144  0.70886142  0.93722912  1
  N  N44  1  0.27897144  0.70886142  0.56277088  1
  N  N45  1  0.77897144  0.79113858  0.43722912  1
  N  N46  1  0.72102856  0.20886142  0.93722912  1
  N  N47  1  0.22102856  0.29113858  0.06277088  1
  N  N48  1  0.70460043  0.45321677  0.03849106  1
  N  N49  1  0.20460043  0.04678323  0.96150894  1
  N  N50  1  0.29539957  0.95321677  0.46150894  1
  N  N51  1  0.79539957  0.54678323  0.53849106  1
  N  N52  1  0.29539957  0.54678323  0.96150894  1
  N  N53  1  0.79539957  0.95321677  0.03849106  1
  N  N54  1  0.70460043  0.04678323  0.53849106  1
  N  N55  1  0.20460043  0.45321677  0.46150894  1
  N  N56  1  0.41465913  0.21436775  0.27357737  1
  N  N57  1  0.91465913  0.28563225  0.72642263  1
  N  N58  1  0.58534087  0.71436775  0.22642263  1
  N  N59  1  0.08534087  0.78563225  0.77357737  1
  N  N60  1  0.58534087  0.78563225  0.72642263  1
  N  N61  1  0.08534087  0.71436775  0.27357737  1
  N  N62  1  0.41465913  0.28563225  0.77357737  1
  N  N63  1  0.91465913  0.21436775  0.22642263  1
