# generated using pymatgen
data_Li9Mn2Co5O16
_symmetry_space_group_name_H-M   'P 1'
_cell_length_a   5.88581528
_cell_length_b   5.88581528
_cell_length_c   10.32913438
_cell_angle_alpha   72.64850783
_cell_angle_beta   72.64850783
_cell_angle_gamma   59.02406805
_symmetry_Int_Tables_number   1
_chemical_formula_structural   Li9Mn2Co5O16
_chemical_formula_sum   'Li9 Mn2 Co5 O16'
_cell_volume   288.22003480
_cell_formula_units_Z   1
loop_
 _symmetry_equiv_pos_site_id
 _symmetry_equiv_pos_as_xyz
  1  'x, y, z'
loop_
 _atom_site_type_symbol
 _atom_site_label
 _atom_site_symmetry_multiplicity
 _atom_site_fract_x
 _atom_site_fract_y
 _atom_site_fract_z
 _atom_site_occupancy
  Li  Li0  1  0.74670100  0.25584800  0.75885500  1
  Li  Li1  1  0.74415200  0.25329900  0.24114500  1
  Li  Li2  1  0.24748200  0.24748200  0.76097600  1
  Li  Li3  1  0.26178500  0.26178500  0.23532900  1
  Li  Li4  1  0.73821500  0.73821500  0.76467100  1
  Li  Li5  1  0.75251800  0.75251800  0.23902400  1
  Li  Li6  1  0.25584800  0.74670100  0.75885500  1
  Li  Li7  1  0.25329900  0.74415200  0.24114500  1
  Li  Li8  1  0.50000000  0.50000000  0.00000000  1
  Mn  Mn9  1  0.00000000  0.00000000  0.00000000  1
  Mn  Mn10  1  0.00000000  0.00000000  0.50000000  1
  Co  Co11  1  0.50000000  0.00000000  0.00000000  1
  Co  Co12  1  0.50000000  0.00000000  0.50000000  1
  Co  Co13  1  0.00000000  0.50000000  0.00000000  1
  Co  Co14  1  0.00000000  0.50000000  0.50000000  1
  Co  Co15  1  0.50000000  0.50000000  0.50000000  1
  O  O16  1  0.88587300  0.35709100  0.88558600  1
  O  O17  1  0.87144500  0.35995800  0.38839100  1
  O  O18  1  0.36043900  0.36043900  0.88853600  1
  O  O19  1  0.35998900  0.35998900  0.38427100  1
  O  O20  1  0.88236500  0.88236500  0.88449700  1
  O  O21  1  0.88031500  0.88031500  0.38875300  1
  O  O22  1  0.35709100  0.88587300  0.88558600  1
  O  O23  1  0.35995800  0.87144500  0.38839100  1
  O  O24  1  0.64004200  0.12855500  0.61160900  1
  O  O25  1  0.64290900  0.11412700  0.11441400  1
  O  O26  1  0.11968500  0.11968500  0.61124700  1
  O  O27  1  0.11763500  0.11763500  0.11550300  1
  O  O28  1  0.64001100  0.64001100  0.61572900  1
  O  O29  1  0.63956100  0.63956100  0.11146400  1
  O  O30  1  0.12855500  0.64004200  0.61160900  1
  O  O31  1  0.11412700  0.64290900  0.11441400  1
