# generated using pymatgen
data_Li11Fe5(OF11)2
_symmetry_space_group_name_H-M   'P 1'
_cell_length_a   5.16196100
_cell_length_b   8.76569767
_cell_length_c   9.56349962
_cell_angle_alpha   90.40093575
_cell_angle_beta   90.59588448
_cell_angle_gamma   90.42896588
_symmetry_Int_Tables_number   1
_chemical_formula_structural   Li11Fe5(OF11)2
_chemical_formula_sum   'Li11 Fe5 O2 F22'
_cell_volume   432.68468062
_cell_formula_units_Z   1
loop_
 _symmetry_equiv_pos_site_id
 _symmetry_equiv_pos_as_xyz
  1  'x, y, z'
loop_
 _atom_site_type_symbol
 _atom_site_label
 _atom_site_symmetry_multiplicity
 _atom_site_fract_x
 _atom_site_fract_y
 _atom_site_fract_z
 _atom_site_occupancy
  Li  Li0  1  0.79311100  0.14219500  0.44154300  1
  Li  Li1  1  0.18799700  0.15516500  0.13700200  1
  Li  Li2  1  0.31286300  0.35887900  0.86168500  1
  Li  Li3  1  0.68496800  0.33541200  0.14417800  1
  Li  Li4  1  0.28669000  0.34809900  0.43545300  1
  Li  Li5  1  0.69237200  0.65368500  0.93959400  1
  Li  Li6  1  0.31149600  0.66599700  0.63271800  1
  Li  Li7  1  0.68790200  0.65692500  0.36019600  1
  Li  Li8  1  0.20136800  0.85136300  0.35467300  1
  Li  Li9  1  0.81680800  0.84049100  0.63465700  1
  Li  Li10  1  0.19476400  0.85220900  0.93845300  1
  Fe  Fe11  1  0.33367000  0.01495100  0.63296800  1
  Fe  Fe12  1  0.81548000  0.13652000  0.86350200  1
  Fe  Fe13  1  0.81440300  0.48457500  0.63368500  1
  Fe  Fe14  1  0.18015300  0.52013000  0.13551100  1
  Fe  Fe15  1  0.70728100  0.97330300  0.13680300  1
  O  O16  1  0.64219000  0.01059700  0.73803700  1
  O  O17  1  0.97415200  0.01669900  0.00509600  1
  F  F18  1  0.15197600  0.17267500  0.76021800  1
  F  F19  1  0.44705100  0.16931400  0.50075000  1
  F  F20  1  0.53361900  0.16947300  0.01060600  1
  F  F21  1  0.84367400  0.15613200  0.24606300  1
  F  F22  1  0.33637800  0.34527600  0.23786300  1
  F  F23  1  0.02219200  0.34338900  0.01321500  1
  F  F24  1  0.94719300  0.32978100  0.51159900  1
  F  F25  1  0.66724100  0.33656900  0.77058700  1
  F  F26  1  0.48197300  0.49136500  0.01279900  1
  F  F27  1  0.13375200  0.50008400  0.73838600  1
  F  F28  1  0.86856200  0.50054800  0.24252700  1
  F  F29  1  0.50536900  0.50747700  0.51371700  1
  F  F30  1  0.34717100  0.66141500  0.26130200  1
  F  F31  1  0.03752000  0.66529600  0.00663000  1
  F  F32  1  0.96175700  0.65374300  0.52008000  1
  F  F33  1  0.65504600  0.65250500  0.74193400  1
  F  F34  1  0.15954900  0.84501200  0.73863700  1
  F  F35  1  0.47015300  0.83794800  0.51373100  1
  F  F36  1  0.53132200  0.82936200  0.01190200  1
  F  F37  1  0.85786200  0.82999600  0.26396900  1
  F  F38  1  0.02056600  0.98675400  0.50928300  1
  F  F39  1  0.38240500  0.99869000  0.23644700  1
