# generated using pymatgen
data_Li9Mn2Co5O16
_symmetry_space_group_name_H-M   'P 1'
_cell_length_a   5.90638100
_cell_length_b   6.53408332
_cell_length_c   7.77198480
_cell_angle_alpha   86.52775199
_cell_angle_beta   80.74713013
_cell_angle_gamma   76.88464505
_symmetry_Int_Tables_number   1
_chemical_formula_structural   Li9Mn2Co5O16
_chemical_formula_sum   'Li9 Mn2 Co5 O16'
_cell_volume   288.22716694
_cell_formula_units_Z   1
loop_
 _symmetry_equiv_pos_site_id
 _symmetry_equiv_pos_as_xyz
  1  'x, y, z'
loop_
 _atom_site_type_symbol
 _atom_site_label
 _atom_site_symmetry_multiplicity
 _atom_site_fract_x
 _atom_site_fract_y
 _atom_site_fract_z
 _atom_site_occupancy
  Li  Li0  1  0.92831300  0.88580200  0.37358700  1
  Li  Li1  1  0.68552600  0.37262800  0.88342400  1
  Li  Li2  1  0.57234100  0.12669700  0.61157200  1
  Li  Li3  1  0.32742300  0.61326800  0.12628300  1
  Li  Li4  1  0.17939100  0.37210900  0.88188900  1
  Li  Li5  1  0.80390200  0.62276500  0.12705300  1
  Li  Li6  1  0.43912600  0.87730800  0.37365800  1
  Li  Li7  1  0.06068000  0.13059100  0.62370300  1
  Li  Li8  1  0.62582600  0.25187700  0.24874700  1
  Mn  Mn9  1  0.99821600  0.99724200  0.00413000  1
  Mn  Mn10  1  0.74712000  0.50029500  0.49510500  1
  Co  Co11  1  0.49697400  0.01406300  0.00781200  1
  Co  Co12  1  0.25714600  0.49871300  0.49323400  1
  Co  Co13  1  0.37657800  0.75157500  0.75238000  1
  Co  Co14  1  0.11912000  0.24799900  0.25530900  1
  Co  Co15  1  0.87597200  0.74540200  0.74938000  1
  O  O16  1  0.20957900  0.94167200  0.17807900  1
  O  O17  1  0.94954800  0.45758100  0.68256800  1
  O  O18  1  0.84335700  0.21035100  0.43881600  1
  O  O19  1  0.58338100  0.70153000  0.92724400  1
  O  O20  1  0.48324000  0.44664500  0.66094200  1
  O  O21  1  0.09300000  0.70270600  0.93450000  1
  O  O22  1  0.74013000  0.93981500  0.16634600  1
  O  O23  1  0.32389000  0.21032300  0.43307600  1
  O  O24  1  0.65915600  0.79977200  0.56566400  1
  O  O25  1  0.40486600  0.29646000  0.05913500  1
  O  O26  1  0.25889800  0.04968900  0.82788200  1
  O  O27  1  0.01995400  0.55271900  0.33561900  1
  O  O28  1  0.92573600  0.28871400  0.06658300  1
  O  O29  1  0.54614600  0.56236900  0.32334100  1
  O  O30  1  0.17025700  0.78710500  0.57016100  1
  O  O31  1  0.79520500  0.04421500  0.82278000  1
