# generated using pymatgen
data_Li4MnCo2O7
_symmetry_space_group_name_H-M   'P 1'
_cell_length_a   15.23076941
_cell_length_b   15.23076941
_cell_length_c   5.85264069
_cell_angle_alpha   84.59279815
_cell_angle_beta   84.59279815
_cell_angle_gamma   10.77572628
_symmetry_Int_Tables_number   1
_chemical_formula_structural   Li4MnCo2O7
_chemical_formula_sum   'Li8 Mn2 Co4 O14'
_cell_volume   252.69812891
_cell_formula_units_Z   2
loop_
 _symmetry_equiv_pos_site_id
 _symmetry_equiv_pos_as_xyz
  1  'x, y, z'
loop_
 _atom_site_type_symbol
 _atom_site_label
 _atom_site_symmetry_multiplicity
 _atom_site_fract_x
 _atom_site_fract_y
 _atom_site_fract_z
 _atom_site_occupancy
  Li  Li0  1  0.42836400  0.42836400  0.78825000  1
  Li  Li1  1  0.28129200  0.28129200  0.35230200  1
  Li  Li2  1  0.14675300  0.14675300  0.92983200  1
  Li  Li3  1  0.85392700  0.85392700  0.07030200  1
  Li  Li4  1  0.71287700  0.71287700  0.64370600  1
  Li  Li5  1  0.57448300  0.57448300  0.22007100  1
  Li  Li6  1  0.00216300  0.00216300  0.49910100  1
  Li  Li7  1  0.71425200  0.71425200  0.14317300  1
  Mn  Mn8  1  0.00026300  0.00026300  0.99919700  1
  Mn  Mn9  1  0.85607000  0.85607000  0.57509100  1
  Co  Co10  1  0.57327800  0.57327800  0.70744600  1
  Co  Co11  1  0.42715100  0.42715100  0.28533700  1
  Co  Co12  1  0.27697000  0.27697000  0.87312000  1
  Co  Co13  1  0.15118900  0.15118900  0.41915100  1
  O  O14  1  0.49802800  0.49802800  0.77179400  1
  O  O15  1  0.35588400  0.35588400  0.34980700  1
  O  O16  1  0.21760600  0.21760600  0.88625900  1
  O  O17  1  0.92842700  0.92842700  0.05853900  1
  O  O18  1  0.79261200  0.79261200  0.62496300  1
  O  O19  1  0.64197300  0.64197300  0.20620500  1
  O  O20  1  0.07027300  0.07027300  0.48725400  1
  O  O21  1  0.35996700  0.35996700  0.79395600  1
  O  O22  1  0.21096400  0.21096400  0.39597700  1
  O  O23  1  0.07213000  0.07213000  0.93579800  1
  O  O24  1  0.78701700  0.78701700  0.08909400  1
  O  O25  1  0.64232400  0.64232400  0.64772900  1
  O  O26  1  0.50040300  0.50040300  0.22945900  1
  O  O27  1  0.92336000  0.92336000  0.51708700  1
