# generated using pymatgen
data_Na2LiMnPCO7
_symmetry_space_group_name_H-M   'P 1'
_cell_length_a   6.79246800
_cell_length_b   8.87919073
_cell_length_c   10.28883020
_cell_angle_alpha   90.86366113
_cell_angle_beta   90.18738830
_cell_angle_gamma   91.00603918
_symmetry_Int_Tables_number   1
_chemical_formula_structural   Na2LiMnPCO7
_chemical_formula_sum   'Na8 Li4 Mn4 P4 C4 O28'
_cell_volume   620.36598530
_cell_formula_units_Z   4
loop_
 _symmetry_equiv_pos_site_id
 _symmetry_equiv_pos_as_xyz
  1  'x, y, z'
loop_
 _atom_site_type_symbol
 _atom_site_label
 _atom_site_symmetry_multiplicity
 _atom_site_fract_x
 _atom_site_fract_y
 _atom_site_fract_z
 _atom_site_occupancy
  Na  Na0  1  0.23474900  0.91806100  0.87877300  1
  Na  Na1  1  0.24714400  0.91554800  0.37902200  1
  Na  Na2  1  0.50160700  0.74737700  0.62659600  1
  Na  Na3  1  0.99922800  0.74346500  0.12554300  1
  Na  Na4  1  0.50044900  0.74258300  0.12432200  1
  Na  Na5  1  0.50130600  0.25293800  0.87375300  1
  Na  Na6  1  0.50327500  0.25523500  0.37758200  1
  Na  Na7  1  0.99717200  0.25407300  0.37540700  1
  Li  Li8  1  0.03698800  0.71932000  0.60941400  1
  Li  Li9  1  0.97029500  0.27526600  0.88832300  1
  Li  Li10  1  0.77787500  0.08802200  0.63042200  1
  Li  Li11  1  0.75548200  0.09968600  0.12263800  1
  Mn  Mn12  1  0.74997500  0.64003600  0.88334000  1
  Mn  Mn13  1  0.75453700  0.63547900  0.39443300  1
  Mn  Mn14  1  0.24749700  0.35365300  0.61685200  1
  Mn  Mn15  1  0.24438500  0.35872500  0.10705100  1
  P  P16  1  0.23848300  0.58669800  0.85008600  1
  P  P17  1  0.25195400  0.58569300  0.35880200  1
  P  P18  1  0.75862800  0.40650300  0.65090500  1
  P  P19  1  0.74720700  0.40772300  0.14262500  1
  C  C20  1  0.75995600  0.95759300  0.86744900  1
  C  C21  1  0.75068100  0.94826900  0.36291600  1
  C  C22  1  0.23981700  0.05111600  0.63225600  1
  C  C23  1  0.24853100  0.05982200  0.13279300  1
  O  O24  1  0.22397300  0.90590700  0.64077100  1
  O  O25  1  0.25457800  0.91532100  0.14430100  1
  O  O26  1  0.75382900  0.92373200  0.99004900  1
  O  O27  1  0.74866000  0.92106500  0.48661700  1
  O  O28  1  0.74730300  0.85198300  0.77848900  1
  O  O29  1  0.75859100  0.83694300  0.27872300  1
  O  O30  1  0.06521800  0.68246900  0.90112200  1
  O  O31  1  0.43160000  0.67203000  0.89028100  1
  O  O32  1  0.07326900  0.67871900  0.40837600  1
  O  O33  1  0.43928400  0.67951500  0.39817900  1
  O  O34  1  0.22772100  0.57591400  0.69795000  1
  O  O35  1  0.76997400  0.56996000  0.59643000  1
  O  O36  1  0.24216800  0.56985300  0.20718700  1
  O  O37  1  0.74724000  0.56647400  0.08253900  1
  O  O38  1  0.23016600  0.42287800  0.90252000  1
  O  O39  1  0.77222800  0.42105300  0.80246600  1
  O  O40  1  0.25274500  0.42637200  0.41661000  1
  O  O41  1  0.75767700  0.42736200  0.29355400  1
  O  O42  1  0.56478300  0.32203800  0.61226900  1
  O  O43  1  0.92751300  0.30501400  0.60076400  1
  O  O44  1  0.56096200  0.31229700  0.10458300  1
  O  O45  1  0.92299500  0.31012800  0.09438700  1
  O  O46  1  0.24957200  0.13581500  0.73621600  1
  O  O47  1  0.24216300  0.14677400  0.23574300  1
  O  O48  1  0.24634100  0.11553500  0.51942300  1
  O  O49  1  0.24795300  0.12102700  0.01902300  1
  O  O50  1  0.77872500  0.09656700  0.83064200  1
  O  O51  1  0.74554700  0.08437300  0.31948200  1
