# generated using pymatgen
data_Li9Mn2Co5O16
_symmetry_space_group_name_H-M   'P 1'
_cell_length_a   7.71781114
_cell_length_b   7.71781114
_cell_length_c   5.19952500
_cell_angle_alpha   75.14400630
_cell_angle_beta   75.14400630
_cell_angle_gamma   95.45269390
_symmetry_Int_Tables_number   1
_chemical_formula_structural   Li9Mn2Co5O16
_chemical_formula_sum   'Li9 Mn2 Co5 O16'
_cell_volume   285.03292514
_cell_formula_units_Z   1
loop_
 _symmetry_equiv_pos_site_id
 _symmetry_equiv_pos_as_xyz
  1  'x, y, z'
loop_
 _atom_site_type_symbol
 _atom_site_label
 _atom_site_symmetry_multiplicity
 _atom_site_fract_x
 _atom_site_fract_y
 _atom_site_fract_z
 _atom_site_occupancy
  Li  Li0  1  0.38405100  0.13378200  0.99757400  1
  Li  Li1  1  0.86621800  0.61594900  0.00242600  1
  Li  Li2  1  0.50378100  0.00015800  0.49943300  1
  Li  Li3  1  0.99984200  0.49621900  0.50056700  1
  Li  Li4  1  0.61687200  0.86654600  0.99849800  1
  Li  Li5  1  0.13345400  0.38312800  0.00150200  1
  Li  Li6  1  0.73486800  0.73980000  0.52081800  1
  Li  Li7  1  0.26020000  0.26513200  0.47918200  1
  Li  Li8  1  0.49813300  0.50186700  0.00000000  1
  Mn  Mn9  1  0.99765700  0.00234300  0.00000000  1
  Mn  Mn10  1  0.12616400  0.87383600  0.50000000  1
  Co  Co11  1  0.62753000  0.37247000  0.50000000  1
  Co  Co12  1  0.25466400  0.74533600  0.00000000  1
  Co  Co13  1  0.74700200  0.25299800  0.00000000  1
  Co  Co14  1  0.38048500  0.61951500  0.50000000  1
  Co  Co15  1  0.87404100  0.12595900  0.50000000  1
  O  O16  1  0.22678800  0.97645600  0.75048800  1
  O  O17  1  0.73389500  0.47020700  0.74279200  1
  O  O18  1  0.36376900  0.87595800  0.27108300  1
  O  O19  1  0.86345400  0.36337300  0.28068000  1
  O  O20  1  0.47798600  0.74611600  0.75952200  1
  O  O21  1  0.98340000  0.23846900  0.77080500  1
  O  O22  1  0.62560500  0.61108200  0.28137700  1
  O  O23  1  0.11889100  0.11708700  0.27867500  1
  O  O24  1  0.52979300  0.26610500  0.25720800  1
  O  O25  1  0.02354400  0.77321200  0.24951200  1
  O  O26  1  0.63662700  0.13654600  0.71932000  1
  O  O27  1  0.12404200  0.63623100  0.72891700  1
  O  O28  1  0.76153100  0.01660000  0.22919500  1
  O  O29  1  0.25388400  0.52201400  0.24047800  1
  O  O30  1  0.88291300  0.88110900  0.72132500  1
  O  O31  1  0.38891800  0.37439500  0.71862300  1
