# generated using pymatgen
data_Li4MnCo2O7
_symmetry_space_group_name_H-M   'P 1'
_cell_length_a   5.09467300
_cell_length_b   7.64977639
_cell_length_c   7.73344306
_cell_angle_alpha   60.74750933
_cell_angle_beta   78.34268429
_cell_angle_gamma   71.83774030
_symmetry_Int_Tables_number   1
_chemical_formula_structural   Li4MnCo2O7
_chemical_formula_sum   'Li8 Mn2 Co4 O14'
_cell_volume   249.40923289
_cell_formula_units_Z   2
loop_
 _symmetry_equiv_pos_site_id
 _symmetry_equiv_pos_as_xyz
  1  'x, y, z'
loop_
 _atom_site_type_symbol
 _atom_site_label
 _atom_site_symmetry_multiplicity
 _atom_site_fract_x
 _atom_site_fract_y
 _atom_site_fract_z
 _atom_site_occupancy
  Li  Li0  1  0.50310400  0.85334200  0.21325000  1
  Li  Li1  1  0.49426700  0.00239200  0.50372100  1
  Li  Li2  1  0.51152700  0.56889300  0.63854400  1
  Li  Li3  1  0.49392000  0.71409100  0.92916000  1
  Li  Li4  1  0.49648700  0.29182900  0.07001500  1
  Li  Li5  1  0.49920300  0.41983500  0.36693500  1
  Li  Li6  1  0.49981100  0.15184600  0.77451800  1
  Li  Li7  1  0.00362600  0.28693000  0.56976400  1
  Mn  Mn8  1  0.00311800  0.99897900  0.99738600  1
  Mn  Mn9  1  0.99826800  0.14381500  0.28816200  1
  Co  Co10  1  0.00009600  0.43193200  0.84843500  1
  Co  Co11  1  0.99911100  0.56487500  0.15493400  1
  Co  Co12  1  0.00776700  0.71073000  0.43074100  1
  Co  Co13  1  0.99029100  0.86302400  0.71133300  1
  O  O14  1  0.76940400  0.86451400  0.96279100  1
  O  O15  1  0.78908800  0.99053000  0.24449500  1
  O  O16  1  0.78407500  0.58364500  0.38173100  1
  O  O17  1  0.75890300  0.71609300  0.68471800  1
  O  O18  1  0.77559700  0.27332600  0.83932200  1
  O  O19  1  0.77156100  0.40989600  0.12041300  1
  O  O20  1  0.76633500  0.13758800  0.51814300  1
  O  O21  1  0.22132800  0.86827000  0.45862800  1
  O  O22  1  0.21999700  0.99242400  0.76486200  1
  O  O23  1  0.21757100  0.56763600  0.90253100  1
  O  O24  1  0.23405300  0.72993100  0.16411200  1
  O  O25  1  0.23221300  0.27680900  0.31479800  1
  O  O26  1  0.23585600  0.45004300  0.60210200  1
  O  O27  1  0.22342200  0.13678200  0.04445600  1
