# generated using pymatgen
data_Li2TiV3O8
_symmetry_space_group_name_H-M   'P 1'
_cell_length_a   5.93449171
_cell_length_b   10.44739689
_cell_length_c   5.98954757
_cell_angle_alpha   89.44128638
_cell_angle_beta   60.77474953
_cell_angle_gamma   72.68565777
_symmetry_Int_Tables_number   1
_chemical_formula_structural   Li2TiV3O8
_chemical_formula_sum   'Li4 Ti2 V6 O16'
_cell_volume   305.27345019
_cell_formula_units_Z   2
loop_
 _symmetry_equiv_pos_site_id
 _symmetry_equiv_pos_as_xyz
  1  'x, y, z'
loop_
 _atom_site_type_symbol
 _atom_site_label
 _atom_site_symmetry_multiplicity
 _atom_site_fract_x
 _atom_site_fract_y
 _atom_site_fract_z
 _atom_site_occupancy
  Li  Li0  1  0.11618500  0.06332900  0.20017800  1
  Li  Li1  1  0.12079100  0.56216600  0.69948100  1
  Li  Li2  1  0.88007700  0.43794900  0.30004000  1
  Li  Li3  1  0.88364500  0.93658900  0.80005000  1
  Ti  Ti4  1  0.48312100  0.24195700  0.76402700  1
  Ti  Ti5  1  0.51599100  0.75803300  0.23627000  1
  V  V6  1  0.98907800  0.25695600  0.74016500  1
  V  V7  1  0.01025100  0.74311900  0.25977300  1
  V  V8  1  0.50011700  0.50004000  0.99991800  1
  V  V9  1  0.50458100  0.24912800  0.25034900  1
  V  V10  1  0.49566000  0.75058200  0.74960300  1
  V  V11  1  0.50016200  0.99998200  0.49973400  1
  O  O12  1  0.25493300  0.13524900  0.39991600  1
  O  O13  1  0.25309700  0.63398000  0.90278600  1
  O  O14  1  0.74712300  0.36594800  0.09731700  1
  O  O15  1  0.74464600  0.86468800  0.60050200  1
  O  O16  1  0.25765500  0.35599300  0.62937600  1
  O  O17  1  0.25662200  0.85684000  0.12964300  1
  O  O18  1  0.70874900  0.13300400  0.40906800  1
  O  O19  1  0.70890400  0.63302200  0.90527600  1
  O  O20  1  0.24772400  0.13748800  0.85347400  1
  O  O21  1  0.25059300  0.63732300  0.35301900  1
  O  O22  1  0.74965300  0.36289500  0.64657400  1
  O  O23  1  0.75220700  0.86259700  0.14667300  1
  O  O24  1  0.29156400  0.36714600  0.09438400  1
  O  O25  1  0.29124600  0.86688900  0.59120300  1
  O  O26  1  0.74308900  0.14316100  0.87089200  1
  O  O27  1  0.74253300  0.64394500  0.37031100  1
