# generated using pymatgen
data_Li2FePCO7
_symmetry_space_group_name_H-M   'P 1'
_cell_length_a   6.47416000
_cell_length_b   8.31782852
_cell_length_c   10.18718965
_cell_angle_alpha   95.25178037
_cell_angle_beta   90.14090565
_cell_angle_gamma   90.63418519
_symmetry_Int_Tables_number   1
_chemical_formula_structural   Li2FePCO7
_chemical_formula_sum   'Li8 Fe4 P4 C4 O28'
_cell_volume   546.25014864
_cell_formula_units_Z   4
loop_
 _symmetry_equiv_pos_site_id
 _symmetry_equiv_pos_as_xyz
  1  'x, y, z'
loop_
 _atom_site_type_symbol
 _atom_site_label
 _atom_site_symmetry_multiplicity
 _atom_site_fract_x
 _atom_site_fract_y
 _atom_site_fract_z
 _atom_site_occupancy
  Li  Li0  1  0.74777600  0.90124600  0.38100400  1
  Li  Li1  1  0.74210300  0.90070900  0.88298600  1
  Li  Li2  1  0.96524300  0.72197700  0.12715500  1
  Li  Li3  1  0.53836100  0.72187300  0.62742600  1
  Li  Li4  1  0.03307200  0.27805500  0.37453800  1
  Li  Li5  1  0.03177000  0.27502600  0.87541100  1
  Li  Li6  1  0.26083100  0.09853600  0.11887500  1
  Li  Li7  1  0.25854800  0.09769100  0.61847300  1
  Fe  Fe8  1  0.24708600  0.67142600  0.39987500  1
  Fe  Fe9  1  0.25231300  0.67176800  0.89917900  1
  Fe  Fe10  1  0.73761100  0.32851300  0.09982000  1
  Fe  Fe11  1  0.74534100  0.32815400  0.60004300  1
  P  P12  1  0.75631100  0.58018600  0.36179900  1
  P  P13  1  0.75294600  0.57932800  0.86180700  1
  P  P14  1  0.23676500  0.42001700  0.13758700  1
  P  P15  1  0.25174400  0.41939200  0.63789000  1
  C  C16  1  0.23986300  0.96002500  0.35002300  1
  C  C17  1  0.24344900  0.96040500  0.84987700  1
  C  C18  1  0.76730300  0.04067500  0.14990300  1
  C  C19  1  0.75160800  0.04019300  0.65024500  1
  O  O20  1  0.25935300  0.92494300  0.47269600  1
  O  O21  1  0.78767200  0.89921200  0.18406200  1
  O  O22  1  0.23999200  0.92503800  0.97312300  1
  O  O23  1  0.24482700  0.83473100  0.26175500  1
  O  O24  1  0.72123900  0.90014100  0.68598800  1
  O  O25  1  0.27447200  0.83647200  0.76285700  1
  O  O26  1  0.93832200  0.69774100  0.40123000  1
  O  O27  1  0.56483600  0.68292400  0.40517600  1
  O  O28  1  0.93380100  0.69857000  0.90444600  1
  O  O29  1  0.55992900  0.67910000  0.90316100  1
  O  O30  1  0.22344000  0.57912200  0.07137400  1
  O  O31  1  0.76303700  0.53829900  0.20971500  1
  O  O32  1  0.28298900  0.57801400  0.57214100  1
  O  O33  1  0.74535600  0.53837400  0.70964200  1
  O  O34  1  0.21466200  0.46083300  0.28923500  1
  O  O35  1  0.76809300  0.42158000  0.42858700  1
  O  O36  1  0.21628100  0.46199300  0.78818400  1
  O  O37  1  0.77368400  0.42102900  0.92840800  1
  O  O38  1  0.43270400  0.32008600  0.10515500  1
  O  O39  1  0.06034800  0.30082600  0.08689100  1
  O  O40  1  0.43830900  0.30549800  0.61344300  1
  O  O41  1  0.06692500  0.31500600  0.57990200  1
  O  O42  1  0.76413300  0.16653700  0.23783500  1
  O  O43  1  0.21678500  0.10195300  0.31609600  1
  O  O44  1  0.78376000  0.16532100  0.73675000  1
  O  O45  1  0.74566100  0.07536600  0.02712000  1
  O  O46  1  0.21644000  0.10097200  0.81436500  1
  O  O47  1  0.74688100  0.07512100  0.52674900  1
