# generated using pymatgen
data_Li9Mn2Co5O16
_symmetry_space_group_name_H-M   'P 1'
_cell_length_a   5.90245200
_cell_length_b   6.54992062
_cell_length_c   7.73184113
_cell_angle_alpha   86.35808546
_cell_angle_beta   80.39088686
_cell_angle_gamma   76.96331954
_symmetry_Int_Tables_number   1
_chemical_formula_structural   Li9Mn2Co5O16
_chemical_formula_sum   'Li9 Mn2 Co5 O16'
_cell_volume   287.02321993
_cell_formula_units_Z   1
loop_
 _symmetry_equiv_pos_site_id
 _symmetry_equiv_pos_as_xyz
  1  'x, y, z'
loop_
 _atom_site_type_symbol
 _atom_site_label
 _atom_site_symmetry_multiplicity
 _atom_site_fract_x
 _atom_site_fract_y
 _atom_site_fract_z
 _atom_site_occupancy
  Li  Li0  1  0.94044500  0.86209300  0.38478700  1
  Li  Li1  1  0.68534100  0.37646900  0.87337400  1
  Li  Li2  1  0.55378100  0.13912100  0.62066100  1
  Li  Li3  1  0.31330900  0.62248300  0.12178800  1
  Li  Li4  1  0.18901200  0.37622500  0.87770700  1
  Li  Li5  1  0.81205900  0.62235600  0.12819700  1
  Li  Li6  1  0.43698700  0.86909000  0.37563200  1
  Li  Li7  1  0.07034400  0.13417400  0.61871500  1
  Li  Li8  1  0.25081300  0.50002500  0.49977800  1
  Mn  Mn9  1  0.00332200  0.99648300  0.00033900  1
  Mn  Mn10  1  0.49766800  0.00136000  0.99834000  1
  Co  Co11  1  0.74950200  0.49984200  0.49911500  1
  Co  Co12  1  0.61981100  0.25248400  0.25713700  1
  Co  Co13  1  0.37291200  0.74978500  0.73592200  1
  Co  Co14  1  0.12810000  0.25485300  0.26214800  1
  Co  Co15  1  0.88088000  0.74043100  0.74373100  1
  O  O16  1  0.23085200  0.94283800  0.16703700  1
  O  O17  1  0.94612700  0.45612400  0.67997300  1
  O  O18  1  0.84085600  0.20664000  0.43780400  1
  O  O19  1  0.58373100  0.71085300  0.93063900  1
  O  O20  1  0.49627600  0.45315800  0.67065700  1
  O  O21  1  0.09307300  0.70011700  0.93173500  1
  O  O22  1  0.69405500  0.95302400  0.18209000  1
  O  O23  1  0.33804000  0.18869200  0.42421400  1
  O  O24  1  0.66023500  0.78996100  0.56174700  1
  O  O25  1  0.40862000  0.29780200  0.06562300  1
  O  O26  1  0.30474800  0.06090400  0.81782800  1
  O  O27  1  0.00433500  0.55080400  0.32860100  1
  O  O28  1  0.91594900  0.28933900  0.07219500  1
  O  O29  1  0.55301400  0.54049900  0.32150900  1
  O  O30  1  0.15364300  0.81761800  0.57934800  1
  O  O31  1  0.77215500  0.04435400  0.83163200  1
