# generated using pymatgen
data_Li4V3P8O29
_symmetry_space_group_name_H-M   'P 1'
_cell_length_a   9.76188300
_cell_length_b   9.77230357
_cell_length_c   14.22861335
_cell_angle_alpha   90.19910683
_cell_angle_beta   90.23705839
_cell_angle_gamma   119.92169551
_symmetry_Int_Tables_number   1
_chemical_formula_structural   Li4V3P8O29
_chemical_formula_sum   'Li8 V6 P16 O58'
_cell_volume   1176.39537872
_cell_formula_units_Z   2
loop_
 _symmetry_equiv_pos_site_id
 _symmetry_equiv_pos_as_xyz
  1  'x, y, z'
loop_
 _atom_site_type_symbol
 _atom_site_label
 _atom_site_symmetry_multiplicity
 _atom_site_fract_x
 _atom_site_fract_y
 _atom_site_fract_z
 _atom_site_occupancy
  Li  Li0  1  0.22679700  0.31798100  0.94477600  1
  Li  Li1  1  0.69606700  0.92042300  0.94154100  1
  Li  Li2  1  0.67258400  0.76603900  0.43692900  1
  Li  Li3  1  0.31091100  0.08616600  0.06357200  1
  Li  Li4  1  0.77088800  0.68121700  0.05836100  1
  Li  Li5  1  0.90976300  0.67120200  0.55905700  1
  Li  Li6  1  0.76862700  0.09671500  0.55429800  1
  Li  Li7  1  0.07438900  0.04974200  0.50458700  1
  V  V8  1  0.43166600  0.42734300  0.74227200  1
  V  V9  1  0.56492600  0.56483400  0.25031100  1
  V  V10  1  0.42940200  0.99398600  0.25406900  1
  V  V11  1  0.56474300  0.00190300  0.74962000  1
  V  V12  1  0.00062200  0.56533500  0.75331100  1
  V  V13  1  0.99985000  0.43274100  0.25008500  1
  P  P14  1  0.08278000  0.77225400  0.16304600  1
  P  P15  1  0.22093300  0.91279400  0.66197500  1
  P  P16  1  0.07992200  0.30610900  0.65830600  1
  P  P17  1  0.33735400  0.66274000  0.86631200  1
  P  P18  1  0.33269700  0.66657900  0.37052500  1
  P  P19  1  0.22873800  0.31968700  0.15978900  1
  P  P20  1  0.31056600  0.22538700  0.33996100  1
  P  P21  1  0.67996200  0.90946500  0.15647300  1
  P  P22  1  0.31941100  0.08955800  0.84335800  1
  P  P23  1  0.68273600  0.77129000  0.65852900  1
  P  P24  1  0.76889300  0.67988900  0.83877900  1
  P  P25  1  0.67227600  0.33732400  0.62888000  1
  P  P26  1  0.66437700  0.33021800  0.13197800  1
  P  P27  1  0.91463000  0.68611500  0.34576300  1
  P  P28  1  0.77487200  0.08748300  0.33712800  1
  P  P29  1  0.91508200  0.22816400  0.84243500  1
  O  O30  1  0.98617400  0.76512700  0.43714300  1
  O  O31  1  0.07981400  0.73755400  0.66611100  1
  O  O32  1  0.25601900  0.02106700  0.93636400  1
  O  O33  1  0.25413500  0.91620500  0.16211900  1
  O  O34  1  0.08962100  0.61816300  0.17777500  1
  O  O35  1  0.18595500  0.65910600  0.82006900  1
  O  O36  1  0.07731400  0.46222000  0.66986100  1
  O  O37  1  0.00801200  0.23992100  0.92743200  1
  O  O38  1  0.08174600  0.34019700  0.16605900  1
  O  O39  1  0.32918100  0.81448100  0.32345500  1
  O  O40  1  0.37876600  0.91500000  0.66963700  1
  O  O41  1  0.18668700  0.51984100  0.32341200  1
  O  O42  1  0.33104300  0.65457600  0.97036900  1
  O  O43  1  0.32878200  0.67483800  0.47442800  1
  O  O44  1  0.33476300  0.51286400  0.82282600  1
  O  O45  1  0.52056400  0.90090100  0.17952400  1
  O  O46  1  0.48578700  0.81349000  0.82774600  1
  O  O47  1  0.25428900  0.34146100  0.66434600  1
  O  O48  1  0.20963000  0.20397800  0.24403200  1
  O  O49  1  0.21087300  0.20553700  0.42222200  1
  O  O50  1  0.24102500  0.24686500  0.06966300  1
  O  O51  1  0.37816800  0.48162800  0.17905200  1
  O  O52  1  0.48844100  0.67754100  0.33383300  1
  O  O53  1  0.33773900  0.25751000  0.83281000  1
  O  O54  1  0.52318600  0.61715900  0.67344500  1
  O  O55  1  0.66001900  0.91680900  0.66016100  1
  O  O56  1  0.20127500  0.98738800  0.76034300  1
  O  O57  1  0.19752000  0.99494400  0.58187700  1
  O  O58  1  0.77189000  0.00175300  0.42585100  1
  O  O59  1  0.34472500  0.08527000  0.32972600  1
  O  O60  1  0.46619100  0.38123400  0.33095800  1
  O  O61  1  0.66164500  0.74260500  0.16049100  1
  O  O62  1  0.51819200  0.33123000  0.67289600  1
  O  O63  1  0.61716500  0.52094100  0.81899300  1
  O  O64  1  0.76012900  0.75749200  0.92747200  1
  O  O65  1  0.76454200  0.76601300  0.57047800  1
  O  O66  1  0.79029900  0.79217200  0.74977200  1
  O  O67  1  0.74452800  0.66152900  0.33674700  1
  O  O68  1  0.51470800  0.17930200  0.17120600  1
  O  O69  1  0.48179200  0.10251100  0.82042600  1
  O  O70  1  0.66789900  0.48296400  0.17143900  1
  O  O71  1  0.66742900  0.33229500  0.02755000  1
  O  O72  1  0.67771200  0.35285700  0.52498900  1
  O  O73  1  0.81459200  0.49084000  0.67461300  1
  O  O74  1  0.61808700  0.09054100  0.32471200  1
  O  O75  1  0.67833800  0.19057700  0.66553100  1
  O  O76  1  0.91536100  0.65821400  0.83448200  1
  O  O77  1  0.01032100  0.79851200  0.25941100  1
  O  O78  1  0.98960500  0.77031400  0.08025600  1
  O  O79  1  0.91194800  0.52837600  0.32798700  1
  O  O80  1  0.81414700  0.33491600  0.17985400  1
  O  O81  1  0.90436600  0.38001200  0.82202200  1
  O  O82  1  0.74680500  0.08245400  0.83971200  1
  O  O83  1  0.75109500  0.99079200  0.06714200  1
  O  O84  1  0.79352400  0.00026500  0.24658700  1
  O  O85  1  0.91659600  0.25670800  0.33463600  1
  O  O86  1  0.99646600  0.20601200  0.57472300  1
  O  O87  1  0.99950000  0.20491600  0.75108500  1
