# generated using pymatgen
data_Li22(VSn)7
_symmetry_space_group_name_H-M   'P 1'
_cell_length_a   4.64273932
_cell_length_b   4.64273932
_cell_length_c   34.59894400
_cell_angle_alpha   90.00000000
_cell_angle_beta   90.00000000
_cell_angle_gamma   119.99999033
_symmetry_Int_Tables_number   1
_chemical_formula_structural   Li22(VSn)7
_chemical_formula_sum   'Li22 V7 Sn7'
_cell_volume   645.86554584
_cell_formula_units_Z   1
loop_
 _symmetry_equiv_pos_site_id
 _symmetry_equiv_pos_as_xyz
  1  'x, y, z'
loop_
 _atom_site_type_symbol
 _atom_site_label
 _atom_site_symmetry_multiplicity
 _atom_site_fract_x
 _atom_site_fract_y
 _atom_site_fract_z
 _atom_site_occupancy
  Li  Li0  1  0.33333300  0.66666700  0.52465300  1
  Li  Li1  1  0.33333300  0.66666700  0.02496500  1
  Li  Li2  1  0.66666700  0.33333300  0.97510400  1
  Li  Li3  1  0.66666700  0.33333300  0.47557500  1
  Li  Li4  1  0.00000000  0.00000000  0.66779100  1
  Li  Li5  1  0.00000000  0.00000000  0.16814000  1
  Li  Li6  1  0.00000000  0.00000000  0.83162600  1
  Li  Li7  1  0.00000000  0.00000000  0.33179600  1
  Li  Li8  1  0.33333300  0.66666700  0.85825400  1
  Li  Li9  1  0.33333300  0.66666700  0.35776100  1
  Li  Li10  1  0.66666700  0.33333300  0.63993200  1
  Li  Li11  1  0.66666700  0.33333300  0.14206600  1
  Li  Li12  1  0.00000000  0.00000000  0.74933200  1
  Li  Li13  1  0.00000000  0.00000000  0.25012400  1
  Li  Li14  1  0.33333300  0.66666700  0.94440900  1
  Li  Li15  1  0.33333300  0.66666700  0.44465600  1
  Li  Li16  1  0.66666700  0.33333300  0.55765200  1
  Li  Li17  1  0.66666700  0.33333300  0.05570000  1
  Li  Li18  1  0.00000000  0.00000000  0.58325100  1
  Li  Li19  1  0.00000000  0.00000000  0.08238600  1
  Li  Li20  1  0.00000000  0.00000000  0.91748300  1
  Li  Li21  1  0.00000000  0.00000000  0.41780900  1
  V  V22  1  0.33333300  0.66666700  0.77623700  1
  V  V23  1  0.33333300  0.66666700  0.27407200  1
  V  V24  1  0.66666700  0.33333300  0.72572200  1
  V  V25  1  0.66666700  0.33333300  0.22568300  1
  V  V26  1  0.33333300  0.66666700  0.11149000  1
  V  V27  1  0.66666700  0.33333300  0.88864900  1
  V  V28  1  0.66666700  0.33333300  0.38822700  1
  Sn  Sn29  1  0.00000000  0.00000000  0.99993500  1
  Sn  Sn30  1  0.00000000  0.00000000  0.49968600  1
  Sn  Sn31  1  0.33333300  0.66666700  0.69640000  1
  Sn  Sn32  1  0.33333300  0.66666700  0.19412300  1
  Sn  Sn33  1  0.66666700  0.33333300  0.80611700  1
  Sn  Sn34  1  0.66666700  0.33333300  0.30572700  1
  Sn  Sn35  1  0.33333300  0.66666700  0.60746900  1
