# generated using pymatgen
data_LiNiPO4
_symmetry_space_group_name_H-M   'P 1'
_cell_length_a   4.73169600
_cell_length_b   5.93136501
_cell_length_c   10.14836402
_cell_angle_alpha   89.99360483
_cell_angle_beta   90.00132571
_cell_angle_gamma   89.99892888
_symmetry_Int_Tables_number   1
_chemical_formula_structural   LiNiPO4
_chemical_formula_sum   'Li4 Ni4 P4 O16'
_cell_volume   284.81805689
_cell_formula_units_Z   4
loop_
 _symmetry_equiv_pos_site_id
 _symmetry_equiv_pos_as_xyz
  1  'x, y, z'
loop_
 _atom_site_type_symbol
 _atom_site_label
 _atom_site_symmetry_multiplicity
 _atom_site_fract_x
 _atom_site_fract_y
 _atom_site_fract_z
 _atom_site_occupancy
  Li  Li0  1  0.49822700  0.75270700  0.24792200  1
  Li  Li1  1  0.50171800  0.25283700  0.25198300  1
  Li  Li2  1  0.00174800  0.24713900  0.74801800  1
  Li  Li3  1  0.99826000  0.74724700  0.75208200  1
  Ni  Ni4  1  0.01912900  0.50203100  0.47424900  1
  Ni  Ni5  1  0.51918200  0.99823400  0.52575500  1
  Ni  Ni6  1  0.98072400  0.00180900  0.02584500  1
  Ni  Ni7  1  0.48094500  0.49815500  0.97412700  1
  P  P8  1  0.91660400  0.50218500  0.15577000  1
  P  P9  1  0.08347200  0.00228000  0.34419300  1
  P  P10  1  0.58345200  0.49776000  0.65580800  1
  P  P11  1  0.41655400  0.99775200  0.84423000  1
  O  O12  1  0.77485300  0.70898600  0.08440500  1
  O  O13  1  0.22506400  0.20914500  0.41557400  1
  O  O14  1  0.72508400  0.29092300  0.58442700  1
  O  O15  1  0.27486600  0.79092000  0.91557000  1
  O  O16  1  0.77522900  0.29452300  0.08486700  1
  O  O17  1  0.22477300  0.79455300  0.41516900  1
  O  O18  1  0.72474200  0.70551300  0.58486900  1
  O  O19  1  0.27523600  0.20541400  0.91514200  1
  O  O20  1  0.24090400  0.50185400  0.15004100  1
  O  O21  1  0.75904700  0.00185700  0.34986300  1
  O  O22  1  0.25902200  0.49814900  0.65016200  1
  O  O23  1  0.74087700  0.99808100  0.84994400  1
  O  O24  1  0.20079800  0.00276800  0.20108100  1
  O  O25  1  0.79930200  0.50269700  0.29889300  1
  O  O26  1  0.29932400  0.99729000  0.70110400  1
  O  O27  1  0.70086200  0.49719200  0.79890800  1
