# generated using pymatgen
data_Li3MnFeCo(PO4)3
_symmetry_space_group_name_H-M   'P 1'
_cell_length_a   6.08959700
_cell_length_b   10.45985600
_cell_length_c   14.30035113
_cell_angle_alpha   89.97721847
_cell_angle_beta   90.00000000
_cell_angle_gamma   90.00000000
_symmetry_Int_Tables_number   1
_chemical_formula_structural   Li3MnFeCo(PO4)3
_chemical_formula_sum   'Li12 Mn4 Fe4 Co4 P12 O48'
_cell_volume   910.87949408
_cell_formula_units_Z   4
loop_
 _symmetry_equiv_pos_site_id
 _symmetry_equiv_pos_as_xyz
  1  'x, y, z'
loop_
 _atom_site_type_symbol
 _atom_site_label
 _atom_site_symmetry_multiplicity
 _atom_site_fract_x
 _atom_site_fract_y
 _atom_site_fract_z
 _atom_site_occupancy
  Li  Li0  1  0.74948100  0.99889800  0.66699400  1
  Li  Li1  1  0.25090700  0.99959400  0.99947700  1
  Li  Li2  1  0.74909300  0.99959400  0.99947700  1
  Li  Li3  1  0.24991300  0.99873600  0.33355000  1
  Li  Li4  1  0.75008700  0.99873600  0.33355000  1
  Li  Li5  1  0.25051900  0.99889800  0.66699400  1
  Li  Li6  1  0.24979400  0.50120400  0.50042900  1
  Li  Li7  1  0.75020600  0.50120400  0.50042900  1
  Li  Li8  1  0.25025900  0.50111800  0.16702400  1
  Li  Li9  1  0.74974100  0.50111800  0.16702400  1
  Li  Li10  1  0.25061700  0.50085600  0.83297500  1
  Li  Li11  1  0.74938300  0.50085600  0.83297500  1
  Mn  Mn12  1  0.00000000  0.21866500  0.15989100  1
  Mn  Mn13  1  0.00000000  0.21876000  0.82556900  1
  Mn  Mn14  1  0.50000000  0.28078000  0.32676400  1
  Mn  Mn15  1  0.00000000  0.71995000  0.00713000  1
  Fe  Fe16  1  0.00000000  0.21830100  0.49266700  1
  Fe  Fe17  1  0.50000000  0.28143400  0.65897300  1
  Fe  Fe18  1  0.50000000  0.28043800  0.99200200  1
  Fe  Fe19  1  0.00000000  0.71993800  0.34179400  1
  Co  Co20  1  0.00000000  0.72282700  0.67382300  1
  Co  Co21  1  0.50000000  0.77821300  0.83960300  1
  Co  Co22  1  0.50000000  0.78096200  0.50644300  1
  Co  Co23  1  0.50000000  0.78108200  0.17263700  1
  P  P24  1  0.50000000  0.09245000  0.80513600  1
  P  P25  1  0.50000000  0.09189800  0.13795700  1
  P  P26  1  0.50000000  0.09202300  0.47376700  1
  P  P27  1  0.00000000  0.40806300  0.30599500  1
  P  P28  1  0.00000000  0.40767800  0.63887500  1
  P  P29  1  0.00000000  0.40682500  0.97278300  1
  P  P30  1  0.50000000  0.59648800  0.36101800  1
  P  P31  1  0.50000000  0.59442900  0.02850700  1
  P  P32  1  0.50000000  0.59609200  0.69380800  1
  P  P33  1  0.00000000  0.90512600  0.85969400  1
  P  P34  1  0.00000000  0.90419500  0.19495500  1
  P  P35  1  0.00000000  0.90393400  0.52788300  1
  O  O36  1  0.00000000  0.04097200  0.23767500  1
  O  O37  1  0.00000000  0.04164500  0.56943100  1
  O  O38  1  0.00000000  0.04158300  0.90248000  1
  O  O39  1  0.50000000  0.09511800  0.58114300  1
  O  O40  1  0.50000000  0.09679300  0.91247500  1
  O  O41  1  0.50000000  0.09512300  0.24542100  1
  O  O42  1  0.29854100  0.16252000  0.09298900  1
  O  O43  1  0.70145900  0.16252000  0.09298900  1
  O  O44  1  0.29707100  0.16272200  0.42955700  1
  O  O45  1  0.70292900  0.16272200  0.42955700  1
  O  O46  1  0.29867800  0.16312000  0.75953400  1
  O  O47  1  0.70132200  0.16312000  0.75953400  1
  O  O48  1  0.79744000  0.33579500  0.59478500  1
  O  O49  1  0.20256000  0.33579500  0.59478500  1
  O  O50  1  0.79794500  0.33774700  0.26115900  1
  O  O51  1  0.20205500  0.33774700  0.26115900  1
  O  O52  1  0.79665900  0.33562700  0.92943000  1
  O  O53  1  0.20334100  0.33562700  0.92943000  1
  O  O54  1  0.00000000  0.40387600  0.41360900  1
  O  O55  1  0.00000000  0.40621100  0.07992900  1
  O  O56  1  0.00000000  0.40489700  0.74636800  1
  O  O57  1  0.50000000  0.45940900  0.40322700  1
  O  O58  1  0.50000000  0.45645900  0.06850000  1
  O  O59  1  0.50000000  0.45835300  0.73509200  1
  O  O60  1  0.00000000  0.54538200  0.26506300  1
  O  O61  1  0.00000000  0.54306500  0.92949500  1
  O  O62  1  0.00000000  0.54520900  0.59809200  1
  O  O63  1  0.50000000  0.59826100  0.25358700  1
  O  O64  1  0.50000000  0.59892300  0.92061000  1
  O  O65  1  0.50000000  0.59899200  0.58623200  1
  O  O66  1  0.29927500  0.66498600  0.07410700  1
  O  O67  1  0.29799100  0.66753000  0.40574100  1
  O  O68  1  0.29657100  0.66683700  0.73829900  1
  O  O69  1  0.70342900  0.66683700  0.73829900  1
  O  O70  1  0.70072500  0.66498600  0.07410700  1
  O  O71  1  0.70200900  0.66753000  0.40574100  1
  O  O72  1  0.79542800  0.83496400  0.90303200  1
  O  O73  1  0.20457200  0.83496400  0.90303200  1
  O  O74  1  0.79578900  0.83332300  0.23822800  1
  O  O75  1  0.79667100  0.83257100  0.57218800  1
  O  O76  1  0.20421100  0.83332300  0.23822800  1
  O  O77  1  0.20332900  0.83257100  0.57218800  1
  O  O78  1  0.00000000  0.90271500  0.75197500  1
  O  O79  1  0.00000000  0.90304700  0.42046900  1
  O  O80  1  0.00000000  0.90497300  0.08727200  1
  O  O81  1  0.50000000  0.95416200  0.76528200  1
  O  O82  1  0.50000000  0.95356400  0.09768800  1
  O  O83  1  0.50000000  0.95442300  0.43221700  1
