# generated using pymatgen
data_Li4Mn5(Fe2O9)2
_symmetry_space_group_name_H-M   'P 1'
_cell_length_a   2.91240200
_cell_length_b   9.10843600
_cell_length_c   24.78283203
_cell_angle_alpha   89.91537466
_cell_angle_beta   90.00000000
_cell_angle_gamma   90.00000000
_symmetry_Int_Tables_number   1
_chemical_formula_structural   Li4Mn5(Fe2O9)2
_chemical_formula_sum   'Li8 Mn10 Fe8 O36'
_cell_volume   657.42405603
_cell_formula_units_Z   2
loop_
 _symmetry_equiv_pos_site_id
 _symmetry_equiv_pos_as_xyz
  1  'x, y, z'
loop_
 _atom_site_type_symbol
 _atom_site_label
 _atom_site_symmetry_multiplicity
 _atom_site_fract_x
 _atom_site_fract_y
 _atom_site_fract_z
 _atom_site_occupancy
  Li  Li0  1  0.50000000  0.81730600  0.99035700  1
  Li  Li1  1  0.50000000  0.78924600  0.20674500  1
  Li  Li2  1  0.50000000  0.70656300  0.70288400  1
  Li  Li3  1  0.50000000  0.68430400  0.49059900  1
  Li  Li4  1  0.50000000  0.31693100  0.50871000  1
  Li  Li5  1  0.50000000  0.29515600  0.29905400  1
  Li  Li6  1  0.50000000  0.20652200  0.79659000  1
  Li  Li7  1  0.50000000  0.18493200  0.00863000  1
  Mn  Mn8  1  0.50000000  0.00011600  0.50009600  1
  Mn  Mn9  1  0.50000000  0.99998400  0.10393400  1
  Mn  Mn10  1  0.00000000  0.84613800  0.81010000  1
  Mn  Mn11  1  0.00000000  0.65396500  0.30893800  1
  Mn  Mn12  1  0.50000000  0.49891200  0.60357300  1
  Mn  Mn13  1  0.50000000  0.50184300  0.99869800  1
  Mn  Mn14  1  0.50000000  0.50182700  0.39637100  1
  Mn  Mn15  1  0.00000000  0.34649500  0.69077700  1
  Mn  Mn16  1  0.00000000  0.15613900  0.19006800  1
  Mn  Mn17  1  0.50000000  0.99940100  0.89689500  1
  Fe  Fe18  1  0.50000000  0.99302100  0.30638700  1
  Fe  Fe19  1  0.00000000  0.84444700  0.58775800  1
  Fe  Fe20  1  0.00000000  0.65302000  0.08718000  1
  Fe  Fe21  1  0.50000000  0.50726700  0.80731300  1
  Fe  Fe22  1  0.50000000  0.48645700  0.19182400  1
  Fe  Fe23  1  0.00000000  0.34428600  0.91192800  1
  Fe  Fe24  1  0.00000000  0.15569500  0.41249600  1
  Fe  Fe25  1  0.50000000  0.00810300  0.69364800  1
  O  O26  1  0.50000000  0.00983800  0.42209400  1
  O  O27  1  0.50000000  0.99024900  0.57805100  1
  O  O28  1  0.00000000  0.94331200  0.94247600  1
  O  O29  1  0.00000000  0.95920900  0.15797100  1
  O  O30  1  0.00000000  0.87477800  0.66830400  1
  O  O31  1  0.50000000  0.89367700  0.76185100  1
  O  O32  1  0.00000000  0.85725700  0.50226700  1
  O  O33  1  0.00000000  0.85617100  0.28323800  1
  O  O34  1  0.50000000  0.80752300  0.85911300  1
  O  O35  1  0.50000000  0.80324600  0.08093300  1
  O  O36  1  0.50000000  0.69440200  0.57960500  1
  O  O37  1  0.50000000  0.69335800  0.35821700  1
  O  O38  1  0.00000000  0.64489800  0.78529500  1
  O  O39  1  0.00000000  0.64506200  0.00147400  1
  O  O40  1  0.50000000  0.60784000  0.26096100  1
  O  O41  1  0.00000000  0.61429200  0.16671000  1
  O  O42  1  0.00000000  0.54172800  0.65746400  1
  O  O43  1  0.00000000  0.55719400  0.44202200  1
  O  O44  1  0.50000000  0.50874000  0.07623600  1
  O  O45  1  0.50000000  0.49111200  0.92062700  1
  O  O46  1  0.00000000  0.44276900  0.55817500  1
  O  O47  1  0.00000000  0.45848000  0.34246000  1
  O  O48  1  0.00000000  0.37232200  0.83166800  1
  O  O49  1  0.50000000  0.39485200  0.73874000  1
  O  O50  1  0.00000000  0.35891400  0.99695500  1
  O  O51  1  0.00000000  0.35781600  0.21499000  1
  O  O52  1  0.50000000  0.30672200  0.64189400  1
  O  O53  1  0.50000000  0.30579200  0.42045800  1
  O  O54  1  0.50000000  0.19461400  0.92110200  1
  O  O55  1  0.50000000  0.19376300  0.14111200  1
  O  O56  1  0.00000000  0.14536300  0.71626400  1
  O  O57  1  0.00000000  0.14320300  0.49788600  1
  O  O58  1  0.50000000  0.11066600  0.23865700  1
  O  O59  1  0.00000000  0.12591700  0.33191300  1
  O  O60  1  0.00000000  0.04182900  0.84311600  1
  O  O61  1  0.00000000  0.05502000  0.05815000  1
