# generated using pymatgen
data_Li2TiV3O8
_symmetry_space_group_name_H-M   'P 1'
_cell_length_a   6.00929851
_cell_length_b   10.35353750
_cell_length_c   6.01747383
_cell_angle_alpha   106.98692388
_cell_angle_beta   120.38532393
_cell_angle_gamma   89.71872029
_symmetry_Int_Tables_number   1
_chemical_formula_structural   Li2TiV3O8
_chemical_formula_sum   'Li4 Ti2 V6 O16'
_cell_volume   304.20983541
_cell_formula_units_Z   2
loop_
 _symmetry_equiv_pos_site_id
 _symmetry_equiv_pos_as_xyz
  1  'x, y, z'
loop_
 _atom_site_type_symbol
 _atom_site_label
 _atom_site_symmetry_multiplicity
 _atom_site_fract_x
 _atom_site_fract_y
 _atom_site_fract_z
 _atom_site_occupancy
  Li  Li0  1  0.06464100  0.18902100  0.12509600  1
  Li  Li1  1  0.56607500  0.69003100  0.12597800  1
  Li  Li2  1  0.43393100  0.30996700  0.87401600  1
  Li  Li3  1  0.93536600  0.81097800  0.87490000  1
  Ti  Ti4  1  0.24850000  0.75952200  0.50080900  1
  Ti  Ti5  1  0.75153300  0.24049100  0.49916500  1
  V  V6  1  0.99993900  0.00001300  0.50002400  1
  V  V7  1  0.00001700  0.50000700  0.99998600  1
  V  V8  1  0.49990500  0.99997200  0.99999600  1
  V  V9  1  0.00002100  0.49999400  0.50001800  1
  V  V10  1  0.49998500  0.00003400  0.50006200  1
  V  V11  1  0.50001900  0.49999800  0.50000000  1
  O  O12  1  0.13387600  0.39421100  0.24952000  1
  O  O13  1  0.63104100  0.89374300  0.26244400  1
  O  O14  1  0.36897000  0.10623500  0.73752500  1
  O  O15  1  0.86613200  0.60578700  0.75047100  1
  O  O16  1  0.36689600  0.61365300  0.70472300  1
  O  O17  1  0.86074200  0.12711000  0.72069400  1
  O  O18  1  0.91107600  0.61854100  0.26272400  1
  O  O19  1  0.40884800  0.12700800  0.26793400  1
  O  O20  1  0.35009800  0.61413300  0.25427800  1
  O  O21  1  0.86022900  0.12920700  0.27002500  1
  O  O22  1  0.13976600  0.87079600  0.72998200  1
  O  O23  1  0.64990900  0.38586300  0.74571500  1
  O  O24  1  0.59115500  0.87299100  0.73204900  1
  O  O25  1  0.08892900  0.38146000  0.73726900  1
  O  O26  1  0.13928600  0.87288900  0.27932000  1
  O  O27  1  0.63311500  0.38634800  0.29527800  1
