# generated using pymatgen
data_Li7Mn5O12
_symmetry_space_group_name_H-M   'P 1'
_cell_length_a   7.74865049
_cell_length_b   8.34799583
_cell_length_c   7.75742872
_cell_angle_alpha   105.24544785
_cell_angle_beta   67.75354715
_cell_angle_gamma   105.48884084
_symmetry_Int_Tables_number   1
_chemical_formula_structural   Li7Mn5O12
_chemical_formula_sum   'Li14 Mn10 O24'
_cell_volume   440.14533582
_cell_formula_units_Z   2
loop_
 _symmetry_equiv_pos_site_id
 _symmetry_equiv_pos_as_xyz
  1  'x, y, z'
loop_
 _atom_site_type_symbol
 _atom_site_label
 _atom_site_symmetry_multiplicity
 _atom_site_fract_x
 _atom_site_fract_y
 _atom_site_fract_z
 _atom_site_occupancy
  Li  Li0  1  0.16662400  0.33327900  0.16669200  1
  Li  Li1  1  0.66664900  0.83327600  0.66669500  1
  Li  Li2  1  0.91554300  0.58239500  0.41591400  1
  Li  Li3  1  0.41783000  0.08434700  0.91744500  1
  Li  Li4  1  0.41374300  0.58151300  0.91633500  1
  Li  Li5  1  0.91954000  0.08509600  0.41703500  1
  Li  Li6  1  0.31424400  0.16547300  0.35122100  1
  Li  Li7  1  0.80715100  0.66481100  0.84536300  1
  Li  Li8  1  0.01912300  0.50116800  0.98212500  1
  Li  Li9  1  0.52617700  0.00182700  0.48797900  1
  Li  Li10  1  0.25589900  0.25130200  0.75328700  1
  Li  Li11  1  0.74893400  0.75881400  0.25992500  1
  Li  Li12  1  0.58436600  0.90787300  0.07344600  1
  Li  Li13  1  0.07742800  0.41532500  0.58005400  1
  Mn  Mn14  1  0.66665900  0.33333000  0.66657700  1
  Mn  Mn15  1  0.16672600  0.83341200  0.16654600  1
  Mn  Mn16  1  0.49102400  0.49839200  0.50854900  1
  Mn  Mn17  1  0.99239600  0.99627600  0.00772800  1
  Mn  Mn18  1  0.34109200  0.67046400  0.32572400  1
  Mn  Mn19  1  0.84220600  0.16816500  0.82482200  1
  Mn  Mn20  1  0.25273600  0.74910600  0.74960400  1
  Mn  Mn21  1  0.74726100  0.24826300  0.25539400  1
  Mn  Mn22  1  0.08058600  0.91768200  0.58377300  1
  Mn  Mn23  1  0.58605600  0.41827600  0.07782500  1
  O  O24  1  0.21669100  0.98200200  0.77144600  1
  O  O25  1  0.72288600  0.48235300  0.26204900  1
  O  O26  1  0.11668100  0.68472800  0.56200000  1
  O  O27  1  0.61033100  0.18422900  0.07128200  1
  O  O28  1  0.16024400  0.06512700  0.15886300  1
  O  O29  1  0.65680900  0.56431800  0.65836800  1
  O  O30  1  0.17314700  0.60167800  0.17449400  1
  O  O31  1  0.67650100  0.10234300  0.67495600  1
  O  O32  1  0.56212400  0.65334700  0.10525600  1
  O  O33  1  0.07340100  0.15034700  0.59677700  1
  O  O34  1  0.77122800  0.01328900  0.22806600  1
  O  O35  1  0.25991800  0.51636300  0.73656200  1
  O  O36  1  0.38479800  0.83022100  0.93191800  1
  O  O37  1  0.88691600  0.33110600  0.43158400  1
  O  O38  1  0.94862700  0.83651700  0.40135000  1
  O  O39  1  0.44639900  0.33549800  0.90164700  1
  O  O40  1  0.33737400  0.90054800  0.31253500  1
  O  O41  1  0.83237500  0.42350700  0.81783300  1
  O  O42  1  0.99594100  0.76615900  0.02079300  1
  O  O43  1  0.50088200  0.24307000  0.51542900  1
  O  O44  1  0.49779300  0.75695700  0.48729900  1
  O  O45  1  0.00331100  0.22910800  0.98902600  1
  O  O46  1  0.33001500  0.43757800  0.34432400  1
  O  O47  1  0.83561000  0.90973600  0.84608200  1
