# generated using pymatgen
data_Li3Gd
_symmetry_space_group_name_H-M   'P 1'
_cell_length_a   6.41909086
_cell_length_b   6.41909086
_cell_length_c   5.04003200
_cell_angle_alpha   90.00000000
_cell_angle_beta   90.00000000
_cell_angle_gamma   120.00000884
_symmetry_Int_Tables_number   1
_chemical_formula_structural   Li3Gd
_chemical_formula_sum   'Li6 Gd2'
_cell_volume   179.85020311
_cell_formula_units_Z   2
loop_
 _symmetry_equiv_pos_site_id
 _symmetry_equiv_pos_as_xyz
  1  'x, y, z'
loop_
 _atom_site_type_symbol
 _atom_site_label
 _atom_site_symmetry_multiplicity
 _atom_site_fract_x
 _atom_site_fract_y
 _atom_site_fract_z
 _atom_site_occupancy
  Li  Li0  1  0.14962600  0.29925300  0.25000000  1
  Li  Li1  1  0.70074700  0.85037400  0.25000000  1
  Li  Li2  1  0.14962600  0.85037400  0.25000000  1
  Li  Li3  1  0.85037400  0.70074700  0.75000000  1
  Li  Li4  1  0.29925300  0.14962600  0.75000000  1
  Li  Li5  1  0.85037400  0.14962600  0.75000000  1
  Gd  Gd6  1  0.33333300  0.66666700  0.75000000  1
  Gd  Gd7  1  0.66666700  0.33333300  0.25000000  1
