# generated using pymatgen
data_Li4TiCo5O12
_symmetry_space_group_name_H-M   'P 1'
_cell_length_a   5.00002833
_cell_length_b   20.16278109
_cell_length_c   5.01465913
_cell_angle_alpha   89.73543117
_cell_angle_beta   118.39044246
_cell_angle_gamma   89.49137842
_symmetry_Int_Tables_number   1
_chemical_formula_structural   Li4TiCo5O12
_chemical_formula_sum   'Li8 Ti2 Co10 O24'
_cell_volume   444.70667663
_cell_formula_units_Z   2
loop_
 _symmetry_equiv_pos_site_id
 _symmetry_equiv_pos_as_xyz
  1  'x, y, z'
loop_
 _atom_site_type_symbol
 _atom_site_label
 _atom_site_symmetry_multiplicity
 _atom_site_fract_x
 _atom_site_fract_y
 _atom_site_fract_z
 _atom_site_occupancy
  Li  Li0  1  0.63863800  0.37249500  0.13874300  1
  Li  Li1  1  0.63120700  0.87441100  0.13536300  1
  Li  Li2  1  0.86242000  0.12748100  0.35479500  1
  Li  Li3  1  0.86332400  0.62578500  0.37448500  1
  Li  Li4  1  0.13975000  0.37240700  0.63740100  1
  Li  Li5  1  0.14194300  0.87362100  0.62556900  1
  Li  Li6  1  0.36245100  0.12825000  0.85392300  1
  Li  Li7  1  0.37415500  0.62589700  0.86296100  1
  Ti  Ti8  1  0.98628000  0.00023000  0.99770200  1
  Ti  Ti9  1  0.00165600  0.49974600  0.00163500  1
  Co  Co10  1  0.50004000  0.25006800  0.49987000  1
  Co  Co11  1  0.50017800  0.74993900  0.50010500  1
  Co  Co12  1  0.83656700  0.74984000  0.16359800  1
  Co  Co13  1  0.16435400  0.25012900  0.83557900  1
  Co  Co14  1  0.16318000  0.74997900  0.83667900  1
  Co  Co15  1  0.83525800  0.25006800  0.16431500  1
  Co  Co16  1  0.33352000  0.00035900  0.66715900  1
  Co  Co17  1  0.33494400  0.49911200  0.66573400  1
  Co  Co18  1  0.66278800  0.00140400  0.33690100  1
  Co  Co19  1  0.66578300  0.49916700  0.33542600  1
  O  O20  1  0.17204700  0.29657100  0.17257900  1
  O  O21  1  0.18373300  0.79827800  0.18489800  1
  O  O22  1  0.82777800  0.20370500  0.82741300  1
  O  O23  1  0.81592400  0.70147500  0.81502700  1
  O  O24  1  0.33139400  0.04825300  0.33800300  1
  O  O25  1  0.33845600  0.54762500  0.33936400  1
  O  O26  1  0.66318500  0.45129500  0.66279100  1
  O  O27  1  0.66257300  0.95056500  0.67916700  1
  O  O28  1  0.69050800  0.05878100  0.02215700  1
  O  O29  1  0.69144800  0.55491700  0.03673500  1
  O  O30  1  0.96731800  0.44380300  0.31152300  1
  O  O31  1  0.96643300  0.94400100  0.30975000  1
  O  O32  1  0.02363800  0.05467800  0.67809400  1
  O  O33  1  0.03589900  0.55499600  0.69249300  1
  O  O34  1  0.31205900  0.44381000  0.96670400  1
  O  O35  1  0.31876800  0.94693300  0.97483000  1
  O  O36  1  0.50635600  0.20111800  0.17006500  1
  O  O37  1  0.51829800  0.69721000  0.19118400  1
  O  O38  1  0.17083900  0.20111600  0.50649500  1
  O  O39  1  0.19154600  0.69718200  0.51785100  1
  O  O40  1  0.82889700  0.29899200  0.49329000  1
  O  O41  1  0.80896800  0.80273000  0.48268000  1
  O  O42  1  0.49332200  0.29898700  0.82955600  1
  O  O43  1  0.48217700  0.80259000  0.80941000  1
