# generated using pymatgen
data_Li7Mn4CoO12
_symmetry_space_group_name_H-M   'P 1'
_cell_length_a   5.06259968
_cell_length_b   7.77354817
_cell_length_c   11.54473224
_cell_angle_alpha   84.62060762
_cell_angle_beta   99.29006162
_cell_angle_gamma   77.11113938
_symmetry_Int_Tables_number   1
_chemical_formula_structural   Li7Mn4CoO12
_chemical_formula_sum   'Li14 Mn8 Co2 O24'
_cell_volume   433.08515364
_cell_formula_units_Z   2
loop_
 _symmetry_equiv_pos_site_id
 _symmetry_equiv_pos_as_xyz
  1  'x, y, z'
loop_
 _atom_site_type_symbol
 _atom_site_label
 _atom_site_symmetry_multiplicity
 _atom_site_fract_x
 _atom_site_fract_y
 _atom_site_fract_z
 _atom_site_occupancy
  Li  Li0  1  0.08361400  0.33407800  0.08673800  1
  Li  Li1  1  0.58306900  0.33263800  0.57990800  1
  Li  Li2  1  0.83326400  0.83336900  0.33337800  1
  Li  Li3  1  0.33332100  0.83328100  0.83330600  1
  Li  Li4  1  0.58564800  0.83234300  0.08236100  1
  Li  Li5  1  0.08100900  0.83432800  0.58429200  1
  Li  Li6  1  0.67479900  0.15713900  0.16729900  1
  Li  Li7  1  0.16713100  0.15398300  0.66403900  1
  Li  Li8  1  0.49952800  0.51269500  0.00261700  1
  Li  Li9  1  0.99192000  0.50956500  0.49934400  1
  Li  Li10  1  0.26361000  0.99464500  0.25016200  1
  Li  Li11  1  0.75349300  0.99211000  0.74860700  1
  Li  Li12  1  0.40309100  0.67214200  0.41648100  1
  Li  Li13  1  0.91317200  0.67455100  0.91808000  1
  Mn  Mn14  1  0.00829300  0.99611700  0.99839600  1
  Mn  Mn15  1  0.49549600  0.99691100  0.50132400  1
  Mn  Mn16  1  0.17115500  0.66985000  0.16537100  1
  Mn  Mn17  1  0.65846200  0.67043200  0.66828300  1
  Mn  Mn18  1  0.91504200  0.16285100  0.41466400  1
  Mn  Mn19  1  0.42076200  0.16498400  0.91742400  1
  Mn  Mn20  1  0.75145100  0.50393200  0.25200000  1
  Mn  Mn21  1  0.24596000  0.50158200  0.74924000  1
  Co  Co22  1  0.83335000  0.33327500  0.83334500  1
  Co  Co23  1  0.33327000  0.33339900  0.33333600  1
  O  O24  1  0.74468700  0.23145000  0.99480400  1
  O  O25  1  0.24060200  0.23047400  0.49635900  1
  O  O26  1  0.42602800  0.43626800  0.17031000  1
  O  O27  1  0.92206000  0.43510000  0.67186700  1
  O  O28  1  0.68549000  0.40668200  0.40692600  1
  O  O29  1  0.19085800  0.40898800  0.90649900  1
  O  O30  1  0.98104100  0.26011200  0.25971900  1
  O  O31  1  0.47589400  0.25753200  0.76017600  1
  O  O32  1  0.31896800  0.09084400  0.06492500  1
  O  O33  1  0.81958600  0.08982700  0.56527200  1
  O  O34  1  0.84709400  0.57689700  0.10139500  1
  O  O35  1  0.34772900  0.57574000  0.60173200  1
  O  O36  1  0.05751500  0.58033500  0.33347700  1
  O  O37  1  0.56785000  0.58088800  0.82138100  1
  O  O38  1  0.60900600  0.08646800  0.33318200  1
  O  O39  1  0.09889500  0.08563300  0.84528600  1
  O  O40  1  0.50333500  0.73119100  0.24987800  1
  O  O41  1  0.99053200  0.72630000  0.74818200  1
  O  O42  1  0.16327900  0.93559700  0.41677600  1
  O  O43  1  0.67618500  0.94021900  0.91850200  1
  O  O44  1  0.94817600  0.91463100  0.15116100  1
  O  O45  1  0.43724200  0.89656100  0.67359400  1
  O  O46  1  0.22947500  0.76996900  0.99309200  1
  O  O47  1  0.71855400  0.75209700  0.51550600  1
