# generated using pymatgen
data_Li9Mn2Co5O16
_symmetry_space_group_name_H-M   'P 1'
_cell_length_a   5.80387600
_cell_length_b   5.87268600
_cell_length_c   8.49082895
_cell_angle_alpha   89.40557498
_cell_angle_beta   90.00000000
_cell_angle_gamma   90.00000000
_symmetry_Int_Tables_number   1
_chemical_formula_structural   Li9Mn2Co5O16
_chemical_formula_sum   'Li9 Mn2 Co5 O16'
_cell_volume   289.38873727
_cell_formula_units_Z   1
loop_
 _symmetry_equiv_pos_site_id
 _symmetry_equiv_pos_as_xyz
  1  'x, y, z'
loop_
 _atom_site_type_symbol
 _atom_site_label
 _atom_site_symmetry_multiplicity
 _atom_site_fract_x
 _atom_site_fract_y
 _atom_site_fract_z
 _atom_site_occupancy
  Li  Li0  1  0.25506500  0.25125700  0.26073800  1
  Li  Li1  1  0.25506500  0.74874300  0.73926200  1
  Li  Li2  1  0.50000000  0.00000000  0.50000000  1
  Li  Li3  1  0.50000000  0.50000000  0.00000000  1
  Li  Li4  1  0.74493500  0.74874300  0.73926200  1
  Li  Li5  1  0.74493500  0.25125700  0.26073800  1
  Li  Li6  1  0.00000000  0.50000000  0.00000000  1
  Li  Li7  1  0.00000000  0.00000000  0.50000000  1
  Li  Li8  1  0.50000000  0.50000000  0.50000000  1
  Mn  Mn9  1  0.00000000  0.00000000  0.00000000  1
  Mn  Mn10  1  0.50000000  0.00000000  0.00000000  1
  Co  Co11  1  0.00000000  0.50000000  0.50000000  1
  Co  Co12  1  0.25696400  0.74391700  0.26221400  1
  Co  Co13  1  0.25696400  0.25608300  0.73778600  1
  Co  Co14  1  0.74303600  0.25608300  0.73778600  1
  Co  Co15  1  0.74303600  0.74391700  0.26221400  1
  O  O16  1  0.24499200  0.22609900  0.99907100  1
  O  O17  1  0.22803600  0.73095300  0.49111900  1
  O  O18  1  0.50000000  0.99340500  0.26073000  1
  O  O19  1  0.50000000  0.47620700  0.75954000  1
  O  O20  1  0.77196400  0.73095300  0.49111900  1
  O  O21  1  0.75500800  0.22609900  0.99907100  1
  O  O22  1  0.00000000  0.49774200  0.72850900  1
  O  O23  1  0.00000000  0.97524400  0.23086400  1
  O  O24  1  0.22803600  0.26904700  0.50888100  1
  O  O25  1  0.24499200  0.77390100  0.00092900  1
  O  O26  1  0.50000000  0.00659500  0.73927000  1
  O  O27  1  0.50000000  0.52379300  0.24046000  1
  O  O28  1  0.75500800  0.77390100  0.00092900  1
  O  O29  1  0.77196400  0.26904700  0.50888100  1
  O  O30  1  0.00000000  0.50225800  0.27149100  1
  O  O31  1  0.00000000  0.02475600  0.76913600  1
