# generated using pymatgen
data_LiFeF3
_symmetry_space_group_name_H-M   'P 1'
_cell_length_a   5.16643684
_cell_length_b   5.07588954
_cell_length_c   4.83185927
_cell_angle_alpha   89.90788006
_cell_angle_beta   89.96065266
_cell_angle_gamma   120.75206332
_symmetry_Int_Tables_number   1
_chemical_formula_structural   LiFeF3
_chemical_formula_sum   'Li2 Fe2 F6'
_cell_volume   108.89441782
_cell_formula_units_Z   2
loop_
 _symmetry_equiv_pos_site_id
 _symmetry_equiv_pos_as_xyz
  1  'x, y, z'
loop_
 _atom_site_type_symbol
 _atom_site_label
 _atom_site_symmetry_multiplicity
 _atom_site_fract_x
 _atom_site_fract_y
 _atom_site_fract_z
 _atom_site_occupancy
  Li  Li0  1  0.99941389  0.00183349  0.43063545  1
  Li  Li1  1  0.99873274  0.99829688  0.93066855  1
  Fe  Fe2  1  0.33410974  0.66809379  0.93241793  1
  Fe  Fe3  1  0.66609922  0.33172271  0.43260492  1
  F  F4  1  0.31649701  0.00098906  0.68153523  1
  F  F5  1  0.00606179  0.32090925  0.68120611  1
  F  F6  1  0.31585480  0.31795192  0.18118502  1
  F  F7  1  0.68470079  0.68147118  0.68244975  1
  F  F8  1  0.99501685  0.67974665  0.18254334  1
  F  F9  1  0.68341414  0.99898508  0.18135268  1
