# generated using pymatgen
data_Li9Mn2Co5O16
_symmetry_space_group_name_H-M   'P 1'
_cell_length_a   5.18388400
_cell_length_b   6.45345878
_cell_length_c   8.60616194
_cell_angle_alpha   97.04663070
_cell_angle_beta   94.23636350
_cell_angle_gamma   95.58651873
_symmetry_Int_Tables_number   1
_chemical_formula_structural   Li9Mn2Co5O16
_chemical_formula_sum   'Li9 Mn2 Co5 O16'
_cell_volume   283.30326252
_cell_formula_units_Z   1
loop_
 _symmetry_equiv_pos_site_id
 _symmetry_equiv_pos_as_xyz
  1  'x, y, z'
loop_
 _atom_site_type_symbol
 _atom_site_label
 _atom_site_symmetry_multiplicity
 _atom_site_fract_x
 _atom_site_fract_y
 _atom_site_fract_z
 _atom_site_occupancy
  Li  Li0  1  0.76146800  0.56297800  0.94509200  1
  Li  Li1  1  0.24985700  0.93278800  0.55861400  1
  Li  Li2  1  0.75798600  0.32175400  0.19212500  1
  Li  Li3  1  0.24347600  0.45326600  0.06687400  1
  Li  Li4  1  0.74931100  0.81375000  0.68282100  1
  Li  Li5  1  0.24157600  0.18392800  0.31221700  1
  Li  Li6  1  0.23775700  0.68502600  0.81193200  1
  Li  Li7  1  0.75828100  0.05034200  0.42725100  1
  Li  Li8  1  0.00156000  0.75165100  0.24920400  1
  Mn  Mn9  1  0.99996900  0.99769600  0.00309400  1
  Mn  Mn10  1  0.49977900  0.37549500  0.62389600  1
  Co  Co11  1  0.49933100  0.12655600  0.87486300  1
  Co  Co12  1  0.00040900  0.49970300  0.49827000  1
  Co  Co13  1  0.50670500  0.87093500  0.13034800  1
  Co  Co14  1  0.00028500  0.25025500  0.74945500  1
  Co  Co15  1  0.49805900  0.62403000  0.37577600  1
  O  O16  1  0.11664300  0.73706000  0.02722800  1
  O  O17  1  0.61298400  0.10481700  0.66739400  1
  O  O18  1  0.15572000  0.48889500  0.30396700  1
  O  O19  1  0.60149900  0.60469500  0.16622200  1
  O  O20  1  0.11103800  0.98361300  0.78703700  1
  O  O21  1  0.60886700  0.35623700  0.40909800  1
  O  O22  1  0.64274700  0.86961500  0.92305300  1
  O  O23  1  0.10622100  0.22749100  0.53828700  1
  O  O24  1  0.38769900  0.39308900  0.83896100  1
  O  O25  1  0.84689400  0.74758300  0.45858900  1
  O  O26  1  0.35603900  0.12839800  0.07777000  1
  O  O27  1  0.88806000  0.27106500  0.96069200  1
  O  O28  1  0.38829900  0.64780100  0.58762200  1
  O  O29  1  0.87992100  0.03600000  0.20532300  1
  O  O30  1  0.89221600  0.51638700  0.70896000  1
  O  O31  1  0.39934500  0.88710100  0.33796400  1
