# generated using pymatgen
data_Li2V2P2O11
_symmetry_space_group_name_H-M   'P 1'
_cell_length_a   6.21032700
_cell_length_b   7.86032300
_cell_length_c   10.16880200
_cell_angle_alpha   90.00000000
_cell_angle_beta   90.00000000
_cell_angle_gamma   90.00000000
_symmetry_Int_Tables_number   1
_chemical_formula_structural   Li2V2P2O11
_chemical_formula_sum   'Li4 V4 P4 O22'
_cell_volume   496.39186092
_cell_formula_units_Z   2
loop_
 _symmetry_equiv_pos_site_id
 _symmetry_equiv_pos_as_xyz
  1  'x, y, z'
loop_
 _atom_site_type_symbol
 _atom_site_label
 _atom_site_symmetry_multiplicity
 _atom_site_fract_x
 _atom_site_fract_y
 _atom_site_fract_z
 _atom_site_occupancy
  Li  Li0  1  0.54237100  0.30787900  0.63583000  1
  Li  Li1  1  0.54237100  0.69212100  0.36417000  1
  Li  Li2  1  0.45762900  0.80787900  0.86417000  1
  Li  Li3  1  0.45762900  0.19212100  0.13583000  1
  V  V4  1  0.04439500  0.70663900  0.54043500  1
  V  V5  1  0.04439500  0.29336100  0.45956500  1
  V  V6  1  0.95560500  0.20663900  0.95956500  1
  V  V7  1  0.95560500  0.79336100  0.04043500  1
  P  P8  1  0.77962800  0.55932100  0.80496300  1
  P  P9  1  0.77962800  0.44067900  0.19503700  1
  P  P10  1  0.22037200  0.05932100  0.69503700  1
  P  P11  1  0.22037200  0.94067900  0.30496300  1
  O  O12  1  0.56843300  0.50504400  0.74502000  1
  O  O13  1  0.56843300  0.49495600  0.25498000  1
  O  O14  1  0.43156700  0.00504400  0.75498000  1
  O  O15  1  0.43156700  0.99495600  0.24502000  1
  O  O16  1  0.73979600  0.70709200  0.90615000  1
  O  O17  1  0.73979600  0.29290800  0.09385000  1
  O  O18  1  0.26020400  0.20709200  0.59385000  1
  O  O19  1  0.26020400  0.79290800  0.40615000  1
  O  O20  1  0.90353800  0.41458400  0.87654800  1
  O  O21  1  0.90353800  0.58541600  0.12345200  1
  O  O22  1  0.09646200  0.91458400  0.62345200  1
  O  O23  1  0.09646200  0.08541600  0.37654800  1
  O  O24  1  0.94367800  0.62577000  0.70055700  1
  O  O25  1  0.94367800  0.37423000  0.29944300  1
  O  O26  1  0.05632200  0.12577000  0.79944300  1
  O  O27  1  0.05632200  0.87423000  0.20055700  1
  O  O28  1  0.82343600  0.72747200  0.45441400  1
  O  O29  1  0.82343600  0.27252800  0.54558600  1
  O  O30  1  0.17656400  0.22747200  0.04558600  1
  O  O31  1  0.17656400  0.77252800  0.95441400  1
  O  O32  1  0.16041300  0.50000000  0.50000000  1
  O  O33  1  0.83958700  0.00000000  0.00000000  1
