# generated using pymatgen
data_Li4V3P8O29
_symmetry_space_group_name_H-M   'P 1'
_cell_length_a   9.78218800
_cell_length_b   9.78653147
_cell_length_c   14.08554906
_cell_angle_alpha   89.76519171
_cell_angle_beta   89.81077842
_cell_angle_gamma   60.02233835
_symmetry_Int_Tables_number   1
_chemical_formula_structural   Li4V3P8O29
_chemical_formula_sum   'Li8 V6 P16 O58'
_cell_volume   1168.05374390
_cell_formula_units_Z   2
loop_
 _symmetry_equiv_pos_site_id
 _symmetry_equiv_pos_as_xyz
  1  'x, y, z'
loop_
 _atom_site_type_symbol
 _atom_site_label
 _atom_site_symmetry_multiplicity
 _atom_site_fract_x
 _atom_site_fract_y
 _atom_site_fract_z
 _atom_site_occupancy
  Li  Li0  1  0.91009500  0.77280400  0.43724900  1
  Li  Li1  1  0.31899900  0.90958100  0.43851100  1
  Li  Li2  1  0.32184100  0.76876800  0.94204700  1
  Li  Li3  1  0.90437000  0.31878900  0.94568000  1
  Li  Li4  1  0.77236300  0.32653100  0.43708600  1
  Li  Li5  1  0.08696700  0.68241600  0.06359900  1
  Li  Li6  1  0.68081900  0.09244500  0.55708500  1
  Li  Li7  1  0.22568300  0.09694300  0.06432700  1
  V  V8  1  0.43155900  0.56408400  0.74538600  1
  V  V9  1  0.56744100  0.42904100  0.24664700  1
  V  V10  1  0.99785500  0.56938000  0.25325500  1
  V  V11  1  0.00217100  0.43366900  0.74561900  1
  V  V12  1  0.56990100  0.99515000  0.75726600  1
  V  V13  1  0.43434400  0.99986400  0.24766500  1
  P  P14  1  0.77094400  0.91595700  0.15740800  1
  P  P15  1  0.91139600  0.77283400  0.65878900  1
  P  P16  1  0.31989400  0.91255500  0.65805800  1
  P  P17  1  0.66610700  0.66170100  0.87084900  1
  P  P18  1  0.66352500  0.66548200  0.37244100  1
  P  P19  1  0.31874600  0.76733700  0.15743600  1
  P  P20  1  0.23180100  0.68358600  0.34180200  1
  P  P21  1  0.91176400  0.32090200  0.15860800  1
  P  P22  1  0.08841200  0.68126500  0.84200800  1
  P  P23  1  0.77051500  0.31742300  0.65802500  1
  P  P24  1  0.68390300  0.23004800  0.84131800  1
  P  P25  1  0.33733800  0.32863600  0.62938800  1
  P  P26  1  0.33011500  0.33750600  0.12721600  1
  P  P27  1  0.68043700  0.08781700  0.34125900  1
  P  P28  1  0.08695300  0.22921700  0.34005500  1
  P  P29  1  0.22785600  0.08885100  0.84031200  1
  O  O30  1  0.75885200  0.00434700  0.43244300  1
  O  O31  1  0.74267700  0.91959500  0.66474300  1
  O  O32  1  0.01015800  0.75201000  0.93298100  1
  O  O33  1  0.91613300  0.74502000  0.16441300  1
  O  O34  1  0.61818100  0.90533600  0.17795800  1
  O  O35  1  0.66656800  0.81340600  0.82620600  1
  O  O36  1  0.47876100  0.90606100  0.68057300  1
  O  O37  1  0.23936500  0.00069700  0.92977200  1
  O  O38  1  0.33469100  0.91637200  0.15714400  1
  O  O39  1  0.81191100  0.67424200  0.33488500  1
  O  O40  1  0.90144700  0.61952000  0.67867300  1
  O  O41  1  0.51129100  0.81216100  0.33310600  1
  O  O42  1  0.66359600  0.66649200  0.97600700  1
  O  O43  1  0.66650600  0.65628100  0.47863100  1
  O  O44  1  0.51414000  0.66740100  0.82981800  1
  O  O45  1  0.89872200  0.48080900  0.17500400  1
  O  O46  1  0.81719800  0.51343700  0.82950400  1
  O  O47  1  0.34480500  0.74314800  0.66926100  1
  O  O48  1  0.20673900  0.78663900  0.24510800  1
  O  O49  1  0.24090100  0.76912100  0.42575100  1
  O  O50  1  0.24566700  0.75339100  0.06677200  1
  O  O51  1  0.48100600  0.61767000  0.17646600  1
  O  O52  1  0.66993500  0.51197700  0.32901000  1
  O  O53  1  0.25718000  0.66007400  0.83596700  1
  O  O54  1  0.61836900  0.47907600  0.67664500  1
  O  O55  1  0.91469600  0.34172000  0.66608800  1
  O  O56  1  0.99979100  0.79034400  0.75029400  1
  O  O57  1  0.98990100  0.76437900  0.56749700  1
  O  O58  1  0.99385800  0.23576900  0.42492700  1
  O  O59  1  0.08460500  0.66344600  0.34262800  1
  O  O60  1  0.38343400  0.52285200  0.32249900  1
  O  O61  1  0.74479500  0.33893800  0.16606100  1
  O  O62  1  0.33522200  0.47942400  0.67523000  1
  O  O63  1  0.52382000  0.38306200  0.82248400  1
  O  O64  1  0.76974900  0.23575900  0.92540400  1
  O  O65  1  0.75918800  0.24506700  0.56756600  1
  O  O66  1  0.78847500  0.20498700  0.74546400  1
  O  O67  1  0.66455400  0.25489000  0.33877100  1
  O  O68  1  0.18546000  0.49017300  0.16706300  1
  O  O69  1  0.09613000  0.52108600  0.81996000  1
  O  O70  1  0.48099800  0.33467600  0.17541600  1
  O  O71  1  0.33718100  0.33913500  0.02151300  1
  O  O72  1  0.33642600  0.33487400  0.52455500  1
  O  O73  1  0.48696800  0.18097700  0.67042800  1
  O  O74  1  0.09715500  0.38086800  0.32297400  1
  O  O75  1  0.18537900  0.33296100  0.67434300  1
  O  O76  1  0.65545000  0.08744900  0.83485600  1
  O  O77  1  0.79348600  0.99519300  0.25387800  1
  O  O78  1  0.76690300  0.00090100  0.07049300  1
  O  O79  1  0.51934300  0.10317600  0.32454700  1
  O  O80  1  0.32584700  0.18782600  0.16493300  1
  O  O81  1  0.38017100  0.09909300  0.82367300  1
  O  O82  1  0.08113500  0.25650600  0.83901300  1
  O  O83  1  0.99555500  0.24213000  0.06789900  1
  O  O84  1  0.00837300  0.20490800  0.24474200  1
  O  O85  1  0.25562800  0.08305600  0.33777800  1
  O  O86  1  0.24841100  0.98974200  0.56719200  1
  O  O87  1  0.20767900  0.00315400  0.74880400  1
