# generated using pymatgen
data_Li3Ce2(BO3)3
_symmetry_space_group_name_H-M   'P 1'
_cell_length_a   14.33382300
_cell_length_b   5.88468300
_cell_length_c   9.45930416
_cell_angle_alpha   66.57626263
_cell_angle_beta   90.00000000
_cell_angle_gamma   90.00000000
_symmetry_Int_Tables_number   1
_chemical_formula_structural   Li3Ce2(BO3)3
_chemical_formula_sum   'Li12 Ce8 B12 O36'
_cell_volume   732.13804840
_cell_formula_units_Z   4
loop_
 _symmetry_equiv_pos_site_id
 _symmetry_equiv_pos_as_xyz
  1  'x, y, z'
loop_
 _atom_site_type_symbol
 _atom_site_label
 _atom_site_symmetry_multiplicity
 _atom_site_fract_x
 _atom_site_fract_y
 _atom_site_fract_z
 _atom_site_occupancy
  Li  Li0  1  0.33497300  0.90489800  0.01818600  1
  Li  Li1  1  0.66502700  0.09510200  0.98181400  1
  Li  Li2  1  0.83497300  0.09510200  0.48181400  1
  Li  Li3  1  0.16502700  0.90489800  0.51818600  1
  Li  Li4  1  0.78207800  0.90732900  0.29227400  1
  Li  Li5  1  0.21792200  0.09267100  0.70772600  1
  Li  Li6  1  0.28207800  0.09267100  0.20772600  1
  Li  Li7  1  0.71792200  0.90732900  0.79227400  1
  Li  Li8  1  0.89795200  0.56339600  0.29200400  1
  Li  Li9  1  0.10204800  0.43660400  0.70799600  1
  Li  Li10  1  0.39795200  0.43660400  0.20799600  1
  Li  Li11  1  0.60204800  0.56339600  0.79200400  1
  Ce  Ce12  1  0.66519300  0.44352700  0.19212700  1
  Ce  Ce13  1  0.33480700  0.55647300  0.80787300  1
  Ce  Ce14  1  0.16519300  0.55647300  0.30787300  1
  Ce  Ce15  1  0.83480700  0.44352700  0.69212700  1
  Ce  Ce16  1  0.50449700  0.84839600  0.33980200  1
  Ce  Ce17  1  0.49550300  0.15160400  0.66019800  1
  Ce  Ce18  1  0.00449700  0.15160400  0.16019800  1
  Ce  Ce19  1  0.99550300  0.84839600  0.83980200  1
  B  B20  1  0.98450800  0.76415000  0.48606800  1
  B  B21  1  0.01549200  0.23585000  0.51393200  1
  B  B22  1  0.48450800  0.23585000  0.01393200  1
  B  B23  1  0.51549200  0.76415000  0.98606800  1
  B  B24  1  0.83609200  0.88801500  0.02768200  1
  B  B25  1  0.16390800  0.11198500  0.97231800  1
  B  B26  1  0.33609200  0.11198500  0.47231800  1
  B  B27  1  0.66390800  0.88801500  0.52768200  1
  B  B28  1  0.82440800  0.38831400  0.02081800  1
  B  B29  1  0.17559200  0.61168600  0.97918200  1
  B  B30  1  0.32440800  0.61168600  0.47918200  1
  B  B31  1  0.67559200  0.38831400  0.52081800  1
  O  O32  1  0.89855000  0.81293100  0.41508000  1
  O  O33  1  0.10145000  0.18706900  0.58492000  1
  O  O34  1  0.39855000  0.18706900  0.08492000  1
  O  O35  1  0.60145000  0.81293100  0.91508000  1
  O  O36  1  0.59423700  0.45554500  0.43398500  1
  O  O37  1  0.40576300  0.54445500  0.56601500  1
  O  O38  1  0.09423700  0.54445500  0.06601500  1
  O  O39  1  0.90576300  0.45554500  0.93398500  1
  O  O40  1  0.75680900  0.82234300  0.11757600  1
  O  O41  1  0.24319100  0.17765700  0.88242400  1
  O  O42  1  0.25680900  0.17765700  0.38242400  1
  O  O43  1  0.74319100  0.82234300  0.61757600  1
  O  O44  1  0.56525900  0.18265000  0.10186000  1
  O  O45  1  0.43474100  0.81735000  0.89814000  1
  O  O46  1  0.06525900  0.81735000  0.39814000  1
  O  O47  1  0.93474100  0.18265000  0.60186000  1
  O  O48  1  0.92431800  0.84077500  0.09301000  1
  O  O49  1  0.07568200  0.15922500  0.90699000  1
  O  O50  1  0.42431800  0.15922500  0.40699000  1
  O  O51  1  0.57568200  0.84077500  0.59301000  1
  O  O52  1  0.83132900  0.28916700  0.18010500  1
  O  O53  1  0.16867100  0.71083300  0.81989500  1
  O  O54  1  0.33132900  0.71083300  0.31989500  1
  O  O55  1  0.66867100  0.28916700  0.68010500  1
  O  O56  1  0.50945300  0.65857200  0.14553100  1
  O  O57  1  0.49054700  0.34142800  0.85446900  1
  O  O58  1  0.00945300  0.34142800  0.35446900  1
  O  O59  1  0.99054700  0.65857200  0.64553100  1
  O  O60  1  0.76096900  0.41469200  0.44807000  1
  O  O61  1  0.23903100  0.58530800  0.55193000  1
  O  O62  1  0.26096900  0.58530800  0.05193000  1
  O  O63  1  0.73903100  0.41469200  0.94807000  1
  O  O64  1  0.66848200  0.99918400  0.36853600  1
  O  O65  1  0.33151800  0.00081600  0.63146400  1
  O  O66  1  0.16848200  0.00081600  0.13146400  1
  O  O67  1  0.83151800  0.99918400  0.86853600  1
