# generated using pymatgen
data_Li4Nb3V3(FeO8)2
_symmetry_space_group_name_H-M   'P 1'
_cell_length_a   6.08464083
_cell_length_b   6.08464083
_cell_length_c   9.89487337
_cell_angle_alpha   89.37081573
_cell_angle_beta   89.37081573
_cell_angle_gamma   60.60439789
_symmetry_Int_Tables_number   1
_chemical_formula_structural   Li4Nb3V3(FeO8)2
_chemical_formula_sum   'Li4 Nb3 V3 Fe2 O16'
_cell_volume   319.14536306
_cell_formula_units_Z   1
loop_
 _symmetry_equiv_pos_site_id
 _symmetry_equiv_pos_as_xyz
  1  'x, y, z'
loop_
 _atom_site_type_symbol
 _atom_site_label
 _atom_site_symmetry_multiplicity
 _atom_site_fract_x
 _atom_site_fract_y
 _atom_site_fract_z
 _atom_site_occupancy
  Li  Li0  1  0.33186500  0.33186500  0.09898200  1
  Li  Li1  1  0.99272300  0.99272300  0.00096500  1
  Li  Li2  1  0.98756800  0.98756800  0.50591100  1
  Li  Li3  1  0.66554000  0.66554000  0.61441800  1
  Nb  Nb4  1  0.16952800  0.16952800  0.78573900  1
  Nb  Nb5  1  0.83646000  0.34266100  0.28660000  1
  Nb  Nb6  1  0.34266100  0.83646000  0.28660000  1
  V  V7  1  0.66383500  0.16693900  0.78470800  1
  V  V8  1  0.16693900  0.66383500  0.78470800  1
  V  V9  1  0.82693600  0.82693600  0.29027700  1
  Fe  Fe10  1  0.34833900  0.34833900  0.52022900  1
  Fe  Fe11  1  0.67362100  0.67362100  0.99691400  1
  O  O12  1  0.67369700  0.17468500  0.40269800  1
  O  O13  1  0.48140200  0.48140200  0.66287800  1
  O  O14  1  0.32789300  0.32789300  0.89804500  1
  O  O15  1  0.00440500  0.00440500  0.68392600  1
  O  O16  1  0.00273500  0.00273500  0.18803500  1
  O  O17  1  0.17468500  0.67369700  0.40269800  1
  O  O18  1  0.47628400  0.04183100  0.65698200  1
  O  O19  1  0.04183100  0.47628400  0.65698200  1
  O  O20  1  0.84118100  0.84118100  0.88977300  1
  O  O21  1  0.16168000  0.16168000  0.40021600  1
  O  O22  1  0.96930300  0.50158800  0.16426500  1
  O  O23  1  0.50158800  0.96930300  0.16426500  1
  O  O24  1  0.65834700  0.65834700  0.40433300  1
  O  O25  1  0.84692800  0.31647900  0.89416600  1
  O  O26  1  0.51585000  0.51585000  0.17268700  1
  O  O27  1  0.31647900  0.84692800  0.89416600  1
