# generated using pymatgen
data_Li9Mn2Co5O16
_symmetry_space_group_name_H-M   'P 1'
_cell_length_a   5.83561100
_cell_length_b   6.56728978
_cell_length_c   8.72969560
_cell_angle_alpha   82.68672294
_cell_angle_beta   109.35775011
_cell_angle_gamma   115.87423451
_symmetry_Int_Tables_number   1
_chemical_formula_structural   Li9Mn2Co5O16
_chemical_formula_sum   'Li9 Mn2 Co5 O16'
_cell_volume   283.94323916
_cell_formula_units_Z   1
loop_
 _symmetry_equiv_pos_site_id
 _symmetry_equiv_pos_as_xyz
  1  'x, y, z'
loop_
 _atom_site_type_symbol
 _atom_site_label
 _atom_site_symmetry_multiplicity
 _atom_site_fract_x
 _atom_site_fract_y
 _atom_site_fract_z
 _atom_site_occupancy
  Li  Li0  1  0.75035700  0.74676000  0.26033000  1
  Li  Li1  1  0.24794600  0.99602500  0.50107700  1
  Li  Li2  1  0.25754800  0.74641100  0.25794200  1
  Li  Li3  1  0.75623400  0.00847400  0.50243200  1
  Li  Li4  1  0.74951200  0.25203800  0.74235800  1
  Li  Li5  1  0.24445100  0.25430800  0.74180800  1
  Li  Li6  1  0.24831300  0.50600000  0.00193800  1
  Li  Li7  1  0.74972200  0.49764100  0.99558200  1
  Li  Li8  1  0.99781500  0.49886000  0.50077800  1
  Mn  Mn9  1  0.99885800  0.99859700  0.99816300  1
  Mn  Mn10  1  0.50735400  0.25225600  0.25177400  1
  Co  Co11  1  0.48306900  0.74084100  0.73993400  1
  Co  Co12  1  0.49846000  0.99895500  0.00121000  1
  Co  Co13  1  0.00119400  0.25252600  0.25367300  1
  Co  Co14  1  0.49987200  0.49840700  0.50194500  1
  Co  Co15  1  0.99777700  0.74253200  0.73841500  1
  O  O16  1  0.13485000  0.02267200  0.23757800  1
  O  O17  1  0.61037900  0.25679000  0.48168100  1
  O  O18  1  0.60562100  0.01097000  0.23770400  1
  O  O19  1  0.12689200  0.26027400  0.47943300  1
  O  O20  1  0.13929300  0.51519700  0.76228400  1
  O  O21  1  0.62599900  0.50235600  0.74684100  1
  O  O22  1  0.64424200  0.78097300  0.99776700  1
  O  O23  1  0.13748600  0.77982600  0.99623100  1
  O  O24  1  0.38797100  0.48715200  0.24814100  1
  O  O25  1  0.86978200  0.75090800  0.51033800  1
  O  O26  1  0.85221100  0.46963100  0.24403500  1
  O  O27  1  0.38968700  0.74635100  0.51070700  1
  O  O28  1  0.37698000  0.98819600  0.76546800  1
  O  O29  1  0.88038900  0.99377900  0.76736500  1
  O  O30  1  0.86364500  0.22034200  0.01507900  1
  O  O31  1  0.36609300  0.22395200  0.00999200  1
