# generated using pymatgen
data_Li9Mn2Co5O16
_symmetry_space_group_name_H-M   'P 1'
_cell_length_a   5.08016500
_cell_length_b   5.92208849
_cell_length_c   9.70735089
_cell_angle_alpha   88.80140738
_cell_angle_beta   78.18393591
_cell_angle_gamma   89.20261507
_symmetry_Int_Tables_number   1
_chemical_formula_structural   Li9Mn2Co5O16
_chemical_formula_sum   'Li9 Mn2 Co5 O16'
_cell_volume   285.78258859
_cell_formula_units_Z   1
loop_
 _symmetry_equiv_pos_site_id
 _symmetry_equiv_pos_as_xyz
  1  'x, y, z'
loop_
 _atom_site_type_symbol
 _atom_site_label
 _atom_site_symmetry_multiplicity
 _atom_site_fract_x
 _atom_site_fract_y
 _atom_site_fract_z
 _atom_site_occupancy
  Li  Li0  1  0.50094800  0.25070900  0.00044300  1
  Li  Li1  1  0.25223400  0.49176000  0.25412300  1
  Li  Li2  1  0.50386500  0.75200400  0.00225300  1
  Li  Li3  1  0.24861000  0.00979100  0.25419700  1
  Li  Li4  1  0.75020400  0.00240000  0.74774200  1
  Li  Li5  1  0.75136500  0.49357400  0.74621500  1
  Li  Li6  1  0.99579200  0.74895400  0.49827600  1
  Li  Li7  1  0.99674900  0.24921500  0.49980200  1
  Li  Li8  1  0.74674800  0.25030700  0.25091600  1
  Mn  Mn9  1  0.00140600  0.00673000  0.00292700  1
  Mn  Mn10  1  0.74750600  0.75374200  0.25025400  1
  Co  Co11  1  0.50128100  0.48915800  0.49243700  1
  Co  Co12  1  0.25705800  0.74661100  0.74772800  1
  Co  Co13  1  0.00124100  0.49983600  0.00206100  1
  Co  Co14  1  0.49393500  0.99893500  0.49721600  1
  Co  Co15  1  0.25905500  0.24689600  0.74510900  1
  O  O16  1  0.35228100  0.99567900  0.87743100  1
  O  O17  1  0.11210700  0.24747400  0.10833600  1
  O  O18  1  0.34779900  0.49969300  0.87647800  1
  O  O19  1  0.10344200  0.77487700  0.12807300  1
  O  O20  1  0.60158700  0.75989700  0.62028000  1
  O  O21  1  0.61190100  0.25658100  0.63028800  1
  O  O22  1  0.85190400  0.51717500  0.37325600  1
  O  O23  1  0.83864200  0.98126800  0.37341200  1
  O  O24  1  0.66046900  0.51918600  0.12636900  1
  O  O25  1  0.39399100  0.74022200  0.36480300  1
  O  O26  1  0.65239000  0.98911500  0.12446900  1
  O  O27  1  0.37801200  0.23887800  0.38830000  1
  O  O28  1  0.89373700  0.23146200  0.87661000  1
  O  O29  1  0.90390700  0.75581000  0.88738500  1
  O  O30  1  0.14769000  0.99898900  0.62565900  1
  O  O31  1  0.14214300  0.50307200  0.62715400  1
