# generated using pymatgen
data_LiAlCrO4
_symmetry_space_group_name_H-M   'P 1'
_cell_length_a   2.89172831
_cell_length_b   10.18821192
_cell_length_c   9.31868368
_cell_angle_alpha   90.00766429
_cell_angle_beta   90.00873510
_cell_angle_gamma   90.00500893
_symmetry_Int_Tables_number   1
_chemical_formula_structural   LiAlCrO4
_chemical_formula_sum   'Li4 Al4 Cr4 O16'
_cell_volume   274.54277321
_cell_formula_units_Z   4
loop_
 _symmetry_equiv_pos_site_id
 _symmetry_equiv_pos_as_xyz
  1  'x, y, z'
loop_
 _atom_site_type_symbol
 _atom_site_label
 _atom_site_symmetry_multiplicity
 _atom_site_fract_x
 _atom_site_fract_y
 _atom_site_fract_z
 _atom_site_occupancy
  Li  Li0  1  0.25361545  0.62138791  0.09104413  1
  Li  Li1  1  0.74735714  0.12137047  0.40882253  1
  Li  Li2  1  0.24710181  0.87860637  0.59107073  1
  Li  Li3  1  0.75401876  0.37861481  0.90881472  1
  Al  Al4  1  0.25620639  0.12455380  0.00640143  1
  Al  Al5  1  0.74393666  0.62458830  0.49358002  1
  Al  Al6  1  0.24386611  0.37541539  0.50644544  1
  Al  Al7  1  0.75611740  0.87541580  0.99355171  1
  Cr  Cr8  1  0.76708738  0.15529085  0.72829820  1
  Cr  Cr9  1  0.23213295  0.65532146  0.77183534  1
  Cr  Cr10  1  0.73224169  0.34469249  0.22824402  1
  Cr  Cr11  1  0.26752588  0.84466631  0.27179769  1
  O  O12  1  0.25444863  0.95971595  0.10236691  1
  O  O13  1  0.74557312  0.45972092  0.39778097  1
  O  O14  1  0.24546934  0.54029017  0.60227147  1
  O  O15  1  0.75445632  0.04023397  0.89770550  1
  O  O16  1  0.26829645  0.43201130  0.13455339  1
  O  O17  1  0.73126702  0.93202141  0.36551199  1
  O  O18  1  0.23112303  0.06789418  0.63439778  1
  O  O19  1  0.76826258  0.56808319  0.86543467  1
  O  O20  1  0.75843701  0.20291371  0.10072309  1
  O  O21  1  0.24175240  0.70301565  0.39932083  1
  O  O22  1  0.74161300  0.29706835  0.60072202  1
  O  O23  1  0.25839277  0.79711832  0.89931392  1
  O  O24  1  0.76230647  0.75521296  0.15187508  1
  O  O25  1  0.23787317  0.25518416  0.34820315  1
  O  O26  1  0.73768224  0.74485109  0.65180293  1
  O  O27  1  0.26183883  0.24474171  0.84811038  1
