# generated using pymatgen
data_BaLi(B3O5)3
_symmetry_space_group_name_H-M   'P 1'
_cell_length_a   8.56155000
_cell_length_b   8.56155000
_cell_length_c   8.56154959
_cell_angle_alpha   80.66152684
_cell_angle_beta   80.66152684
_cell_angle_gamma   80.66152429
_symmetry_Int_Tables_number   1
_chemical_formula_structural   BaLi(B3O5)3
_chemical_formula_sum   'Ba2 Li2 B18 O30'
_cell_volume   605.05444282
_cell_formula_units_Z   2
loop_
 _symmetry_equiv_pos_site_id
 _symmetry_equiv_pos_as_xyz
  1  'x, y, z'
loop_
 _atom_site_type_symbol
 _atom_site_label
 _atom_site_symmetry_multiplicity
 _atom_site_fract_x
 _atom_site_fract_y
 _atom_site_fract_z
 _atom_site_occupancy
  Ba  Ba0  1  0.98561200  0.98561200  0.98561200  1
  Ba  Ba1  1  0.48561200  0.48561200  0.48561200  1
  Li  Li2  1  0.20574900  0.20574900  0.20574900  1
  Li  Li3  1  0.70574900  0.70574900  0.70574900  1
  B  B4  1  0.08169100  0.61494100  0.73931400  1
  B  B5  1  0.61494100  0.73931400  0.08169100  1
  B  B6  1  0.73931400  0.08169100  0.61494100  1
  B  B7  1  0.11494100  0.58169100  0.23931400  1
  B  B8  1  0.23931400  0.11494100  0.58169100  1
  B  B9  1  0.58169100  0.23931400  0.11494100  1
  B  B10  1  0.17412600  0.32312300  0.76300300  1
  B  B11  1  0.32312300  0.76300300  0.17412600  1
  B  B12  1  0.76300300  0.17412600  0.32312300  1
  B  B13  1  0.82312300  0.67412600  0.26300300  1
  B  B14  1  0.26300300  0.82312300  0.67412600  1
  B  B15  1  0.67412600  0.26300300  0.82312300  1
  B  B16  1  0.89084100  0.42845100  0.75246800  1
  B  B17  1  0.42845100  0.75246800  0.89084100  1
  B  B18  1  0.75246800  0.89084100  0.42845000  1
  B  B19  1  0.92845100  0.39084100  0.25246800  1
  B  B20  1  0.25246800  0.92845100  0.39084100  1
  B  B21  1  0.39084100  0.25246800  0.92845100  1
  O  O22  1  0.23842900  0.23826400  0.91102500  1
  O  O23  1  0.23826400  0.91102500  0.23842900  1
  O  O24  1  0.91102500  0.23842900  0.23826400  1
  O  O25  1  0.73826400  0.73842900  0.41102500  1
  O  O26  1  0.41102500  0.73826400  0.73842900  1
  O  O27  1  0.73842900  0.41102500  0.73826400  1
  O  O28  1  0.20243800  0.49077200  0.74092500  1
  O  O29  1  0.49077200  0.74092500  0.20243800  1
  O  O30  1  0.74092500  0.20243800  0.49077200  1
  O  O31  1  0.99077200  0.70243800  0.24092500  1
  O  O32  1  0.24092500  0.99077200  0.70243800  1
  O  O33  1  0.70243800  0.24092500  0.99077200  1
  O  O34  1  0.24653100  0.26602900  0.60775800  1
  O  O35  1  0.26602900  0.60775800  0.24653100  1
  O  O36  1  0.60775800  0.24653100  0.26602900  1
  O  O37  1  0.76602900  0.74653100  0.10775800  1
  O  O38  1  0.10775800  0.76602900  0.74653100  1
  O  O39  1  0.74653100  0.10775800  0.76602900  1
  O  O40  1  0.00391600  0.30305600  0.79006200  1
  O  O41  1  0.30305600  0.79006200  0.00391600  1
  O  O42  1  0.79006200  0.00391600  0.30305600  1
  O  O43  1  0.80305600  0.50391600  0.29006200  1
  O  O44  1  0.29006200  0.80305600  0.50391600  1
  O  O45  1  0.50391600  0.29006200  0.80305600  1
  O  O46  1  0.92544300  0.58709400  0.72994000  1
  O  O47  1  0.58709400  0.72994000  0.92544300  1
  O  O48  1  0.72994000  0.92544300  0.58709400  1
  O  O49  1  0.08709400  0.42544300  0.22994000  1
  O  O50  1  0.22994000  0.08709400  0.42544300  1
  O  O51  1  0.42544300  0.22994000  0.08709400  1
