# generated using pymatgen
data_Li2Ni3SnO8
_symmetry_space_group_name_H-M   'P 1'
_cell_length_a   5.89539037
_cell_length_b   6.06308718
_cell_length_c   8.24703643
_cell_angle_alpha   87.79493269
_cell_angle_beta   90.47544851
_cell_angle_gamma   87.63255561
_symmetry_Int_Tables_number   1
_chemical_formula_structural   Li2Ni3SnO8
_chemical_formula_sum   'Li4 Ni6 Sn2 O16'
_cell_volume   294.30012372
_cell_formula_units_Z   2
loop_
 _symmetry_equiv_pos_site_id
 _symmetry_equiv_pos_as_xyz
  1  'x, y, z'
loop_
 _atom_site_type_symbol
 _atom_site_label
 _atom_site_symmetry_multiplicity
 _atom_site_fract_x
 _atom_site_fract_y
 _atom_site_fract_z
 _atom_site_occupancy
  Li  Li0  1  0.00658900  0.24233100  0.11311000  1
  Li  Li1  1  0.50312700  0.74178700  0.61916200  1
  Li  Li2  1  0.99686600  0.75819000  0.88081000  1
  Li  Li3  1  0.49342800  0.25766500  0.38689700  1
  Ni  Ni4  1  0.75000200  0.24999900  0.75006600  1
  Ni  Ni5  1  0.75004800  0.74998500  0.25001700  1
  Ni  Ni6  1  0.25000200  0.25000600  0.74997600  1
  Ni  Ni7  1  0.00632200  0.50361400  0.50251300  1
  Ni  Ni8  1  0.49366500  0.99638700  0.99747600  1
  Ni  Ni9  1  0.24997400  0.75000800  0.24995700  1
  Sn  Sn10  1  0.00415900  0.00129700  0.49923000  1
  Sn  Sn11  1  0.49583300  0.49870900  0.00076300  1
  O  O12  1  0.01034400  0.54465700  0.26669400  1
  O  O13  1  0.48828000  0.02751500  0.76630900  1
  O  O14  1  0.01172900  0.47249400  0.73368600  1
  O  O15  1  0.48970200  0.95529800  0.23329800  1
  O  O16  1  0.24693400  0.75007500  0.47780600  1
  O  O17  1  0.73799200  0.24769100  0.98043100  1
  O  O18  1  0.77921300  0.74288000  0.48845400  1
  O  O19  1  0.27094600  0.23828400  0.97861800  1
  O  O20  1  0.01633400  0.97593200  0.25024900  1
  O  O21  1  0.48101000  0.46112300  0.74919900  1
  O  O22  1  0.01901200  0.03888200  0.75082200  1
  O  O23  1  0.48364000  0.52409200  0.24975500  1
  O  O24  1  0.22904300  0.26174900  0.52132200  1
  O  O25  1  0.72080400  0.75711200  0.01156700  1
  O  O26  1  0.76197000  0.25230500  0.51968500  1
  O  O27  1  0.25303200  0.74993600  0.02213100  1
