# generated using pymatgen
data_Li9Mn7O16
_symmetry_space_group_name_H-M   'P 1'
_cell_length_a   5.09466200
_cell_length_b   5.82910984
_cell_length_c   10.51256641
_cell_angle_alpha   90.06342545
_cell_angle_beta   95.51537060
_cell_angle_gamma   107.23508298
_symmetry_Int_Tables_number   1
_chemical_formula_structural   Li9Mn7O16
_chemical_formula_sum   'Li9 Mn7 O16'
_cell_volume   296.65266438
_cell_formula_units_Z   1
loop_
 _symmetry_equiv_pos_site_id
 _symmetry_equiv_pos_as_xyz
  1  'x, y, z'
loop_
 _atom_site_type_symbol
 _atom_site_label
 _atom_site_symmetry_multiplicity
 _atom_site_fract_x
 _atom_site_fract_y
 _atom_site_fract_z
 _atom_site_occupancy
  Li  Li0  1  0.99269800  0.12444000  0.86854000  1
  Li  Li1  1  0.49740900  0.75258900  0.25435300  1
  Li  Li2  1  0.00730200  0.87556000  0.13146000  1
  Li  Li3  1  0.50000000  0.50000000  0.50000000  1
  Li  Li4  1  0.01413300  0.62671400  0.38232300  1
  Li  Li5  1  0.50259100  0.24741100  0.74564700  1
  Li  Li6  1  0.98586700  0.37328600  0.61767700  1
  Li  Li7  1  0.50000000  0.00000000  0.00000000  1
  Li  Li8  1  0.50000000  0.00000000  0.50000000  1
  Mn  Mn9  1  0.99369900  0.87286100  0.61662200  1
  Mn  Mn10  1  0.00630100  0.12713900  0.38337800  1
  Mn  Mn11  1  0.50000000  0.50000000  0.00000000  1
  Mn  Mn12  1  0.49062400  0.75022700  0.73956600  1
  Mn  Mn13  1  0.00665400  0.37538100  0.12853900  1
  Mn  Mn14  1  0.99334600  0.62461900  0.87146100  1
  Mn  Mn15  1  0.50937600  0.24977300  0.26043400  1
  O  O16  1  0.75005600  0.03742400  0.68938500  1
  O  O17  1  0.25618400  0.67134400  0.06509600  1
  O  O18  1  0.75095200  0.79171100  0.93912100  1
  O  O19  1  0.25957600  0.41910600  0.32026400  1
  O  O20  1  0.75620300  0.53783700  0.18977000  1
  O  O21  1  0.21271600  0.16815700  0.55034600  1
  O  O22  1  0.77134000  0.29653100  0.43413200  1
  O  O23  1  0.22244600  0.91972000  0.79407700  1
  O  O24  1  0.24904800  0.20828900  0.06087900  1
  O  O25  1  0.78728400  0.83184300  0.44965400  1
  O  O26  1  0.24994400  0.96257600  0.31061500  1
  O  O27  1  0.74042400  0.58089400  0.67973600  1
  O  O28  1  0.22866000  0.70346900  0.56586800  1
  O  O29  1  0.74381600  0.32865600  0.93490400  1
  O  O30  1  0.24379700  0.46216300  0.81023000  1
  O  O31  1  0.77755400  0.08028000  0.20592300  1
