# generated using pymatgen
data_Li6V3P8O29
_symmetry_space_group_name_H-M   'P 1'
_cell_length_a   9.81168200
_cell_length_b   9.81512197
_cell_length_c   13.94155515
_cell_angle_alpha   90.09106779
_cell_angle_beta   90.03545860
_cell_angle_gamma   119.96821668
_symmetry_Int_Tables_number   1
_chemical_formula_structural   Li6V3P8O29
_chemical_formula_sum   'Li12 V6 P16 O58'
_cell_volume   1163.10492314
_cell_formula_units_Z   2
loop_
 _symmetry_equiv_pos_site_id
 _symmetry_equiv_pos_as_xyz
  1  'x, y, z'
loop_
 _atom_site_type_symbol
 _atom_site_label
 _atom_site_symmetry_multiplicity
 _atom_site_fract_x
 _atom_site_fract_y
 _atom_site_fract_z
 _atom_site_occupancy
  Li  Li0  1  0.67344000  0.77056300  0.05983200  1
  Li  Li1  1  0.22779800  0.32312800  0.56299600  1
  Li  Li2  1  0.33872400  0.66877300  0.88361400  1
  Li  Li3  1  0.09542700  0.33012600  0.06128900  1
  Li  Li4  1  0.23384500  0.90970700  0.06122100  1
  Li  Li5  1  0.91014100  0.22323700  0.44201800  1
  Li  Li6  1  0.08996200  0.77070300  0.56031500  1
  Li  Li7  1  0.90145600  0.66733200  0.93882200  1
  Li  Li8  1  0.66390800  0.32908200  0.61471400  1
  Li  Li9  1  0.77444100  0.69237100  0.43864500  1
  Li  Li10  1  0.31602800  0.08896800  0.43914700  1
  Li  Li11  1  0.01126900  0.03834900  0.99304000  1
  V  V12  1  0.99953000  0.43049100  0.24967500  1
  V  V13  1  0.99931400  0.56330100  0.75031800  1
  V  V14  1  0.56905600  0.00119900  0.75109600  1
  V  V15  1  0.43567800  0.99907000  0.24896800  1
  V  V16  1  0.56469500  0.56732700  0.24920400  1
  V  V17  1  0.43715600  0.43225300  0.75268100  1
  P  P18  1  0.68568300  0.77420800  0.84032900  1
  P  P19  1  0.68426100  0.91528400  0.34320200  1
  P  P20  1  0.23338000  0.32022300  0.34416600  1
  P  P21  1  0.33180000  0.66561600  0.12505800  1
  P  P22  1  0.33403300  0.66685500  0.62840200  1
  P  P23  1  0.09191000  0.31622300  0.84400100  1
  P  P24  1  0.90803500  0.22733700  0.65934200  1
  P  P25  1  0.22581500  0.91015500  0.84583500  1
  P  P26  1  0.77463600  0.08340000  0.15604800  1
  P  P27  1  0.08863700  0.76751400  0.34069600  1
  P  P28  1  0.91087600  0.68183200  0.15775800  1
  P  P29  1  0.66718500  0.33456500  0.37150600  1
  P  P30  1  0.66730400  0.33334200  0.87328500  1
  P  P31  1  0.77036300  0.67864900  0.65407200  1
  P  P32  1  0.31833200  0.08819600  0.65831200  1
  P  P33  1  0.31001900  0.22476000  0.15881300  1
  O  O34  1  0.75981800  0.75496200  0.56492700  1
  O  O35  1  0.66198900  0.74731400  0.34050300  1
  O  O36  1  0.79208800  0.99896200  0.07162200  1
  O  O37  1  0.66637700  0.91875400  0.83886900  1
  O  O38  1  0.51951100  0.62506400  0.83096600  1
  O  O39  1  0.48846900  0.67865000  0.16365900  1
  O  O40  1  0.38087100  0.48171300  0.32289900  1
  O  O41  1  0.20339600  0.20846200  0.07745600  1
  O  O42  1  0.25799900  0.34115400  0.83741400  1
  O  O43  1  0.47314200  0.81696500  0.67624800  1
  O  O44  1  0.52205800  0.90414400  0.32218000  1
  O  O45  1  0.33882100  0.51973000  0.66967800  1
  O  O46  1  0.33061700  0.66379800  0.01702200  1
  O  O47  1  0.32706300  0.66604800  0.52227600  1
  O  O48  1  0.18847500  0.50991800  0.16394400  1
  O  O49  1  0.37440000  0.89394900  0.83496800  1
  O  O50  1  0.32037200  0.80986200  0.16351700  1
  O  O51  1  0.08394200  0.33527900  0.34257100  1
  O  O52  1  0.99919600  0.21307500  0.75132100  1
  O  O53  1  0.00384900  0.24725300  0.57082800  1
  O  O54  1  0.01077200  0.23080100  0.93395200  1
  O  O55  1  0.10352800  0.48007900  0.83311300  1
  O  O56  1  0.17943400  0.66006000  0.67156600  1
  O  O57  1  0.91835900  0.25509600  0.16187500  1
  O  O58  1  0.09999700  0.61821700  0.32067700  1
  O  O59  1  0.25283200  0.91634900  0.34079900  1
  O  O60  1  0.79280300  0.00003600  0.25096200  1
  O  O61  1  0.76447800  0.00594300  0.43043500  1
  O  O62  1  0.23862600  0.99499400  0.56927500  1
  O  O63  1  0.74512600  0.08175200  0.65980800  1
  O  O64  1  0.88605200  0.37339100  0.67375100  1
  O  O65  1  0.07790500  0.74411500  0.84152000  1
  O  O66  1  0.81519000  0.32784600  0.33401900  1
  O  O67  1  0.90336700  0.52420700  0.17124300  1
  O  O68  1  0.99611600  0.77073200  0.06866900  1
  O  O69  1  0.99935600  0.75385200  0.43084300  1
  O  O70  1  0.99881900  0.79008400  0.25040900  1
  O  O71  1  0.92125400  0.66498900  0.65750500  1
  O  O72  1  0.66209500  0.18516200  0.82712400  1
  O  O73  1  0.62131800  0.08732000  0.16671900  1
  O  O74  1  0.81850900  0.48422800  0.83128000  1
  O  O75  1  0.67024600  0.34158900  0.97907700  1
  O  O76  1  0.66797800  0.33683900  0.47940800  1
  O  O77  1  0.67280300  0.48748900  0.33185800  1
  O  O78  1  0.48592200  0.11290100  0.67124300  1
  O  O79  1  0.51376300  0.18589200  0.33363900  1
  O  O80  1  0.74357400  0.66261400  0.16064100  1
  O  O81  1  0.78676900  0.78304000  0.74791400  1
  O  O82  1  0.77197100  0.76934800  0.92931400  1
  O  O83  1  0.62655200  0.51138500  0.67074700  1
  O  O84  1  0.52252100  0.33860600  0.82678600  1
  O  O85  1  0.46597500  0.37959000  0.16809100  1
  O  O86  1  0.33857500  0.08203200  0.16186000  1
  O  O87  1  0.21951700  0.99299000  0.93458100  1
  O  O88  1  0.21457100  0.99889200  0.75094200  1
  O  O89  1  0.32977300  0.25074500  0.65756800  1
  O  O90  1  0.24830200  0.24848200  0.43576100  1
  O  O91  1  0.21310800  0.20444900  0.25763300  1
