# generated using pymatgen
data_LiYb8Ge13
_symmetry_space_group_name_H-M   'P 1'
_cell_length_a   11.07736800
_cell_length_b   11.56213600
_cell_length_c   15.88665322
_cell_angle_alpha   73.62150618
_cell_angle_beta   90.00000000
_cell_angle_gamma   90.00000000
_symmetry_Int_Tables_number   1
_chemical_formula_structural   LiYb8Ge13
_chemical_formula_sum   'Li4 Yb32 Ge52'
_cell_volume   1952.16170036
_cell_formula_units_Z   4
loop_
 _symmetry_equiv_pos_site_id
 _symmetry_equiv_pos_as_xyz
  1  'x, y, z'
loop_
 _atom_site_type_symbol
 _atom_site_label
 _atom_site_symmetry_multiplicity
 _atom_site_fract_x
 _atom_site_fract_y
 _atom_site_fract_z
 _atom_site_occupancy
  Li  Li0  1  0.08091400  0.88096900  0.62960400  1
  Li  Li1  1  0.58091400  0.11903100  0.87039600  1
  Li  Li2  1  0.91908600  0.11903100  0.37039600  1
  Li  Li3  1  0.41908600  0.88096900  0.12960400  1
  Yb  Yb4  1  0.85397900  0.61954800  0.19764500  1
  Yb  Yb5  1  0.35397900  0.38045200  0.30235500  1
  Yb  Yb6  1  0.14602100  0.38045200  0.80235500  1
  Yb  Yb7  1  0.64602100  0.61954800  0.69764500  1
  Yb  Yb8  1  0.98262000  0.62925700  0.56776500  1
  Yb  Yb9  1  0.48262000  0.37074300  0.93223500  1
  Yb  Yb10  1  0.01738000  0.37074300  0.43223500  1
  Yb  Yb11  1  0.51738000  0.62925700  0.06776500  1
  Yb  Yb12  1  0.81046700  0.88243700  0.31822200  1
  Yb  Yb13  1  0.31046700  0.11756300  0.18177800  1
  Yb  Yb14  1  0.18953300  0.11756300  0.68177800  1
  Yb  Yb15  1  0.68953300  0.88243700  0.81822200  1
  Yb  Yb16  1  0.22909800  0.59637200  0.92984800  1
  Yb  Yb17  1  0.72909800  0.40362800  0.57015200  1
  Yb  Yb18  1  0.77090200  0.40362800  0.07015200  1
  Yb  Yb19  1  0.27090200  0.59637200  0.42984800  1
  Yb  Yb20  1  0.93735800  0.64294200  0.82659800  1
  Yb  Yb21  1  0.43735800  0.35705800  0.67340200  1
  Yb  Yb22  1  0.06264200  0.35705800  0.17340200  1
  Yb  Yb23  1  0.56264200  0.64294200  0.32659800  1
  Yb  Yb24  1  0.01245400  0.85509300  0.95784400  1
  Yb  Yb25  1  0.51245400  0.14490700  0.54215600  1
  Yb  Yb26  1  0.98754600  0.14490700  0.04215600  1
  Yb  Yb27  1  0.48754600  0.85509300  0.45784400  1
  Yb  Yb28  1  0.10953200  0.83477300  0.19682700  1
  Yb  Yb29  1  0.60953200  0.16522700  0.30317300  1
  Yb  Yb30  1  0.89046800  0.16522700  0.80317300  1
  Yb  Yb31  1  0.39046800  0.83477300  0.69682700  1
  Yb  Yb32  1  0.14371200  0.90429700  0.40001100  1
  Yb  Yb33  1  0.64371200  0.09570300  0.09998900  1
  Yb  Yb34  1  0.85628800  0.09570300  0.59998900  1
  Yb  Yb35  1  0.35628800  0.90429700  0.90001100  1
  Ge  Ge36  1  0.81561600  0.57522900  0.39589400  1
  Ge  Ge37  1  0.31561600  0.42477100  0.10410600  1
  Ge  Ge38  1  0.18438400  0.42477100  0.60410600  1
  Ge  Ge39  1  0.68438400  0.57522900  0.89589400  1
  Ge  Ge40  1  0.15933500  0.83364300  0.79710200  1
  Ge  Ge41  1  0.65933500  0.16635700  0.70289800  1
  Ge  Ge42  1  0.84066500  0.16635700  0.20289800  1
  Ge  Ge43  1  0.34066500  0.83364300  0.29710200  1
  Ge  Ge44  1  0.95663900  0.93331100  0.76077900  1
  Ge  Ge45  1  0.45663900  0.06668900  0.73922100  1
  Ge  Ge46  1  0.04336100  0.06668900  0.23922100  1
  Ge  Ge47  1  0.54336100  0.93331100  0.26077900  1
  Ge  Ge48  1  0.25036100  0.74368400  0.06072200  1
  Ge  Ge49  1  0.75036100  0.25631600  0.43927800  1
  Ge  Ge50  1  0.74963900  0.25631600  0.93927800  1
  Ge  Ge51  1  0.24963900  0.74368400  0.56072200  1
  Ge  Ge52  1  0.91967300  0.90368200  0.49903000  1
  Ge  Ge53  1  0.41967300  0.09631800  0.00097000  1
  Ge  Ge54  1  0.08032700  0.09631800  0.50097000  1
  Ge  Ge55  1  0.58032700  0.90368200  0.99903000  1
  Ge  Ge56  1  0.21284700  0.98949200  0.03846500  1
  Ge  Ge57  1  0.71284700  0.01050800  0.46153500  1
  Ge  Ge58  1  0.78715300  0.01050800  0.96153500  1
  Ge  Ge59  1  0.28715300  0.98949200  0.53846500  1
  Ge  Ge60  1  0.01812700  0.67255800  0.36275700  1
  Ge  Ge61  1  0.51812700  0.32744200  0.13724300  1
  Ge  Ge62  1  0.98187300  0.32744200  0.63724300  1
  Ge  Ge63  1  0.48187300  0.67255800  0.86275700  1
  Ge  Ge64  1  0.84659600  0.81169400  0.66211100  1
  Ge  Ge65  1  0.34659600  0.18830600  0.83788900  1
  Ge  Ge66  1  0.15340400  0.18830600  0.33788900  1
  Ge  Ge67  1  0.65340400  0.81169400  0.16211100  1
  Ge  Ge68  1  0.99215500  0.58604800  0.03671400  1
  Ge  Ge69  1  0.49215500  0.41395200  0.46328600  1
  Ge  Ge70  1  0.00784500  0.41395200  0.96328600  1
  Ge  Ge71  1  0.50784500  0.58604800  0.53671400  1
  Ge  Ge72  1  0.12266100  0.55086400  0.27100100  1
  Ge  Ge73  1  0.62266100  0.44913600  0.22899900  1
  Ge  Ge74  1  0.87733900  0.44913600  0.72899900  1
  Ge  Ge75  1  0.37733900  0.55086400  0.77100100  1
  Ge  Ge76  1  0.78305400  0.69330500  0.99298300  1
  Ge  Ge77  1  0.28305400  0.30669500  0.50701700  1
  Ge  Ge78  1  0.21694600  0.30669500  0.00701700  1
  Ge  Ge79  1  0.71694600  0.69330500  0.49298300  1
  Ge  Ge80  1  0.86359100  0.90395000  0.11874200  1
  Ge  Ge81  1  0.36359100  0.09605000  0.38125800  1
  Ge  Ge82  1  0.13640900  0.09605000  0.88125800  1
  Ge  Ge83  1  0.63640900  0.90395000  0.61874200  1
  Ge  Ge84  1  0.32736900  0.65539400  0.21970400  1
  Ge  Ge85  1  0.82736900  0.34460600  0.28029600  1
  Ge  Ge86  1  0.67263100  0.34460600  0.78029600  1
  Ge  Ge87  1  0.17263100  0.65539400  0.71970400  1
