# generated using pymatgen
data_Li2Ti2AsPO10
_symmetry_space_group_name_H-M   'P 1'
_cell_length_a   6.54531700
_cell_length_b   7.45893200
_cell_length_c   7.58590900
_cell_angle_alpha   90.00000000
_cell_angle_beta   90.00000000
_cell_angle_gamma   90.00000000
_symmetry_Int_Tables_number   1
_chemical_formula_structural   Li2Ti2AsPO10
_chemical_formula_sum   'Li4 Ti4 As2 P2 O20'
_cell_volume   370.35222784
_cell_formula_units_Z   2
loop_
 _symmetry_equiv_pos_site_id
 _symmetry_equiv_pos_as_xyz
  1  'x, y, z'
loop_
 _atom_site_type_symbol
 _atom_site_label
 _atom_site_symmetry_multiplicity
 _atom_site_fract_x
 _atom_site_fract_y
 _atom_site_fract_z
 _atom_site_occupancy
  Li  Li0  1  0.74061600  0.26020300  0.49767400  1
  Li  Li1  1  0.25938400  0.73979700  0.99767400  1
  Li  Li2  1  0.25938400  0.26020300  0.49767400  1
  Li  Li3  1  0.74061600  0.73979700  0.99767400  1
  Ti  Ti4  1  0.50000000  0.03006100  0.83221600  1
  Ti  Ti5  1  0.50000000  0.96993900  0.33221600  1
  Ti  Ti6  1  0.00000000  0.46985800  0.16533500  1
  Ti  Ti7  1  0.00000000  0.53014200  0.66533500  1
  As  As8  1  0.00000000  0.11930100  0.87281500  1
  As  As9  1  0.00000000  0.88069900  0.37281500  1
  P  P10  1  0.50000000  0.37206900  0.12602200  1
  P  P11  1  0.50000000  0.62793100  0.62602200  1
  O  O12  1  0.50000000  0.10622100  0.61787300  1
  O  O13  1  0.50000000  0.89377900  0.11787300  1
  O  O14  1  0.00000000  0.41801800  0.38839500  1
  O  O15  1  0.00000000  0.58198200  0.88839500  1
  O  O16  1  0.20707900  0.01911300  0.37312900  1
  O  O17  1  0.79292100  0.98088700  0.87312900  1
  O  O18  1  0.69230300  0.50599400  0.62650200  1
  O  O19  1  0.30769700  0.49400600  0.12650200  1
  O  O20  1  0.30769700  0.50599400  0.62650200  1
  O  O21  1  0.69230300  0.49400600  0.12650200  1
  O  O22  1  0.79292100  0.01911300  0.37312900  1
  O  O23  1  0.20707900  0.98088700  0.87312900  1
  O  O24  1  0.00000000  0.76550000  0.56774400  1
  O  O25  1  0.00000000  0.23450000  0.06774400  1
  O  O26  1  0.50000000  0.74341300  0.45560500  1
  O  O27  1  0.50000000  0.25658700  0.95560500  1
  O  O28  1  0.50000000  0.24963400  0.29211400  1
  O  O29  1  0.50000000  0.75036600  0.79211400  1
  O  O30  1  0.00000000  0.25263900  0.68727100  1
  O  O31  1  0.00000000  0.74736100  0.18727100  1
