# generated using pymatgen
data_Li2MgTi9O20
_symmetry_space_group_name_H-M   'P 1'
_cell_length_a   10.07570300
_cell_length_b   5.24182500
_cell_length_c   7.47373264
_cell_angle_alpha   70.05821586
_cell_angle_beta   90.00000000
_cell_angle_gamma   90.00000000
_symmetry_Int_Tables_number   1
_chemical_formula_structural   Li2MgTi9O20
_chemical_formula_sum   'Li2 Mg1 Ti9 O20'
_cell_volume   371.05783306
_cell_formula_units_Z   1
loop_
 _symmetry_equiv_pos_site_id
 _symmetry_equiv_pos_as_xyz
  1  'x, y, z'
loop_
 _atom_site_type_symbol
 _atom_site_label
 _atom_site_symmetry_multiplicity
 _atom_site_fract_x
 _atom_site_fract_y
 _atom_site_fract_z
 _atom_site_occupancy
  Li  Li0  1  0.50000000  0.21295500  0.40089300  1
  Li  Li1  1  0.00000000  0.28414900  0.09508300  1
  Mg  Mg2  1  0.50000000  0.70088700  0.90388400  1
  Ti  Ti3  1  0.18453500  0.80229800  0.93914700  1
  Ti  Ti4  1  0.19003000  0.30510000  0.42728700  1
  Ti  Ti5  1  0.31800900  0.19974800  0.06785300  1
  Ti  Ti6  1  0.32099600  0.70747200  0.56826600  1
  Ti  Ti7  1  0.81546500  0.80229800  0.93914700  1
  Ti  Ti8  1  0.80997000  0.30510000  0.42728700  1
  Ti  Ti9  1  0.68199100  0.19974800  0.06785300  1
  Ti  Ti10  1  0.67900400  0.70747200  0.56826600  1
  Ti  Ti11  1  0.00000000  0.79732800  0.59794600  1
  O  O12  1  0.50000000  0.31601600  0.10435800  1
  O  O13  1  0.50000000  0.81768400  0.60812100  1
  O  O14  1  0.00000000  0.68203900  0.86989300  1
  O  O15  1  0.00000000  0.14883200  0.40751700  1
  O  O16  1  0.31136500  0.52858200  0.84345800  1
  O  O17  1  0.30343400  0.02875800  0.34300300  1
  O  O18  1  0.18546400  0.47787300  0.16054700  1
  O  O19  1  0.18336100  0.96503400  0.65473200  1
  O  O20  1  0.68863500  0.52858200  0.84345800  1
  O  O21  1  0.69656600  0.02875800  0.34300300  1
  O  O22  1  0.81453600  0.47787300  0.16054700  1
  O  O23  1  0.81663900  0.96503400  0.65473200  1
  O  O24  1  0.36350000  0.93006500  0.97491000  1
  O  O25  1  0.35854100  0.43222600  0.47938200  1
  O  O26  1  0.13732400  0.06835200  0.02275700  1
  O  O27  1  0.12813000  0.57454700  0.52480900  1
  O  O28  1  0.63650000  0.93006500  0.97491000  1
  O  O29  1  0.64145900  0.43222600  0.47938200  1
  O  O30  1  0.86267600  0.06835200  0.02275700  1
  O  O31  1  0.87187000  0.57454700  0.52480900  1
