# generated using pymatgen
data_Li4Co3NiO8
_symmetry_space_group_name_H-M   'P 1'
_cell_length_a   5.88520943
_cell_length_b   5.85992767
_cell_length_c   10.04159363
_cell_angle_alpha   106.16817728
_cell_angle_beta   90.11286010
_cell_angle_gamma   59.86941520
_symmetry_Int_Tables_number   1
_chemical_formula_structural   Li4Co3NiO8
_chemical_formula_sum   'Li8 Co6 Ni2 O16'
_cell_volume   283.67975409
_cell_formula_units_Z   2
loop_
 _symmetry_equiv_pos_site_id
 _symmetry_equiv_pos_as_xyz
  1  'x, y, z'
loop_
 _atom_site_type_symbol
 _atom_site_label
 _atom_site_symmetry_multiplicity
 _atom_site_fract_x
 _atom_site_fract_y
 _atom_site_fract_z
 _atom_site_occupancy
  Li  Li0  1  0.74987700  0.49736200  0.75059700  1
  Li  Li1  1  0.25191200  0.50184900  0.24943600  1
  Li  Li2  1  0.99120300  0.50460600  0.50863900  1
  Li  Li3  1  0.50725100  0.49601500  0.99133400  1
  Li  Li4  1  0.24999100  0.49537800  0.74793000  1
  Li  Li5  1  0.74607300  0.50376500  0.25170400  1
  Li  Li6  1  0.00445300  0.50341600  0.00856900  1
  Li  Li7  1  0.49901900  0.49729400  0.48910900  1
  Co  Co8  1  0.74829100  0.99740300  0.75064100  1
  Co  Co9  1  0.50529200  0.00071000  0.00032200  1
  Co  Co10  1  0.74949300  0.00561900  0.24958400  1
  Co  Co11  1  0.24722800  0.00501500  0.25040000  1
  Co  Co12  1  0.99806700  0.00170700  0.50141300  1
  Co  Co13  1  0.25152400  0.98851300  0.75182000  1
  Ni  Ni14  1  0.49969300  0.00039800  0.49983600  1
  Ni  Ni15  1  0.00051700  0.00013700  0.00012900  1
  O  O16  1  0.87240300  0.23351600  0.36750800  1
  O  O17  1  0.40072600  0.22075200  0.87381300  1
  O  O18  1  0.62543800  0.78165900  0.12645900  1
  O  O19  1  0.09679000  0.76830300  0.63207500  1
  O  O20  1  0.85203100  0.77852800  0.87314200  1
  O  O21  1  0.36318200  0.77048700  0.37129900  1
  O  O22  1  0.12580600  0.22419900  0.62374500  1
  O  O23  1  0.63585400  0.22489700  0.12912700  1
  O  O24  1  0.87109100  0.22079500  0.86235000  1
  O  O25  1  0.40685500  0.22536500  0.36237000  1
  O  O26  1  0.62633000  0.77492500  0.63778600  1
  O  O27  1  0.09372500  0.77901200  0.13761400  1
  O  O28  1  0.37055500  0.76992000  0.87439100  1
  O  O29  1  0.86952100  0.78192300  0.37149500  1
  O  O30  1  0.63947700  0.22284800  0.63283900  1
  O  O31  1  0.15034700  0.22368600  0.12252200  1
