# generated using pymatgen
data_LiCrP2O7
_symmetry_space_group_name_H-M   'P 1'
_cell_length_a   8.20952000
_cell_length_b   7.12693500
_cell_length_c   9.63930870
_cell_angle_alpha   69.29437098
_cell_angle_beta   90.00000000
_cell_angle_gamma   90.00000000
_symmetry_Int_Tables_number   1
_chemical_formula_structural   LiCrP2O7
_chemical_formula_sum   'Li4 Cr4 P8 O28'
_cell_volume   527.55547583
_cell_formula_units_Z   4
loop_
 _symmetry_equiv_pos_site_id
 _symmetry_equiv_pos_as_xyz
  1  'x, y, z'
loop_
 _atom_site_type_symbol
 _atom_site_label
 _atom_site_symmetry_multiplicity
 _atom_site_fract_x
 _atom_site_fract_y
 _atom_site_fract_z
 _atom_site_occupancy
  Li  Li0  1  0.88761100  0.67741600  0.25306800  1
  Li  Li1  1  0.11238900  0.32258400  0.74693200  1
  Li  Li2  1  0.38761100  0.32258400  0.24693200  1
  Li  Li3  1  0.61238900  0.67741600  0.75306800  1
  Cr  Cr4  1  0.49867700  0.26776200  0.75062000  1
  Cr  Cr5  1  0.00132300  0.26776200  0.25062000  1
  Cr  Cr6  1  0.99867700  0.73223800  0.74938000  1
  Cr  Cr7  1  0.50132300  0.73223800  0.24938000  1
  P  P8  1  0.69299700  0.31597700  0.44548100  1
  P  P9  1  0.30700300  0.68402300  0.55451900  1
  P  P10  1  0.80700300  0.31597700  0.94548100  1
  P  P11  1  0.27020600  0.09286300  0.05306500  1
  P  P12  1  0.77020600  0.90713700  0.44693500  1
  P  P13  1  0.72979400  0.90713700  0.94693500  1
  P  P14  1  0.19299700  0.68402300  0.05451900  1
  P  P15  1  0.22979400  0.09286300  0.55306500  1
  O  O16  1  0.34253600  0.90499600  0.55911700  1
  O  O17  1  0.84253600  0.09500400  0.94088300  1
  O  O18  1  0.33532000  0.21981200  0.61494800  1
  O  O19  1  0.07592100  0.01713000  0.64621300  1
  O  O20  1  0.92407900  0.98287000  0.35378700  1
  O  O21  1  0.66468000  0.78018800  0.38505200  1
  O  O22  1  0.15746400  0.90499600  0.05911700  1
  O  O23  1  0.57592100  0.98287000  0.85378700  1
  O  O24  1  0.31789900  0.69136300  0.39525400  1
  O  O25  1  0.69643600  0.78687900  0.11139500  1
  O  O26  1  0.83532000  0.78018800  0.88505200  1
  O  O27  1  0.13484500  0.62220100  0.61809900  1
  O  O28  1  0.36515500  0.62220100  0.11809900  1
  O  O29  1  0.18210100  0.69136300  0.89525400  1
  O  O30  1  0.80356400  0.78687900  0.61139500  1
  O  O31  1  0.68210100  0.30863700  0.60474600  1
  O  O32  1  0.05920600  0.56241700  0.15963600  1
  O  O33  1  0.86515500  0.37779900  0.38190100  1
  O  O34  1  0.42407900  0.01713000  0.14621300  1
  O  O35  1  0.94079400  0.43758300  0.84036400  1
  O  O36  1  0.44079400  0.56241700  0.65963600  1
  O  O37  1  0.19643600  0.21312100  0.38860500  1
  O  O38  1  0.81789900  0.30863700  0.10474600  1
  O  O39  1  0.63484500  0.37779900  0.88190100  1
  O  O40  1  0.65746400  0.09500400  0.44088300  1
  O  O41  1  0.16468000  0.21981200  0.11494800  1
  O  O42  1  0.30356400  0.21312100  0.88860500  1
  O  O43  1  0.55920600  0.43758300  0.34036400  1
