# generated using pymatgen
data_Li5Mn3O8
_symmetry_space_group_name_H-M   'P 1'
_cell_length_a   5.00100478
_cell_length_b   5.08477675
_cell_length_c   11.86989477
_cell_angle_alpha   88.89509565
_cell_angle_beta   88.95622320
_cell_angle_gamma   108.27685595
_symmetry_Int_Tables_number   1
_chemical_formula_structural   Li5Mn3O8
_chemical_formula_sum   'Li10 Mn6 O16'
_cell_volume   286.46544771
_cell_formula_units_Z   2
loop_
 _symmetry_equiv_pos_site_id
 _symmetry_equiv_pos_as_xyz
  1  'x, y, z'
loop_
 _atom_site_type_symbol
 _atom_site_label
 _atom_site_symmetry_multiplicity
 _atom_site_fract_x
 _atom_site_fract_y
 _atom_site_fract_z
 _atom_site_occupancy
  Li  Li0  1  0.00477200  0.50199200  0.12494200  1
  Li  Li1  1  0.99482300  0.49763300  0.62504300  1
  Li  Li2  1  0.99973000  0.49973900  0.37502000  1
  Li  Li3  1  0.00040100  0.50023800  0.87503500  1
  Li  Li4  1  0.50373100  0.00489500  0.12530400  1
  Li  Li5  1  0.49623400  0.99487700  0.62468600  1
  Li  Li6  1  0.50280800  0.50446900  0.24050300  1
  Li  Li7  1  0.50331800  0.50531500  0.75076200  1
  Li  Li8  1  0.49734800  0.49547200  0.99940500  1
  Li  Li9  1  0.49680200  0.49519900  0.50953500  1
  Mn  Mn10  1  0.50026100  0.00037000  0.87505900  1
  Mn  Mn11  1  0.49976900  0.99980300  0.37490700  1
  Mn  Mn12  1  0.00572300  0.00186600  0.00265200  1
  Mn  Mn13  1  0.99144400  0.99195100  0.50233700  1
  Mn  Mn14  1  0.00817800  0.00768000  0.24756800  1
  Mn  Mn15  1  0.99466000  0.99847100  0.74737800  1
  O  O16  1  0.23529000  0.24869300  0.13889100  1
  O  O17  1  0.20676100  0.22169200  0.61447800  1
  O  O18  1  0.79298500  0.77804400  0.13543400  1
  O  O19  1  0.76453300  0.75105000  0.61109900  1
  O  O20  1  0.24196700  0.21789300  0.37467600  1
  O  O21  1  0.26329200  0.23407100  0.88126600  1
  O  O22  1  0.75752600  0.78170800  0.37517800  1
  O  O23  1  0.73747900  0.76668400  0.86884000  1
  O  O24  1  0.74143600  0.21433800  0.48865100  1
  O  O25  1  0.74626000  0.21891800  0.99029800  1
  O  O26  1  0.75306400  0.22486300  0.25931400  1
  O  O27  1  0.74534500  0.22532600  0.75596300  1
  O  O28  1  0.25804200  0.78517100  0.26123400  1
  O  O29  1  0.25432200  0.78158600  0.75986500  1
  O  O30  1  0.24650100  0.77476200  0.49055000  1
  O  O31  1  0.25519500  0.77523200  0.99412800  1
