# generated using pymatgen
data_Li9Mn2Co5O16
_symmetry_space_group_name_H-M   'P 1'
_cell_length_a   5.00635500
_cell_length_b   5.90485358
_cell_length_c   10.21670987
_cell_angle_alpha   89.73857863
_cell_angle_beta   99.43477323
_cell_angle_gamma   106.04108532
_symmetry_Int_Tables_number   1
_chemical_formula_structural   Li9Mn2Co5O16
_chemical_formula_sum   'Li9 Mn2 Co5 O16'
_cell_volume   286.07371773
_cell_formula_units_Z   1
loop_
 _symmetry_equiv_pos_site_id
 _symmetry_equiv_pos_as_xyz
  1  'x, y, z'
loop_
 _atom_site_type_symbol
 _atom_site_label
 _atom_site_symmetry_multiplicity
 _atom_site_fract_x
 _atom_site_fract_y
 _atom_site_fract_z
 _atom_site_occupancy
  Li  Li0  1  0.50000000  0.50000000  0.50000000  1
  Li  Li1  1  0.98952300  0.37311300  0.63029600  1
  Li  Li2  1  0.01047700  0.62688700  0.36970400  1
  Li  Li3  1  0.50394800  0.25666300  0.76479600  1
  Li  Li4  1  0.01310300  0.13234500  0.88307700  1
  Li  Li5  1  0.50000000  0.00000000  0.00000000  1
  Li  Li6  1  0.98689700  0.86765500  0.11692300  1
  Li  Li7  1  0.49605200  0.74333700  0.23520400  1
  Li  Li8  1  0.50000000  0.50000000  0.00000000  1
  Mn  Mn9  1  0.99910200  0.12191200  0.37516700  1
  Mn  Mn10  1  0.00089800  0.87808800  0.62483300  1
  Co  Co11  1  0.50000000  0.00000000  0.50000000  1
  Co  Co12  1  0.50995400  0.75033900  0.75886000  1
  Co  Co13  1  0.00801900  0.61444700  0.87847200  1
  Co  Co14  1  0.99198100  0.38555300  0.12152800  1
  Co  Co15  1  0.49004600  0.24966100  0.24114000  1
  O  O16  1  0.23881000  0.16184000  0.55308800  1
  O  O17  1  0.74617200  0.04695800  0.67053500  1
  O  O18  1  0.74161200  0.27857900  0.43307000  1
  O  O19  1  0.23444200  0.93417700  0.79594900  1
  O  O20  1  0.74831700  0.80736400  0.92071600  1
  O  O21  1  0.23182900  0.67861600  0.05870600  1
  O  O22  1  0.75774100  0.54325100  0.19262200  1
  O  O23  1  0.23770700  0.40993600  0.32120100  1
  O  O24  1  0.76119000  0.83816000  0.44691200  1
  O  O25  1  0.25838800  0.72142100  0.56693000  1
  O  O26  1  0.25382800  0.95304200  0.32946500  1
  O  O27  1  0.76229300  0.59006400  0.67879900  1
  O  O28  1  0.24225900  0.45674900  0.80737800  1
  O  O29  1  0.76817100  0.32138400  0.94129400  1
  O  O30  1  0.25168300  0.19263600  0.07928400  1
  O  O31  1  0.76555800  0.06582300  0.20405100  1
