# generated using pymatgen
data_LiTi2O4
_symmetry_space_group_name_H-M   'P 1'
_cell_length_a   3.81329100
_cell_length_b   8.21001000
_cell_length_c   9.16736900
_cell_angle_alpha   90.00000000
_cell_angle_beta   90.00000000
_cell_angle_gamma   90.00000000
_symmetry_Int_Tables_number   1
_chemical_formula_structural   LiTi2O4
_chemical_formula_sum   'Li4 Ti8 O16'
_cell_volume   287.00426279
_cell_formula_units_Z   4
loop_
 _symmetry_equiv_pos_site_id
 _symmetry_equiv_pos_as_xyz
  1  'x, y, z'
loop_
 _atom_site_type_symbol
 _atom_site_label
 _atom_site_symmetry_multiplicity
 _atom_site_fract_x
 _atom_site_fract_y
 _atom_site_fract_z
 _atom_site_occupancy
  Li  Li0  1  0.00000000  0.87730600  0.84075700  1
  Li  Li1  1  0.50000000  0.62269400  0.34075700  1
  Li  Li2  1  0.50000000  0.37730600  0.65924300  1
  Li  Li3  1  0.00000000  0.12269400  0.15924300  1
  Ti  Ti4  1  0.00000000  0.88336100  0.39378300  1
  Ti  Ti5  1  0.50000000  0.61663900  0.89378300  1
  Ti  Ti6  1  0.50000000  0.38336100  0.10621700  1
  Ti  Ti7  1  0.00000000  0.11663900  0.60621700  1
  Ti  Ti8  1  0.00000000  0.35979600  0.38426900  1
  Ti  Ti9  1  0.50000000  0.14020400  0.88426900  1
  Ti  Ti10  1  0.50000000  0.85979600  0.11573100  1
  Ti  Ti11  1  0.00000000  0.64020400  0.61573100  1
  O  O12  1  0.00000000  0.87452700  0.61395400  1
  O  O13  1  0.00000000  0.37519600  0.59356800  1
  O  O14  1  0.50000000  0.62547300  0.11395400  1
  O  O15  1  0.50000000  0.12480400  0.09356800  1
  O  O16  1  0.50000000  0.86504800  0.34979600  1
  O  O17  1  0.50000000  0.38410100  0.34402000  1
  O  O18  1  0.00000000  0.63495200  0.84979600  1
  O  O19  1  0.00000000  0.11589900  0.84402000  1
  O  O20  1  0.00000000  0.62480400  0.40643200  1
  O  O21  1  0.00000000  0.12547300  0.38604600  1
  O  O22  1  0.50000000  0.87519600  0.90643200  1
  O  O23  1  0.50000000  0.37452700  0.88604600  1
  O  O24  1  0.50000000  0.61589900  0.65598000  1
  O  O25  1  0.50000000  0.13495200  0.65020400  1
  O  O26  1  0.00000000  0.88410100  0.15598000  1
  O  O27  1  0.00000000  0.36504800  0.15020400  1
