# generated using pymatgen
data_LiO2
_symmetry_space_group_name_H-M   'P 1'
_cell_length_a   2.96110100
_cell_length_b   3.98566900
_cell_length_c   4.89609000
_cell_angle_alpha   90.00000000
_cell_angle_beta   90.00000000
_cell_angle_gamma   90.00000000
_symmetry_Int_Tables_number   1
_chemical_formula_structural   LiO2
_chemical_formula_sum   'Li2 O4'
_cell_volume   57.78349977
_cell_formula_units_Z   2
loop_
 _symmetry_equiv_pos_site_id
 _symmetry_equiv_pos_as_xyz
  1  'x, y, z'
loop_
 _atom_site_type_symbol
 _atom_site_label
 _atom_site_symmetry_multiplicity
 _atom_site_fract_x
 _atom_site_fract_y
 _atom_site_fract_z
 _atom_site_occupancy
  Li  Li0  1  0.50000000  0.50000000  0.50000000  1
  Li  Li1  1  0.00000000  0.00000000  0.00000000  1
  O  O2  1  0.50000000  0.63185800  0.08562300  1
  O  O3  1  0.50000000  0.36814200  0.91437700  1
  O  O4  1  0.00000000  0.13185800  0.41437700  1
  O  O5  1  0.00000000  0.86814200  0.58562300  1
