# generated using pymatgen
data_Li4Ti3(CoO4)3
_symmetry_space_group_name_H-M   'P 1'
_cell_length_a   6.07067556
_cell_length_b   9.80123846
_cell_length_c   7.93229388
_cell_angle_alpha   82.81761922
_cell_angle_beta   102.27980095
_cell_angle_gamma   97.80147241
_symmetry_Int_Tables_number   1
_chemical_formula_structural   Li4Ti3(CoO4)3
_chemical_formula_sum   'Li8 Ti6 Co6 O24'
_cell_volume   454.64612684
_cell_formula_units_Z   2
loop_
 _symmetry_equiv_pos_site_id
 _symmetry_equiv_pos_as_xyz
  1  'x, y, z'
loop_
 _atom_site_type_symbol
 _atom_site_label
 _atom_site_symmetry_multiplicity
 _atom_site_fract_x
 _atom_site_fract_y
 _atom_site_fract_z
 _atom_site_occupancy
  Li  Li0  1  0.33362500  0.74951700  0.58202000  1
  Li  Li1  1  0.32376300  0.24632500  0.08579700  1
  Li  Li2  1  0.33188600  0.99771000  0.33283500  1
  Li  Li3  1  0.33544000  0.50021300  0.83219100  1
  Li  Li4  1  0.00893900  0.23039200  0.77057800  1
  Li  Li5  1  0.01535300  0.73297900  0.26609400  1
  Li  Li6  1  0.65255900  0.26319900  0.40353900  1
  Li  Li7  1  0.65722100  0.77006800  0.89703000  1
  Ti  Ti8  1  0.82894700  0.75143800  0.57793100  1
  Ti  Ti9  1  0.82086900  0.25579400  0.08019400  1
  Ti  Ti10  1  0.14406400  0.25533000  0.41942600  1
  Ti  Ti11  1  0.14754000  0.75552800  0.91895800  1
  Ti  Ti12  1  0.51196200  0.24196300  0.73828800  1
  Ti  Ti13  1  0.51738200  0.74151400  0.23708900  1
  Co  Co14  1  0.83497100  0.00044200  0.33257200  1
  Co  Co15  1  0.17031300  0.49891900  0.16597300  1
  Co  Co16  1  0.49765000  0.50029400  0.50188000  1
  Co  Co17  1  0.83588800  0.50062000  0.83240100  1
  Co  Co18  1  0.16858000  0.99868900  0.66612000  1
  Co  Co19  1  0.49757600  0.00149100  0.00203000  1
  O  O20  1  0.28876800  0.12524000  0.86794600  1
  O  O21  1  0.29255000  0.62527700  0.36630100  1
  O  O22  1  0.37861100  0.87548600  0.80091900  1
  O  O23  1  0.37655600  0.37443300  0.30204500  1
  O  O24  1  0.27083300  0.36443400  0.62580600  1
  O  O25  1  0.27155800  0.86322200  0.12490200  1
  O  O26  1  0.40117000  0.13472400  0.54358500  1
  O  O27  1  0.40220300  0.63404700  0.04188900  1
  O  O28  1  0.07021400  0.86965600  0.47222900  1
  O  O29  1  0.06627000  0.36894200  0.97440300  1
  O  O30  1  0.59813300  0.13172500  0.19627400  1
  O  O31  1  0.60159700  0.63207300  0.69404000  1
  O  O32  1  0.07323400  0.13912900  0.22806100  1
  O  O33  1  0.07619300  0.63874800  0.72550700  1
  O  O34  1  0.59698800  0.86187000  0.44172400  1
  O  O35  1  0.59300900  0.36396400  0.94362500  1
  O  O36  1  0.92408900  0.86189300  0.78257900  1
  O  O37  1  0.92081100  0.36263600  0.28519800  1
  O  O38  1  0.74699000  0.63919600  0.38291600  1
  O  O39  1  0.74212400  0.14048000  0.88627100  1
  O  O40  1  0.95830700  0.12598200  0.55010200  1
  O  O41  1  0.96021200  0.62613100  0.04804400  1
  O  O42  1  0.71034900  0.37373600  0.62093700  1
  O  O43  1  0.71136800  0.87455100  0.11840700  1
