# generated using pymatgen
data_LiCo(CO3)2
_symmetry_space_group_name_H-M   'P 1'
_cell_length_a   5.17427452
_cell_length_b   6.62670282
_cell_length_c   15.52716331
_cell_angle_alpha   90.30087620
_cell_angle_beta   89.34229596
_cell_angle_gamma   113.43845693
_symmetry_Int_Tables_number   1
_chemical_formula_structural   LiCo(CO3)2
_chemical_formula_sum   'Li4 Co4 C8 O24'
_cell_volume   488.43937791
_cell_formula_units_Z   4
loop_
 _symmetry_equiv_pos_site_id
 _symmetry_equiv_pos_as_xyz
  1  'x, y, z'
loop_
 _atom_site_type_symbol
 _atom_site_label
 _atom_site_symmetry_multiplicity
 _atom_site_fract_x
 _atom_site_fract_y
 _atom_site_fract_z
 _atom_site_occupancy
  Li  Li0  1  0.41224799  0.75403401  0.03988003  1
  Li  Li1  1  0.37166207  0.59895599  0.53494170  1
  Li  Li2  1  0.58592953  0.77601716  0.28858634  1
  Li  Li3  1  0.64690992  0.86333936  0.77926486  1
  Co  Co4  1  0.01199820  0.01467294  0.99830506  1
  Co  Co5  1  0.98888674  0.48067665  0.74960920  1
  Co  Co6  1  0.01356006  0.01201942  0.49638066  1
  Co  Co7  1  0.97632286  0.48965172  0.24776562  1
  C  C8  1  0.87261590  0.13928639  0.13017713  1
  C  C9  1  0.88375749  0.10895516  0.62904472  1
  C  C10  1  0.13122414  0.39023978  0.38184980  1
  C  C11  1  0.10106372  0.35887087  0.87808222  1
  C  C12  1  0.86750893  0.65698598  0.11902659  1
  C  C13  1  0.86479979  0.61791823  0.62267511  1
  C  C14  1  0.12945893  0.86998206  0.36845393  1
  C  C15  1  0.14827249  0.85987391  0.87060706  1
  O  O16  1  0.69485555  0.07530788  0.06780910  1
  O  O17  1  0.72818871  0.06937762  0.56038727  1
  O  O18  1  0.30160754  0.45377427  0.31526236  1
  O  O19  1  0.26185319  0.40037945  0.81024023  1
  O  O20  1  0.80369068  0.19889240  0.20385169  1
  O  O21  1  0.80456009  0.14510196  0.70331055  1
  O  O22  1  0.21094498  0.34314969  0.45435475  1
  O  O23  1  0.17140256  0.30648832  0.95089872  1
  O  O24  1  0.88139505  0.38474364  0.36985578  1
  O  O25  1  0.86704475  0.38402235  0.86578611  1
  O  O26  1  0.11724202  0.13359857  0.11729288  1
  O  O27  1  0.12775096  0.09978914  0.61303558  1
  O  O28  1  0.72172715  0.62526157  0.18993408  1
  O  O29  1  0.72845142  0.58764944  0.69664067  1
  O  O30  1  0.27799762  0.91155010  0.43855260  1
  O  O31  1  0.28343389  0.89624769  0.94369469  1
  O  O32  1  0.78353497  0.71617906  0.04874383  1
  O  O33  1  0.77858177  0.67098552  0.55422605  1
  O  O34  1  0.20737419  0.80957910  0.29831505  1
  O  O35  1  0.24192350  0.80312646  0.80240396  1
  O  O36  1  0.89489184  0.90050135  0.37729683  1
  O  O37  1  0.91416773  0.89174509  0.87350897  1
  O  O38  1  0.09548241  0.61991951  0.12162555  1
  O  O39  1  0.09567866  0.58115018  0.62863066  1
