# generated using pymatgen
data_Li2Mg3Si2
_symmetry_space_group_name_H-M   'P 1'
_cell_length_a   7.80440963
_cell_length_b   7.80440963
_cell_length_c   7.80440983
_cell_angle_alpha   33.53122939
_cell_angle_beta   33.53122939
_cell_angle_gamma   33.53122443
_symmetry_Int_Tables_number   1
_chemical_formula_structural   Li2Mg3Si2
_chemical_formula_sum   'Li2 Mg3 Si2'
_cell_volume   129.19279578
_cell_formula_units_Z   1
loop_
 _symmetry_equiv_pos_site_id
 _symmetry_equiv_pos_as_xyz
  1  'x, y, z'
loop_
 _atom_site_type_symbol
 _atom_site_label
 _atom_site_symmetry_multiplicity
 _atom_site_fract_x
 _atom_site_fract_y
 _atom_site_fract_z
 _atom_site_occupancy
  Li  Li0  1  0.74525100  0.74525100  0.74525100  1
  Li  Li1  1  0.36932800  0.36932800  0.36932800  1
  Mg  Mg2  1  0.12700100  0.12700100  0.12700100  1
  Mg  Mg3  1  0.62447500  0.62447500  0.62447500  1
  Mg  Mg4  1  0.88143900  0.88143900  0.88143900  1
  Si  Si5  1  0.00432800  0.00432800  0.00432800  1
  Si  Si6  1  0.49817900  0.49817900  0.49817900  1
