# generated using pymatgen
data_BaLi2Tl
_symmetry_space_group_name_H-M   'P 1'
_cell_length_a   13.26581965
_cell_length_b   13.26581965
_cell_length_c   13.26581965
_cell_angle_alpha   120.10097362
_cell_angle_beta   119.21427743
_cell_angle_gamma   90.59573762
_symmetry_Int_Tables_number   1
_chemical_formula_structural   BaLi2Tl
_chemical_formula_sum   'Ba1 Li2 Tl1'
_cell_volume   1659.09566885
_cell_formula_units_Z   1
loop_
 _symmetry_equiv_pos_site_id
 _symmetry_equiv_pos_as_xyz
  1  'x, y, z'
loop_
 _atom_site_type_symbol
 _atom_site_label
 _atom_site_symmetry_multiplicity
 _atom_site_fract_x
 _atom_site_fract_y
 _atom_site_fract_z
 _atom_site_occupancy
  Ba  Ba0  1  0.00000000  0.00000000  0.00000000  1
  Li  Li1  1  0.71513800  0.00000000  0.71513800  1
  Li  Li2  1  0.28486200  0.00000000  0.28486200  1
  Tl  Tl3  1  0.50000000  0.00000000  0.50000000  1
