# generated using pymatgen
data_LiV2CrO6
_symmetry_space_group_name_H-M   'P 1'
_cell_length_a   5.08609548
_cell_length_b   5.07526358
_cell_length_c   5.44419078
_cell_angle_alpha   117.71560475
_cell_angle_beta   61.50832364
_cell_angle_gamma   121.19850008
_symmetry_Int_Tables_number   1
_chemical_formula_structural   LiV2CrO6
_chemical_formula_sum   'Li1 V2 Cr1 O6'
_cell_volume   101.11091549
_cell_formula_units_Z   1
loop_
 _symmetry_equiv_pos_site_id
 _symmetry_equiv_pos_as_xyz
  1  'x, y, z'
loop_
 _atom_site_type_symbol
 _atom_site_label
 _atom_site_symmetry_multiplicity
 _atom_site_fract_x
 _atom_site_fract_y
 _atom_site_fract_z
 _atom_site_occupancy
  Li  Li0  1  0.71798300  0.28297800  0.85420600  1
  V  V1  1  0.00588200  0.00748700  0.01009300  1
  V  V2  1  0.50510900  0.50381700  0.49200300  1
  Cr  Cr3  1  0.19623300  0.79898000  0.40755300  1
  O  O4  1  0.27637700  0.10663000  0.21773700  1
  O  O5  1  0.90417700  0.38362500  0.21141500  1
  O  O6  1  0.61957500  0.73803400  0.21155400  1
  O  O7  1  0.36696500  0.20877100  0.70740400  1
  O  O8  1  0.13243500  0.61743800  0.69696600  1
  O  O9  1  0.77446500  0.85304000  0.69266500  1
