# generated using pymatgen
data_Li10Zn(PS4)4
_symmetry_space_group_name_H-M   'P 1'
_cell_length_a   7.91196500
_cell_length_b   12.37896800
_cell_length_c   17.91031043
_cell_angle_alpha   46.61102216
_cell_angle_beta   90.00000000
_cell_angle_gamma   90.00000000
_symmetry_Int_Tables_number   1
_chemical_formula_structural   Li10Zn(PS4)4
_chemical_formula_sum   'Li20 Zn2 P8 S32'
_cell_volume   1274.76800797
_cell_formula_units_Z   2
loop_
 _symmetry_equiv_pos_site_id
 _symmetry_equiv_pos_as_xyz
  1  'x, y, z'
loop_
 _atom_site_type_symbol
 _atom_site_label
 _atom_site_symmetry_multiplicity
 _atom_site_fract_x
 _atom_site_fract_y
 _atom_site_fract_z
 _atom_site_occupancy
  Li  Li0  1  0.74811600  0.65082900  0.84841500  1
  Li  Li1  1  0.75398900  0.16297700  0.83786900  1
  Li  Li2  1  0.76000000  0.15771600  0.33962500  1
  Li  Li3  1  0.74726300  0.64710800  0.34982400  1
  Li  Li4  1  0.75429400  0.59197100  0.65428200  1
  Li  Li5  1  0.73952000  0.09812800  0.65552000  1
  Li  Li6  1  0.72448000  0.58402800  0.15766900  1
  Li  Li7  1  0.27552000  0.58402800  0.65766900  1
  Li  Li8  1  0.26048000  0.09812800  0.15552000  1
  Li  Li9  1  0.24570600  0.59197100  0.15428200  1
  Li  Li10  1  0.25273700  0.64710800  0.84982400  1
  Li  Li11  1  0.24000000  0.15771600  0.83962500  1
  Li  Li12  1  0.24601100  0.16297700  0.33786900  1
  Li  Li13  1  0.25188400  0.65082900  0.34841500  1
  Li  Li14  1  0.00434600  0.32466100  0.92314700  1
  Li  Li15  1  0.98542800  0.81351500  0.92841100  1
  Li  Li16  1  0.01457200  0.81351500  0.42841100  1
  Li  Li17  1  0.99565400  0.32466100  0.42314700  1
  Li  Li18  1  0.50391800  0.91400800  0.57302900  1
  Li  Li19  1  0.49608200  0.91400800  0.07302900  1
  Zn  Zn20  1  0.74333500  0.09883500  0.15536700  1
  Zn  Zn21  1  0.25666500  0.09883500  0.65536700  1
  P  P22  1  0.00816400  0.90408900  0.59268800  1
  P  P23  1  0.00171200  0.40328200  0.59159400  1
  P  P24  1  0.99828800  0.40328200  0.09159400  1
  P  P25  1  0.99183600  0.90408900  0.09268800  1
  P  P26  1  0.50778200  0.34362600  0.90992600  1
  P  P27  1  0.49769900  0.84603600  0.90722900  1
  P  P28  1  0.50230100  0.84603600  0.40722900  1
  P  P29  1  0.49221800  0.34362600  0.40992600  1
  S  S30  1  0.99852800  0.50639000  0.93988900  1
  S  S31  1  0.99375100  0.00301000  0.94257700  1
  S  S32  1  0.00624900  0.00301000  0.44257700  1
  S  S33  1  0.00147200  0.50639000  0.43988900  1
  S  S34  1  0.01481400  0.56132600  0.60053200  1
  S  S35  1  0.00366700  0.07020900  0.59789200  1
  S  S36  1  0.99633300  0.07020900  0.09789200  1
  S  S37  1  0.98518600  0.56132600  0.10053200  1
  S  S38  1  0.79174800  0.78213300  0.66404900  1
  S  S39  1  0.78839500  0.28543400  0.66023300  1
  S  S40  1  0.77217000  0.28597400  0.15767500  1
  S  S41  1  0.77865800  0.77785300  0.16520400  1
  S  S42  1  0.72148900  0.35969500  0.83732300  1
  S  S43  1  0.70950500  0.86240000  0.83342300  1
  S  S44  1  0.72220600  0.86610800  0.33083800  1
  S  S45  1  0.70878000  0.35151400  0.34202100  1
  S  S46  1  0.50283500  0.49611700  0.91884700  1
  S  S47  1  0.49742300  0.02087000  0.89826600  1
  S  S48  1  0.50257700  0.02087000  0.39826600  1
  S  S49  1  0.49716500  0.49611700  0.41884700  1
  S  S50  1  0.51509100  0.64308600  0.54988700  1
  S  S51  1  0.49221100  0.12798100  0.56107900  1
  S  S52  1  0.50778900  0.12798100  0.06107900  1
  S  S53  1  0.48490900  0.64308600  0.04988600  1
  S  S54  1  0.29122000  0.35151400  0.84202100  1
  S  S55  1  0.27779400  0.86610800  0.83083800  1
  S  S56  1  0.29049500  0.86240000  0.33342300  1
  S  S57  1  0.27851100  0.35969500  0.33732300  1
  S  S58  1  0.22134200  0.77785300  0.66520400  1
  S  S59  1  0.22783000  0.28597400  0.65767500  1
  S  S60  1  0.21160500  0.28543400  0.16023300  1
  S  S61  1  0.20825200  0.78213300  0.16404900  1
