# generated using pymatgen
data_Li4TiCo5O12
_symmetry_space_group_name_H-M   'P 1'
_cell_length_a   5.03809274
_cell_length_b   11.23608069
_cell_length_c   8.51221503
_cell_angle_alpha   112.25480937
_cell_angle_beta   90.00078539
_cell_angle_gamma   76.30418544
_symmetry_Int_Tables_number   1
_chemical_formula_structural   Li4TiCo5O12
_chemical_formula_sum   'Li8 Ti2 Co10 O24'
_cell_volume   431.12877917
_cell_formula_units_Z   2
loop_
 _symmetry_equiv_pos_site_id
 _symmetry_equiv_pos_as_xyz
  1  'x, y, z'
loop_
 _atom_site_type_symbol
 _atom_site_label
 _atom_site_symmetry_multiplicity
 _atom_site_fract_x
 _atom_site_fract_y
 _atom_site_fract_z
 _atom_site_occupancy
  Li  Li0  1  0.03083600  0.74632400  0.12925000  1
  Li  Li1  1  0.51869300  0.74445900  0.62818700  1
  Li  Li2  1  0.48127900  0.25559800  0.88406400  1
  Li  Li3  1  0.96916400  0.25362000  0.38268400  1
  Li  Li4  1  0.52734100  0.74548500  0.11939100  1
  Li  Li5  1  0.02049600  0.74530300  0.62021200  1
  Li  Li6  1  0.97945700  0.25468300  0.87519200  1
  Li  Li7  1  0.47270100  0.25454000  0.37370900  1
  Ti  Ti8  1  0.00016800  0.99995800  0.00476200  1
  Ti  Ti9  1  0.49984500  0.00007900  0.50643900  1
  Co  Co10  1  0.74995400  0.50009400  0.75034600  1
  Co  Co11  1  0.00000000  0.00002600  0.66286600  1
  Co  Co12  1  0.50000100  0.99996400  0.16358200  1
  Co  Co13  1  0.49997600  0.00001000  0.83472900  1
  Co  Co14  1  0.99999900  0.99997100  0.33136600  1
  Co  Co15  1  0.25006500  0.49991200  0.25025300  1
  Co  Co16  1  0.25032000  0.50031900  0.91493300  1
  Co  Co17  1  0.74969200  0.49968600  0.41463100  1
  Co  Co18  1  0.75038700  0.50022400  0.08573100  1
  Co  Co19  1  0.24962300  0.49978100  0.58552400  1
  O  O20  1  0.37454600  0.59508000  0.79728800  1
  O  O21  1  0.87428100  0.59514200  0.29801500  1
  O  O22  1  0.62552600  0.40487600  0.20220600  1
  O  O23  1  0.12568700  0.40490500  0.70292200  1
  O  O24  1  0.78636000  0.09948700  0.54683600  1
  O  O25  1  0.28844500  0.09983100  0.04881200  1
  O  O26  1  0.21374400  0.90043700  0.44735000  1
  O  O27  1  0.71142300  0.90024300  0.94903300  1
  O  O28  1  0.30382600  0.11407100  0.72874400  1
  O  O29  1  0.79578200  0.11408300  0.22624000  1
  O  O30  1  0.20426000  0.88579600  0.11211700  1
  O  O31  1  0.69608600  0.88601100  0.61467700  1
  O  O32  1  0.80387700  0.11061500  0.88122700  1
  O  O33  1  0.27830400  0.10268100  0.37803900  1
  O  O34  1  0.72172300  0.89733700  0.27542200  1
  O  O35  1  0.19609800  0.88934700  0.77057000  1
  O  O36  1  0.13862500  0.40115800  0.03312300  1
  O  O37  1  0.63713400  0.40063200  0.53299500  1
  O  O38  1  0.63857600  0.40118200  0.86853800  1
  O  O39  1  0.13754000  0.40005300  0.36821600  1
  O  O40  1  0.36290700  0.59937400  0.13235900  1
  O  O41  1  0.86137900  0.59885800  0.63194100  1
  O  O42  1  0.86244100  0.59994700  0.96815400  1
  O  O43  1  0.36143400  0.59881800  0.46732300  1
