# generated using pymatgen
data_Li7Mn5O12
_symmetry_space_group_name_H-M   'P 1'
_cell_length_a   6.04029676
_cell_length_b   9.85708354
_cell_length_c   8.68438787
_cell_angle_alpha   69.06254640
_cell_angle_beta   109.74755745
_cell_angle_gamma   85.77526491
_symmetry_Int_Tables_number   1
_chemical_formula_structural   Li7Mn5O12
_chemical_formula_sum   'Li14 Mn10 O24'
_cell_volume   443.26902116
_cell_formula_units_Z   2
loop_
 _symmetry_equiv_pos_site_id
 _symmetry_equiv_pos_as_xyz
  1  'x, y, z'
loop_
 _atom_site_type_symbol
 _atom_site_label
 _atom_site_symmetry_multiplicity
 _atom_site_fract_x
 _atom_site_fract_y
 _atom_site_fract_z
 _atom_site_occupancy
  Li  Li0  1  0.50012300  0.00001000  0.00006900  1
  Li  Li1  1  0.99996200  0.50002900  0.50004100  1
  Li  Li2  1  0.92081300  0.33524500  0.82959100  1
  Li  Li3  1  0.40747700  0.82024000  0.33887100  1
  Li  Li4  1  0.07916400  0.66477000  0.17040000  1
  Li  Li5  1  0.59225300  0.17956000  0.66107800  1
  Li  Li6  1  0.40084200  0.34138100  0.82042000  1
  Li  Li7  1  0.90995000  0.83700700  0.32095500  1
  Li  Li8  1  0.59909500  0.65844900  0.17965300  1
  Li  Li9  1  0.09023300  0.16301200  0.67891300  1
  Li  Li10  1  0.25719200  0.51144200  0.99204900  1
  Li  Li11  1  0.74834800  0.00249100  0.49612100  1
  Li  Li12  1  0.74283900  0.48847800  0.00797800  1
  Li  Li13  1  0.25181800  0.99742200  0.50386800  1
  Mn  Mn14  1  0.49991700  0.49990200  0.50004800  1
  Mn  Mn15  1  0.99999100  0.00006400  0.99971700  1
  Mn  Mn16  1  0.83518600  0.66279600  0.66558200  1
  Mn  Mn17  1  0.33111800  0.16236700  0.16783400  1
  Mn  Mn18  1  0.16462600  0.33715300  0.33444600  1
  Mn  Mn19  1  0.66887200  0.83749100  0.83224400  1
  Mn  Mn20  1  0.32485900  0.66140300  0.66611200  1
  Mn  Mn21  1  0.82416000  0.16255300  0.16695400  1
  Mn  Mn22  1  0.67517700  0.33856400  0.33395000  1
  Mn  Mn23  1  0.17587400  0.83763600  0.83297600  1
  O  O24  1  0.72915000  0.15774800  0.93422500  1
  O  O25  1  0.22873700  0.65913700  0.43079400  1
  O  O26  1  0.27090700  0.84237500  0.06568500  1
  O  O27  1  0.77123900  0.34070000  0.56934600  1
  O  O28  1  0.19199000  0.14905300  0.93874500  1
  O  O29  1  0.68779800  0.65062900  0.43336800  1
  O  O30  1  0.80815400  0.85108200  0.06111000  1
  O  O31  1  0.31207000  0.34919300  0.56675000  1
  O  O32  1  0.03221100  0.30702600  0.10531200  1
  O  O33  1  0.56635400  0.82823800  0.59799500  1
  O  O34  1  0.96786500  0.69308500  0.89473500  1
  O  O35  1  0.43370900  0.17179800  0.40209000  1
  O  O36  1  0.56011600  0.32576200  0.09489500  1
  O  O37  1  0.06428200  0.82916100  0.59737600  1
  O  O38  1  0.43983100  0.67436400  0.90519200  1
  O  O39  1  0.93575000  0.17093100  0.40273400  1
  O  O40  1  0.40044400  0.49805300  0.26289900  1
  O  O41  1  0.90488400  0.99953400  0.76342600  1
  O  O42  1  0.59943300  0.50190200  0.73709200  1
  O  O43  1  0.09507900  0.00063900  0.23628500  1
  O  O44  1  0.89338100  0.49521000  0.24739700  1
  O  O45  1  0.36718600  0.97650400  0.76158300  1
  O  O46  1  0.10658600  0.50477100  0.75268300  1
  O  O47  1  0.63295500  0.02363900  0.23841100  1
