# generated using pymatgen
data_Li4Fe3(SiO4)3
_symmetry_space_group_name_H-M   'P 1'
_cell_length_a   8.79701000
_cell_length_b   8.92654800
_cell_length_c   17.70063842
_cell_angle_alpha   59.79571606
_cell_angle_beta   90.00000000
_cell_angle_gamma   90.00000000
_symmetry_Int_Tables_number   1
_chemical_formula_structural   Li4Fe3(SiO4)3
_chemical_formula_sum   'Li16 Fe12 Si12 O48'
_cell_volume   1201.26966895
_cell_formula_units_Z   4
loop_
 _symmetry_equiv_pos_site_id
 _symmetry_equiv_pos_as_xyz
  1  'x, y, z'
loop_
 _atom_site_type_symbol
 _atom_site_label
 _atom_site_symmetry_multiplicity
 _atom_site_fract_x
 _atom_site_fract_y
 _atom_site_fract_z
 _atom_site_occupancy
  Li  Li0  1  0.94154700  0.88025400  0.09655900  1
  Li  Li1  1  0.43760000  0.57468600  0.31723300  1
  Li  Li2  1  0.06737500  0.30406300  0.53830000  1
  Li  Li3  1  0.70156800  0.99539800  0.75173400  1
  Li  Li4  1  0.20156800  0.00460200  0.74826600  1
  Li  Li5  1  0.56737500  0.69593700  0.96170000  1
  Li  Li6  1  0.93760000  0.42531400  0.18276700  1
  Li  Li7  1  0.44154700  0.11974600  0.40344100  1
  Li  Li8  1  0.55845300  0.88025400  0.59655900  1
  Li  Li9  1  0.06240000  0.57468600  0.81723300  1
  Li  Li10  1  0.43262500  0.30406300  0.03830000  1
  Li  Li11  1  0.79843200  0.99539800  0.25173400  1
  Li  Li12  1  0.29843200  0.00460200  0.24826600  1
  Li  Li13  1  0.93262500  0.69593700  0.46170000  1
  Li  Li14  1  0.56240000  0.42531400  0.68276700  1
  Li  Li15  1  0.05845300  0.11974600  0.90344100  1
  Fe  Fe16  1  0.35975200  0.03311100  0.90952400  1
  Fe  Fe17  1  0.14621700  0.64848800  0.26922800  1
  Fe  Fe18  1  0.36695700  0.33169800  0.57227400  1
  Fe  Fe19  1  0.86695700  0.66830200  0.92772600  1
  Fe  Fe20  1  0.64621700  0.35151200  0.23077200  1
  Fe  Fe21  1  0.85975200  0.96688900  0.59047600  1
  Fe  Fe22  1  0.14024800  0.03311100  0.40952400  1
  Fe  Fe23  1  0.35378300  0.64848800  0.76922800  1
  Fe  Fe24  1  0.13304300  0.33169800  0.07227400  1
  Fe  Fe25  1  0.63304300  0.66830200  0.42772600  1
  Fe  Fe26  1  0.85378300  0.35151200  0.73077200  1
  Fe  Fe27  1  0.64024800  0.96688900  0.09047600  1
  Si  Si28  1  0.72643300  0.03232500  0.90834700  1
  Si  Si29  1  0.78324200  0.64861200  0.26530300  1
  Si  Si30  1  0.73232400  0.31560500  0.57370800  1
  Si  Si31  1  0.23232400  0.68439500  0.92629200  1
  Si  Si32  1  0.28324200  0.35138800  0.23469700  1
  Si  Si33  1  0.22643300  0.96767500  0.59165300  1
  Si  Si34  1  0.77356700  0.03232500  0.40834700  1
  Si  Si35  1  0.71675800  0.64861200  0.76530300  1
  Si  Si36  1  0.76767600  0.31560500  0.07370800  1
  Si  Si37  1  0.26767600  0.68439500  0.42629200  1
  Si  Si38  1  0.21675800  0.35138800  0.73469700  1
  Si  Si39  1  0.27356700  0.96767500  0.09165300  1
  O  O40  1  0.55698300  0.12127400  0.89609800  1
  O  O41  1  0.77743100  0.94461800  0.01224600  1
  O  O42  1  0.14121900  0.82086600  0.14853000  1
  O  O43  1  0.21227700  0.48264200  0.47981300  1
  O  O44  1  0.21909400  0.13948800  0.81135300  1
  O  O45  1  0.64085700  0.60700300  0.33049100  1
  O  O46  1  0.71799300  0.25406200  0.68118300  1
  O  O47  1  0.94996900  0.61455700  0.31300000  1
  O  O48  1  0.56815800  0.27832800  0.54521300  1
  O  O49  1  0.71894600  0.88660800  0.87816300  1
  O  O50  1  0.87049600  0.19653500  0.56716800  1
  O  O51  1  0.77600300  0.53864800  0.21276300  1
  O  O52  1  0.37049600  0.80346500  0.93283200  1
  O  O53  1  0.21894600  0.11339200  0.62183700  1
  O  O54  1  0.27600300  0.46135200  0.28723700  1
  O  O55  1  0.06815800  0.72167200  0.95478700  1
  O  O56  1  0.44996900  0.38544300  0.18700000  1
  O  O57  1  0.21799300  0.74593800  0.81881700  1
  O  O58  1  0.71909400  0.86051200  0.68864700  1
  O  O59  1  0.14085700  0.39299700  0.16950900  1
  O  O60  1  0.71227700  0.51735800  0.02018700  1
  O  O61  1  0.64121900  0.17913400  0.35147000  1
  O  O62  1  0.27743100  0.05538200  0.48775400  1
  O  O63  1  0.05698300  0.87872600  0.60390200  1
  O  O64  1  0.94301700  0.12127400  0.39609800  1
  O  O65  1  0.72256900  0.94461800  0.51224600  1
  O  O66  1  0.35878100  0.82086600  0.64853000  1
  O  O67  1  0.28772300  0.48264200  0.97981300  1
  O  O68  1  0.85914300  0.60700300  0.83049100  1
  O  O69  1  0.28090600  0.13948800  0.31135300  1
  O  O70  1  0.78200700  0.25406200  0.18118300  1
  O  O71  1  0.55003100  0.61455700  0.81300000  1
  O  O72  1  0.93184200  0.27832800  0.04521300  1
  O  O73  1  0.72399700  0.53864800  0.71276300  1
  O  O74  1  0.78105400  0.88660800  0.37816300  1
  O  O75  1  0.62950400  0.19653500  0.06716800  1
  O  O76  1  0.22399700  0.46135200  0.78723700  1
  O  O77  1  0.12950400  0.80346500  0.43283200  1
  O  O78  1  0.28105400  0.11339200  0.12183700  1
  O  O79  1  0.43184200  0.72167200  0.45478700  1
  O  O80  1  0.05003100  0.38544300  0.68700000  1
  O  O81  1  0.28200700  0.74593800  0.31881700  1
  O  O82  1  0.35914300  0.39299700  0.66950900  1
  O  O83  1  0.78090600  0.86051200  0.18864700  1
  O  O84  1  0.78772300  0.51735800  0.52018700  1
  O  O85  1  0.85878100  0.17913400  0.85147000  1
  O  O86  1  0.22256900  0.05538200  0.98775400  1
  O  O87  1  0.44301700  0.87872600  0.10390200  1
