# generated using pymatgen
data_Li9Mn2Co5O16
_symmetry_space_group_name_H-M   'P 1'
_cell_length_a   5.85213800
_cell_length_b   5.88202191
_cell_length_c   9.73565888
_cell_angle_alpha   91.55044991
_cell_angle_beta   98.86536515
_cell_angle_gamma   119.38959533
_symmetry_Int_Tables_number   1
_chemical_formula_structural   Li9Mn2Co5O16
_chemical_formula_sum   'Li9 Mn2 Co5 O16'
_cell_volume   286.44704951
_cell_formula_units_Z   1
loop_
 _symmetry_equiv_pos_site_id
 _symmetry_equiv_pos_as_xyz
  1  'x, y, z'
loop_
 _atom_site_type_symbol
 _atom_site_label
 _atom_site_symmetry_multiplicity
 _atom_site_fract_x
 _atom_site_fract_y
 _atom_site_fract_z
 _atom_site_occupancy
  Li  Li0  1  0.25172700  0.11590700  0.75212400  1
  Li  Li1  1  0.99739700  0.24993500  0.50313300  1
  Li  Li2  1  0.74897100  0.37525900  0.24984100  1
  Li  Li3  1  0.50382800  0.50429200  0.99319200  1
  Li  Li4  1  0.25062900  0.62954200  0.75032300  1
  Li  Li5  1  0.99393100  0.74241600  0.50767500  1
  Li  Li6  1  0.74819800  0.87518800  0.24925200  1
  Li  Li7  1  0.50242400  0.00091000  0.99780400  1
  Li  Li8  1  0.74937600  0.62494700  0.74826600  1
  Mn  Mn9  1  0.99871600  0.99618100  0.99630000  1
  Mn  Mn10  1  0.49809700  0.74682000  0.50294200  1
  Co  Co11  1  0.50353700  0.25217800  0.50395900  1
  Co  Co12  1  0.24875300  0.87537600  0.25006700  1
  Co  Co13  1  0.98961800  0.50076500  0.99129900  1
  Co  Co14  1  0.75240700  0.12115300  0.74806000  1
  Co  Co15  1  0.25322600  0.37902500  0.24920400  1
  O  O16  1  0.11864200  0.81827400  0.88692500  1
  O  O17  1  0.84569400  0.93258200  0.62096900  1
  O  O18  1  0.60471200  0.04789800  0.38862600  1
  O  O19  1  0.35487700  0.17815100  0.12566900  1
  O  O20  1  0.11713000  0.29309200  0.88187800  1
  O  O21  1  0.83941300  0.41109600  0.62136900  1
  O  O22  1  0.60843600  0.57681600  0.37395900  1
  O  O23  1  0.34897500  0.68430200  0.12911900  1
  O  O24  1  0.38739700  0.44810700  0.60674200  1
  O  O25  1  0.14649500  0.57545600  0.37532200  1
  O  O26  1  0.88725900  0.71144500  0.11661000  1
  O  O27  1  0.65686000  0.83493900  0.88246000  1
  O  O28  1  0.38007400  0.91727800  0.62345000  1
  O  O29  1  0.16053400  0.07675800  0.37335800  1
  O  O30  1  0.90175700  0.19410100  0.12362500  1
  O  O31  1  0.65090800  0.30981400  0.87647500  1
