# generated using pymatgen
data_Li5MnO3F
_symmetry_space_group_name_H-M   'P 1'
_cell_length_a   4.73430048
_cell_length_b   9.46180887
_cell_length_c   9.47473167
_cell_angle_alpha   89.92355464
_cell_angle_beta   90.20177451
_cell_angle_gamma   90.06959670
_symmetry_Int_Tables_number   1
_chemical_formula_structural   Li5MnO3F
_chemical_formula_sum   'Li20 Mn4 O12 F4'
_cell_volume   424.41772365
_cell_formula_units_Z   4
loop_
 _symmetry_equiv_pos_site_id
 _symmetry_equiv_pos_as_xyz
  1  'x, y, z'
loop_
 _atom_site_type_symbol
 _atom_site_label
 _atom_site_symmetry_multiplicity
 _atom_site_fract_x
 _atom_site_fract_y
 _atom_site_fract_z
 _atom_site_occupancy
  Li  Li0  1  0.95524800  0.47182900  0.22369400  1
  Li  Li1  1  0.95529900  0.97187000  0.72385800  1
  Li  Li2  1  0.03234400  0.71823900  0.73997600  1
  Li  Li3  1  0.03241000  0.21821800  0.23997100  1
  Li  Li4  1  0.54300300  0.73346000  0.75854000  1
  Li  Li5  1  0.54304500  0.23346700  0.25856400  1
  Li  Li6  1  0.55387500  0.19483900  0.99316300  1
  Li  Li7  1  0.55394000  0.69489100  0.49315700  1
  Li  Li8  1  0.01772600  0.69947500  0.99796300  1
  Li  Li9  1  0.01775000  0.19956000  0.49800500  1
  Li  Li10  1  0.51637800  0.77200600  0.99942900  1
  Li  Li11  1  0.51649000  0.27206300  0.49946200  1
  Li  Li12  1  0.46656200  0.71381800  0.24117100  1
  Li  Li13  1  0.46652700  0.21379500  0.74119900  1
  Li  Li14  1  0.95642800  0.73512500  0.25664000  1
  Li  Li15  1  0.95644000  0.23511100  0.75668700  1
  Li  Li16  1  0.98056400  0.47699900  0.79946500  1
  Li  Li17  1  0.98048900  0.97703400  0.29962100  1
  Li  Li18  1  0.48084000  0.47273100  0.72477600  1
  Li  Li19  1  0.48078100  0.97273400  0.22485500  1
  Mn  Mn20  1  0.98144400  0.47609600  0.51176800  1
  Mn  Mn21  1  0.51814800  0.98481100  0.50191800  1
  Mn  Mn22  1  0.98109100  0.97588000  0.01193300  1
  Mn  Mn23  1  0.51822700  0.48488700  0.00171200  1
  O  O24  1  0.81252300  0.83986200  0.86799400  1
  O  O25  1  0.81276400  0.33986700  0.36796700  1
  O  O26  1  0.74211900  0.61769200  0.12529100  1
  O  O27  1  0.74226100  0.11762600  0.62542400  1
  O  O28  1  0.75697100  0.60023800  0.64307200  1
  O  O29  1  0.75697000  0.10022800  0.14312400  1
  O  O30  1  0.27922600  0.60928800  0.86684400  1
  O  O31  1  0.27915000  0.10918700  0.36693000  1
  O  O32  1  0.68780800  0.34246700  0.86433400  1
  O  O33  1  0.68778200  0.84247200  0.36432800  1
  O  O34  1  0.22240900  0.84104300  0.13323200  1
  O  O35  1  0.22239800  0.34107500  0.63324500  1
  F  F36  1  0.27885400  0.34114800  0.13760100  1
  F  F37  1  0.27887500  0.84115500  0.63757800  1
  F  F38  1  0.21736000  0.60892300  0.36272900  1
  F  F39  1  0.21747900  0.10878700  0.86278400  1
