# generated using pymatgen
data_Li3V3P8O29
_symmetry_space_group_name_H-M   'P 1'
_cell_length_a   9.74115000
_cell_length_b   9.75304970
_cell_length_c   14.32080080
_cell_angle_alpha   90.36274774
_cell_angle_beta   89.91691773
_cell_angle_gamma   119.91522354
_symmetry_Int_Tables_number   1
_chemical_formula_structural   Li3V3P8O29
_chemical_formula_sum   'Li6 V6 P16 O58'
_cell_volume   1179.25961390
_cell_formula_units_Z   2
loop_
 _symmetry_equiv_pos_site_id
 _symmetry_equiv_pos_as_xyz
  1  'x, y, z'
loop_
 _atom_site_type_symbol
 _atom_site_label
 _atom_site_symmetry_multiplicity
 _atom_site_fract_x
 _atom_site_fract_y
 _atom_site_fract_z
 _atom_site_occupancy
  Li  Li0  1  0.08943000  0.32423100  0.44534400  1
  Li  Li1  1  0.69133900  0.92039100  0.93887600  1
  Li  Li2  1  0.09576600  0.77572900  0.94001800  1
  Li  Li3  1  0.22918100  0.90739600  0.44296100  1
  Li  Li4  1  0.77419800  0.68651500  0.05948200  1
  Li  Li5  1  0.93974900  0.95892100  0.49623800  1
  V  V6  1  0.56750200  0.00452400  0.74619700  1
  V  V7  1  0.43699900  0.00068000  0.25052500  1
  V  V8  1  0.00253400  0.43283000  0.24637900  1
  V  V9  1  0.99694700  0.56113200  0.74892900  1
  V  V10  1  0.43357400  0.43261600  0.75068300  1
  V  V11  1  0.55833600  0.56519600  0.25735600  1
  P  P12  1  0.23065200  0.31303700  0.15405600  1
  P  P13  1  0.08740500  0.31126700  0.65913100  1
  P  P14  1  0.69438300  0.77572400  0.66261600  1
  P  P15  1  0.33715700  0.67144300  0.86815200  1
  P  P16  1  0.32881200  0.66708600  0.36983600  1
  P  P17  1  0.68124200  0.90825200  0.15786900  1
  P  P18  1  0.78042500  0.08488800  0.33845000  1
  P  P19  1  0.09025900  0.77122200  0.15799000  1
  P  P20  1  0.91491100  0.22559500  0.84056900  1
  P  P21  1  0.22428300  0.91135700  0.65751300  1
  P  P22  1  0.31227200  0.08901000  0.83634700  1
  P  P23  1  0.66609700  0.33407600  0.63308000  1
  P  P24  1  0.66593500  0.33577100  0.13475700  1
  P  P25  1  0.30485100  0.22151000  0.33746200  1
  P  P26  1  0.91483500  0.69147700  0.33701800  1
  P  P27  1  0.77132200  0.68206700  0.84363700  1
  O  O28  1  0.20678200  0.21643200  0.41819800  1
  O  O29  1  0.25920800  0.34351500  0.66964400  1
  O  O30  1  0.99974800  0.22737600  0.92552000  1
  O  O31  1  0.08590300  0.34019100  0.17037800  1
  O  O32  1  0.38061600  0.47534400  0.18147900  1
  O  O33  1  0.34477400  0.52883200  0.82015500  1
  O  O34  1  0.53935700  0.61540500  0.67277000  1
  O  O35  1  0.76192700  0.75746900  0.93356600  1
  O  O36  1  0.66119700  0.74048600  0.16687000  1
  O  O37  1  0.18589500  0.51289100  0.32702100  1
  O  O38  1  0.08992800  0.47162200  0.67553100  1
  O  O39  1  0.48256100  0.67334400  0.32643700  1
  O  O40  1  0.34254200  0.67254000  0.97183400  1
  O  O41  1  0.32468100  0.66355700  0.47341800  1
  O  O42  1  0.48460500  0.82333000  0.82736500  1
  O  O43  1  0.10090200  0.61982500  0.17717900  1
  O  O44  1  0.18258200  0.66468700  0.82954700  1
  O  O45  1  0.65383400  0.91131500  0.67082100  1
  O  O46  1  0.79911000  0.01056700  0.24078700  1
  O  O47  1  0.79776700  0.00157000  0.41930700  1
  O  O48  1  0.74388000  0.97985200  0.06591000  1
  O  O49  1  0.51900500  0.89818800  0.18172200  1
  O  O50  1  0.32447500  0.81533000  0.32998700  1
  O  O51  1  0.74132900  0.08246900  0.83573900  1
  O  O52  1  0.38221500  0.91050200  0.67320500  1
  O  O53  1  0.08458900  0.74111100  0.67380400  1
  O  O54  1  0.99150400  0.20060700  0.74465700  1
  O  O55  1  0.01609000  0.23544400  0.56789800  1
  O  O56  1  0.00262700  0.79849600  0.41668000  1
  O  O57  1  0.91717500  0.26080600  0.33585900  1
  O  O58  1  0.61811500  0.07996300  0.32808300  1
  O  O59  1  0.25777200  0.91684000  0.16925400  1
  O  O60  1  0.67102300  0.18698200  0.67656500  1
  O  O61  1  0.47349200  0.09550300  0.81958000  1
  O  O62  1  0.22425100  0.99445300  0.91821600  1
  O  O63  1  0.21432200  0.97536400  0.56549500  1
  O  O64  1  0.21023400  0.01311100  0.74098100  1
  O  O65  1  0.34102100  0.08283100  0.33884200  1
  O  O66  1  0.81757900  0.34086000  0.18033600  1
  O  O67  1  0.90692300  0.37972600  0.82095300  1
  O  O68  1  0.52404600  0.18355100  0.18192300  1
  O  O69  1  0.66922100  0.33222900  0.03165200  1
  O  O70  1  0.67081700  0.33429900  0.52988300  1
  O  O71  1  0.51769900  0.33023600  0.67770800  1
  O  O72  1  0.92284700  0.53816100  0.32760800  1
  O  O73  1  0.81429100  0.48399900  0.67867100  1
  O  O74  1  0.34253400  0.26076000  0.83361700  1
  O  O75  1  0.21214300  0.19871500  0.24111400  1
  O  O76  1  0.23637400  0.24358500  0.06441000  1
  O  O77  1  0.46601500  0.38056800  0.32768500  1
  O  O78  1  0.66243600  0.48281400  0.17520400  1
  O  O79  1  0.62116200  0.52187500  0.82433400  1
  O  O80  1  0.91933900  0.66141600  0.84155900  1
  O  O81  1  0.00898800  0.76016700  0.06736200  1
  O  O82  1  0.98748700  0.78723800  0.24006800  1
  O  O83  1  0.73968900  0.65247300  0.33308400  1
  O  O84  1  0.79446200  0.79509400  0.58055200  1
  O  O85  1  0.79297700  0.79740100  0.75881800  1
