# generated using pymatgen
data_Li7Mn4CoO12
_symmetry_space_group_name_H-M   'P 1'
_cell_length_a   5.94515713
_cell_length_b   10.19852484
_cell_length_c   7.64224166
_cell_angle_alpha   76.72565965
_cell_angle_beta   98.45609643
_cell_angle_gamma   103.91854725
_symmetry_Int_Tables_number   1
_chemical_formula_structural   Li7Mn4CoO12
_chemical_formula_sum   'Li14 Mn8 Co2 O24'
_cell_volume   435.66892354
_cell_formula_units_Z   2
loop_
 _symmetry_equiv_pos_site_id
 _symmetry_equiv_pos_as_xyz
  1  'x, y, z'
loop_
 _atom_site_type_symbol
 _atom_site_label
 _atom_site_symmetry_multiplicity
 _atom_site_fract_x
 _atom_site_fract_y
 _atom_site_fract_z
 _atom_site_occupancy
  Li  Li0  1  0.33333400  0.00000100  0.33333400  1
  Li  Li1  1  0.83333300  0.00000100  0.33333300  1
  Li  Li2  1  0.17421500  0.24182800  0.18420800  1
  Li  Li3  1  0.67315700  0.24162300  0.18406400  1
  Li  Li4  1  0.49244600  0.75817300  0.48245700  1
  Li  Li5  1  0.99350600  0.75837800  0.48260300  1
  Li  Li6  1  0.67667600  0.75437800  0.17567700  1
  Li  Li7  1  0.17581200  0.75420000  0.17575400  1
  Li  Li8  1  0.49085300  0.24580100  0.49091100  1
  Li  Li9  1  0.98998900  0.24562400  0.49098800  1
  Li  Li10  1  0.33312200  0.25330200  0.83460300  1
  Li  Li11  1  0.83325900  0.25334600  0.83427400  1
  Li  Li12  1  0.83340500  0.74665400  0.83239200  1
  Li  Li13  1  0.33354200  0.74669800  0.83206100  1
  Mn  Mn14  1  0.49647000  0.99587900  0.01050700  1
  Mn  Mn15  1  0.99655100  0.99594600  0.01053500  1
  Mn  Mn16  1  0.17019600  0.00411500  0.65616800  1
  Mn  Mn17  1  0.67012800  0.00404700  0.65613200  1
  Mn  Mn18  1  0.50215000  0.49889500  0.00345900  1
  Mn  Mn19  1  0.00175200  0.49872900  0.00307100  1
  Mn  Mn20  1  0.66489600  0.50127300  0.66358700  1
  Mn  Mn21  1  0.16450100  0.50110000  0.66320100  1
  Co  Co22  1  0.33333300  0.50000000  0.33333300  1
  Co  Co23  1  0.83333200  0.50000100  0.33333300  1
  O  O24  1  0.30434700  0.10775000  0.06704500  1
  O  O25  1  0.80434900  0.10783800  0.06701800  1
  O  O26  1  0.86232500  0.89216300  0.59964900  1
  O  O27  1  0.36232700  0.89225100  0.59962400  1
  O  O28  1  0.34924000  0.61308900  0.09719600  1
  O  O29  1  0.84848700  0.61412600  0.09493300  1
  O  O30  1  0.31742700  0.38691200  0.56947000  1
  O  O31  1  0.81818000  0.38587400  0.57173200  1
  O  O32  1  0.17212500  0.11844700  0.43592100  1
  O  O33  1  0.67201100  0.11819700  0.43578900  1
  O  O34  1  0.49454600  0.88155400  0.23074900  1
  O  O35  1  0.99466100  0.88180400  0.23088200  1
  O  O36  1  0.67948100  0.61615300  0.42109100  1
  O  O37  1  0.17883500  0.61699400  0.42192900  1
  O  O38  1  0.48783100  0.38300600  0.24473700  1
  O  O39  1  0.98718500  0.38384600  0.24557700  1
  O  O40  1  0.48354600  0.10594400  0.74940000  1
  O  O41  1  0.98362700  0.10593300  0.74942700  1
  O  O42  1  0.68305000  0.89406800  0.91724400  1
  O  O43  1  0.18312900  0.89405800  0.91727100  1
  O  O44  1  0.51799200  0.61958200  0.75975900  1
  O  O45  1  0.01887400  0.61947500  0.76072100  1
  O  O46  1  0.64779100  0.38052600  0.90594600  1
  O  O47  1  0.14867500  0.38041800  0.90690600  1
