# generated using pymatgen
data_LiCr(SiO3)2
_symmetry_space_group_name_H-M   'P 1'
_cell_length_a   6.54279304
_cell_length_b   6.54187586
_cell_length_c   10.71076571
_cell_angle_alpha   74.76364963
_cell_angle_beta   74.80663331
_cell_angle_gamma   83.68809986
_symmetry_Int_Tables_number   1
_chemical_formula_structural   LiCr(SiO3)2
_chemical_formula_sum   'Li4 Cr4 Si8 O24'
_cell_volume   426.45320050
_cell_formula_units_Z   4
loop_
 _symmetry_equiv_pos_site_id
 _symmetry_equiv_pos_as_xyz
  1  'x, y, z'
loop_
 _atom_site_type_symbol
 _atom_site_label
 _atom_site_symmetry_multiplicity
 _atom_site_fract_x
 _atom_site_fract_y
 _atom_site_fract_z
 _atom_site_occupancy
  Li  Li0  1  0.25913900  0.74086200  0.37498400  1
  Li  Li1  1  0.25911900  0.74090900  0.87498500  1
  Li  Li2  1  0.74086200  0.25913700  0.12501600  1
  Li  Li3  1  0.74087600  0.25909700  0.62501500  1
  Cr  Cr4  1  0.90697000  0.09297400  0.87522600  1
  Cr  Cr5  1  0.09302900  0.90702800  0.62477400  1
  Cr  Cr6  1  0.90689400  0.09310900  0.37517600  1
  Cr  Cr7  1  0.09310600  0.90688700  0.12482400  1
  Si  Si8  1  0.79277000  0.61101500  0.38303300  1
  Si  Si9  1  0.79279400  0.61098500  0.88302600  1
  Si  Si10  1  0.20723000  0.38898300  0.11696800  1
  Si  Si11  1  0.20720600  0.38901500  0.61697400  1
  Si  Si12  1  0.61074100  0.79269200  0.13304400  1
  Si  Si13  1  0.61070000  0.79270600  0.63305100  1
  Si  Si14  1  0.38926000  0.20730800  0.36695600  1
  Si  Si15  1  0.38929900  0.20729400  0.86695000  1
  O  O16  1  0.35346500  0.35787800  0.47225400  1
  O  O17  1  0.35346000  0.35786600  0.97225200  1
  O  O18  1  0.35788300  0.35351800  0.22224400  1
  O  O19  1  0.35789300  0.35350900  0.72224000  1
  O  O20  1  0.64653600  0.64212200  0.02774600  1
  O  O21  1  0.64654000  0.64213400  0.52774800  1
  O  O22  1  0.64211800  0.64648200  0.27775600  1
  O  O23  1  0.64210800  0.64649100  0.77776000  1
  O  O24  1  0.79857100  0.96945500  0.07468500  1
  O  O25  1  0.79856200  0.96947000  0.57467300  1
  O  O26  1  0.20142900  0.03054500  0.42531500  1
  O  O27  1  0.20143700  0.03053000  0.92532700  1
  O  O28  1  0.96951100  0.79898700  0.32453900  1
  O  O29  1  0.96949500  0.79901200  0.82452700  1
  O  O30  1  0.03048900  0.20101200  0.17546200  1
  O  O31  1  0.03050500  0.20098900  0.67547300  1
  O  O32  1  0.10992900  0.62859300  0.08538500  1
  O  O33  1  0.10992900  0.62862600  0.58538800  1
  O  O34  1  0.89007100  0.37140500  0.41461400  1
  O  O35  1  0.89007200  0.37137500  0.91461200  1
  O  O36  1  0.62873400  0.11001900  0.33538600  1
  O  O37  1  0.62876800  0.11000200  0.83540500  1
  O  O38  1  0.37126600  0.88998100  0.16461300  1
  O  O39  1  0.37123200  0.88999700  0.66459500  1
