# generated using pymatgen
data_LiMgSn2
_symmetry_space_group_name_H-M   'P 1'
_cell_length_a   11.52829801
_cell_length_b   11.52829801
_cell_length_c   11.52829801
_cell_angle_alpha   122.75632181
_cell_angle_beta   119.38595168
_cell_angle_gamma   88.18012949
_symmetry_Int_Tables_number   1
_chemical_formula_structural   LiMgSn2
_chemical_formula_sum   'Li1 Mg1 Sn2'
_cell_volume   1064.05711857
_cell_formula_units_Z   1
loop_
 _symmetry_equiv_pos_site_id
 _symmetry_equiv_pos_as_xyz
  1  'x, y, z'
loop_
 _atom_site_type_symbol
 _atom_site_label
 _atom_site_symmetry_multiplicity
 _atom_site_fract_x
 _atom_site_fract_y
 _atom_site_fract_z
 _atom_site_occupancy
  Li  Li0  1  0.00000000  0.00000000  0.00000000  1
  Mg  Mg1  1  0.00000000  0.50000000  0.50000000  1
  Sn  Sn2  1  0.00000000  0.24857100  0.24857100  1
  Sn  Sn3  1  0.00000000  0.75142900  0.75142900  1
