# generated using pymatgen
data_Li7Mn5O12
_symmetry_space_group_name_H-M   'P 1'
_cell_length_a   6.03939540
_cell_length_b   6.48307053
_cell_length_c   12.01269321
_cell_angle_alpha   102.87150377
_cell_angle_beta   85.69991340
_cell_angle_gamma   77.10633011
_symmetry_Int_Tables_number   1
_chemical_formula_structural   Li7Mn5O12
_chemical_formula_sum   'Li14 Mn10 O24'
_cell_volume   443.09865363
_cell_formula_units_Z   2
loop_
 _symmetry_equiv_pos_site_id
 _symmetry_equiv_pos_as_xyz
  1  'x, y, z'
loop_
 _atom_site_type_symbol
 _atom_site_label
 _atom_site_symmetry_multiplicity
 _atom_site_fract_x
 _atom_site_fract_y
 _atom_site_fract_z
 _atom_site_occupancy
  Li  Li0  1  0.83340300  0.66667200  0.33334100  1
  Li  Li1  1  0.33330300  0.66667400  0.83331800  1
  Li  Li2  1  0.34754700  0.66714100  0.08881100  1
  Li  Li3  1  0.84405000  0.67193000  0.59233500  1
  Li  Li4  1  0.82259400  0.66147600  0.07431000  1
  Li  Li5  1  0.31909000  0.66616700  0.57784400  1
  Li  Li6  1  0.67061400  0.34308300  0.41760400  1
  Li  Li7  1  0.16780000  0.33836700  0.90621500  1
  Li  Li8  1  0.99607600  0.99019100  0.24907900  1
  Li  Li9  1  0.49887300  0.99507800  0.76043900  1
  Li  Li10  1  0.50535100  0.99054400  0.24357900  1
  Li  Li11  1  0.01394800  0.99189300  0.75349700  1
  Li  Li12  1  0.16126900  0.34282100  0.42309800  1
  Li  Li13  1  0.65269400  0.34145700  0.91316000  1
  Mn  Mn14  1  0.83328400  0.66674400  0.83336300  1
  Mn  Mn15  1  0.33342500  0.66661400  0.33332300  1
  Mn  Mn16  1  0.49694600  0.99918000  0.49672700  1
  Mn  Mn17  1  0.00037700  0.99784200  0.99620600  1
  Mn  Mn18  1  0.16971700  0.33408700  0.16993000  1
  Mn  Mn19  1  0.66623800  0.33552800  0.67050000  1
  Mn  Mn20  1  0.98923000  0.00018900  0.49582000  1
  Mn  Mn21  1  0.49426500  0.99531700  0.99569700  1
  Mn  Mn22  1  0.67757900  0.33305000  0.17081700  1
  Mn  Mn23  1  0.17225100  0.33803900  0.67092000  1
  O  O24  1  0.54783100  0.68621400  0.44773600  1
  O  O25  1  0.05054200  0.68051700  0.94798500  1
  O  O26  1  0.11901400  0.64699100  0.21891500  1
  O  O27  1  0.61610200  0.65288500  0.71868000  1
  O  O28  1  0.43473300  0.34954900  0.29404700  1
  O  O29  1  0.93063700  0.35150500  0.79212700  1
  O  O30  1  0.23208300  0.98362900  0.37260300  1
  O  O31  1  0.73587900  0.98188900  0.87458800  1
  O  O32  1  0.26565700  0.01089200  0.12253000  1
  O  O33  1  0.76373100  0.00838900  0.61807600  1
  O  O34  1  0.90296200  0.32496900  0.04860200  1
  O  O35  1  0.40092300  0.32237200  0.54415600  1
  O  O36  1  0.09035800  0.68272500  0.45361500  1
  O  O37  1  0.59342200  0.67763600  0.95421400  1
  O  O38  1  0.57646400  0.65058600  0.21301800  1
  O  O39  1  0.07312900  0.65574300  0.71246000  1
  O  O40  1  0.90671700  0.33285200  0.27413000  1
  O  O41  1  0.43470100  0.32436200  0.78380200  1
  O  O42  1  0.76001100  0.00048100  0.39255300  1
  O  O43  1  0.23189800  0.00905000  0.88287000  1
  O  O44  1  0.76175400  0.01712400  0.12644600  1
  O  O45  1  0.22622800  0.01274400  0.60764400  1
  O  O46  1  0.44038800  0.32057200  0.05903300  1
  O  O47  1  0.90491000  0.31624000  0.54023500  1
