# generated using pymatgen
data_Li3Fe3O8
_symmetry_space_group_name_H-M   'P 1'
_cell_length_a   5.84209491
_cell_length_b   10.23798960
_cell_length_c   5.91174851
_cell_angle_alpha   72.31205492
_cell_angle_beta   60.39941885
_cell_angle_gamma   90.09453987
_symmetry_Int_Tables_number   1
_chemical_formula_structural   Li3Fe3O8
_chemical_formula_sum   'Li6 Fe6 O16'
_cell_volume   287.95303190
_cell_formula_units_Z   2
loop_
 _symmetry_equiv_pos_site_id
 _symmetry_equiv_pos_as_xyz
  1  'x, y, z'
loop_
 _atom_site_type_symbol
 _atom_site_label
 _atom_site_symmetry_multiplicity
 _atom_site_fract_x
 _atom_site_fract_y
 _atom_site_fract_z
 _atom_site_occupancy
  Li  Li0  1  0.49959300  0.49979000  0.00070400  1
  Li  Li1  1  0.99968500  0.99984300  0.00113700  1
  Li  Li2  1  0.56980900  0.18759700  0.84442800  1
  Li  Li3  1  0.08507000  0.68877300  0.84631400  1
  Li  Li4  1  0.42930000  0.81205900  0.15777000  1
  Li  Li5  1  0.91407000  0.31086000  0.15519500  1
  Fe  Fe6  1  0.49979800  0.99977700  0.50136600  1
  Fe  Fe7  1  0.49970600  0.49987600  0.50059200  1
  Fe  Fe8  1  0.99981600  0.99973400  0.50103500  1
  Fe  Fe9  1  0.24487600  0.24952400  0.49555200  1
  Fe  Fe10  1  0.75397400  0.75002900  0.50643300  1
  Fe  Fe11  1  0.99954000  0.49979300  0.50068800  1
  O  O12  1  0.11211900  0.38433900  0.73103900  1
  O  O13  1  0.65845000  0.88252100  0.73564700  1
  O  O14  1  0.88699100  0.61532900  0.27045400  1
  O  O15  1  0.34083300  0.11705000  0.26656300  1
  O  O16  1  0.87897200  0.61842000  0.71110500  1
  O  O17  1  0.37284800  0.12205300  0.70200500  1
  O  O18  1  0.42721400  0.62501300  0.70673200  1
  O  O19  1  0.91461600  0.12161400  0.70802300  1
  O  O20  1  0.64351400  0.39594700  0.71275300  1
  O  O21  1  0.14010100  0.89623600  0.71466400  1
  O  O22  1  0.12015900  0.38117200  0.29043400  1
  O  O23  1  0.62639400  0.87767100  0.30017600  1
  O  O24  1  0.57190600  0.37463300  0.29473800  1
  O  O25  1  0.08471400  0.87799600  0.29414200  1
  O  O26  1  0.35559300  0.60375300  0.28858100  1
  O  O27  1  0.85926900  0.10336400  0.28770200  1
