# generated using pymatgen
data_Li9Mn2Co5O16
_symmetry_space_group_name_H-M   'P 1'
_cell_length_a   5.90922700
_cell_length_b   6.48695677
_cell_length_c   7.73876671
_cell_angle_alpha   88.98117236
_cell_angle_beta   98.11006026
_cell_angle_gamma   102.99613150
_symmetry_Int_Tables_number   1
_chemical_formula_structural   Li9Mn2Co5O16
_chemical_formula_sum   'Li9 Mn2 Co5 O16'
_cell_volume   286.13004564
_cell_formula_units_Z   1
loop_
 _symmetry_equiv_pos_site_id
 _symmetry_equiv_pos_as_xyz
  1  'x, y, z'
loop_
 _atom_site_type_symbol
 _atom_site_label
 _atom_site_symmetry_multiplicity
 _atom_site_fract_x
 _atom_site_fract_y
 _atom_site_fract_z
 _atom_site_occupancy
  Li  Li0  1  0.13068400  0.13303900  0.38648400  1
  Li  Li1  1  0.61069500  0.61545400  0.86085000  1
  Li  Li2  1  0.36891400  0.86714800  0.62009500  1
  Li  Li3  1  0.87524300  0.37870800  0.12863300  1
  Li  Li4  1  0.62711100  0.13649200  0.38241000  1
  Li  Li5  1  0.12386600  0.61729600  0.86899700  1
  Li  Li6  1  0.87760500  0.87168400  0.62217400  1
  Li  Li7  1  0.38466800  0.38072100  0.13186200  1
  Li  Li8  1  0.49706400  0.49753900  0.50054600  1
  Mn  Mn9  1  0.00197800  0.00085800  0.99950300  1
  Mn  Mn10  1  0.25377600  0.74924100  0.25303300  1
  Co  Co11  1  0.74247900  0.25110200  0.74164800  1
  Co  Co12  1  0.50247600  0.00076400  0.99951900  1
  Co  Co13  1  0.99589500  0.50118100  0.50548100  1
  Co  Co14  1  0.75126400  0.74873200  0.25510000  1
  Co  Co15  1  0.25052800  0.24943100  0.74524300  1
  O  O16  1  0.82035800  0.04142200  0.18096200  1
  O  O17  1  0.29774900  0.53612000  0.68650700  1
  O  O18  1  0.07912200  0.80799300  0.42982600  1
  O  O19  1  0.57542200  0.29137700  0.93887100  1
  O  O20  1  0.29702100  0.04881600  0.16777900  1
  O  O21  1  0.82226700  0.55693900  0.68597600  1
  O  O22  1  0.54260800  0.81057100  0.40796300  1
  O  O23  1  0.06319100  0.28980000  0.92799600  1
  O  O24  1  0.43269700  0.18740400  0.58122800  1
  O  O25  1  0.95863800  0.70964400  0.08048200  1
  O  O26  1  0.70854900  0.94325400  0.83790300  1
  O  O27  1  0.18110500  0.45978000  0.31161200  1
  O  O28  1  0.91835700  0.18899900  0.56412400  1
  O  O29  1  0.42597100  0.70851700  0.06386000  1
  O  O30  1  0.18282700  0.95510500  0.82065800  1
  O  O31  1  0.69987200  0.46487100  0.31267600  1
