# generated using pymatgen
data_Li3RuN2
_symmetry_space_group_name_H-M   'P 1'
_cell_length_a   8.44894373
_cell_length_b   9.75599974
_cell_length_c   9.75599933
_cell_angle_alpha   89.99999738
_cell_angle_beta   125.26438954
_cell_angle_gamma   54.73561215
_symmetry_Int_Tables_number   1
_chemical_formula_structural   Li3RuN2
_chemical_formula_sum   'Li24 Ru8 N16'
_cell_volume   464.28572778
_cell_formula_units_Z   8
loop_
 _symmetry_equiv_pos_site_id
 _symmetry_equiv_pos_as_xyz
  1  'x, y, z'
loop_
 _atom_site_type_symbol
 _atom_site_label
 _atom_site_symmetry_multiplicity
 _atom_site_fract_x
 _atom_site_fract_y
 _atom_site_fract_z
 _atom_site_occupancy
  Li  Li0  1  0.22697285  0.03536621  0.98861965  1
  Li  Li1  1  0.77302715  0.76233906  0.51138035  1
  Li  Li2  1  0.77302715  0.46463379  0.76164680  1
  Li  Li3  1  0.22697285  0.73766094  0.73835320  1
  Li  Li4  1  0.24973356  0.76164680  0.27371941  1
  Li  Li5  1  0.75026644  0.73835320  0.02398586  1
  Li  Li6  1  0.24973356  0.98861965  0.47601414  1
  Li  Li7  1  0.75026644  0.51138035  0.22628059  1
  Li  Li8  1  0.70229473  0.02398586  0.73766094  1
  Li  Li9  1  0.70229473  0.27371941  0.46463379  1
  Li  Li10  1  0.29770527  0.22628059  0.76233906  1
  Li  Li11  1  0.29770527  0.47601414  0.03536621  1
  Li  Li12  1  0.77302715  0.96463379  0.01138035  1
  Li  Li13  1  0.22697285  0.23766094  0.48861965  1
  Li  Li14  1  0.22697285  0.53536621  0.23835320  1
  Li  Li15  1  0.77302715  0.26233906  0.26164680  1
  Li  Li16  1  0.75026644  0.23835320  0.72628059  1
  Li  Li17  1  0.24973356  0.26164680  0.97601414  1
  Li  Li18  1  0.75026644  0.01138035  0.52398586  1
  Li  Li19  1  0.24973356  0.48861965  0.77371941  1
  Li  Li20  1  0.29770527  0.97601414  0.26233906  1
  Li  Li21  1  0.29770527  0.72628059  0.53536621  1
  Li  Li22  1  0.70229473  0.77371941  0.23766094  1
  Li  Li23  1  0.70229473  0.52398586  0.96463379  1
  Ru  Ru24  1  0.23094797  0.00000000  0.73094797  1
  Ru  Ru25  1  0.76905203  0.73094797  0.76905203  1
  Ru  Ru26  1  0.76905203  0.50000000  0.50000000  1
  Ru  Ru27  1  0.23094797  0.76905203  0.00000000  1
  Ru  Ru28  1  0.76905203  1.00000000  0.26905203  1
  Ru  Ru29  1  0.23094797  0.26905203  0.23094797  1
  Ru  Ru30  1  0.23094797  0.50000000  0.50000000  1
  Ru  Ru31  1  0.76905203  0.23094797  1.00000000  1
  N  N32  1  0.00000000  -0.00000000  0.50000000  1
  N  N33  1  0.00000000  0.50000000  0.00000000  1
  N  N34  1  0.00000000  0.50000000  0.50000000  1
  N  N35  1  0.00000000  -0.00000000  0.00000000  1
  N  N36  1  0.50000000  0.98022472  0.75000000  1
  N  N37  1  0.50000000  0.51977528  0.25000000  1
  N  N38  1  0.00000000  0.25000000  0.73022472  1
  N  N39  1  -0.00000000  0.75000000  0.76977528  1
  N  N40  1  0.53954955  0.73022472  0.51977528  1
  N  N41  1  0.46045045  0.76977528  0.98022472  1
  N  N42  1  0.50000000  0.01977528  0.25000000  1
  N  N43  1  0.50000000  0.48022472  0.75000000  1
  N  N44  1  -0.00000000  0.75000000  0.26977528  1
  N  N45  1  0.00000000  0.25000000  0.23022472  1
  N  N46  1  0.46045045  0.26977528  0.48022472  1
  N  N47  1  0.53954955  0.23022472  0.01977528  1
