# generated using pymatgen
data_Li2TiV3O8
_symmetry_space_group_name_H-M   'P 1'
_cell_length_a   6.03942385
_cell_length_b   10.28703669
_cell_length_c   6.00371486
_cell_angle_alpha   106.50170986
_cell_angle_beta   120.37358963
_cell_angle_gamma   89.58071485
_symmetry_Int_Tables_number   1
_chemical_formula_structural   Li2TiV3O8
_chemical_formula_sum   'Li4 Ti2 V6 O16'
_cell_volume   304.33016589
_cell_formula_units_Z   2
loop_
 _symmetry_equiv_pos_site_id
 _symmetry_equiv_pos_as_xyz
  1  'x, y, z'
loop_
 _atom_site_type_symbol
 _atom_site_label
 _atom_site_symmetry_multiplicity
 _atom_site_fract_x
 _atom_site_fract_y
 _atom_site_fract_z
 _atom_site_occupancy
  Li  Li0  1  0.06632500  0.18753000  0.12553400  1
  Li  Li1  1  0.56277900  0.68945800  0.12056600  1
  Li  Li2  1  0.43713300  0.31057000  0.87943100  1
  Li  Li3  1  0.93369400  0.81247500  0.87444900  1
  Ti  Ti4  1  0.25201700  0.74998600  0.49239600  1
  Ti  Ti5  1  0.74781300  0.25002300  0.50764700  1
  V  V6  1  0.49997400  0.99997700  0.49984700  1
  V  V7  1  0.00015900  0.99999300  0.50011500  1
  V  V8  1  0.99993900  0.50002800  0.00004600  1
  V  V9  1  0.99997000  0.49999000  0.50002300  1
  V  V10  1  0.49996800  0.50000200  0.49997400  1
  V  V11  1  0.50011300  0.99994000  0.99999300  1
  O  O12  1  0.12966000  0.39505400  0.24446600  1
  O  O13  1  0.63668100  0.89494900  0.26620100  1
  O  O14  1  0.36355400  0.10506000  0.73390400  1
  O  O15  1  0.87026000  0.60492400  0.75555500  1
  O  O16  1  0.35193900  0.62217900  0.70766700  1
  O  O17  1  0.86428600  0.11915200  0.71574000  1
  O  O18  1  0.90665100  0.61928900  0.25787000  1
  O  O19  1  0.41525300  0.12618800  0.26671100  1
  O  O20  1  0.34623700  0.62494000  0.25357900  1
  O  O21  1  0.87500100  0.12012600  0.28362700  1
  O  O22  1  0.12517300  0.87992400  0.71646900  1
  O  O23  1  0.65363400  0.37504300  0.74635200  1
  O  O24  1  0.58481200  0.87376700  0.73311600  1
  O  O25  1  0.09326200  0.38071700  0.74219800  1
  O  O26  1  0.13573100  0.88091100  0.28428300  1
  O  O27  1  0.64798300  0.37780400  0.29224200  1
