# generated using pymatgen
data_Li2Mn3SnO8
_symmetry_space_group_name_H-M   'P 1'
_cell_length_a   6.07065199
_cell_length_b   10.29514163
_cell_length_c   6.23503054
_cell_angle_alpha   103.36628008
_cell_angle_beta   58.59576369
_cell_angle_gamma   87.86384013
_symmetry_Int_Tables_number   1
_chemical_formula_structural   Li2Mn3SnO8
_chemical_formula_sum   'Li4 Mn6 Sn2 O16'
_cell_volume   317.69460340
_cell_formula_units_Z   2
loop_
 _symmetry_equiv_pos_site_id
 _symmetry_equiv_pos_as_xyz
  1  'x, y, z'
loop_
 _atom_site_type_symbol
 _atom_site_label
 _atom_site_symmetry_multiplicity
 _atom_site_fract_x
 _atom_site_fract_y
 _atom_site_fract_z
 _atom_site_occupancy
  Li  Li0  1  0.33100000  0.56548900  0.36569800  1
  Li  Li1  1  0.82843000  0.06538000  0.36758100  1
  Li  Li2  1  0.16901100  0.93450600  0.63429200  1
  Li  Li3  1  0.67143600  0.43461900  0.63245700  1
  Mn  Mn4  1  0.25006000  0.74999500  0.00019000  1
  Mn  Mn5  1  0.75040800  0.74985000  0.99985500  1
  Mn  Mn6  1  0.25036800  0.24980600  0.99982800  1
  Mn  Mn7  1  0.75034500  0.25016900  0.99998100  1
  Mn  Mn8  1  0.00187800  0.50052700  0.99972600  1
  Mn  Mn9  1  0.49783100  0.99968100  0.00063200  1
  Sn  Sn10  1  0.74991600  0.74998700  0.50001400  1
  Sn  Sn11  1  0.25003700  0.25000800  0.49991300  1
  O  O12  1  0.10971800  0.63998400  0.80805000  1
  O  O13  1  0.60789000  0.13856800  0.81015800  1
  O  O14  1  0.39051800  0.85996800  0.19195500  1
  O  O15  1  0.89218900  0.36135100  0.18975500  1
  O  O16  1  0.90031600  0.86330900  0.23529200  1
  O  O17  1  0.40074900  0.36344100  0.23447400  1
  O  O18  1  0.12833000  0.63604700  0.23465000  1
  O  O19  1  0.62786200  0.13628300  0.23497200  1
  O  O20  1  0.66469100  0.63234300  0.23271000  1
  O  O21  1  0.16236200  0.13230200  0.23461500  1
  O  O22  1  0.83506600  0.86764800  0.76737400  1
  O  O23  1  0.33713800  0.36756600  0.76544900  1
  O  O24  1  0.37150500  0.86400200  0.76555500  1
  O  O25  1  0.87200500  0.36392100  0.76472200  1
  O  O26  1  0.59980300  0.63655700  0.76479200  1
  O  O27  1  0.09913800  0.13669200  0.76531200  1
