# generated using pymatgen
data_Li4V5Co3O16
_symmetry_space_group_name_H-M   'P 1'
_cell_length_a   5.90121400
_cell_length_b   5.91606343
_cell_length_c   9.55991869
_cell_angle_alpha   90.72435539
_cell_angle_beta   89.77856975
_cell_angle_gamma   119.73897596
_symmetry_Int_Tables_number   1
_chemical_formula_structural   Li4V5Co3O16
_chemical_formula_sum   'Li4 V5 Co3 O16'
_cell_volume   289.77368617
_cell_formula_units_Z   1
loop_
 _symmetry_equiv_pos_site_id
 _symmetry_equiv_pos_as_xyz
  1  'x, y, z'
loop_
 _atom_site_type_symbol
 _atom_site_label
 _atom_site_symmetry_multiplicity
 _atom_site_fract_x
 _atom_site_fract_y
 _atom_site_fract_z
 _atom_site_occupancy
  Li  Li0  1  0.32906300  0.66954500  0.89868600  1
  Li  Li1  1  0.00263700  0.99961200  0.99600500  1
  Li  Li2  1  0.00029100  0.00059300  0.48801600  1
  Li  Li3  1  0.66814700  0.33376500  0.39783200  1
  V  V4  1  0.83262100  0.18378400  0.71989100  1
  V  V5  1  0.35385100  0.70440500  0.48745300  1
  V  V6  1  0.18060000  0.35812500  0.22866200  1
  V  V7  1  0.66914500  0.32719100  0.00157200  1
  V  V8  1  0.34583200  0.19583900  0.71834100  1
  Co  Co9  1  0.65644900  0.82115400  0.20993800  1
  Co  Co10  1  0.16688700  0.82299300  0.20968500  1
  Co  Co11  1  0.83187000  0.65689600  0.70867200  1
  O  O12  1  0.65366500  0.82661000  0.58954400  1
  O  O13  1  0.47746000  0.95448300  0.35587400  1
  O  O14  1  0.31694500  0.63299800  0.10390400  1
  O  O15  1  0.00932500  0.01884300  0.29600000  1
  O  O16  1  0.99833300  0.01300200  0.80403300  1
  O  O17  1  0.18314300  0.83829100  0.59444000  1
  O  O18  1  0.46836700  0.50786200  0.35497200  1
  O  O19  1  0.04282600  0.51006500  0.35645200  1
  O  O20  1  0.82328200  0.64803600  0.08081600  1
  O  O21  1  0.17074700  0.33609600  0.60164500  1
  O  O22  1  0.95437000  0.46905900  0.84641300  1
  O  O23  1  0.50050200  0.46655400  0.83915000  1
  O  O24  1  0.65956100  0.30092400  0.60170700  1
  O  O25  1  0.82627300  0.18019500  0.08986700  1
  O  O26  1  0.52254800  0.04283400  0.84163400  1
  O  O27  1  0.35556200  0.18024500  0.08663600  1
