# generated using pymatgen
data_Li6MnV3(PO4)6
_symmetry_space_group_name_H-M   'P 1'
_cell_length_a   9.80350400
_cell_length_b   9.83174941
_cell_length_c   9.84176126
_cell_angle_alpha   84.63277918
_cell_angle_beta   86.97276910
_cell_angle_gamma   87.00698526
_symmetry_Int_Tables_number   1
_chemical_formula_structural   Li6MnV3(PO4)6
_chemical_formula_sum   'Li12 Mn2 V6 P12 O48'
_cell_volume   942.06030405
_cell_formula_units_Z   2
loop_
 _symmetry_equiv_pos_site_id
 _symmetry_equiv_pos_as_xyz
  1  'x, y, z'
loop_
 _atom_site_type_symbol
 _atom_site_label
 _atom_site_symmetry_multiplicity
 _atom_site_fract_x
 _atom_site_fract_y
 _atom_site_fract_z
 _atom_site_occupancy
  Li  Li0  1  0.76348500  0.01410900  0.48951700  1
  Li  Li1  1  0.61613700  0.99507400  0.74197500  1
  Li  Li2  1  0.53512200  0.21296800  0.43300600  1
  Li  Li3  1  0.82461200  0.23146000  0.26450900  1
  Li  Li4  1  0.39279100  0.25063200  0.01453200  1
  Li  Li5  1  0.18755300  0.37241700  0.25345400  1
  Li  Li6  1  0.24112500  0.50300600  0.98817900  1
  Li  Li7  1  0.46376600  0.56298200  0.78468500  1
  Li  Li8  1  0.02649400  0.70334400  0.07327300  1
  Li  Li9  1  0.17932100  0.73325900  0.76494500  1
  Li  Li10  1  0.81120500  0.74900200  0.61954100  1
  Li  Li11  1  0.97904800  0.92852100  0.29789300  1
  Mn  Mn12  1  0.78173100  0.26211700  0.97096800  1
  Mn  Mn13  1  0.27808000  0.97489600  0.25754600  1
  V  V14  1  0.21805600  0.02900700  0.74860900  1
  V  V15  1  0.99869300  0.24602600  0.75336000  1
  V  V16  1  0.99858200  0.46674000  0.53616200  1
  V  V17  1  0.49777200  0.53364500  0.46870700  1
  V  V18  1  0.71836500  0.74826000  0.03315000  1
  V  V19  1  0.49675500  0.75047400  0.25280500  1
  P  P20  1  0.59990900  0.05310100  0.17445800  1
  P  P21  1  0.09428300  0.17205900  0.05325600  1
  P  P22  1  0.07212900  0.16096800  0.45013700  1
  P  P23  1  0.69744600  0.31702700  0.65792900  1
  P  P24  1  0.30041900  0.34287700  0.68391300  1
  P  P25  1  0.57190300  0.44539100  0.16658700  1
  P  P26  1  0.92551000  0.55148800  0.84654200  1
  P  P27  1  0.19420200  0.64992900  0.31954700  1
  P  P28  1  0.80259200  0.68283900  0.34811700  1
  P  P29  1  0.42870200  0.83844900  0.55634300  1
  P  P30  1  0.40669500  0.81616000  0.94666500  1
  P  P31  1  0.90566600  0.94307100  0.82287800  1
  O  O32  1  0.12608900  0.03025400  0.12732200  1
  O  O33  1  0.44454300  0.08650100  0.17416200  1
  O  O34  1  0.21025800  0.11482200  0.38841100  1
  O  O35  1  0.66138600  0.11731000  0.03635200  1
  O  O36  1  0.66505100  0.09932800  0.30036200  1
  O  O37  1  0.07606500  0.12551800  0.61055400  1
  O  O38  1  0.94636200  0.09710900  0.39892600  1
  O  O39  1  0.87820100  0.10142600  0.83114900  1
  O  O40  1  0.12464700  0.16230100  0.89343100  1
  O  O41  1  0.33021800  0.18606500  0.68829200  1
  O  O42  1  0.93853900  0.20336500  0.08860500  1
  O  O43  1  0.65111000  0.19215500  0.59400000  1
  O  O44  1  0.18545500  0.28458300  0.08831500  1
  O  O45  1  0.05826200  0.32068100  0.41379100  1
  O  O46  1  0.66715000  0.30894500  0.81473300  1
  O  O47  1  0.85827200  0.32595700  0.62314400  1
  O  O48  1  0.71218200  0.37799500  0.12981700  1
  O  O49  1  0.45138400  0.40606400  0.09163300  1
  O  O50  1  0.13920100  0.37900600  0.67787200  1
  O  O51  1  0.36504300  0.40231000  0.54564800  1
  O  O52  1  0.54956300  0.40889200  0.32648500  1
  O  O53  1  0.34881300  0.40406600  0.80905900  1
  O  O54  1  0.91983300  0.38965400  0.87825300  1
  O  O55  1  0.63055200  0.45546700  0.60126300  1
  O  O56  1  0.15629400  0.57569900  0.19741300  1
  O  O57  1  0.86123900  0.54516500  0.40743400  1
  O  O58  1  0.13743200  0.58853800  0.45892700  1
  O  O59  1  0.58173800  0.60837300  0.13502300  1
  O  O60  1  0.35735400  0.62346700  0.33080900  1
  O  O61  1  0.05555300  0.59927600  0.90394000  1
  O  O62  1  0.92655800  0.58786400  0.68803800  1
  O  O63  1  0.79156900  0.61087800  0.91090200  1
  O  O64  1  0.63956000  0.67267000  0.37590000  1
  O  O65  1  0.84144700  0.70270300  0.19189100  1
  O  O66  1  0.44561100  0.67818300  0.59222500  1
  O  O67  1  0.34380700  0.69316200  0.89226400  1
  O  O68  1  0.15338200  0.80330900  0.30183400  1
  O  O69  1  0.37646700  0.81140100  0.10621800  1
  O  O70  1  0.84237400  0.80624700  0.41906200  1
  O  O71  1  0.56475200  0.81911600  0.91293100  1
  O  O72  1  0.42111900  0.86838100  0.39336700  1
  O  O73  1  0.62813000  0.89016600  0.17128900  1
  O  O74  1  0.28937100  0.88127600  0.62315700  1
  O  O75  1  0.06069600  0.90518900  0.78978900  1
  O  O76  1  0.55119300  0.91017200  0.59523100  1
  O  O77  1  0.87231400  0.86893100  0.96495900  1
  O  O78  1  0.81315700  0.90709900  0.71192800  1
  O  O79  1  0.34255100  0.95445600  0.88790100  1
