# generated using pymatgen
data_Li9Mn7O16
_symmetry_space_group_name_H-M   'P 1'
_cell_length_a   5.76037700
_cell_length_b   5.33925800
_cell_length_c   9.75916095
_cell_angle_alpha   83.16413530
_cell_angle_beta   90.00000000
_cell_angle_gamma   90.00000000
_symmetry_Int_Tables_number   1
_chemical_formula_structural   Li9Mn7O16
_chemical_formula_sum   'Li9 Mn7 O16'
_cell_volume   298.02037415
_cell_formula_units_Z   1
loop_
 _symmetry_equiv_pos_site_id
 _symmetry_equiv_pos_as_xyz
  1  'x, y, z'
loop_
 _atom_site_type_symbol
 _atom_site_label
 _atom_site_symmetry_multiplicity
 _atom_site_fract_x
 _atom_site_fract_y
 _atom_site_fract_z
 _atom_site_occupancy
  Li  Li0  1  0.25403700  0.25138800  0.75033200  1
  Li  Li1  1  0.25403700  0.74861200  0.24966800  1
  Li  Li2  1  0.50000000  0.75242200  0.76015200  1
  Li  Li3  1  0.50000000  0.24757800  0.23984800  1
  Li  Li4  1  0.74596300  0.25138800  0.75033200  1
  Li  Li5  1  0.74596300  0.74861200  0.24966800  1
  Li  Li6  1  0.00000000  0.74461300  0.75538900  1
  Li  Li7  1  0.00000000  0.25538700  0.24461100  1
  Li  Li8  1  0.50000000  0.00000000  0.00000000  1
  Mn  Mn9  1  0.00000000  0.00000000  0.00000000  1
  Mn  Mn10  1  0.74825400  0.50000000  0.00000000  1
  Mn  Mn11  1  0.00000000  0.50000000  0.50000000  1
  Mn  Mn12  1  0.25174600  0.50000000  0.00000000  1
  Mn  Mn13  1  0.24999300  0.00000000  0.50000000  1
  Mn  Mn14  1  0.50000000  0.50000000  0.50000000  1
  Mn  Mn15  1  0.75000700  0.00000000  0.50000000  1
  O  O16  1  0.24029700  0.83947700  0.89620100  1
  O  O17  1  0.25021700  0.39440100  0.38339100  1
  O  O18  1  0.50000000  0.39804600  0.88454500  1
  O  O19  1  0.50000000  0.89794500  0.37985400  1
  O  O20  1  0.75970300  0.83947700  0.89620100  1
  O  O21  1  0.74978300  0.39440100  0.38339100  1
  O  O22  1  0.00000000  0.39003200  0.88369800  1
  O  O23  1  0.00000000  0.89718000  0.38085100  1
  O  O24  1  0.25021700  0.60559900  0.61660900  1
  O  O25  1  0.24029700  0.16052300  0.10379900  1
  O  O26  1  0.50000000  0.10205500  0.62014600  1
  O  O27  1  0.50000000  0.60195400  0.11545500  1
  O  O28  1  0.74978300  0.60559900  0.61660900  1
  O  O29  1  0.75970300  0.16052300  0.10379900  1
  O  O30  1  0.00000000  0.10282000  0.61914900  1
  O  O31  1  0.00000000  0.60996800  0.11630200  1
