# generated using pymatgen
data_Li6Mn5CoO12
_symmetry_space_group_name_H-M   'P 1'
_cell_length_a   5.09298464
_cell_length_b   9.25599222
_cell_length_c   10.15976533
_cell_angle_alpha   83.72323748
_cell_angle_beta   84.67548167
_cell_angle_gamma   95.02947289
_symmetry_Int_Tables_number   1
_chemical_formula_structural   Li6Mn5CoO12
_chemical_formula_sum   'Li12 Mn10 Co2 O24'
_cell_volume   471.69184828
_cell_formula_units_Z   2
loop_
 _symmetry_equiv_pos_site_id
 _symmetry_equiv_pos_as_xyz
  1  'x, y, z'
loop_
 _atom_site_type_symbol
 _atom_site_label
 _atom_site_symmetry_multiplicity
 _atom_site_fract_x
 _atom_site_fract_y
 _atom_site_fract_z
 _atom_site_occupancy
  Li  Li0  1  0.38605800  0.02463000  0.76677800  1
  Li  Li1  1  0.88968900  0.52132100  0.76523100  1
  Li  Li2  1  0.11045300  0.47865700  0.23490200  1
  Li  Li3  1  0.61414200  0.97535800  0.23323700  1
  Li  Li4  1  0.38705800  0.36117700  0.76654900  1
  Li  Li5  1  0.88489200  0.86218800  0.76676400  1
  Li  Li6  1  0.11531900  0.13771100  0.23314900  1
  Li  Li7  1  0.61298200  0.63873500  0.23339000  1
  Li  Li8  1  0.61858300  0.30873300  0.23261900  1
  Li  Li9  1  0.11716700  0.81349300  0.23442100  1
  Li  Li10  1  0.88311000  0.18647600  0.76544500  1
  Li  Li11  1  0.38154200  0.69120600  0.76734000  1
  Mn  Mn12  1  0.00032500  0.50015500  0.50003100  1
  Mn  Mn13  1  0.49977900  0.00016200  0.50006800  1
  Mn  Mn14  1  0.50096800  0.16463200  0.99737400  1
  Mn  Mn15  1  0.99542400  0.66579600  0.00331700  1
  Mn  Mn16  1  0.00460200  0.33408900  0.99668600  1
  Mn  Mn17  1  0.49916300  0.83522900  0.00259900  1
  Mn  Mn18  1  0.49956000  0.33498400  0.49748600  1
  Mn  Mn19  1  0.00273600  0.83213100  0.50405200  1
  Mn  Mn20  1  0.99685300  0.16809900  0.49596600  1
  Mn  Mn21  1  0.50010300  0.66503900  0.50264600  1
  Co  Co22  1  0.50001800  0.49992600  0.99997800  1
  Co  Co23  1  0.00008500  0.99991300  0.99993200  1
  O  O24  1  0.66372300  0.46795500  0.61000500  1
  O  O25  1  0.15725100  0.97533000  0.61191000  1
  O  O26  1  0.84224000  0.02487600  0.38814700  1
  O  O27  1  0.33618800  0.53217600  0.39015700  1
  O  O28  1  0.21729400  0.17341700  0.87899700  1
  O  O29  1  0.70131600  0.65995400  0.88951200  1
  O  O30  1  0.29876300  0.33987700  0.11047700  1
  O  O31  1  0.78280500  0.82645800  0.12092900  1
  O  O32  1  0.34026500  0.19918400  0.38769800  1
  O  O33  1  0.85957100  0.67336300  0.40135900  1
  O  O34  1  0.14042000  0.32675600  0.59867900  1
  O  O35  1  0.65963400  0.80097700  0.61234000  1
  O  O36  1  0.30857000  0.00506900  0.11730900  1
  O  O37  1  0.80242600  0.50209200  0.11825100  1
  O  O38  1  0.19763400  0.49775900  0.88173800  1
  O  O39  1  0.69154000  0.99479300  0.88263000  1
  O  O40  1  0.65857700  0.14092300  0.60764500  1
  O  O41  1  0.15580500  0.63362600  0.61178200  1
  O  O42  1  0.84421700  0.36655700  0.38825300  1
  O  O43  1  0.34100700  0.85930000  0.39232000  1
  O  O44  1  0.70296000  0.33552200  0.88861800  1
  O  O45  1  0.20279200  0.82792100  0.88909800  1
  O  O46  1  0.79725000  0.17194600  0.11085600  1
  O  O47  1  0.29714100  0.66434800  0.11133700  1
