# generated using pymatgen
data_LiCoPO4
_symmetry_space_group_name_H-M   'P 1'
_cell_length_a   10.04051099
_cell_length_b   10.04051099
_cell_length_c   17.37665300
_cell_angle_alpha   71.93746598
_cell_angle_beta   71.93746598
_cell_angle_gamma   58.83869414
_symmetry_Int_Tables_number   1
_chemical_formula_structural   LiCoPO4
_chemical_formula_sum   'Li16 Co16 P16 O64'
_cell_volume   1400.83475690
_cell_formula_units_Z   16
loop_
 _symmetry_equiv_pos_site_id
 _symmetry_equiv_pos_as_xyz
  1  'x, y, z'
loop_
 _atom_site_type_symbol
 _atom_site_label
 _atom_site_symmetry_multiplicity
 _atom_site_fract_x
 _atom_site_fract_y
 _atom_site_fract_z
 _atom_site_occupancy
  Li  Li0  1  0.87680400  0.49514900  0.68844100  1
  Li  Li1  1  0.44096000  0.37410700  0.18752700  1
  Li  Li2  1  0.99461000  0.87173700  0.18878100  1
  Li  Li3  1  0.62081400  0.76184800  0.93945000  1
  Li  Li4  1  0.18385600  0.25973500  0.93863000  1
  Li  Li5  1  0.75856300  0.12198200  0.43903300  1
  Li  Li6  1  0.25952200  0.68483700  0.43919800  1
  Li  Li7  1  0.37410700  0.44096000  0.68752700  1
  Li  Li8  1  0.87173700  0.99461000  0.68878100  1
  Li  Li9  1  0.93840000  0.36834900  0.18934300  1
  Li  Li10  1  0.49514900  0.87680400  0.18844100  1
  Li  Li11  1  0.12198200  0.75856300  0.93903300  1
  Li  Li12  1  0.68483700  0.25952200  0.93919800  1
  Li  Li13  1  0.76184800  0.62081400  0.43945000  1
  Li  Li14  1  0.25973500  0.18385600  0.43863000  1
  Li  Li15  1  0.36834900  0.93840000  0.68934300  1
  Co  Co16  1  0.56065900  0.62482500  0.81548100  1
  Co  Co17  1  0.63009900  0.06081700  0.31472200  1
  Co  Co18  1  0.74224300  0.81472900  0.56475400  1
  Co  Co19  1  0.23977600  0.37711600  0.56406200  1
  Co  Co20  1  0.31346100  0.74139500  0.06507700  1
  Co  Co21  1  0.87643400  0.24094400  0.06372100  1
  Co  Co22  1  0.50228400  0.12293400  0.81271000  1
  Co  Co23  1  0.06081700  0.63009900  0.81472200  1
  Co  Co24  1  0.12886700  0.00248400  0.31371700  1
  Co  Co25  1  0.62482500  0.56065900  0.31548100  1
  Co  Co26  1  0.74139500  0.31346100  0.56507700  1
  Co  Co27  1  0.24094400  0.87643400  0.56372100  1
  Co  Co28  1  0.81472900  0.74224300  0.06475400  1
  Co  Co29  1  0.37711600  0.23977600  0.06406200  1
  Co  Co30  1  0.00248400  0.12886700  0.81371700  1
  Co  Co31  1  0.12293400  0.50228400  0.31271000  1
  P  P32  1  0.31372500  0.93690800  0.87745800  1
  P  P33  1  0.87335900  0.43908500  0.87533400  1
  P  P34  1  0.93875200  0.81551300  0.37642800  1
  P  P35  1  0.43436100  0.37447700  0.37517600  1
  P  P36  1  0.56056600  0.12684300  0.62599100  1
  P  P37  1  0.06221900  0.68662300  0.62486300  1
  P  P38  1  0.62853400  0.56329800  0.12612500  1
  P  P39  1  0.18632000  0.06024100  0.12460600  1
  P  P40  1  0.81551300  0.93875200  0.87642800  1
  P  P41  1  0.37447700  0.43436100  0.87517600  1
  P  P42  1  0.93690800  0.31372500  0.37745800  1
  P  P43  1  0.43908500  0.87335900  0.37533400  1
  P  P44  1  0.56329800  0.62853400  0.62612500  1
  P  P45  1  0.06024100  0.18632000  0.62460600  1
  P  P46  1  0.12684300  0.56056600  0.12599100  1
  P  P47  1  0.68662300  0.06221900  0.12486300  1
  O  O48  1  0.04085900  0.35619500  0.60782700  1
  O  O49  1  0.82993800  0.32757300  0.95135300  1
  O  O50  1  0.41863100  0.85759700  0.80084000  1
  O  O51  1  0.91977200  0.36338200  0.79887600  1
  O  O52  1  0.39396400  0.82559500  0.95260400  1
  O  O53  1  0.72919700  0.60672200  0.86271600  1
  O  O54  1  0.54437900  0.98971600  0.61321300  1
  O  O55  1  0.85682800  0.04168100  0.10844500  1
  O  O56  1  0.32634000  0.32842100  0.45219300  1
  O  O57  1  0.35625700  0.41977600  0.30003800  1
  O  O58  1  0.86428500  0.92082400  0.29832000  1
  O  O59  1  0.30459200  0.10212800  0.86207300  1
  O  O60  1  0.82285600  0.89597400  0.45094000  1
  O  O61  1  0.89770900  0.69397500  0.64035100  1
  O  O62  1  0.60381600  0.23292300  0.36170300  1
  O  O63  1  0.01097700  0.45630200  0.88661200  1
  O  O64  1  0.48870400  0.54978500  0.11504700  1
  O  O65  1  0.39381900  0.27151100  0.63955800  1
  O  O66  1  0.10339200  0.80666800  0.36315200  1
  O  O67  1  0.17373200  0.60678600  0.54959700  1
  O  O68  1  0.19336000  0.89594500  0.14013400  1
  O  O69  1  0.63571700  0.07824300  0.70274700  1
  O  O70  1  0.14188600  0.58352500  0.70123800  1
  O  O71  1  0.67180100  0.17050200  0.54964300  1
  O  O72  1  0.64606500  0.95911200  0.89081700  1
  O  O73  1  0.45013000  0.51320500  0.38640600  1
  O  O74  1  0.77045300  0.39458500  0.13925500  1
  O  O75  1  0.10613300  0.17328400  0.04973800  1
  O  O76  1  0.04168100  0.85682800  0.60844500  1
  O  O77  1  0.32842100  0.32634000  0.95219300  1
  O  O78  1  0.41977600  0.35625700  0.80003800  1
  O  O79  1  0.92082400  0.86428500  0.79832000  1
  O  O80  1  0.08411000  0.13473700  0.20290500  1
  O  O81  1  0.58477700  0.64165600  0.20093700  1
  O  O82  1  0.95809700  0.14364800  0.39217400  1
  O  O83  1  0.67330300  0.67205600  0.04860600  1
  O  O84  1  0.89597400  0.82285600  0.95094000  1
  O  O85  1  0.23292300  0.60381600  0.86170300  1
  O  O86  1  0.35619500  0.04085900  0.10782700  1
  O  O87  1  0.54978500  0.48870400  0.61504700  1
  O  O88  1  0.32757300  0.82993800  0.45135300  1
  O  O89  1  0.85759700  0.41863100  0.30084000  1
  O  O90  1  0.36338200  0.91977200  0.29887600  1
  O  O91  1  0.80666800  0.10339200  0.86315200  1
  O  O92  1  0.89594500  0.19336000  0.64013400  1
  O  O93  1  0.82559500  0.39396400  0.45260400  1
  O  O94  1  0.51320500  0.45013000  0.88640600  1
  O  O95  1  0.60672200  0.72919700  0.36271600  1
  O  O96  1  0.98971600  0.54437900  0.11321300  1
  O  O97  1  0.39458500  0.77045300  0.63925500  1
  O  O98  1  0.10212800  0.30459200  0.36207300  1
  O  O99  1  0.17328400  0.10613300  0.54973800  1
  O  O100  1  0.69397500  0.89770900  0.14035100  1
  O  O101  1  0.13473700  0.08411000  0.70290500  1
  O  O102  1  0.64165600  0.58477700  0.70093700  1
  O  O103  1  0.14364800  0.95809700  0.89217400  1
  O  O104  1  0.67205600  0.67330300  0.54860600  1
  O  O105  1  0.45630200  0.01097700  0.38661200  1
  O  O106  1  0.27151100  0.39381900  0.13955800  1
  O  O107  1  0.60678600  0.17373200  0.04959700  1
  O  O108  1  0.07824300  0.63571700  0.20274700  1
  O  O109  1  0.58352500  0.14188600  0.20123800  1
  O  O110  1  0.17050200  0.67180100  0.04964300  1
  O  O111  1  0.95911200  0.64606500  0.39081700  1
