# generated using pymatgen
data_Li4V2Si(PO6)2
_symmetry_space_group_name_H-M   'P 1'
_cell_length_a   15.57615245
_cell_length_b   9.01897702
_cell_length_c   8.48787452
_cell_angle_alpha   122.15065588
_cell_angle_beta   72.42791135
_cell_angle_gamma   89.95888245
_symmetry_Int_Tables_number   1
_chemical_formula_structural   Li4V2Si(PO6)2
_chemical_formula_sum   'Li16 V8 Si4 P8 O48'
_cell_volume   942.99558184
_cell_formula_units_Z   4
loop_
 _symmetry_equiv_pos_site_id
 _symmetry_equiv_pos_as_xyz
  1  'x, y, z'
loop_
 _atom_site_type_symbol
 _atom_site_label
 _atom_site_symmetry_multiplicity
 _atom_site_fract_x
 _atom_site_fract_y
 _atom_site_fract_z
 _atom_site_occupancy
  Li  Li0  1  0.99969328  0.49403651  0.50491453  1
  Li  Li1  1  0.08090017  0.09121473  0.27520384  1
  Li  Li2  1  0.16797222  0.57063495  0.24623963  1
  Li  Li3  1  0.25408715  0.76401444  0.99545300  1
  Li  Li4  1  0.12753883  0.51816259  0.71445388  1
  Li  Li5  1  0.37767095  0.95231681  0.21992685  1
  Li  Li6  1  0.33049039  0.93231582  0.77358048  1
  Li  Li7  1  0.41893722  0.42478698  0.75041447  1
  Li  Li8  1  0.49809372  0.99742423  0.50735483  1
  Li  Li9  1  0.57921447  0.58895759  0.27142170  1
  Li  Li10  1  0.67163341  0.06861961  0.22683054  1
  Li  Li11  1  0.75440371  0.24277322  0.98725067  1
  Li  Li12  1  0.62507031  0.03575191  0.75981214  1
  Li  Li13  1  0.87449818  0.46395320  0.25303344  1
  Li  Li14  1  0.83103955  0.42550973  0.75503909  1
  Li  Li15  1  0.91900952  0.91595041  0.74084936  1
  V  V16  1  0.06794923  0.28453867  0.07596560  1
  V  V17  1  0.17911713  0.96595504  0.42572645  1
  V  V18  1  0.31960488  0.54112793  0.57652722  1
  V  V19  1  0.57093415  0.78873921  0.07222938  1
  V  V20  1  0.42774057  0.21142293  0.92737138  1
  V  V21  1  0.67966567  0.46452980  0.42706210  1
  V  V22  1  0.82003590  0.03785242  0.57500548  1
  V  V23  1  0.93048117  0.71257150  0.92173729  1
  Si  Si24  1  0.22707445  0.22557309  0.24772955  1
  Si  Si25  1  0.47807465  0.77300109  0.74669260  1
  Si  Si26  1  0.77360713  0.77287729  0.74989973  1
  Si  Si27  1  0.97693255  0.27315373  0.74828972  1
  P  P28  1  0.02320352  0.72566813  0.25352257  1
  P  P29  1  0.12644432  0.83017298  0.75024201  1
  P  P30  1  0.27273180  0.27941586  0.75426206  1
  P  P31  1  0.37633604  0.67390730  0.25285021  1
  P  P32  1  0.52297591  0.22694417  0.25535009  1
  P  P33  1  0.62293815  0.32845378  0.75202130  1
  P  P34  1  0.72780150  0.72005556  0.24197213  1
  P  P35  1  0.87256533  0.16983838  0.25026429  1
  O  O36  1  0.00447052  0.68498514  0.06802857  1
  O  O37  1  0.03008064  0.56137521  0.27109437  1
  O  O38  1  0.12106158  0.77254875  0.23019420  1
  O  O39  1  0.06173827  0.12489914  0.54564070  1
  O  O40  1  0.05187759  0.71196114  0.72749260  1
  O  O41  1  0.12402599  0.30275193  0.27063105  1
  O  O42  1  0.15822114  0.82973342  0.56055632  1
  O  O43  1  0.21978780  0.03165524  0.22380906  1
  O  O44  1  0.09177074  0.02018530  0.93970033  1
  O  O45  1  0.24165699  0.38458719  0.44920709  1
  O  O46  1  0.31091703  0.17184213  0.04568215  1
  O  O47  1  0.20180333  0.73995283  0.77637328  1
  O  O48  1  0.30083876  0.77276022  0.23429692  1
  O  O49  1  0.19457954  0.32564833  0.94475976  1
  O  O50  1  0.25619521  0.13716637  0.56483300  1
  O  O51  1  0.40551744  0.48417854  0.06318719  1
  O  O52  1  0.28153663  0.46181121  0.77443963  1
  O  O53  1  0.34330664  0.67357563  0.44177023  1
  O  O54  1  0.37015720  0.20633866  0.73124182  1
  O  O55  1  0.45354219  0.78696966  0.27316085  1
  O  O56  1  0.44510764  0.37274287  0.44494169  1
  O  O57  1  0.37590896  0.71621036  0.76915739  1
  O  O58  1  0.50694272  0.17814301  0.06452755  1
  O  O59  1  0.53111337  0.06775429  0.27967115  1
  O  O60  1  0.46820250  0.94396582  0.72551390  1
  O  O61  1  0.49109479  0.81930788  0.95064233  1
  O  O62  1  0.62012517  0.27910747  0.23030673  1
  O  O63  1  0.56405365  0.62884419  0.54528552  1
  O  O64  1  0.54476087  0.21692835  0.73598777  1
  O  O65  1  0.63004441  0.79727566  0.26954088  1
  O  O66  1  0.65356904  0.32751758  0.56252845  1
  O  O67  1  0.72084135  0.53728410  0.21983198  1
  O  O68  1  0.59440040  0.51698567  0.94211643  1
  O  O69  1  0.74581893  0.86373526  0.43005381  1
  O  O70  1  0.80391662  0.67578336  0.05041946  1
  O  O71  1  0.69725881  0.22550947  0.76849992  1
  O  O72  1  0.79584662  0.25564573  0.22186795  1
  O  O73  1  0.68720532  0.83352465  0.95208995  1
  O  O74  1  0.76103038  0.61236436  0.54728910  1
  O  O75  1  0.91022950  0.97996032  0.06155554  1
  O  O76  1  0.78297920  0.96337482  0.76614377  1
  O  O77  1  0.83748876  0.16805015  0.43862199  1
  O  O78  1  0.87634727  0.70235691  0.73324969  1
  O  O79  1  0.94562904  0.29103267  0.27918098  1
  O  O80  1  0.94643174  0.87056749  0.44649592  1
  O  O81  1  0.87401101  0.22064715  0.76335912  1
  O  O82  1  0.97048584  0.44589027  0.72900185  1
  O  O83  1  0.98960276  0.31234452  0.94952342  1
