# generated using pymatgen
data_Li9Mn2Co5O16
_symmetry_space_group_name_H-M   'P 1'
_cell_length_a   10.58162425
_cell_length_b   10.58162425
_cell_length_c   10.12880174
_cell_angle_alpha   66.96858131
_cell_angle_beta   66.96858131
_cell_angle_gamma   15.78012895
_symmetry_Int_Tables_number   1
_chemical_formula_structural   Li9Mn2Co5O16
_chemical_formula_sum   'Li9 Mn2 Co5 O16'
_cell_volume   283.34537476
_cell_formula_units_Z   1
loop_
 _symmetry_equiv_pos_site_id
 _symmetry_equiv_pos_as_xyz
  1  'x, y, z'
loop_
 _atom_site_type_symbol
 _atom_site_label
 _atom_site_symmetry_multiplicity
 _atom_site_fract_x
 _atom_site_fract_y
 _atom_site_fract_z
 _atom_site_occupancy
  Li  Li0  1  0.62479600  0.62479600  0.56339000  1
  Li  Li1  1  0.87791200  0.87791200  0.17866700  1
  Li  Li2  1  0.12208800  0.12208800  0.82133300  1
  Li  Li3  1  0.12569200  0.12569200  0.31286600  1
  Li  Li4  1  0.37767300  0.37767300  0.94003900  1
  Li  Li5  1  0.62232700  0.62232700  0.05996100  1
  Li  Li6  1  0.87430800  0.87430800  0.68713400  1
  Li  Li7  1  0.37520400  0.37520400  0.43661000  1
  Li  Li8  1  0.50000000  0.50000000  0.00000000  1
  Mn  Mn9  1  0.99896200  0.99896200  0.75635800  1
  Mn  Mn10  1  0.00103800  0.00103800  0.24364200  1
  Co  Co11  1  0.25034000  0.25034000  0.37466400  1
  Co  Co12  1  0.74966000  0.74966000  0.62533600  1
  Co  Co13  1  0.24948100  0.24948100  0.87546200  1
  Co  Co14  1  0.50000000  0.50000000  0.50000000  1
  Co  Co15  1  0.75051900  0.75051900  0.12453800  1
  O  O16  1  0.55619000  0.55619000  0.77394200  1
  O  O17  1  0.80800300  0.80800300  0.40632200  1
  O  O18  1  0.05851000  0.05851000  0.05269700  1
  O  O19  1  0.05322800  0.05322800  0.53623900  1
  O  O20  1  0.30857500  0.30857500  0.15722700  1
  O  O21  1  0.55358000  0.55358000  0.29192900  1
  O  O22  1  0.80708300  0.80708300  0.90538500  1
  O  O23  1  0.30843400  0.30843400  0.65580400  1
  O  O24  1  0.69156600  0.69156600  0.34419600  1
  O  O25  1  0.94149000  0.94149000  0.94730300  1
  O  O26  1  0.19199700  0.19199700  0.59367800  1
  O  O27  1  0.19291700  0.19291700  0.09461500  1
  O  O28  1  0.44642000  0.44642000  0.70807100  1
  O  O29  1  0.69142500  0.69142500  0.84277300  1
  O  O30  1  0.94677200  0.94677200  0.46376100  1
  O  O31  1  0.44381000  0.44381000  0.22605800  1
