# generated using pymatgen
data_Li9Mn2Co5O16
_symmetry_space_group_name_H-M   'P 1'
_cell_length_a   5.00031200
_cell_length_b   7.77547748
_cell_length_c   7.79953881
_cell_angle_alpha   97.93736387
_cell_angle_beta   101.87182212
_cell_angle_gamma   102.41667677
_symmetry_Int_Tables_number   1
_chemical_formula_structural   Li9Mn2Co5O16
_chemical_formula_sum   'Li9 Mn2 Co5 O16'
_cell_volume   284.49435465
_cell_formula_units_Z   1
loop_
 _symmetry_equiv_pos_site_id
 _symmetry_equiv_pos_as_xyz
  1  'x, y, z'
loop_
 _atom_site_type_symbol
 _atom_site_label
 _atom_site_symmetry_multiplicity
 _atom_site_fract_x
 _atom_site_fract_y
 _atom_site_fract_z
 _atom_site_occupancy
  Li  Li0  1  0.48799700  0.74422200  0.73932500  1
  Li  Li1  1  0.01484200  0.38230100  0.13211100  1
  Li  Li2  1  0.50185800  0.99571700  0.49606400  1
  Li  Li3  1  0.97737500  0.86868200  0.61311600  1
  Li  Li4  1  0.49682800  0.50342700  0.00550100  1
  Li  Li5  1  0.99373500  0.12680700  0.37734900  1
  Li  Li6  1  0.00773100  0.62127900  0.87507000  1
  Li  Li7  1  0.50770400  0.26152700  0.25781500  1
  Li  Li8  1  0.49733600  0.62623600  0.37085600  1
  Mn  Mn9  1  0.00083900  0.99533400  0.00375200  1
  Mn  Mn10  1  0.99956500  0.74585400  0.25394800  1
  Co  Co11  1  0.00177000  0.25511700  0.74464200  1
  Co  Co12  1  0.50090200  0.87239700  0.12846500  1
  Co  Co13  1  0.00739400  0.50084200  0.49203800  1
  Co  Co14  1  0.50317900  0.12636900  0.87559500  1
  Co  Co15  1  0.50893700  0.38807100  0.61867300  1
  O  O16  1  0.76024200  0.76629800  0.01890000  1
  O  O17  1  0.23882200  0.37700700  0.38603700  1
  O  O18  1  0.75889200  0.00181600  0.77134800  1
  O  O19  1  0.25536300  0.88585900  0.89727000  1
  O  O20  1  0.77376500  0.51754500  0.25002800  1
  O  O21  1  0.25300300  0.13929000  0.63896700  1
  O  O22  1  0.24917300  0.64888900  0.13213400  1
  O  O23  1  0.75098200  0.25429600  0.50583200  1
  O  O24  1  0.22128200  0.75067700  0.48360400  1
  O  O25  1  0.75361100  0.35845700  0.86776500  1
  O  O26  1  0.24133200  0.98119400  0.23301000  1
  O  O27  1  0.75111800  0.86905400  0.35134500  1
  O  O28  1  0.24345500  0.49584300  0.74368400  1
  O  O29  1  0.74886200  0.10245900  0.11500400  1
  O  O30  1  0.74747700  0.60973800  0.62316200  1
  O  O31  1  0.24462700  0.22739100  0.99759000  1
