# generated using pymatgen
data_Li5V3P8O29
_symmetry_space_group_name_H-M   'P 1'
_cell_length_a   9.77777600
_cell_length_b   9.78119461
_cell_length_c   14.12854129
_cell_angle_alpha   89.26408444
_cell_angle_beta   89.61599061
_cell_angle_gamma   60.15227710
_symmetry_Int_Tables_number   1
_chemical_formula_structural   Li5V3P8O29
_chemical_formula_sum   'Li10 V6 P16 O58'
_cell_volume   1171.89431279
_cell_formula_units_Z   2
loop_
 _symmetry_equiv_pos_site_id
 _symmetry_equiv_pos_as_xyz
  1  'x, y, z'
loop_
 _atom_site_type_symbol
 _atom_site_label
 _atom_site_symmetry_multiplicity
 _atom_site_fract_x
 _atom_site_fract_y
 _atom_site_fract_z
 _atom_site_occupancy
  Li  Li0  1  0.89652300  0.76579500  0.44398600  1
  Li  Li1  1  0.32726600  0.90870100  0.43715600  1
  Li  Li2  1  0.33238000  0.76542700  0.94140600  1
  Li  Li3  1  0.90049600  0.33442400  0.93913200  1
  Li  Li4  1  0.23323200  0.66884400  0.55925300  1
  Li  Li5  1  0.76053400  0.34019600  0.43984400  1
  Li  Li6  1  0.68280400  0.22883300  0.06027000  1
  Li  Li7  1  0.32909900  0.32449600  0.89376000  1
  Li  Li8  1  0.00970500  0.94001400  0.00615900  1
  Li  Li9  1  0.97742700  0.04572300  0.50313200  1
  V  V10  1  0.43342400  0.56858300  0.75041600  1
  V  V11  1  0.56551000  0.43329700  0.24954100  1
  V  V12  1  0.99868900  0.56654400  0.24529600  1
  V  V13  1  0.00035400  0.43447000  0.74806100  1
  V  V14  1  0.56411300  0.99901000  0.74966600  1
  V  V15  1  0.43768100  0.00037000  0.25094800  1
  P  P16  1  0.77949700  0.91774100  0.15805000  1
  P  P17  1  0.91543400  0.77658000  0.65987000  1
  P  P18  1  0.30997700  0.91755300  0.65289000  1
  P  P19  1  0.66691000  0.66537900  0.86959300  1
  P  P20  1  0.67111300  0.66296300  0.36956500  1
  P  P21  1  0.31517000  0.77569100  0.15999500  1
  P  P22  1  0.22433300  0.68327000  0.34050500  1
  P  P23  1  0.91416200  0.31456400  0.15326900  1
  P  P24  1  0.08869400  0.68912500  0.84369100  1
  P  P25  1  0.77522900  0.31426900  0.65889300  1
  P  P26  1  0.68342900  0.22384800  0.84017100  1
  P  P27  1  0.33232400  0.33537500  0.63119000  1
  P  P28  1  0.33335200  0.33336000  0.13187200  1
  P  P29  1  0.69520600  0.08175900  0.34327700  1
  P  P30  1  0.08330400  0.22229500  0.33697700  1
  P  P31  1  0.21796500  0.08578000  0.83763800  1
  O  O32  1  0.79548700  0.99630500  0.42720800  1
  O  O33  1  0.74952100  0.91498100  0.66481200  1
  O  O34  1  0.00109200  0.78705500  0.92563700  1
  O  O35  1  0.91895000  0.74420500  0.16644200  1
  O  O36  1  0.62229400  0.92173100  0.16652400  1
  O  O37  1  0.66054600  0.81456800  0.82323900  1
  O  O38  1  0.46691800  0.91360700  0.66524300  1
  O  O39  1  0.20686000  0.98870700  0.91649700  1
  O  O40  1  0.34961600  0.91197700  0.17166600  1
  O  O41  1  0.81313100  0.67350800  0.32089800  1
  O  O42  1  0.91505700  0.61831100  0.67821100  1
  O  O43  1  0.51455100  0.80999300  0.33548600  1
  O  O44  1  0.67216400  0.65497200  0.97476100  1
  O  O45  1  0.69211400  0.65645600  0.47471500  1
  O  O46  1  0.51431200  0.66773100  0.83194700  1
  O  O47  1  0.90950300  0.47395000  0.17228900  1
  O  O48  1  0.81612500  0.51676200  0.82681100  1
  O  O49  1  0.33507500  0.74653400  0.66612100  1
  O  O50  1  0.20184300  0.79234500  0.24806300  1
  O  O51  1  0.22147100  0.77156200  0.42826300  1
  O  O52  1  0.23375000  0.78632600  0.06867400  1
  O  O53  1  0.47104800  0.61752100  0.17450500  1
  O  O54  1  0.67637500  0.51057000  0.33159100  1
  O  O55  1  0.26194000  0.65637200  0.84275100  1
  O  O56  1  0.62028500  0.46826200  0.67074500  1
  O  O57  1  0.91719400  0.34411600  0.67075100  1
  O  O58  1  0.01605400  0.78671600  0.74569100  1
  O  O59  1  0.00023600  0.76876700  0.56857100  1
  O  O60  1  0.98714100  0.21126000  0.41667500  1
  O  O61  1  0.07808900  0.65977400  0.33919500  1
  O  O62  1  0.37643800  0.52656200  0.32789000  1
  O  O63  1  0.74583800  0.33745000  0.16192500  1
  O  O64  1  0.32545600  0.48916600  0.66709400  1
  O  O65  1  0.51988800  0.37690700  0.82502800  1
  O  O66  1  0.76416900  0.23611300  0.92774600  1
  O  O67  1  0.79382100  0.23007300  0.56806100  1
  O  O68  1  0.79278100  0.20335800  0.74882900  1
  O  O69  1  0.65702100  0.25668600  0.33923300  1
  O  O70  1  0.18624000  0.48232700  0.17801900  1
  O  O71  1  0.09521100  0.52718100  0.83314300  1
  O  O72  1  0.48824200  0.32914100  0.16558400  1
  O  O73  1  0.32595200  0.34261900  0.02587400  1
  O  O74  1  0.31939300  0.33454700  0.52684400  1
  O  O75  1  0.47566300  0.19006500  0.67895700  1
  O  O76  1  0.07699400  0.38323400  0.32653300  1
  O  O77  1  0.18423500  0.33683600  0.68303700  1
  O  O78  1  0.65566000  0.08448900  0.84111000  1
  O  O79  1  0.79907600  0.00326600  0.24998100  1
  O  O80  1  0.80315600  0.00002100  0.07443100  1
  O  O81  1  0.54086500  0.07649400  0.33154800  1
  O  O82  1  0.32906000  0.19180700  0.17710500  1
  O  O83  1  0.36943600  0.09863600  0.83259000  1
  O  O84  1  0.07626000  0.25932600  0.84064800  1
  O  O85  1  0.98610600  0.24355500  0.06058500  1
  O  O86  1  0.01308300  0.19858200  0.23854800  1
  O  O87  1  0.25494700  0.08409400  0.34092100  1
  O  O88  1  0.22445500  0.98269200  0.56110700  1
  O  O89  1  0.19531200  0.01863700  0.73833100  1
