# generated using pymatgen
data_Li7Mn4CoO12
_symmetry_space_group_name_H-M   'P 1'
_cell_length_a   5.23704240
_cell_length_b   10.37111235
_cell_length_c   8.66372215
_cell_angle_alpha   72.40150057
_cell_angle_beta   104.67383049
_cell_angle_gamma   95.88049069
_symmetry_Int_Tables_number   1
_chemical_formula_structural   Li7Mn4CoO12
_chemical_formula_sum   'Li14 Mn8 Co2 O24'
_cell_volume   433.73764520
_cell_formula_units_Z   2
loop_
 _symmetry_equiv_pos_site_id
 _symmetry_equiv_pos_as_xyz
  1  'x, y, z'
loop_
 _atom_site_type_symbol
 _atom_site_label
 _atom_site_symmetry_multiplicity
 _atom_site_fract_x
 _atom_site_fract_y
 _atom_site_fract_z
 _atom_site_occupancy
  Li  Li0  1  0.07597800  0.24976400  0.08155400  1
  Li  Li1  1  0.59075200  0.75023900  0.58512200  1
  Li  Li2  1  0.57772100  0.12456700  0.05830400  1
  Li  Li3  1  0.07791000  0.62244000  0.56211400  1
  Li  Li4  1  0.58878000  0.37759900  0.10455100  1
  Li  Li5  1  0.08896900  0.87545300  0.60834800  1
  Li  Li6  1  0.37787400  0.62467400  0.86543100  1
  Li  Li7  1  0.87740500  0.12275100  0.36447100  1
  Li  Li8  1  0.28874200  0.37535500  0.80120700  1
  Li  Li9  1  0.78914500  0.87726100  0.30215000  1
  Li  Li10  1  0.71353800  0.62445700  0.21026800  1
  Li  Li11  1  0.21633500  0.12404000  0.71168700  1
  Li  Li12  1  0.45035100  0.87598100  0.95499800  1
  Li  Li13  1  0.95323700  0.37553200  0.45644900  1
  Mn  Mn14  1  0.00360600  0.00344000  0.00292600  1
  Mn  Mn15  1  0.51214700  0.50326800  0.50339500  1
  Mn  Mn16  1  0.15436600  0.49689000  0.16328100  1
  Mn  Mn17  1  0.66303000  0.99655400  0.66370700  1
  Mn  Mn18  1  0.75025300  0.25181000  0.75415700  1
  Mn  Mn19  1  0.24902800  0.75023600  0.25543800  1
  Mn  Mn20  1  0.91635700  0.74816800  0.91249800  1
  Mn  Mn21  1  0.41779900  0.24973000  0.41128700  1
  Co  Co22  1  0.33331300  0.99999300  0.33330300  1
  Co  Co23  1  0.83337100  0.50000000  0.83333100  1
  O  O24  1  0.09183800  0.18669400  0.87773300  1
  O  O25  1  0.59299000  0.68664800  0.37870800  1
  O  O26  1  0.07371500  0.31335800  0.28794700  1
  O  O27  1  0.57484400  0.81328400  0.78896100  1
  O  O28  1  0.97905100  0.68163700  0.74467400  1
  O  O29  1  0.47435500  0.18168200  0.24266900  1
  O  O30  1  0.68765700  0.31837900  0.92201200  1
  O  O31  1  0.19225400  0.81827600  0.42397000  1
  O  O32  1  0.27318200  0.68845300  0.06462800  1
  O  O33  1  0.77454500  0.19042200  0.56205700  1
  O  O34  1  0.89211500  0.80952600  0.10464300  1
  O  O35  1  0.39350700  0.31153900  0.60205100  1
  O  O36  1  0.89918300  0.42909000  0.66300200  1
  O  O37  1  0.39381400  0.92853800  0.16463200  1
  O  O38  1  0.76749200  0.57090100  0.00367500  1
  O  O39  1  0.27281300  0.07140200  0.50198100  1
  O  O40  1  0.19026500  0.44534900  0.97769500  1
  O  O41  1  0.71990100  0.94248000  0.48802500  1
  O  O42  1  0.47644400  0.55469000  0.68897400  1
  O  O43  1  0.94673200  0.05748300  0.17862300  1
  O  O44  1  0.56335800  0.42887800  0.32449000  1
  O  O45  1  0.06600900  0.92762500  0.82886100  1
  O  O46  1  0.10333300  0.57111000  0.34220000  1
  O  O47  1  0.60059900  0.07235100  0.83781500  1
