# generated using pymatgen
data_Li9Mn2Co5O16
_symmetry_space_group_name_H-M   'P 1'
_cell_length_a   5.11584600
_cell_length_b   7.66273235
_cell_length_c   7.82437903
_cell_angle_alpha   80.05062210
_cell_angle_beta   84.86084790
_cell_angle_gamma   71.12326160
_symmetry_Int_Tables_number   1
_chemical_formula_structural   Li9Mn2Co5O16
_chemical_formula_sum   'Li9 Mn2 Co5 O16'
_cell_volume   285.67806817
_cell_formula_units_Z   1
loop_
 _symmetry_equiv_pos_site_id
 _symmetry_equiv_pos_as_xyz
  1  'x, y, z'
loop_
 _atom_site_type_symbol
 _atom_site_label
 _atom_site_symmetry_multiplicity
 _atom_site_fract_x
 _atom_site_fract_y
 _atom_site_fract_z
 _atom_site_occupancy
  Li  Li0  1  0.50435300  0.93859800  0.19554400  1
  Li  Li1  1  0.50426300  0.18443800  0.43774100  1
  Li  Li2  1  0.49634000  0.81291400  0.55426300  1
  Li  Li3  1  0.49988700  0.06394800  0.81152500  1
  Li  Li4  1  0.49767900  0.68721400  0.93871200  1
  Li  Li5  1  0.49493300  0.56437800  0.31632300  1
  Li  Li6  1  0.50514000  0.43601600  0.68364700  1
  Li  Li7  1  0.50134800  0.31244800  0.06407900  1
  Li  Li8  1  0.00398200  0.87320900  0.37439400  1
  Mn  Mn9  1  0.99245500  0.00198600  0.00256500  1
  Mn  Mn10  1  0.00364600  0.62414800  0.13055100  1
  Co  Co11  1  0.01385900  0.23330300  0.25610900  1
  Co  Co12  1  0.00424700  0.49843600  0.49884400  1
  Co  Co13  1  0.99836500  0.75511700  0.73727200  1
  Co  Co14  1  0.99988900  0.12546500  0.62475200  1
  Co  Co15  1  0.98585100  0.38351500  0.87205900  1
  O  O16  1  0.77352700  0.84238900  0.97886100  1
  O  O17  1  0.77450700  0.09005900  0.20024000  1
  O  O18  1  0.78304700  0.69616900  0.33661200  1
  O  O19  1  0.77060800  0.97141400  0.60433500  1
  O  O20  1  0.75212600  0.59084100  0.72769000  1
  O  O21  1  0.78412500  0.46881200  0.09895800  1
  O  O22  1  0.78386000  0.33561000  0.47086000  1
  O  O23  1  0.76005300  0.21200000  0.85122700  1
  O  O24  1  0.25045600  0.04059400  0.39950600  1
  O  O25  1  0.21479100  0.28670500  0.65458300  1
  O  O26  1  0.21833400  0.92337900  0.78691300  1
  O  O27  1  0.21812800  0.15620800  0.02343000  1
  O  O28  1  0.22700600  0.78331800  0.14301200  1
  O  O29  1  0.22614700  0.64512200  0.54095200  1
  O  O30  1  0.21372200  0.54694900  0.91489000  1
  O  O31  1  0.24332500  0.41530300  0.26955500  1
