# generated using pymatgen
data_Li3MoN2
_symmetry_space_group_name_H-M   'P 1'
_cell_length_a   8.50931833
_cell_length_b   9.82571394
_cell_length_c   9.82571321
_cell_angle_alpha   89.99999865
_cell_angle_beta   125.26439006
_cell_angle_gamma   54.73561296
_symmetry_Int_Tables_number   1
_chemical_formula_structural   Li3MoN2
_chemical_formula_sum   'Li24 Mo8 N16'
_cell_volume   474.31008363
_cell_formula_units_Z   8
loop_
 _symmetry_equiv_pos_site_id
 _symmetry_equiv_pos_as_xyz
  1  'x, y, z'
loop_
 _atom_site_type_symbol
 _atom_site_label
 _atom_site_symmetry_multiplicity
 _atom_site_fract_x
 _atom_site_fract_y
 _atom_site_fract_z
 _atom_site_occupancy
  Li  Li0  1  0.22041505  0.04606862  0.99337475  1
  Li  Li1  1  0.77958495  0.76648367  0.50662525  1
  Li  Li2  1  0.77958495  0.45393138  0.77296069  1
  Li  Li3  1  0.22041505  0.73351633  0.72703931  1
  Li  Li4  1  0.23366456  0.77296069  0.27310892  1
  Li  Li5  1  0.76633544  0.72703931  0.03944436  1
  Li  Li6  1  0.23366456  0.99337475  0.46055564  1
  Li  Li7  1  0.76633544  0.50662525  0.22689108  1
  Li  Li8  1  0.68744772  0.03944436  0.73351633  1
  Li  Li9  1  0.68744772  0.27310892  0.45393138  1
  Li  Li10  1  0.31255228  0.22689108  0.76648367  1
  Li  Li11  1  0.31255228  0.46055564  0.04606862  1
  Li  Li12  1  0.77958495  0.95393138  0.00662525  1
  Li  Li13  1  0.22041505  0.23351633  0.49337475  1
  Li  Li14  1  0.22041505  0.54606862  0.22703931  1
  Li  Li15  1  0.77958495  0.26648367  0.27296069  1
  Li  Li16  1  0.76633544  0.22703931  0.72689108  1
  Li  Li17  1  0.23366456  0.27296069  0.96055564  1
  Li  Li18  1  0.76633544  0.00662525  0.53944436  1
  Li  Li19  1  0.23366456  0.49337475  0.77310892  1
  Li  Li20  1  0.31255228  0.96055564  0.26648367  1
  Li  Li21  1  0.31255228  0.72689108  0.54606862  1
  Li  Li22  1  0.68744772  0.77310892  0.23351633  1
  Li  Li23  1  0.68744772  0.53944436  0.95393138  1
  Mo  Mo24  1  0.23214437  0.00000000  0.73214437  1
  Mo  Mo25  1  0.76785563  0.73214437  0.76785563  1
  Mo  Mo26  1  0.76785563  0.50000000  0.50000000  1
  Mo  Mo27  1  0.23214437  0.76785563  0.00000000  1
  Mo  Mo28  1  0.76785563  -0.00000000  0.26785563  1
  Mo  Mo29  1  0.23214437  0.26785563  0.23214437  1
  Mo  Mo30  1  0.23214437  0.50000000  0.50000000  1
  Mo  Mo31  1  0.76785563  0.23214437  1.00000000  1
  N  N32  1  0.00000000  -0.00000000  0.50000000  1
  N  N33  1  0.00000000  0.50000000  0.00000000  1
  N  N34  1  0.00000000  0.50000000  0.50000000  1
  N  N35  1  0.00000000  -0.00000000  0.00000000  1
  N  N36  1  0.50000000  0.98003465  0.75000000  1
  N  N37  1  0.50000000  0.51996535  0.25000000  1
  N  N38  1  1.00000000  0.25000000  0.73003465  1
  N  N39  1  0.00000000  0.75000000  0.76996535  1
  N  N40  1  0.53993070  0.73003465  0.51996535  1
  N  N41  1  0.46006930  0.76996535  0.98003465  1
  N  N42  1  0.50000000  0.01996535  0.25000000  1
  N  N43  1  0.50000000  0.48003465  0.75000000  1
  N  N44  1  0.00000000  0.75000000  0.26996535  1
  N  N45  1  1.00000000  0.25000000  0.23003465  1
  N  N46  1  0.46006930  0.26996535  0.48003465  1
  N  N47  1  0.53993070  0.23003465  0.01996535  1
