# generated using pymatgen
data_LiCr2(PO4)3
_symmetry_space_group_name_H-M   'P 1'
_cell_length_a   8.54567400
_cell_length_b   8.52395500
_cell_length_c   12.11719960
_cell_angle_alpha   89.87335263
_cell_angle_beta   90.00000000
_cell_angle_gamma   90.00000000
_symmetry_Int_Tables_number   1
_chemical_formula_structural   LiCr2(PO4)3
_chemical_formula_sum   'Li4 Cr8 P12 O48'
_cell_volume   882.65029480
_cell_formula_units_Z   4
loop_
 _symmetry_equiv_pos_site_id
 _symmetry_equiv_pos_as_xyz
  1  'x, y, z'
loop_
 _atom_site_type_symbol
 _atom_site_label
 _atom_site_symmetry_multiplicity
 _atom_site_fract_x
 _atom_site_fract_y
 _atom_site_fract_z
 _atom_site_occupancy
  Li  Li0  1  0.50000000  0.50000000  0.50000000  1
  Li  Li1  1  0.00000000  0.00000000  0.00000000  1
  Li  Li2  1  0.00000000  0.00000000  0.50000000  1
  Li  Li3  1  0.50000000  0.50000000  0.00000000  1
  Cr  Cr4  1  0.00314800  0.28006900  0.36017300  1
  Cr  Cr5  1  0.99685200  0.28006900  0.86017300  1
  Cr  Cr6  1  0.49719000  0.77923200  0.85605600  1
  Cr  Cr7  1  0.00314800  0.71993100  0.13982700  1
  Cr  Cr8  1  0.50281000  0.77923200  0.35605600  1
  Cr  Cr9  1  0.49719000  0.22076800  0.64394400  1
  Cr  Cr10  1  0.99685200  0.71993100  0.63982700  1
  Cr  Cr11  1  0.50281000  0.22076800  0.14394400  1
  P  P12  1  0.79448400  0.00000000  0.25000000  1
  P  P13  1  0.35843900  0.14905400  0.39384500  1
  P  P14  1  0.85479400  0.64706500  0.89535200  1
  P  P15  1  0.35843900  0.85094600  0.10615500  1
  P  P16  1  0.64156100  0.14905400  0.89384500  1
  P  P17  1  0.20551600  0.00000000  0.75000000  1
  P  P18  1  0.14520600  0.64706500  0.39535200  1
  P  P19  1  0.28771900  0.50000000  0.75000000  1
  P  P20  1  0.85479400  0.35293500  0.60464800  1
  P  P21  1  0.71228100  0.50000000  0.25000000  1
  P  P22  1  0.14520600  0.35293500  0.10464800  1
  P  P23  1  0.64156100  0.85094600  0.60615500  1
  O  O24  1  0.42414600  0.24828600  0.49034900  1
  O  O25  1  0.09940000  0.07211400  0.84044500  1
  O  O26  1  0.39646800  0.42626100  0.66157100  1
  O  O27  1  0.41303600  0.97869500  0.39613800  1
  O  O28  1  0.10267900  0.47301000  0.40701100  1
  O  O29  1  0.60353200  0.57373900  0.33842900  1
  O  O30  1  0.57585400  0.24828600  0.99034900  1
  O  O31  1  0.17766000  0.14621600  0.40966500  1
  O  O32  1  0.18910800  0.62074000  0.68651700  1
  O  O33  1  0.39646800  0.57373900  0.83842900  1
  O  O34  1  0.89732100  0.52699000  0.59298900  1
  O  O35  1  0.30393400  0.12711000  0.69266200  1
  O  O36  1  0.82234000  0.14621600  0.90966500  1
  O  O37  1  0.58696400  0.02130500  0.60386200  1
  O  O38  1  0.06976400  0.75052200  0.48643700  1
  O  O39  1  0.67476700  0.34430200  0.58653000  1
  O  O40  1  0.06976400  0.24947800  0.01356300  1
  O  O41  1  0.30393400  0.87289000  0.80733800  1
  O  O42  1  0.32523300  0.34430200  0.08653000  1
  O  O43  1  0.67476700  0.65569800  0.91347000  1
  O  O44  1  0.89732100  0.47301000  0.90701100  1
  O  O45  1  0.09427000  0.27985400  0.21442600  1
  O  O46  1  0.59194600  0.76350000  0.71153900  1
  O  O47  1  0.41303600  0.02130500  0.10386200  1
  O  O48  1  0.90573000  0.72014600  0.78557400  1
  O  O49  1  0.90060000  0.07211400  0.34044500  1
  O  O50  1  0.93023600  0.75052200  0.98643700  1
  O  O51  1  0.90573000  0.27985400  0.71442600  1
  O  O52  1  0.82234000  0.85378400  0.59033500  1
  O  O53  1  0.81089200  0.62074000  0.18651700  1
  O  O54  1  0.57585400  0.75171400  0.50965100  1
  O  O55  1  0.93023600  0.24947800  0.51356300  1
  O  O56  1  0.32523300  0.65569800  0.41347000  1
  O  O57  1  0.40805400  0.76350000  0.21153900  1
  O  O58  1  0.69606600  0.12711000  0.19266200  1
  O  O59  1  0.17766000  0.85378400  0.09033500  1
  O  O60  1  0.60353200  0.42626100  0.16157100  1
  O  O61  1  0.58696400  0.97869500  0.89613800  1
  O  O62  1  0.10267900  0.52699000  0.09298900  1
  O  O63  1  0.09940000  0.92788600  0.65955500  1
  O  O64  1  0.09427000  0.72014600  0.28557400  1
  O  O65  1  0.18910800  0.37926000  0.81348300  1
  O  O66  1  0.40805400  0.23650000  0.28846100  1
  O  O67  1  0.69606600  0.87289000  0.30733800  1
  O  O68  1  0.59194600  0.23650000  0.78846100  1
  O  O69  1  0.42414600  0.75171400  0.00965100  1
  O  O70  1  0.90060000  0.92788600  0.15955500  1
  O  O71  1  0.81089200  0.37926000  0.31348300  1
