# generated using pymatgen
data_Li2V3TeO8
_symmetry_space_group_name_H-M   'P 1'
_cell_length_a   6.05105285
_cell_length_b   10.48106048
_cell_length_c   6.23602841
_cell_angle_alpha   106.25166749
_cell_angle_beta   60.97885344
_cell_angle_gamma   89.82291868
_symmetry_Int_Tables_number   1
_chemical_formula_structural   Li2V3TeO8
_chemical_formula_sum   'Li4 V6 Te2 O16'
_cell_volume   327.44697295
_cell_formula_units_Z   2
loop_
 _symmetry_equiv_pos_site_id
 _symmetry_equiv_pos_as_xyz
  1  'x, y, z'
loop_
 _atom_site_type_symbol
 _atom_site_label
 _atom_site_symmetry_multiplicity
 _atom_site_fract_x
 _atom_site_fract_y
 _atom_site_fract_z
 _atom_site_occupancy
  Li  Li0  1  0.30659200  0.56574200  0.38695600  1
  Li  Li1  1  0.80723400  0.06388400  0.38740000  1
  Li  Li2  1  0.19337400  0.93425900  0.61302000  1
  Li  Li3  1  0.69271200  0.43612000  0.61258500  1
  V  V4  1  0.24999600  0.75003900  0.00000900  1
  V  V5  1  0.75010700  0.75001200  0.00016100  1
  V  V6  1  0.25005500  0.24995100  0.00003800  1
  V  V7  1  0.74997400  0.24998500  0.99998400  1
  V  V8  1  0.00026700  0.49941600  0.99927000  1
  V  V9  1  0.49969300  0.00058800  0.00075200  1
  Te  Te10  1  0.74998800  0.75001600  0.49999300  1
  Te  Te11  1  0.25005500  0.25001600  0.49994400  1
  O  O12  1  0.10030600  0.63241200  0.79948500  1
  O  O13  1  0.60076100  0.13334500  0.79813100  1
  O  O14  1  0.39966400  0.86759600  0.20051300  1
  O  O15  1  0.89928800  0.36662800  0.20179100  1
  O  O16  1  0.88987300  0.85869100  0.23617800  1
  O  O17  1  0.39283100  0.35979900  0.23651100  1
  O  O18  1  0.11083600  0.62797600  0.23694300  1
  O  O19  1  0.60934400  0.12635300  0.23418300  1
  O  O20  1  0.64720600  0.63500600  0.23502800  1
  O  O21  1  0.15134600  0.12958700  0.23453700  1
  O  O22  1  0.85280500  0.86498800  0.76496100  1
  O  O23  1  0.34862000  0.37038400  0.76549800  1
  O  O24  1  0.38914900  0.87206500  0.76309000  1
  O  O25  1  0.89067500  0.37365000  0.76577300  1
  O  O26  1  0.61007700  0.64133100  0.76382600  1
  O  O27  1  0.10717000  0.14016400  0.76344100  1
