# generated using pymatgen
data_LiNbCo3(PO4)6
_symmetry_space_group_name_H-M   'P 1'
_cell_length_a   8.85840369
_cell_length_b   8.85840369
_cell_length_c   8.85840334
_cell_angle_alpha   59.02681652
_cell_angle_beta   59.02681652
_cell_angle_gamma   59.02681895
_symmetry_Int_Tables_number   1
_chemical_formula_structural   LiNbCo3(PO4)6
_chemical_formula_sum   'Li1 Nb1 Co3 P6 O24'
_cell_volume   480.62186077
_cell_formula_units_Z   1
loop_
 _symmetry_equiv_pos_site_id
 _symmetry_equiv_pos_as_xyz
  1  'x, y, z'
loop_
 _atom_site_type_symbol
 _atom_site_label
 _atom_site_symmetry_multiplicity
 _atom_site_fract_x
 _atom_site_fract_y
 _atom_site_fract_z
 _atom_site_occupancy
  Li  Li0  1  0.97900700  0.97900700  0.97900700  1
  Nb  Nb1  1  0.14311500  0.14311500  0.14311500  1
  Co  Co2  1  0.85276200  0.85276200  0.85276200  1
  Co  Co3  1  0.64210800  0.64210800  0.64210800  1
  Co  Co4  1  0.35836800  0.35836800  0.35836800  1
  P  P5  1  0.24782000  0.54554400  0.96517800  1
  P  P6  1  0.96517800  0.24782000  0.54554400  1
  P  P7  1  0.54554400  0.96517800  0.24782000  1
  P  P8  1  0.46759400  0.03308600  0.74713800  1
  P  P9  1  0.03308600  0.74713800  0.46759400  1
  P  P10  1  0.74713800  0.46759400  0.03308600  1
  O  O11  1  0.72213900  0.48950000  0.86313200  1
  O  O12  1  0.48950000  0.86313200  0.72213900  1
  O  O13  1  0.08225600  0.72989400  0.93605500  1
  O  O14  1  0.86313200  0.72213900  0.48950000  1
  O  O15  1  0.42400200  0.55382500  0.79010000  1
  O  O16  1  0.20107500  0.37804900  0.00431800  1
  O  O17  1  0.93605500  0.08225600  0.72989400  1
  O  O18  1  0.79010000  0.42400200  0.55382500  1
  O  O19  1  0.55382500  0.79010000  0.42400200  1
  O  O20  1  0.62718200  0.00723800  0.79098500  1
  O  O21  1  0.28104300  0.06626800  0.91608000  1
  O  O22  1  0.00723800  0.79098500  0.62718200  1
  O  O23  1  0.00431800  0.20107500  0.37804900  1
  O  O24  1  0.72989400  0.93605500  0.08225600  1
  O  O25  1  0.37804900  0.00431800  0.20107500  1
  O  O26  1  0.44698200  0.20689800  0.57224600  1
  O  O27  1  0.20689800  0.57224600  0.44698200  1
  O  O28  1  0.06626800  0.91608000  0.28104300  1
  O  O29  1  0.79098500  0.62718200  0.00723800  1
  O  O30  1  0.57224600  0.44698200  0.20689800  1
  O  O31  1  0.13509200  0.28101600  0.51290600  1
  O  O32  1  0.91608000  0.28104300  0.06626800  1
  O  O33  1  0.51290600  0.13509200  0.28101600  1
  O  O34  1  0.28101600  0.51290600  0.13509200  1
