# generated using pymatgen
data_Li3Ti3VO8
_symmetry_space_group_name_H-M   'P 1'
_cell_length_a   10.48093303
_cell_length_b   10.48071629
_cell_length_c   14.86253396
_cell_angle_alpha   19.06782509
_cell_angle_beta   19.06751768
_cell_angle_gamma   32.86547572
_symmetry_Int_Tables_number   1
_chemical_formula_structural   Li3Ti3VO8
_chemical_formula_sum   'Li3 Ti3 V1 O8'
_cell_volume   150.92348587
_cell_formula_units_Z   1
loop_
 _symmetry_equiv_pos_site_id
 _symmetry_equiv_pos_as_xyz
  1  'x, y, z'
loop_
 _atom_site_type_symbol
 _atom_site_label
 _atom_site_symmetry_multiplicity
 _atom_site_fract_x
 _atom_site_fract_y
 _atom_site_fract_z
 _atom_site_occupancy
  Li  Li0  1  0.99998900  0.50000100  0.50000700  1
  Li  Li1  1  0.49999400  0.00000700  0.49999800  1
  Li  Li2  1  0.49998800  0.50000700  0.50000300  1
  Ti  Ti3  1  0.99999600  0.50000800  0.99999600  1
  Ti  Ti4  1  0.49998800  0.00000000  0.00000800  1
  Ti  Ti5  1  0.49998800  0.49999800  0.00000900  1
  V  V6  1  0.00010200  0.99998900  0.99994800  1
  O  O7  1  0.00048400  0.00048200  0.25433400  1
  O  O8  1  0.99943400  0.49732900  0.26229500  1
  O  O9  1  0.49732500  0.99940800  0.26231800  1
  O  O10  1  0.99949600  0.99952100  0.74567500  1
  O  O11  1  0.50354000  0.50351300  0.25541700  1
  O  O12  1  0.00055600  0.50265900  0.73771500  1
  O  O13  1  0.50267300  0.00059000  0.73768800  1
  O  O14  1  0.49644900  0.49648800  0.74458800  1
