# generated using pymatgen
data_Li7Mn5O12
_symmetry_space_group_name_H-M   'P 1'
_cell_length_a   6.01383213
_cell_length_b   9.89880958
_cell_length_c   7.68335772
_cell_angle_alpha   84.44846570
_cell_angle_beta   98.54978902
_cell_angle_gamma   101.34509302
_symmetry_Int_Tables_number   1
_chemical_formula_structural   Li7Mn5O12
_chemical_formula_sum   'Li14 Mn10 O24'
_cell_volume   442.39181060
_cell_formula_units_Z   2
loop_
 _symmetry_equiv_pos_site_id
 _symmetry_equiv_pos_as_xyz
  1  'x, y, z'
loop_
 _atom_site_type_symbol
 _atom_site_label
 _atom_site_symmetry_multiplicity
 _atom_site_fract_x
 _atom_site_fract_y
 _atom_site_fract_z
 _atom_site_occupancy
  Li  Li0  1  0.16668200  0.25000500  0.41667700  1
  Li  Li1  1  0.16665100  0.74999900  0.91665800  1
  Li  Li2  1  0.66666600  0.25001300  0.41668100  1
  Li  Li3  1  0.66666200  0.74998500  0.91664700  1
  Li  Li4  1  0.16667300  0.00001000  0.66670100  1
  Li  Li5  1  0.16666200  0.49999100  0.16664400  1
  Li  Li6  1  0.32716500  0.75247100  0.58535400  1
  Li  Li7  1  0.32704000  0.25252800  0.08529000  1
  Li  Li8  1  0.00621900  0.24751200  0.74803700  1
  Li  Li9  1  0.00624000  0.74748100  0.24798300  1
  Li  Li10  1  0.48992100  0.24142700  0.74340400  1
  Li  Li11  1  0.48989700  0.74140000  0.24339500  1
  Li  Li12  1  0.84337700  0.75855500  0.58996200  1
  Li  Li13  1  0.84345200  0.25861500  0.08990500  1
  Mn  Mn14  1  0.66669100  0.50001600  0.16665500  1
  Mn  Mn15  1  0.99770800  0.50397600  0.49674900  1
  Mn  Mn16  1  0.33564200  0.49602100  0.83657500  1
  Mn  Mn17  1  0.49035100  0.50089500  0.49327000  1
  Mn  Mn18  1  0.84303800  0.49912100  0.84005300  1
  Mn  Mn19  1  0.66664900  0.99998900  0.66668200  1
  Mn  Mn20  1  0.99769800  0.00396500  0.99680700  1
  Mn  Mn21  1  0.33561700  0.99603800  0.33652700  1
  Mn  Mn22  1  0.49029500  0.00088000  0.99331400  1
  Mn  Mn23  1  0.84299400  0.99910600  0.34001400  1
  O  O24  1  0.89548300  0.89530500  0.79184800  1
  O  O25  1  0.89551600  0.39533100  0.29185000  1
  O  O26  1  0.43780700  0.10468600  0.54148000  1
  O  O27  1  0.43784200  0.60467300  0.04147200  1
  O  O28  1  0.08401100  0.88423100  0.44183600  1
  O  O29  1  0.08417700  0.38418200  0.94189100  1
  O  O30  1  0.24931000  0.61576600  0.39147900  1
  O  O31  1  0.24911400  0.11584400  0.89145200  1
  O  O32  1  0.26811700  0.88070800  0.12517000  1
  O  O33  1  0.26814400  0.38073500  0.62512600  1
  O  O34  1  0.06517600  0.11927600  0.20822500  1
  O  O35  1  0.06522300  0.61928100  0.70816600  1
  O  O36  1  0.43254100  0.88348200  0.79365800  1
  O  O37  1  0.43259300  0.38353700  0.29370300  1
  O  O38  1  0.90074900  0.11647200  0.53963300  1
  O  O39  1  0.90078700  0.61650300  0.03965600  1
  O  O40  1  0.61271800  0.88289600  0.47105400  1
  O  O41  1  0.61273300  0.38290600  0.97102800  1
  O  O42  1  0.72060400  0.11710300  0.86227800  1
  O  O43  1  0.72062400  0.61709200  0.36229100  1
  O  O44  1  0.75344000  0.89417700  0.12495300  1
  O  O45  1  0.75328200  0.39421300  0.62479400  1
  O  O46  1  0.58008600  0.10578700  0.20856000  1
  O  O47  1  0.57993100  0.60582000  0.70841500  1
