# generated using pymatgen
data_Li2Cr3SnO8
_symmetry_space_group_name_H-M   'P 1'
_cell_length_a   6.01223419
_cell_length_b   6.13174261
_cell_length_c   10.26654721
_cell_angle_alpha   106.14091473
_cell_angle_beta   89.99989982
_cell_angle_gamma   60.63777958
_symmetry_Int_Tables_number   1
_chemical_formula_structural   Li2Cr3SnO8
_chemical_formula_sum   'Li4 Cr6 Sn2 O16'
_cell_volume   312.62916661
_cell_formula_units_Z   2
loop_
 _symmetry_equiv_pos_site_id
 _symmetry_equiv_pos_as_xyz
  1  'x, y, z'
loop_
 _atom_site_type_symbol
 _atom_site_label
 _atom_site_symmetry_multiplicity
 _atom_site_fract_x
 _atom_site_fract_y
 _atom_site_fract_z
 _atom_site_occupancy
  Li  Li0  1  0.31789800  0.36249100  0.55797700  1
  Li  Li1  1  0.81963300  0.36243600  0.05799400  1
  Li  Li2  1  0.18036100  0.63757800  0.94200300  1
  Li  Li3  1  0.68209600  0.63752500  0.44203000  1
  Cr  Cr4  1  0.25007100  0.00090200  0.75057700  1
  Cr  Cr5  1  0.74990600  0.99912300  0.24944500  1
  Cr  Cr6  1  0.00001200  0.99994800  0.49998500  1
  Cr  Cr7  1  0.75073900  0.99937300  0.74973300  1
  Cr  Cr8  1  0.24930000  0.00060600  0.25023900  1
  Cr  Cr9  1  0.50001700  0.99999000  0.00001400  1
  Sn  Sn10  1  0.75368300  0.49995700  0.74992100  1
  Sn  Sn11  1  0.24633700  0.50001500  0.25005600  1
  O  O12  1  0.10444200  0.79957300  0.62584200  1
  O  O13  1  0.59618300  0.79927300  0.12566800  1
  O  O14  1  0.40385100  0.20069800  0.87433500  1
  O  O15  1  0.89557700  0.20038800  0.37413800  1
  O  O16  1  0.88447500  0.23081800  0.85732400  1
  O  O17  1  0.38473400  0.23063900  0.35712900  1
  O  O18  1  0.66332900  0.22649800  0.62281700  1
  O  O19  1  0.15634600  0.22765500  0.12611700  1
  O  O20  1  0.11594900  0.22776500  0.62625100  1
  O  O21  1  0.61020100  0.22645500  0.12273900  1
  O  O22  1  0.38978100  0.77359000  0.87728500  1
  O  O23  1  0.88400400  0.77224000  0.37375700  1
  O  O24  1  0.84365900  0.77238100  0.87389700  1
  O  O25  1  0.33668900  0.77348200  0.37716600  1
  O  O26  1  0.61523700  0.76939600  0.64287200  1
  O  O27  1  0.11549100  0.76920500  0.14268700  1
