# generated using pymatgen
data_LiAlSiO4
_symmetry_space_group_name_H-M   'P 1'
_cell_length_a   11.32198300
_cell_length_b   5.29024500
_cell_length_c   5.30012143
_cell_angle_alpha   60.17474948
_cell_angle_beta   90.00000000
_cell_angle_gamma   90.00000000
_symmetry_Int_Tables_number   1
_chemical_formula_structural   LiAlSiO4
_chemical_formula_sum   'Li3 Al3 Si3 O12'
_cell_volume   275.40815157
_cell_formula_units_Z   3
loop_
 _symmetry_equiv_pos_site_id
 _symmetry_equiv_pos_as_xyz
  1  'x, y, z'
loop_
 _atom_site_type_symbol
 _atom_site_label
 _atom_site_symmetry_multiplicity
 _atom_site_fract_x
 _atom_site_fract_y
 _atom_site_fract_z
 _atom_site_occupancy
  Li  Li0  1  0.66436100  0.00000000  0.00000000  1
  Li  Li1  1  0.19622500  0.00000000  0.00000000  1
  Li  Li2  1  0.97166700  0.00000000  0.00000000  1
  Al  Al3  1  0.66258700  0.50000000  0.50000000  1
  Al  Al4  1  0.16756700  0.50000000  0.50000000  1
  Al  Al5  1  0.00270900  0.50000000  0.00000000  1
  Si  Si6  1  0.50018700  0.50000000  0.00000000  1
  Si  Si7  1  0.82968700  0.00000000  0.50000000  1
  Si  Si8  1  0.33726200  0.00000000  0.50000000  1
  O  O9  1  0.91281100  0.19695100  0.21763200  1
  O  O10  1  0.41863300  0.22343300  0.22310100  1
  O  O11  1  0.74630000  0.18455100  0.60420200  1
  O  O12  1  0.25597700  0.18686500  0.60077800  1
  O  O13  1  0.58199000  0.61489500  0.17698100  1
  O  O14  1  0.08483000  0.64765500  0.17637000  1
  O  O15  1  0.91281100  0.80304900  0.78236800  1
  O  O16  1  0.41863300  0.77656700  0.77689900  1
  O  O17  1  0.74630000  0.81544900  0.39579800  1
  O  O18  1  0.25597700  0.81313500  0.39922200  1
  O  O19  1  0.58199000  0.38510500  0.82301900  1
  O  O20  1  0.08483000  0.35234500  0.82363000  1
