# generated using pymatgen
data_LiFe(SiO3)2
_symmetry_space_group_name_H-M   'P 1'
_cell_length_a   7.78244222
_cell_length_b   7.78234196
_cell_length_c   9.58966726
_cell_angle_alpha   89.99593181
_cell_angle_beta   89.99330046
_cell_angle_gamma   89.68934120
_symmetry_Int_Tables_number   1
_chemical_formula_structural   LiFe(SiO3)2
_chemical_formula_sum   'Li4 Fe4 Si8 O24'
_cell_volume   580.79566396
_cell_formula_units_Z   4
loop_
 _symmetry_equiv_pos_site_id
 _symmetry_equiv_pos_as_xyz
  1  'x, y, z'
loop_
 _atom_site_type_symbol
 _atom_site_label
 _atom_site_symmetry_multiplicity
 _atom_site_fract_x
 _atom_site_fract_y
 _atom_site_fract_z
 _atom_site_occupancy
  Li  Li0  1  0.17201754  0.17207351  0.49999263  1
  Li  Li1  1  0.40072549  0.59929463  0.25000303  1
  Li  Li2  1  0.59925145  0.40080437  0.74999112  1
  Li  Li3  1  0.82793255  0.82798410  0.99998820  1
  Fe  Fe4  1  0.13183456  0.31352017  0.76378337  1
  Fe  Fe5  1  0.31361657  0.13174103  0.23627338  1
  Fe  Fe6  1  0.68645340  0.86812238  0.73619658  1
  Fe  Fe7  1  0.86818331  0.68647368  0.26378752  1
  Si  Si8  1  0.10961255  0.89039168  0.75000678  1
  Si  Si9  1  0.16684487  0.59890158  0.51234639  1
  Si  Si10  1  0.40109247  0.83312157  0.98767118  1
  Si  Si11  1  0.42925185  0.42920494  0.99999885  1
  Si  Si12  1  0.57073161  0.57074027  0.50000254  1
  Si  Si13  1  0.59887525  0.16684411  0.48765486  1
  Si  Si14  1  0.83316167  0.40118736  0.01233706  1
  Si  Si15  1  0.89040539  0.10963216  0.24998056  1
  O  O16  1  0.94404523  0.36527429  0.87324542  1
  O  O17  1  0.13724739  0.08522082  0.69114702  1
  O  O18  1  0.13084543  0.41201446  0.58233499  1
  O  O19  1  0.14817474  0.75517320  0.62365738  1
  O  O20  1  0.24481969  0.85189366  0.87638215  1
  O  O21  1  0.08520734  0.13728903  0.30884183  1
  O  O22  1  0.36787563  0.59867341  0.45353063  1
  O  O23  1  0.33727558  0.37747340  0.85478699  1
  O  O24  1  0.37754761  0.33718750  0.14521048  1
  O  O25  1  0.36525234  0.94395019  0.12679992  1
  O  O26  1  0.40128660  0.63207996  0.04646554  1
  O  O27  1  0.58797405  0.86910739  0.91765580  1
  O  O28  1  0.41200153  0.13080575  0.41772663  1
  O  O29  1  0.59864029  0.36786105  0.54646841  1
  O  O30  1  0.63476491  0.05594748  0.62674559  1
  O  O31  1  0.62247981  0.66270466  0.64521294  1
  O  O32  1  0.66274070  0.62248843  0.35479307  1
  O  O33  1  0.63216122  0.40138052  0.95349979  1
  O  O34  1  0.91475302  0.86269313  0.80879901  1
  O  O35  1  0.75517217  0.14811151  0.37635242  1
  O  O36  1  0.85189056  0.24490183  0.12363395  1
  O  O37  1  0.86917199  0.58805177  0.08231647  1
  O  O38  1  0.86269414  0.91481764  0.19112466  1
  O  O39  1  0.05598751  0.63486136  0.37325488  1
