# generated using pymatgen
data_Li3MgTi8O16
_symmetry_space_group_name_H-M   'P 1'
_cell_length_a   10.46342556
_cell_length_b   10.46342556
_cell_length_c   10.46342555
_cell_angle_alpha   33.25308696
_cell_angle_beta   33.25308696
_cell_angle_gamma   33.25308674
_symmetry_Int_Tables_number   1
_chemical_formula_structural   Li3MgTi8O16
_chemical_formula_sum   'Li3 Mg1 Ti8 O16'
_cell_volume   306.65169050
_cell_formula_units_Z   1
loop_
 _symmetry_equiv_pos_site_id
 _symmetry_equiv_pos_as_xyz
  1  'x, y, z'
loop_
 _atom_site_type_symbol
 _atom_site_label
 _atom_site_symmetry_multiplicity
 _atom_site_fract_x
 _atom_site_fract_y
 _atom_site_fract_z
 _atom_site_occupancy
  Li  Li0  1  0.18819300  0.18819300  0.18819300  1
  Li  Li1  1  0.31039700  0.31039700  0.31039700  1
  Li  Li2  1  0.81345800  0.81345800  0.81345800  1
  Mg  Mg3  1  0.99864000  0.99864000  0.99864000  1
  Ti  Ti4  1  0.75364500  0.75364500  0.24166000  1
  Ti  Ti5  1  0.50101000  0.50101000  0.50101000  1
  Ti  Ti6  1  0.24166000  0.75364500  0.75364500  1
  Ti  Ti7  1  0.75364500  0.24166000  0.75364500  1
  Ti  Ti8  1  0.68805800  0.68805800  0.68805800  1
  Ti  Ti9  1  0.25580900  0.25580900  0.74458800  1
  Ti  Ti10  1  0.25580900  0.74458800  0.25580900  1
  Ti  Ti11  1  0.74458800  0.25580900  0.25580900  1
  O  O12  1  0.39516700  0.84131300  0.39516700  1
  O  O13  1  0.84131300  0.39516700  0.39516700  1
  O  O14  1  0.39516700  0.39516700  0.84131300  1
  O  O15  1  0.62288000  0.62288000  0.62288000  1
  O  O16  1  0.88007100  0.88007100  0.88007100  1
  O  O17  1  0.10630800  0.10630800  0.64910800  1
  O  O18  1  0.10630800  0.64910800  0.10630800  1
  O  O19  1  0.64910800  0.10630800  0.10630800  1
  O  O20  1  0.88219400  0.36511800  0.88219400  1
  O  O21  1  0.36511800  0.88219400  0.88219400  1
  O  O22  1  0.88219400  0.88219400  0.36511800  1
  O  O23  1  0.11768700  0.11768700  0.11768700  1
  O  O24  1  0.38140300  0.38140300  0.38140300  1
  O  O25  1  0.60841700  0.60841700  0.15332700  1
  O  O26  1  0.15332700  0.60841700  0.60841700  1
  O  O27  1  0.60841700  0.15332700  0.60841700  1
