# generated using pymatgen
data_Li5Mn2CoO8
_symmetry_space_group_name_H-M   'P 1'
_cell_length_a   2.87922608
_cell_length_b   5.88032079
_cell_length_c   16.30627208
_cell_angle_alpha   89.07552377
_cell_angle_beta   89.99111497
_cell_angle_gamma   89.98426149
_symmetry_Int_Tables_number   1
_chemical_formula_structural   Li5Mn2CoO8
_chemical_formula_sum   'Li10 Mn4 Co2 O16'
_cell_volume   276.04184071
_cell_formula_units_Z   2
loop_
 _symmetry_equiv_pos_site_id
 _symmetry_equiv_pos_as_xyz
  1  'x, y, z'
loop_
 _atom_site_type_symbol
 _atom_site_label
 _atom_site_symmetry_multiplicity
 _atom_site_fract_x
 _atom_site_fract_y
 _atom_site_fract_z
 _atom_site_occupancy
  Li  Li0  1  0.49999800  0.24993200  0.12498500  1
  Li  Li1  1  0.49999500  0.25007900  0.62502400  1
  Li  Li2  1  0.49999600  0.75001100  0.37498900  1
  Li  Li3  1  0.49999600  0.75002300  0.87499000  1
  Li  Li4  1  0.49999800  0.74990000  0.12499700  1
  Li  Li5  1  0.49999800  0.75011400  0.62501800  1
  Li  Li6  1  0.99891100  0.50871400  0.01023800  1
  Li  Li7  1  0.99892200  0.50886500  0.51028000  1
  Li  Li8  1  0.00106800  0.99113700  0.23973300  1
  Li  Li9  1  0.00107300  0.99132500  0.73977400  1
  Mn  Mn10  1  0.00070500  0.99938700  0.50358400  1
  Mn  Mn11  1  0.99929700  0.50060100  0.24642100  1
  Mn  Mn12  1  0.00067700  0.99911600  0.00354800  1
  Mn  Mn13  1  0.99934200  0.50088000  0.74645300  1
  Co  Co14  1  0.49999400  0.25000100  0.37500200  1
  Co  Co15  1  0.49999900  0.25002100  0.87500200  1
  O  O16  1  0.50018200  0.22995500  0.99365200  1
  O  O17  1  0.50017900  0.23016300  0.49366400  1
  O  O18  1  0.49980700  0.26981700  0.25636400  1
  O  O19  1  0.49983100  0.27003800  0.75637400  1
  O  O20  1  0.00027400  0.00364900  0.11480000  1
  O  O21  1  0.00028600  0.00386800  0.61484100  1
  O  O22  1  0.99974200  0.49607700  0.13516900  1
  O  O23  1  0.99975000  0.49629500  0.63520800  1
  O  O24  1  0.99975900  0.47251300  0.37066300  1
  O  O25  1  0.99975800  0.47257300  0.87068900  1
  O  O26  1  0.00022600  0.02749000  0.37931500  1
  O  O27  1  0.00023500  0.02747200  0.87928700  1
  O  O28  1  0.49949900  0.72010200  0.25223700  1
  O  O29  1  0.49953400  0.72032900  0.75227100  1
  O  O30  1  0.50049000  0.77988800  0.49773000  1
  O  O31  1  0.50048200  0.77966200  0.99769700  1
