# generated using pymatgen
data_Li4MnCo2O7
_symmetry_space_group_name_H-M   'P 1'
_cell_length_a   10.36527460
_cell_length_b   10.36527460
_cell_length_c   5.18398969
_cell_angle_alpha   84.64139519
_cell_angle_beta   84.64139519
_cell_angle_gamma   151.05037226
_symmetry_Int_Tables_number   1
_chemical_formula_structural   Li4MnCo2O7
_chemical_formula_sum   'Li8 Mn2 Co4 O14'
_cell_volume   250.06845265
_cell_formula_units_Z   2
loop_
 _symmetry_equiv_pos_site_id
 _symmetry_equiv_pos_as_xyz
  1  'x, y, z'
loop_
 _atom_site_type_symbol
 _atom_site_label
 _atom_site_symmetry_multiplicity
 _atom_site_fract_x
 _atom_site_fract_y
 _atom_site_fract_z
 _atom_site_occupancy
  Li  Li0  1  0.93096400  0.06903600  0.50000000  1
  Li  Li1  1  0.35683500  0.64316500  0.50000000  1
  Li  Li2  1  0.78093100  0.21906900  0.50000000  1
  Li  Li3  1  0.21260600  0.78739400  0.50000000  1
  Li  Li4  1  0.64118200  0.35881800  0.50000000  1
  Li  Li5  1  0.07358500  0.92641500  0.50000000  1
  Li  Li6  1  0.50377900  0.49622100  0.50000000  1
  Li  Li7  1  0.57327200  0.42672800  0.00000000  1
  Mn  Mn8  1  0.00009400  0.99990600  0.00000000  1
  Mn  Mn9  1  0.85638100  0.14361900  0.00000000  1
  Co  Co10  1  0.42975600  0.57024400  0.00000000  1
  Co  Co11  1  0.28443100  0.71556900  0.00000000  1
  Co  Co12  1  0.71269900  0.28730100  0.00000000  1
  Co  Co13  1  0.14304000  0.85696000  0.00000000  1
  O  O14  1  0.70073700  0.84697600  0.23651100  1
  O  O15  1  0.10997300  0.39630400  0.20442000  1
  O  O16  1  0.56107200  0.98489900  0.23104900  1
  O  O17  1  0.99124000  0.55649400  0.23139800  1
  O  O18  1  0.40914200  0.11181300  0.22531300  1
  O  O19  1  0.84976300  0.71488500  0.23857500  1
  O  O20  1  0.24213000  0.25224200  0.20859300  1
  O  O21  1  0.15302400  0.29926300  0.76348900  1
  O  O22  1  0.60369600  0.89002700  0.79558000  1
  O  O23  1  0.01510100  0.43892800  0.76895100  1
  O  O24  1  0.44350600  0.00876000  0.76860200  1
  O  O25  1  0.88818700  0.59085800  0.77468700  1
  O  O26  1  0.28511500  0.15023700  0.76142500  1
  O  O27  1  0.74775800  0.75787000  0.79140700  1
