# generated using pymatgen
data_Li4MnCo2O7
_symmetry_space_group_name_H-M   'P 1'
_cell_length_a   7.78279422
_cell_length_b   7.78279422
_cell_length_c   13.08082513
_cell_angle_alpha   61.44938737
_cell_angle_beta   61.44938737
_cell_angle_gamma   21.44588256
_symmetry_Int_Tables_number   1
_chemical_formula_structural   Li4MnCo2O7
_chemical_formula_sum   'Li8 Mn2 Co4 O14'
_cell_volume   253.11114649
_cell_formula_units_Z   2
loop_
 _symmetry_equiv_pos_site_id
 _symmetry_equiv_pos_as_xyz
  1  'x, y, z'
loop_
 _atom_site_type_symbol
 _atom_site_label
 _atom_site_symmetry_multiplicity
 _atom_site_fract_x
 _atom_site_fract_y
 _atom_site_fract_z
 _atom_site_occupancy
  Li  Li0  1  0.64809100  0.64809100  0.77178000  1
  Li  Li1  1  0.92626300  0.92626300  0.36480600  1
  Li  Li2  1  0.21362000  0.21362000  0.92711200  1
  Li  Li3  1  0.07453200  0.07453200  0.63958100  1
  Li  Li4  1  0.35268300  0.35268300  0.22183100  1
  Li  Li5  1  0.49537200  0.49537200  0.50076600  1
  Li  Li6  1  0.78359200  0.78359200  0.07590200  1
  Li  Li7  1  0.28902300  0.28902300  0.57048500  1
  Mn  Mn8  1  0.99890800  0.99890800  0.00103000  1
  Mn  Mn9  1  0.85758500  0.85758500  0.70488800  1
  Co  Co10  1  0.56976900  0.56976900  0.15024100  1
  Co  Co11  1  0.14698100  0.14698100  0.28679600  1
  Co  Co12  1  0.42899700  0.42899700  0.85169000  1
  Co  Co13  1  0.71449800  0.71449800  0.44622900  1
  O  O14  1  0.59679700  0.59679700  0.96895700  1
  O  O15  1  0.89055100  0.89055100  0.55073600  1
  O  O16  1  0.17202800  0.17202800  0.11073800  1
  O  O17  1  0.02329000  0.02329000  0.82337000  1
  O  O18  1  0.31120300  0.31120300  0.39627300  1
  O  O19  1  0.45250100  0.45250100  0.68003500  1
  O  O20  1  0.74342800  0.74342800  0.25081800  1
  O  O21  1  0.67709000  0.67709000  0.60049800  1
  O  O22  1  0.97112000  0.97112000  0.17786400  1
  O  O23  1  0.26051000  0.26051000  0.74880100  1
  O  O24  1  0.12191200  0.12191200  0.45432000  1
  O  O25  1  0.40234500  0.40234500  0.03055200  1
  O  O26  1  0.54222900  0.54222900  0.31721600  1
  O  O27  1  0.83508300  0.83508300  0.87668500  1
