# generated using pymatgen
data_Li4Co3O7
_symmetry_space_group_name_H-M   'P 1'
_cell_length_a   10.71209145
_cell_length_b   10.71209145
_cell_length_c   8.15329950
_cell_angle_alpha   78.27040681
_cell_angle_beta   78.27040681
_cell_angle_gamma   15.77857818
_symmetry_Int_Tables_number   1
_chemical_formula_structural   Li4Co3O7
_chemical_formula_sum   'Li8 Co6 O14'
_cell_volume   248.98835013
_cell_formula_units_Z   2
loop_
 _symmetry_equiv_pos_site_id
 _symmetry_equiv_pos_as_xyz
  1  'x, y, z'
loop_
 _atom_site_type_symbol
 _atom_site_label
 _atom_site_symmetry_multiplicity
 _atom_site_fract_x
 _atom_site_fract_y
 _atom_site_fract_z
 _atom_site_occupancy
  Li  Li0  1  0.50000000  0.50000000  0.50000000  1
  Li  Li1  1  0.35773800  0.35773800  0.07499300  1
  Li  Li2  1  0.21391900  0.21391900  0.64670300  1
  Li  Li3  1  0.06926100  0.06926100  0.20306600  1
  Li  Li4  1  0.93073900  0.93073900  0.79693400  1
  Li  Li5  1  0.78608100  0.78608100  0.35329700  1
  Li  Li6  1  0.64226200  0.64226200  0.92500700  1
  Li  Li7  1  0.50000000  0.50000000  0.00000000  1
  Co  Co8  1  0.06962700  0.06962700  0.72683300  1
  Co  Co9  1  0.93037300  0.93037300  0.27316700  1
  Co  Co10  1  0.78875100  0.78875100  0.86127900  1
  Co  Co11  1  0.64258900  0.64258900  0.42793400  1
  Co  Co12  1  0.35741100  0.35741100  0.57206600  1
  Co  Co13  1  0.21124900  0.21124900  0.13872100  1
  O  O14  1  0.50598700  0.50598700  0.74588300  1
  O  O15  1  0.36203100  0.36203100  0.32347900  1
  O  O16  1  0.21783800  0.21783800  0.89969900  1
  O  O17  1  0.07471300  0.07471300  0.48534600  1
  O  O18  1  0.92815500  0.92815500  0.06139400  1
  O  O19  1  0.78919100  0.78919100  0.61756900  1
  O  O20  1  0.64294900  0.64294900  0.18029700  1
  O  O21  1  0.49401300  0.49401300  0.25411700  1
  O  O22  1  0.35705100  0.35705100  0.81970300  1
  O  O23  1  0.21080900  0.21080900  0.38243100  1
  O  O24  1  0.07184500  0.07184500  0.93860600  1
  O  O25  1  0.92528700  0.92528700  0.51465400  1
  O  O26  1  0.78216200  0.78216200  0.10030100  1
  O  O27  1  0.63796900  0.63796900  0.67652100  1
