# generated using pymatgen
data_Li4VAs2O9
_symmetry_space_group_name_H-M   'P 1'
_cell_length_a   9.00254300
_cell_length_b   9.00254300
_cell_length_c   9.65678600
_cell_angle_alpha   90.00000000
_cell_angle_beta   90.00000000
_cell_angle_gamma   90.00000000
_symmetry_Int_Tables_number   1
_chemical_formula_structural   Li4VAs2O9
_chemical_formula_sum   'Li16 V4 As8 O36'
_cell_volume   782.64175817
_cell_formula_units_Z   4
loop_
 _symmetry_equiv_pos_site_id
 _symmetry_equiv_pos_as_xyz
  1  'x, y, z'
loop_
 _atom_site_type_symbol
 _atom_site_label
 _atom_site_symmetry_multiplicity
 _atom_site_fract_x
 _atom_site_fract_y
 _atom_site_fract_z
 _atom_site_occupancy
  Li  Li0  1  0.87049000  0.09548700  0.09469400  1
  Li  Li1  1  0.87049000  0.90451300  0.59469400  1
  Li  Li2  1  0.90451300  0.12951000  0.40530600  1
  Li  Li3  1  0.90451300  0.87049000  0.90530600  1
  Li  Li4  1  0.09548700  0.87049000  0.40530600  1
  Li  Li5  1  0.09548700  0.12951000  0.90530600  1
  Li  Li6  1  0.12951000  0.90451300  0.09469400  1
  Li  Li7  1  0.12951000  0.09548700  0.59469400  1
  Li  Li8  1  0.37049000  0.40451300  0.40530600  1
  Li  Li9  1  0.37049000  0.59548700  0.90530600  1
  Li  Li10  1  0.40451300  0.37049000  0.09469400  1
  Li  Li11  1  0.40451300  0.62951000  0.59469400  1
  Li  Li12  1  0.59548700  0.37049000  0.59469400  1
  Li  Li13  1  0.59548700  0.62951000  0.09469400  1
  Li  Li14  1  0.62951000  0.59548700  0.40530600  1
  Li  Li15  1  0.62951000  0.40451300  0.90530600  1
  V  V16  1  0.00000000  0.50000000  0.32526500  1
  V  V17  1  0.00000000  0.50000000  0.82526500  1
  V  V18  1  0.50000000  0.00000000  0.17473500  1
  V  V19  1  0.50000000  0.00000000  0.67473500  1
  As  As20  1  0.81045700  0.18954300  0.75000000  1
  As  As21  1  0.81045700  0.81045700  0.25000000  1
  As  As22  1  0.18954300  0.81045700  0.75000000  1
  As  As23  1  0.18954300  0.18954300  0.25000000  1
  As  As24  1  0.31045700  0.31045700  0.75000000  1
  As  As25  1  0.31045700  0.68954300  0.25000000  1
  As  As26  1  0.68954300  0.31045700  0.25000000  1
  As  As27  1  0.68954300  0.68954300  0.75000000  1
  O  O28  1  0.81655900  0.61874700  0.27649600  1
  O  O29  1  0.81655900  0.38125300  0.77649600  1
  O  O30  1  0.90105100  0.12568500  0.60686600  1
  O  O31  1  0.90105100  0.87431500  0.10686600  1
  O  O32  1  0.87431500  0.09894900  0.89313400  1
  O  O33  1  0.87431500  0.90105100  0.39313400  1
  O  O34  1  0.88125300  0.31655900  0.27649600  1
  O  O35  1  0.88125300  0.68344100  0.77649600  1
  O  O36  1  0.00000000  0.50000000  0.49451200  1
  O  O37  1  0.00000000  0.50000000  0.99451200  1
  O  O38  1  0.11874700  0.31655900  0.77649600  1
  O  O39  1  0.11874700  0.68344100  0.27649600  1
  O  O40  1  0.12568500  0.90105100  0.89313400  1
  O  O41  1  0.12568500  0.09894900  0.39313400  1
  O  O42  1  0.09894900  0.12568500  0.10686600  1
  O  O43  1  0.09894900  0.87431500  0.60686600  1
  O  O44  1  0.18344100  0.38125300  0.27649600  1
  O  O45  1  0.18344100  0.61874700  0.77649600  1
  O  O46  1  0.31655900  0.88125300  0.22350400  1
  O  O47  1  0.31655900  0.11874700  0.72350400  1
  O  O48  1  0.40105100  0.62568500  0.39313400  1
  O  O49  1  0.40105100  0.37431500  0.89313400  1
  O  O50  1  0.37431500  0.40105100  0.60686600  1
  O  O51  1  0.37431500  0.59894900  0.10686600  1
  O  O52  1  0.38125300  0.81655900  0.72350400  1
  O  O53  1  0.38125300  0.18344100  0.22350400  1
  O  O54  1  0.50000000  0.00000000  0.50548800  1
  O  O55  1  0.50000000  0.00000000  0.00548800  1
  O  O56  1  0.61874700  0.81655900  0.22350400  1
  O  O57  1  0.61874700  0.18344100  0.72350400  1
  O  O58  1  0.62568500  0.40105100  0.10686600  1
  O  O59  1  0.62568500  0.59894900  0.60686600  1
  O  O60  1  0.59894900  0.37431500  0.39313400  1
  O  O61  1  0.59894900  0.62568500  0.89313400  1
  O  O62  1  0.68344100  0.88125300  0.72350400  1
  O  O63  1  0.68344100  0.11874700  0.22350400  1
