# generated using pymatgen
data_LiFeSiO4
_symmetry_space_group_name_H-M   'P 1'
_cell_length_a   8.79424021
_cell_length_b   8.79024565
_cell_length_c   8.49967072
_cell_angle_alpha   90.00976249
_cell_angle_beta   90.00797820
_cell_angle_gamma   120.01284343
_symmetry_Int_Tables_number   1
_chemical_formula_structural   LiFeSiO4
_chemical_formula_sum   'Li6 Fe6 Si6 O24'
_cell_volume   568.95226081
_cell_formula_units_Z   6
loop_
 _symmetry_equiv_pos_site_id
 _symmetry_equiv_pos_as_xyz
  1  'x, y, z'
loop_
 _atom_site_type_symbol
 _atom_site_label
 _atom_site_symmetry_multiplicity
 _atom_site_fract_x
 _atom_site_fract_y
 _atom_site_fract_z
 _atom_site_occupancy
  Li  Li0  1  0.33331151  0.66669057  0.23454609  1
  Li  Li1  1  0.33335983  0.66665840  0.81043740  1
  Li  Li2  1  0.00011576  0.00010276  0.06822691  1
  Li  Li3  1  0.99994715  0.00001412  0.56825989  1
  Li  Li4  1  0.66665458  0.33326809  0.73449162  1
  Li  Li5  1  0.66668779  0.33339900  0.31042398  1
  Fe  Fe6  1  0.03503247  0.68987561  0.39831081  1
  Fe  Fe7  1  0.30984051  0.34512171  0.39826197  1
  Fe  Fe8  1  0.65457495  0.96469430  0.39836205  1
  Fe  Fe9  1  0.34537882  0.03524540  0.89837684  1
  Fe  Fe10  1  0.69008483  0.65475306  0.89829629  1
  Fe  Fe11  1  0.96481997  0.31008674  0.89835803  1
  Si  Si12  1  0.04025147  0.68386649  0.01952505  1
  Si  Si13  1  0.31625515  0.35639118  0.01948066  1
  Si  Si14  1  0.64366401  0.95982587  0.01955161  1
  Si  Si15  1  0.35632474  0.04012801  0.51949063  1
  Si  Si16  1  0.68371704  0.64356797  0.51948825  1
  Si  Si17  1  0.95984904  0.31624435  0.51954623  1
  O  O18  1  0.14096964  0.90951334  0.50861665  1
  O  O19  1  0.13478368  0.72000568  0.19388711  1
  O  O20  1  0.08477570  0.52537098  0.48488187  1
  O  O21  1  0.20362630  0.78344961  0.89148103  1
  O  O22  1  0.21649892  0.42018085  0.89159327  1
  O  O23  1  0.44051017  0.91518961  0.48497441  1
  O  O24  1  0.09049603  0.23158066  0.50876671  1
  O  O25  1  0.28016302  0.41479369  0.19384981  1
  O  O26  1  0.58500646  0.86530282  0.19386436  1
  O  O27  1  0.47465981  0.55935690  0.48484826  1
  O  O28  1  0.23160138  0.14096542  0.00867937  1
  O  O29  1  0.57988982  0.79621277  0.89163161  1
  O  O30  1  0.42008267  0.20361332  0.39150926  1
  O  O31  1  0.76837366  0.85899869  0.50878060  1
  O  O32  1  0.52533708  0.44060440  0.98500091  1
  O  O33  1  0.41481159  0.13470344  0.69387089  1
  O  O34  1  0.71986236  0.58508921  0.69380022  1
  O  O35  1  0.90958470  0.76851948  0.00865457  1
  O  O36  1  0.55952527  0.08474843  0.98490213  1
  O  O37  1  0.78343113  0.57983699  0.39149838  1
  O  O38  1  0.79619590  0.21648451  0.39171482  1
  O  O39  1  0.91528397  0.47466801  0.98501930  1
  O  O40  1  0.86547434  0.28031615  0.69391218  1
  O  O41  1  0.85899081  0.09056242  0.00882897  1
