# generated using pymatgen
data_Li7Mn4CoO12
_symmetry_space_group_name_H-M   'P 1'
_cell_length_a   5.90252854
_cell_length_b   10.11471936
_cell_length_c   8.21951984
_cell_angle_alpha   66.50360522
_cell_angle_beta   89.24246169
_cell_angle_gamma   103.96019044
_symmetry_Int_Tables_number   1
_chemical_formula_structural   Li7Mn4CoO12
_chemical_formula_sum   'Li14 Mn8 Co2 O24'
_cell_volume   433.43196621
_cell_formula_units_Z   2
loop_
 _symmetry_equiv_pos_site_id
 _symmetry_equiv_pos_as_xyz
  1  'x, y, z'
loop_
 _atom_site_type_symbol
 _atom_site_label
 _atom_site_symmetry_multiplicity
 _atom_site_fract_x
 _atom_site_fract_y
 _atom_site_fract_z
 _atom_site_occupancy
  Li  Li0  1  0.66669600  0.33331900  0.83333900  1
  Li  Li1  1  0.16670500  0.33330700  0.83336600  1
  Li  Li2  1  0.66673200  0.83328100  0.33336400  1
  Li  Li3  1  0.16673500  0.83329900  0.33334000  1
  Li  Li4  1  0.66664800  0.83332000  0.83333200  1
  Li  Li5  1  0.16665500  0.83332000  0.83333600  1
  Li  Li6  1  0.50868400  0.50733100  0.99813100  1
  Li  Li7  1  0.01577500  0.50801900  0.00038800  1
  Li  Li8  1  0.31756100  0.15866500  0.66625400  1
  Li  Li9  1  0.82464000  0.15933500  0.66857000  1
  Li  Li10  1  0.48872000  0.99487600  0.52656800  1
  Li  Li11  1  0.00736200  0.00089500  0.52451900  1
  Li  Li12  1  0.84459400  0.67180600  0.14010100  1
  Li  Li13  1  0.32605300  0.66577100  0.14215000  1
  Mn  Mn14  1  0.98972900  0.99550100  0.99263500  1
  Mn  Mn15  1  0.49113100  0.99591100  0.99208500  1
  Mn  Mn16  1  0.34362400  0.67117800  0.67400900  1
  Mn  Mn17  1  0.84219200  0.67078800  0.67460200  1
  Mn  Mn18  1  0.50321500  0.50213500  0.49342500  1
  Mn  Mn19  1  0.00781800  0.50378700  0.49157500  1
  Mn  Mn20  1  0.32547100  0.16291500  0.17518800  1
  Mn  Mn21  1  0.83007900  0.16453200  0.17330200  1
  Co  Co22  1  0.66668000  0.33334400  0.33331700  1
  Co  Co23  1  0.16664300  0.33334900  0.33333900  1
  O  O24  1  0.30955600  0.14933200  0.93520200  1
  O  O25  1  0.80749100  0.14882600  0.93109600  1
  O  O26  1  0.52583600  0.51783900  0.73552900  1
  O  O27  1  0.02379600  0.51734300  0.73144800  1
  O  O28  1  0.35519800  0.66235300  0.43125800  1
  O  O29  1  0.84731500  0.65999800  0.43034200  1
  O  O30  1  0.48596500  0.00668900  0.23632000  1
  O  O31  1  0.97813000  0.00431600  0.23535800  1
  O  O32  1  0.17439000  0.32350800  0.09884700  1
  O  O33  1  0.68038000  0.32477800  0.10272700  1
  O  O34  1  0.65292000  0.34187200  0.56392700  1
  O  O35  1  0.15886600  0.34314500  0.56784000  1
  O  O36  1  0.65378300  0.81293100  0.59517700  1
  O  O37  1  0.15428400  0.81270600  0.59336100  1
  O  O38  1  0.67956800  0.85372100  0.07148800  1
  O  O39  1  0.17908600  0.85396200  0.07327600  1
  O  O40  1  0.47912800  0.47753100  0.26179000  1
  O  O41  1  0.00991800  0.49500600  0.25836600  1
  O  O42  1  0.32340100  0.17168500  0.40830300  1
  O  O43  1  0.85418900  0.18914000  0.40482300  1
  O  O44  1  0.00000600  0.00282200  0.76766800  1
  O  O45  1  0.49903300  0.00411800  0.76644500  1
  O  O46  1  0.83430400  0.66255700  0.90021100  1
  O  O47  1  0.33331500  0.66383800  0.89896300  1
