# generated using pymatgen
data_Li4Mn3O7
_symmetry_space_group_name_H-M   'P 1'
_cell_length_a   5.10322721
_cell_length_b   5.10322721
_cell_length_c   18.69879465
_cell_angle_alpha   82.60357126
_cell_angle_beta   82.60357126
_cell_angle_gamma   32.82243389
_symmetry_Int_Tables_number   1
_chemical_formula_structural   Li4Mn3O7
_chemical_formula_sum   'Li8 Mn6 O14'
_cell_volume   261.56890768
_cell_formula_units_Z   2
loop_
 _symmetry_equiv_pos_site_id
 _symmetry_equiv_pos_as_xyz
  1  'x, y, z'
loop_
 _atom_site_type_symbol
 _atom_site_label
 _atom_site_symmetry_multiplicity
 _atom_site_fract_x
 _atom_site_fract_y
 _atom_site_fract_z
 _atom_site_occupancy
  Li  Li0  1  0.28220500  0.28220500  0.43269500  1
  Li  Li1  1  0.71779500  0.71779500  0.56730500  1
  Li  Li2  1  0.13890800  0.13890800  0.70793200  1
  Li  Li3  1  0.57229000  0.57229000  0.85714700  1
  Li  Li4  1  0.00000000  0.00000000  0.00000000  1
  Li  Li5  1  0.42771000  0.42771000  0.14285300  1
  Li  Li6  1  0.86109200  0.86109200  0.29206800  1
  Li  Li7  1  0.00000000  0.00000000  0.50000000  1
  Mn  Mn8  1  0.57658300  0.57658300  0.36721000  1
  Mn  Mn9  1  0.42341700  0.42341700  0.63279000  1
  Mn  Mn10  1  0.85450800  0.85450800  0.78014300  1
  Mn  Mn11  1  0.28651400  0.28651400  0.92702800  1
  Mn  Mn12  1  0.71348600  0.71348600  0.07297200  1
  Mn  Mn13  1  0.14549200  0.14549200  0.21985700  1
  O  O14  1  0.20346700  0.20346700  0.32878400  1
  O  O15  1  0.63900000  0.63900000  0.45404500  1
  O  O16  1  0.05328400  0.05328400  0.61060700  1
  O  O17  1  0.48321400  0.48321400  0.74497100  1
  O  O18  1  0.91838200  0.91838200  0.89626200  1
  O  O19  1  0.34511600  0.34511600  0.04189400  1
  O  O20  1  0.77556600  0.77556600  0.18591400  1
  O  O21  1  0.36100000  0.36100000  0.54595500  1
  O  O22  1  0.79653300  0.79653300  0.67121600  1
  O  O23  1  0.22443400  0.22443400  0.81408600  1
  O  O24  1  0.65488400  0.65488400  0.95810600  1
  O  O25  1  0.08161800  0.08161800  0.10373800  1
  O  O26  1  0.51678600  0.51678600  0.25502900  1
  O  O27  1  0.94671600  0.94671600  0.38939300  1
