# generated using pymatgen
data_Li2Ti2V3O10
_symmetry_space_group_name_H-M   'P 1'
_cell_length_a   5.15355843
_cell_length_b   10.23351110
_cell_length_c   8.17822980
_cell_angle_alpha   68.72241312
_cell_angle_beta   86.96328575
_cell_angle_gamma   102.88590318
_symmetry_Int_Tables_number   1
_chemical_formula_structural   Li2Ti2V3O10
_chemical_formula_sum   'Li4 Ti4 V6 O20'
_cell_volume   387.50867363
_cell_formula_units_Z   2
loop_
 _symmetry_equiv_pos_site_id
 _symmetry_equiv_pos_as_xyz
  1  'x, y, z'
loop_
 _atom_site_type_symbol
 _atom_site_label
 _atom_site_symmetry_multiplicity
 _atom_site_fract_x
 _atom_site_fract_y
 _atom_site_fract_z
 _atom_site_occupancy
  Li  Li0  1  0.64347700  0.08991700  0.30721000  1
  Li  Li1  1  0.13415000  0.59071300  0.80649500  1
  Li  Li2  1  0.35654000  0.91009200  0.69279900  1
  Li  Li3  1  0.86582100  0.40929300  0.19348500  1
  Ti  Ti4  1  0.28975400  0.28396600  0.40341100  1
  Ti  Ti5  1  0.79367400  0.77433600  0.90910600  1
  Ti  Ti6  1  0.71025000  0.71603100  0.59658700  1
  Ti  Ti7  1  0.20634300  0.22569600  0.09088000  1
  V  V8  1  0.00001000  0.50002700  0.49989900  1
  V  V9  1  0.06030000  0.10176900  0.78723300  1
  V  V10  1  0.93973600  0.89825800  0.21278900  1
  V  V11  1  0.49973800  0.99975700  0.00014100  1
  V  V12  1  0.56572000  0.60135100  0.29215100  1
  V  V13  1  0.43428100  0.39868800  0.70781900  1
  O  O14  1  0.61607000  0.40154600  0.46197100  1
  O  O15  1  0.12339200  0.90978600  0.95081000  1
  O  O16  1  0.38392600  0.59847700  0.53800700  1
  O  O17  1  0.87661400  0.09019100  0.04920500  1
  O  O18  1  0.99682100  0.22458500  0.28687200  1
  O  O19  1  0.50282600  0.73085900  0.78408300  1
  O  O20  1  0.00318700  0.77543400  0.71313600  1
  O  O21  1  0.49718300  0.26915400  0.21593000  1
  O  O22  1  0.08963400  0.30597800  0.63174500  1
  O  O23  1  0.61166000  0.81474900  0.12021200  1
  O  O24  1  0.91041200  0.69405500  0.36822500  1
  O  O25  1  0.38836500  0.18523600  0.87981600  1
  O  O26  1  0.27756300  0.99608400  0.21518300  1
  O  O27  1  0.79373000  0.51701300  0.70308800  1
  O  O28  1  0.72246400  0.00390700  0.78486300  1
  O  O29  1  0.20631300  0.48301600  0.29686900  1
  O  O30  1  0.26400500  0.10270600  0.58917900  1
  O  O31  1  0.77501100  0.60014600  0.07900100  1
  O  O32  1  0.73604500  0.89729700  0.41082100  1
  O  O33  1  0.22498700  0.39988600  0.92098100  1
