# generated using pymatgen
data_SrLiAlF6
_symmetry_space_group_name_H-M   'P 1'
_cell_length_a   8.94210800
_cell_length_b   5.17292100
_cell_length_c   10.32977567
_cell_angle_alpha   89.79726352
_cell_angle_beta   90.00000000
_cell_angle_gamma   90.00000000
_symmetry_Int_Tables_number   1
_chemical_formula_structural   SrLiAlF6
_chemical_formula_sum   'Sr4 Li4 Al4 F24'
_cell_volume   477.81956438
_cell_formula_units_Z   4
loop_
 _symmetry_equiv_pos_site_id
 _symmetry_equiv_pos_as_xyz
  1  'x, y, z'
loop_
 _atom_site_type_symbol
 _atom_site_label
 _atom_site_symmetry_multiplicity
 _atom_site_fract_x
 _atom_site_fract_y
 _atom_site_fract_z
 _atom_site_occupancy
  Sr  Sr0  1  0.26142900  0.24947100  0.00107600  1
  Sr  Sr1  1  0.76142900  0.75052900  0.49892400  1
  Sr  Sr2  1  0.73857100  0.75052900  0.99892400  1
  Sr  Sr3  1  0.23857100  0.24947100  0.50107600  1
  Li  Li4  1  0.91529100  0.26113000  0.75396600  1
  Li  Li5  1  0.41529100  0.73887000  0.74603400  1
  Li  Li6  1  0.08470900  0.73887000  0.24603400  1
  Li  Li7  1  0.58470900  0.26113000  0.25396600  1
  Al  Al8  1  0.91720600  0.24368200  0.25035100  1
  Al  Al9  1  0.41720600  0.75631800  0.24964900  1
  Al  Al10  1  0.08279400  0.75631800  0.74964900  1
  Al  Al11  1  0.58279400  0.24368200  0.75035100  1
  F  F12  1  0.76354700  0.13149600  0.35516200  1
  F  F13  1  0.26354700  0.86850400  0.14483800  1
  F  F14  1  0.23645300  0.86850400  0.64483800  1
  F  F15  1  0.73645300  0.13149600  0.85516200  1
  F  F16  1  0.94048300  0.52906800  0.35499200  1
  F  F17  1  0.44048300  0.47093200  0.14500800  1
  F  F18  1  0.05951700  0.47093200  0.64500800  1
  F  F19  1  0.55951700  0.52906800  0.85499200  1
  F  F20  1  0.77175800  0.39289100  0.15267700  1
  F  F21  1  0.27175800  0.60710900  0.34732300  1
  F  F22  1  0.22824200  0.60710900  0.84732300  1
  F  F23  1  0.72824200  0.39289100  0.65267700  1
  F  F24  1  0.91619600  0.95183800  0.15002400  1
  F  F25  1  0.41619600  0.04816200  0.34997600  1
  F  F26  1  0.08380400  0.04816200  0.84997600  1
  F  F27  1  0.58380400  0.95183800  0.65002400  1
  F  F28  1  0.05212600  0.06698400  0.35251700  1
  F  F29  1  0.55212600  0.93301600  0.14748300  1
  F  F30  1  0.94787400  0.93301600  0.64748300  1
  F  F31  1  0.44787400  0.06698400  0.85251700  1
  F  F32  1  0.06281000  0.39136000  0.14980900  1
  F  F33  1  0.56281000  0.60864000  0.35019100  1
  F  F34  1  0.93719000  0.60864000  0.85019100  1
  F  F35  1  0.43719000  0.39136000  0.64980900  1
