# generated using pymatgen
data_Li9Mn2Co5O16
_symmetry_space_group_name_H-M   'P 1'
_cell_length_a   3.01932900
_cell_length_b   8.04844232
_cell_length_c   12.00448056
_cell_angle_alpha   90.75578510
_cell_angle_beta   95.09870209
_cell_angle_gamma   91.01718984
_symmetry_Int_Tables_number   1
_chemical_formula_structural   Li9Mn2Co5O16
_chemical_formula_sum   'Li9 Mn2 Co5 O16'
_cell_volume   290.48757950
_cell_formula_units_Z   1
loop_
 _symmetry_equiv_pos_site_id
 _symmetry_equiv_pos_as_xyz
  1  'x, y, z'
loop_
 _atom_site_type_symbol
 _atom_site_label
 _atom_site_symmetry_multiplicity
 _atom_site_fract_x
 _atom_site_fract_y
 _atom_site_fract_z
 _atom_site_occupancy
  Li  Li0  1  0.00003100  0.74573100  0.87877500  1
  Li  Li1  1  0.50405900  0.50385400  0.24823300  1
  Li  Li2  1  0.99840300  0.25026200  0.62591500  1
  Li  Li3  1  0.50000000  0.00000000  0.00000000  1
  Li  Li4  1  0.00159700  0.74973800  0.37408500  1
  Li  Li5  1  0.49594100  0.49614600  0.75176700  1
  Li  Li6  1  0.99996900  0.25426900  0.12122500  1
  Li  Li7  1  0.50000000  0.00000000  0.50000000  1
  Li  Li8  1  0.50000000  0.50000000  0.00000000  1
  Mn  Mn9  1  0.00055800  0.75110400  0.62606600  1
  Mn  Mn10  1  0.99944200  0.24889600  0.37393400  1
  Co  Co11  1  0.49866200  0.00364600  0.75189600  1
  Co  Co12  1  0.00210100  0.74038300  0.11970200  1
  Co  Co13  1  0.50000000  0.50000000  0.50000000  1
  Co  Co14  1  0.99789900  0.25961700  0.88029800  1
  Co  Co15  1  0.50133800  0.99635400  0.24810400  1
  O  O16  1  0.47695600  0.76265700  0.74920500  1
  O  O17  1  0.99391100  0.52475000  0.12791200  1
  O  O18  1  0.47538100  0.26094400  0.49627100  1
  O  O19  1  0.97714200  0.01985800  0.86759400  1
  O  O20  1  0.47767900  0.76265300  0.24191500  1
  O  O21  1  0.97599600  0.50777500  0.61833400  1
  O  O22  1  0.47777200  0.24886300  0.99070900  1
  O  O23  1  0.97455700  0.00711200  0.36822100  1
  O  O24  1  0.52222800  0.75113700  0.00929100  1
  O  O25  1  0.02400400  0.49222500  0.38166600  1
  O  O26  1  0.52232100  0.23734700  0.75808500  1
  O  O27  1  0.02285800  0.98014200  0.13240600  1
  O  O28  1  0.52461900  0.73905600  0.50372900  1
  O  O29  1  0.00608900  0.47525000  0.87208800  1
  O  O30  1  0.52304400  0.23734300  0.25079500  1
  O  O31  1  0.02544300  0.99288800  0.63177900  1
