# generated using pymatgen
data_KLi2FeO3
_symmetry_space_group_name_H-M   'P 1'
_cell_length_a   6.13782700
_cell_length_b   6.55042700
_cell_length_c   8.79284700
_cell_angle_alpha   90.00000000
_cell_angle_beta   90.00000000
_cell_angle_gamma   90.00000000
_symmetry_Int_Tables_number   1
_chemical_formula_structural   KLi2FeO3
_chemical_formula_sum   'K4 Li8 Fe4 O12'
_cell_volume   353.51982264
_cell_formula_units_Z   4
loop_
 _symmetry_equiv_pos_site_id
 _symmetry_equiv_pos_as_xyz
  1  'x, y, z'
loop_
 _atom_site_type_symbol
 _atom_site_label
 _atom_site_symmetry_multiplicity
 _atom_site_fract_x
 _atom_site_fract_y
 _atom_site_fract_z
 _atom_site_occupancy
  K  K0  1  0.75000000  0.17768300  0.48911900  1
  K  K1  1  0.25000000  0.32231700  0.98911900  1
  K  K2  1  0.75000000  0.67768300  0.01088100  1
  K  K3  1  0.25000000  0.82231700  0.51088100  1
  Li  Li4  1  0.50529900  0.00506800  0.76914400  1
  Li  Li5  1  0.99470100  0.00506800  0.76914400  1
  Li  Li6  1  0.49470100  0.49493200  0.26914400  1
  Li  Li7  1  0.00529900  0.49493200  0.26914400  1
  Li  Li8  1  0.50529900  0.50506800  0.73085600  1
  Li  Li9  1  0.99470100  0.50506800  0.73085600  1
  Li  Li10  1  0.00529900  0.99493200  0.23085600  1
  Li  Li11  1  0.49470100  0.99493200  0.23085600  1
  Fe  Fe12  1  0.75000000  0.18382100  0.00383600  1
  Fe  Fe13  1  0.25000000  0.31617900  0.50383600  1
  Fe  Fe14  1  0.75000000  0.68382100  0.49616400  1
  Fe  Fe15  1  0.25000000  0.81617900  0.99616400  1
  O  O16  1  0.00000000  0.00000000  0.00000000  1
  O  O17  1  0.50000000  0.00000000  0.00000000  1
  O  O18  1  0.25000000  0.15501300  0.32780300  1
  O  O19  1  0.25000000  0.16290900  0.68270000  1
  O  O20  1  0.75000000  0.33709100  0.18270000  1
  O  O21  1  0.75000000  0.34498700  0.82780300  1
  O  O22  1  0.50000000  0.50000000  0.50000000  1
  O  O23  1  0.00000000  0.50000000  0.50000000  1
  O  O24  1  0.25000000  0.65501300  0.17219700  1
  O  O25  1  0.25000000  0.66290900  0.81730000  1
  O  O26  1  0.75000000  0.83709100  0.31730000  1
  O  O27  1  0.75000000  0.84498700  0.67219700  1
