# generated using pymatgen
data_Li9Mn2Co5O16
_symmetry_space_group_name_H-M   'P 1'
_cell_length_a   5.90466800
_cell_length_b   6.46337010
_cell_length_c   7.87747409
_cell_angle_alpha   87.50197932
_cell_angle_beta   104.15058887
_cell_angle_gamma   103.63834989
_symmetry_Int_Tables_number   1
_chemical_formula_structural   Li9Mn2Co5O16
_chemical_formula_sum   'Li9 Mn2 Co5 O16'
_cell_volume   283.26276390
_cell_formula_units_Z   1
loop_
 _symmetry_equiv_pos_site_id
 _symmetry_equiv_pos_as_xyz
  1  'x, y, z'
loop_
 _atom_site_type_symbol
 _atom_site_label
 _atom_site_symmetry_multiplicity
 _atom_site_fract_x
 _atom_site_fract_y
 _atom_site_fract_z
 _atom_site_occupancy
  Li  Li0  1  0.85661900  0.85566900  0.61642300  1
  Li  Li1  1  0.88238900  0.38628700  0.13301700  1
  Li  Li2  1  0.14452200  0.13667400  0.37869500  1
  Li  Li3  1  0.12455100  0.61888200  0.87464200  1
  Li  Li4  1  0.37202900  0.38495200  0.14178300  1
  Li  Li5  1  0.37905600  0.86391000  0.61087800  1
  Li  Li6  1  0.62336700  0.62393000  0.86646600  1
  Li  Li7  1  0.61124000  0.12948600  0.38007000  1
  Li  Li8  1  0.49756400  0.50172000  0.49738600  1
  Mn  Mn9  1  0.00476300  0.00021100  0.00172400  1
  Mn  Mn10  1  0.74705500  0.25287100  0.74420100  1
  Co  Co11  1  0.99579300  0.50028900  0.49832800  1
  Co  Co12  1  0.25207100  0.25303400  0.74257300  1
  Co  Co13  1  0.25432300  0.74927300  0.25421500  1
  Co  Co14  1  0.50455300  0.99737900  0.99970600  1
  Co  Co15  1  0.74472900  0.74791700  0.25667900  1
  O  O16  1  0.71102400  0.94928000  0.81677600  1
  O  O17  1  0.70649600  0.45328900  0.31601000  1
  O  O18  1  0.93575400  0.20495600  0.57961800  1
  O  O19  1  0.96086200  0.70793400  0.06979300  1
  O  O20  1  0.18714900  0.45815000  0.31432000  1
  O  O21  1  0.19067200  0.96209600  0.83463200  1
  O  O22  1  0.46137700  0.70651000  0.06368200  1
  O  O23  1  0.44861700  0.18338300  0.57658400  1
  O  O24  1  0.03680000  0.79698500  0.43560000  1
  O  O25  1  0.04547400  0.29499200  0.93464500  1
  O  O26  1  0.30243000  0.05284100  0.17984300  1
  O  O27  1  0.28550200  0.54113100  0.68424200  1
  O  O28  1  0.56183800  0.28846800  0.91603400  1
  O  O29  1  0.54720500  0.81238500  0.42129700  1
  O  O30  1  0.80605300  0.54174000  0.69459100  1
  O  O31  1  0.81812200  0.04337600  0.16554600  1
