# generated using pymatgen
data_Li4Mn3CoO8
_symmetry_space_group_name_H-M   'P 1'
_cell_length_a   2.87918010
_cell_length_b   19.66234228
_cell_length_c   3.04839887
_cell_angle_alpha   93.95760252
_cell_angle_beta   117.32509001
_cell_angle_gamma   85.16549254
_symmetry_Int_Tables_number   1
_chemical_formula_structural   Li4Mn3CoO8
_chemical_formula_sum   'Li4 Mn3 Co1 O8'
_cell_volume   152.68257483
_cell_formula_units_Z   1
loop_
 _symmetry_equiv_pos_site_id
 _symmetry_equiv_pos_as_xyz
  1  'x, y, z'
loop_
 _atom_site_type_symbol
 _atom_site_label
 _atom_site_symmetry_multiplicity
 _atom_site_fract_x
 _atom_site_fract_y
 _atom_site_fract_z
 _atom_site_occupancy
  Li  Li0  1  0.25904600  0.12338700  0.62657700  1
  Li  Li1  1  0.74090200  0.87659500  0.37329600  1
  Li  Li2  1  0.75099700  0.37440600  0.87621300  1
  Li  Li3  1  0.24898100  0.62558600  0.12372100  1
  Mn  Mn4  1  0.00002300  0.50005400  0.50033700  1
  Mn  Mn5  1  0.50656800  0.24883100  0.25612500  1
  Mn  Mn6  1  0.49353700  0.75115900  0.74384100  1
  Co  Co7  1  0.99997600  0.99999000  0.99993700  1
  O  O8  1  0.65817500  0.05625400  0.32757900  1
  O  O9  1  0.34177500  0.94372600  0.67224700  1
  O  O10  1  0.10711100  0.30697100  0.52755800  1
  O  O11  1  0.89289800  0.69300700  0.47232500  1
  O  O12  1  0.60130200  0.55812200  0.77177300  1
  O  O13  1  0.39873200  0.44193400  0.22862000  1
  O  O14  1  0.09368700  0.80916100  0.01472500  1
  O  O15  1  0.90629000  0.19081700  0.98512600  1
