# generated using pymatgen
data_Li3AsO4
_symmetry_space_group_name_H-M   'P 1'
_cell_length_a   5.14428600
_cell_length_b   6.35647300
_cell_length_c   10.99053300
_cell_angle_alpha   90.00000000
_cell_angle_beta   90.00000000
_cell_angle_gamma   90.00000000
_symmetry_Int_Tables_number   1
_chemical_formula_structural   Li3AsO4
_chemical_formula_sum   'Li12 As4 O16'
_cell_volume   359.38509939
_cell_formula_units_Z   4
loop_
 _symmetry_equiv_pos_site_id
 _symmetry_equiv_pos_as_xyz
  1  'x, y, z'
loop_
 _atom_site_type_symbol
 _atom_site_label
 _atom_site_symmetry_multiplicity
 _atom_site_fract_x
 _atom_site_fract_y
 _atom_site_fract_z
 _atom_site_occupancy
  Li  Li0  1  0.69255500  0.00288900  0.16611200  1
  Li  Li1  1  0.80744500  0.49711100  0.66611200  1
  Li  Li2  1  0.30744500  0.50288900  0.83388800  1
  Li  Li3  1  0.19255500  0.99711100  0.33388800  1
  Li  Li4  1  0.30744500  0.99711100  0.83388800  1
  Li  Li5  1  0.19255500  0.50288900  0.33388800  1
  Li  Li6  1  0.69255500  0.49711100  0.16611200  1
  Li  Li7  1  0.80744500  0.00288900  0.66611200  1
  Li  Li8  1  0.80897000  0.25000000  0.42413900  1
  Li  Li9  1  0.69103000  0.25000000  0.92413900  1
  Li  Li10  1  0.19103000  0.75000000  0.57586100  1
  Li  Li11  1  0.30897000  0.75000000  0.07586100  1
  As  As12  1  0.68713500  0.75000000  0.41359900  1
  As  As13  1  0.81286500  0.75000000  0.91359900  1
  As  As14  1  0.31286500  0.25000000  0.58640100  1
  As  As15  1  0.18713500  0.25000000  0.08640100  1
  O  O16  1  0.70447600  0.75000000  0.06126400  1
  O  O17  1  0.79552400  0.75000000  0.56126400  1
  O  O18  1  0.29552400  0.25000000  0.93873600  1
  O  O19  1  0.20447600  0.25000000  0.43873600  1
  O  O20  1  0.79806700  0.52950000  0.33840800  1
  O  O21  1  0.70193300  0.97050000  0.83840800  1
  O  O22  1  0.20193300  0.02950000  0.66159200  1
  O  O23  1  0.29806700  0.47050000  0.16159200  1
  O  O24  1  0.20193300  0.47050000  0.66159200  1
  O  O25  1  0.29806700  0.02950000  0.16159200  1
  O  O26  1  0.79806700  0.97050000  0.33840800  1
  O  O27  1  0.70193300  0.52950000  0.83840800  1
  O  O28  1  0.85135800  0.25000000  0.08744500  1
  O  O29  1  0.64864200  0.25000000  0.58744500  1
  O  O30  1  0.14864200  0.75000000  0.91255500  1
  O  O31  1  0.35135800  0.75000000  0.41255500  1
