# generated using pymatgen
data_Li(CuO)3
_symmetry_space_group_name_H-M   'P 1'
_cell_length_a   2.85513500
_cell_length_b   2.85513500
_cell_length_c   8.79961600
_cell_angle_alpha   90.00000000
_cell_angle_beta   90.00000000
_cell_angle_gamma   90.00000000
_symmetry_Int_Tables_number   1
_chemical_formula_structural   Li(CuO)3
_chemical_formula_sum   'Li1 Cu3 O3'
_cell_volume   71.73267335
_cell_formula_units_Z   1
loop_
 _symmetry_equiv_pos_site_id
 _symmetry_equiv_pos_as_xyz
  1  'x, y, z'
loop_
 _atom_site_type_symbol
 _atom_site_label
 _atom_site_symmetry_multiplicity
 _atom_site_fract_x
 _atom_site_fract_y
 _atom_site_fract_z
 _atom_site_occupancy
  Li  Li0  1  0.50000000  0.50000000  0.75795800  1
  Cu  Cu1  1  0.00000000  0.00000000  0.98890200  1
  Cu  Cu2  1  0.50000000  0.50000000  0.23302000  1
  Cu  Cu3  1  0.00000000  0.00000000  0.52972400  1
  O  O4  1  0.00000000  0.00000000  0.78447800  1
  O  O5  1  0.00000000  0.00000000  0.20312600  1
  O  O6  1  0.50000000  0.50000000  0.50279200  1
