# generated using pymatgen
data_Li5V3P8O29
_symmetry_space_group_name_H-M   'P 1'
_cell_length_a   9.76118535
_cell_length_b   9.76118535
_cell_length_c   14.09089745
_cell_angle_alpha   89.35569405
_cell_angle_beta   89.35569405
_cell_angle_gamma   60.29380982
_symmetry_Int_Tables_number   1
_chemical_formula_structural   Li5V3P8O29
_chemical_formula_sum   'Li10 V6 P16 O58'
_cell_volume   1166.04648884
_cell_formula_units_Z   2
loop_
 _symmetry_equiv_pos_site_id
 _symmetry_equiv_pos_as_xyz
  1  'x, y, z'
loop_
 _atom_site_type_symbol
 _atom_site_label
 _atom_site_symmetry_multiplicity
 _atom_site_fract_x
 _atom_site_fract_y
 _atom_site_fract_z
 _atom_site_occupancy
  Li  Li0  1  0.10121400  0.65720900  0.06123500  1
  Li  Li1  1  0.23829900  0.66044800  0.55987600  1
  Li  Li2  1  0.09179000  0.23222000  0.55788300  1
  Li  Li3  1  0.23222000  0.09179000  0.05788300  1
  Li  Li4  1  0.66044800  0.23829900  0.05987600  1
  Li  Li5  1  0.33434700  0.89791900  0.44008600  1
  Li  Li6  1  0.65720900  0.10121400  0.56123500  1
  Li  Li7  1  0.89791900  0.33434700  0.94008600  1
  Li  Li8  1  0.02169200  0.95316500  0.99636400  1
  Li  Li9  1  0.95316500  0.02169200  0.49636400  1
  V  V10  1  0.43622700  0.99970000  0.24513800  1
  V  V11  1  0.56439300  0.99511400  0.75468500  1
  V  V12  1  0.43690900  0.56200100  0.75206200  1
  V  V13  1  0.56200100  0.43690900  0.25206200  1
  V  V14  1  0.99511400  0.56439300  0.25468500  1
  V  V15  1  0.99970000  0.43622700  0.74513800  1
  P  P16  1  0.08788900  0.68386600  0.84355600  1
  P  P17  1  0.22857000  0.68340300  0.34324000  1
  P  P18  1  0.08804800  0.21969200  0.34283600  1
  P  P19  1  0.33368800  0.33579000  0.13013100  1
  P  P20  1  0.33579000  0.33368800  0.63013100  1
  P  P21  1  0.21969200  0.08804800  0.84283600  1
  P  P22  1  0.31334400  0.91031700  0.65971600  1
  P  P23  1  0.68340300  0.22857000  0.84324000  1
  P  P24  1  0.30695800  0.77604200  0.15862600  1
  P  P25  1  0.68386600  0.08788900  0.34355600  1
  P  P26  1  0.78183300  0.91380200  0.16086100  1
  P  P27  1  0.66251300  0.66741700  0.36795800  1
  P  P28  1  0.66741700  0.66251300  0.86795800  1
  P  P29  1  0.91380200  0.78183300  0.66086100  1
  P  P30  1  0.77604200  0.30695800  0.65862600  1
  P  P31  1  0.91031700  0.31334400  0.15971600  1
  O  O32  1  0.01245400  0.79060300  0.57954200  1
  O  O33  1  0.08749900  0.65565600  0.33680000  1
  O  O34  1  0.20040200  0.78780200  0.07980300  1
  O  O35  1  0.25912100  0.65514000  0.82813300  1
  O  O36  1  0.08633800  0.52978100  0.83039700  1
  O  O37  1  0.18832900  0.48872100  0.16935800  1
  O  O38  1  0.08785400  0.37597100  0.33115500  1
  O  O39  1  0.99897000  0.22709500  0.07110700  1
  O  O40  1  0.07725300  0.25786900  0.83170400  1
  O  O41  1  0.32830600  0.48232900  0.67353200  1
  O  O42  1  0.38379900  0.52522900  0.32656400  1
  O  O43  1  0.18917100  0.31963300  0.66602700  1
  O  O44  1  0.34252800  0.33592900  0.02413500  1
  O  O45  1  0.33592900  0.34252800  0.52413500  1
  O  O46  1  0.31963300  0.18917100  0.16602700  1
  O  O47  1  0.52522900  0.38379900  0.82656400  1
  O  O48  1  0.48232900  0.32830600  0.17353200  1
  O  O49  1  0.25786900  0.07725300  0.33170400  1
  O  O50  1  0.20387000  0.99322300  0.75176500  1
  O  O51  1  0.22709500  0.99897000  0.57110700  1
  O  O52  1  0.20193700  0.01546200  0.93245000  1
  O  O53  1  0.37597100  0.08785400  0.83115500  1
  O  O54  1  0.48872100  0.18832900  0.66935800  1
  O  O55  1  0.34112900  0.91500900  0.15487000  1
  O  O56  1  0.52978100  0.08633800  0.33039700  1
  O  O57  1  0.65514000  0.25912100  0.32813300  1
  O  O58  1  0.21148900  0.80048600  0.25790200  1
  O  O59  1  0.23195700  0.76176200  0.43394500  1
  O  O60  1  0.78780200  0.20040200  0.57980300  1
  O  O61  1  0.34025700  0.73887000  0.65975500  1
  O  O62  1  0.46923000  0.90904200  0.67117500  1
  O  O63  1  0.65565600  0.08749900  0.83680000  1
  O  O64  1  0.50966400  0.81136400  0.32757400  1
  O  O65  1  0.62140300  0.91719100  0.17061400  1
  O  O66  1  0.79060300  0.01245400  0.07954200  1
  O  O67  1  0.76849100  0.02077900  0.43650400  1
  O  O68  1  0.80501800  0.98411400  0.25931600  1
  O  O69  1  0.74525400  0.91718100  0.65887800  1
  O  O70  1  0.51984500  0.66328800  0.81718200  1
  O  O71  1  0.46038800  0.61566500  0.16911600  1
  O  O72  1  0.66761900  0.80923400  0.82415600  1
  O  O73  1  0.65392900  0.65958000  0.97311800  1
  O  O74  1  0.65958000  0.65392900  0.47311800  1
  O  O75  1  0.80923400  0.66761900  0.32415600  1
  O  O76  1  0.61566500  0.46038800  0.66911600  1
  O  O77  1  0.66328800  0.51984500  0.31718200  1
  O  O78  1  0.91718100  0.74525400  0.15887800  1
  O  O79  1  0.98411400  0.80501800  0.75931600  1
  O  O80  1  0.02077900  0.76849100  0.93650400  1
  O  O81  1  0.91719100  0.62140300  0.67061400  1
  O  O82  1  0.81136400  0.50966400  0.82757400  1
  O  O83  1  0.90904200  0.46923000  0.17117500  1
  O  O84  1  0.73887000  0.34025700  0.15975500  1
  O  O85  1  0.76176200  0.23195700  0.93394500  1
  O  O86  1  0.80048600  0.21148900  0.75790200  1
  O  O87  1  0.91500900  0.34112900  0.65487000  1
  O  O88  1  0.01546200  0.20193700  0.43245000  1
  O  O89  1  0.99322300  0.20387000  0.25176500  1
