# generated using pymatgen
data_Li2Fe2(SiO3)3
_symmetry_space_group_name_H-M   'P 1'
_cell_length_a   10.49464776
_cell_length_b   7.19738742
_cell_length_c   11.96964136
_cell_angle_alpha   90.00000000
_cell_angle_beta   110.08212552
_cell_angle_gamma   90.00000000
_symmetry_Int_Tables_number   1
_chemical_formula_structural   Li2Fe2(SiO3)3
_chemical_formula_sum   'Li8 Fe8 Si12 O36'
_cell_volume   849.14650119
_cell_formula_units_Z   4
loop_
 _symmetry_equiv_pos_site_id
 _symmetry_equiv_pos_as_xyz
  1  'x, y, z'
loop_
 _atom_site_type_symbol
 _atom_site_label
 _atom_site_symmetry_multiplicity
 _atom_site_fract_x
 _atom_site_fract_y
 _atom_site_fract_z
 _atom_site_occupancy
  Li  Li0  1  0.05057949  0.93430433  0.62005029  1
  Li  Li1  1  0.05057949  0.56569567  0.12005029  1
  Li  Li2  1  0.42141618  0.08009503  0.69102594  1
  Li  Li3  1  0.57858382  0.58009503  0.80897406  1
  Li  Li4  1  0.42141618  0.41990497  0.19102594  1
  Li  Li5  1  0.57858382  0.91990497  0.30897406  1
  Li  Li6  1  0.94942051  0.43430433  0.87994971  1
  Li  Li7  1  0.94942051  0.06569567  0.37994971  1
  Fe  Fe8  1  0.05483483  0.88975040  0.91824523  1
  Fe  Fe9  1  0.05483483  0.61024960  0.41824523  1
  Fe  Fe10  1  0.42920829  0.66162126  0.55195393  1
  Fe  Fe11  1  0.57079171  0.16162126  0.94804607  1
  Fe  Fe12  1  0.42920829  0.83837874  0.05195393  1
  Fe  Fe13  1  0.57079171  0.33837874  0.44804607  1
  Fe  Fe14  1  0.94516517  0.38975040  0.58175477  1
  Fe  Fe15  1  0.94516517  0.11024960  0.08175477  1
  Si  Si16  1  0.22433162  0.52943563  0.94489111  1
  Si  Si17  1  0.23832871  0.14680740  0.84954234  1
  Si  Si18  1  0.26331507  0.48448631  0.70723067  1
  Si  Si19  1  0.22433162  0.97056437  0.44489111  1
  Si  Si20  1  0.23832871  0.35319260  0.34954234  1
  Si  Si21  1  0.26331507  0.01551369  0.20723067  1
  Si  Si22  1  0.73668493  0.98448631  0.79276933  1
  Si  Si23  1  0.76167129  0.64680740  0.65045766  1
  Si  Si24  1  0.77566838  0.02943563  0.55510889  1
  Si  Si25  1  0.73668493  0.51551369  0.29276933  1
  Si  Si26  1  0.76167129  0.85319260  0.15045766  1
  Si  Si27  1  0.77566838  0.47056437  0.05510889  1
  O  O28  1  0.09087277  0.62197929  0.96420816  1
  O  O29  1  0.11730451  0.99870799  0.79133999  1
  O  O30  1  0.12599926  0.51298813  0.59225272  1
  O  O31  1  0.18347736  0.30585316  0.92367719  1
  O  O32  1  0.09087277  0.87802071  0.46420816  1
  O  O33  1  0.24334001  0.59732438  0.82032843  1
  O  O34  1  0.27804505  0.25566553  0.74173937  1
  O  O35  1  0.11730451  0.50129201  0.29133999  1
  O  O36  1  0.36341026  0.57478686  0.05467335  1
  O  O37  1  0.12599926  0.98701187  0.09225272  1
  O  O38  1  0.38019204  0.06097968  0.93700559  1
  O  O39  1  0.18347736  0.19414684  0.42367719  1
  O  O40  1  0.24334001  0.90267562  0.32032843  1
  O  O41  1  0.40490956  0.54920731  0.69471197  1
  O  O42  1  0.27804505  0.24433447  0.24173937  1
  O  O43  1  0.36341026  0.92521314  0.55467335  1
  O  O44  1  0.38019204  0.43902032  0.43700559  1
  O  O45  1  0.40490956  0.95079269  0.19471197  1
  O  O46  1  0.59509044  0.04920731  0.80528803  1
  O  O47  1  0.61980796  0.56097968  0.56299441  1
  O  O48  1  0.63658974  0.07478686  0.44532665  1
  O  O49  1  0.72195495  0.75566553  0.75826063  1
  O  O50  1  0.59509044  0.45079269  0.30528803  1
  O  O51  1  0.75665999  0.09732438  0.67967157  1
  O  O52  1  0.81652264  0.80585316  0.57632281  1
  O  O53  1  0.61980796  0.93902032  0.06299441  1
  O  O54  1  0.87400074  0.01298813  0.90774728  1
  O  O55  1  0.63658974  0.42521314  0.94532665  1
  O  O56  1  0.88269549  0.49870799  0.70866001  1
  O  O57  1  0.72195495  0.74433447  0.25826063  1
  O  O58  1  0.75665999  0.40267562  0.17967157  1
  O  O59  1  0.90912723  0.12197929  0.53579184  1
  O  O60  1  0.81652264  0.69414684  0.07632281  1
  O  O61  1  0.87400074  0.48701187  0.40774728  1
  O  O62  1  0.88269549  0.00129201  0.20866001  1
  O  O63  1  0.90912723  0.37802071  0.03579184  1
