# generated using pymatgen
data_Li2TiV3O8
_symmetry_space_group_name_H-M   'P 1'
_cell_length_a   6.03700745
_cell_length_b   8.35203213
_cell_length_c   6.04669460
_cell_angle_alpha   89.50352620
_cell_angle_beta   89.00543773
_cell_angle_gamma   90.57293702
_symmetry_Int_Tables_number   1
_chemical_formula_structural   Li2TiV3O8
_chemical_formula_sum   'Li4 Ti2 V6 O16'
_cell_volume   304.80899957
_cell_formula_units_Z   2
loop_
 _symmetry_equiv_pos_site_id
 _symmetry_equiv_pos_as_xyz
  1  'x, y, z'
loop_
 _atom_site_type_symbol
 _atom_site_label
 _atom_site_symmetry_multiplicity
 _atom_site_fract_x
 _atom_site_fract_y
 _atom_site_fract_z
 _atom_site_occupancy
  Li  Li0  1  0.25389000  0.12599000  0.00660100  1
  Li  Li1  1  0.75354500  0.62601600  0.50789700  1
  Li  Li2  1  0.74647300  0.87399200  0.99207200  1
  Li  Li3  1  0.24612200  0.37398600  0.49332400  1
  Ti  Ti4  1  0.00045700  0.49868200  0.00043000  1
  Ti  Ti5  1  0.49948500  0.00135000  0.49978400  1
  V  V6  1  0.25003100  0.75006400  0.74992300  1
  V  V7  1  0.75000400  0.24994500  0.74988500  1
  V  V8  1  0.24999600  0.74996800  0.24995500  1
  V  V9  1  0.49907600  0.49995200  0.00057400  1
  V  V10  1  0.00088100  0.00008500  0.49947900  1
  V  V11  1  0.74996400  0.24984000  0.25010000  1
  O  O12  1  0.53014200  0.25986800  0.00585700  1
  O  O13  1  0.02966000  0.76038700  0.50817000  1
  O  O14  1  0.47035700  0.73962000  0.99190100  1
  O  O15  1  0.96983500  0.24015300  0.49412000  1
  O  O16  1  0.75773300  0.48046600  0.23238300  1
  O  O17  1  0.25945100  0.98130700  0.73094500  1
  O  O18  1  0.75794700  0.49139500  0.78215200  1
  O  O19  1  0.25825200  0.99217000  0.28146600  1
  O  O20  1  0.98067600  0.26465500  0.00712300  1
  O  O21  1  0.47655700  0.76342200  0.50411000  1
  O  O22  1  0.02347700  0.73657300  0.99590900  1
  O  O23  1  0.51934200  0.23536900  0.49285200  1
  O  O24  1  0.24173000  0.50788400  0.21852400  1
  O  O25  1  0.74204800  0.00865400  0.71784400  1
  O  O26  1  0.24058100  0.51864700  0.76903700  1
  O  O27  1  0.74229000  0.01955900  0.26758400  1
