# generated using pymatgen
data_Li2CrTeO6
_symmetry_space_group_name_H-M   'P 1'
_cell_length_a   5.09048813
_cell_length_b   10.66773853
_cell_length_c   7.37097515
_cell_angle_alpha   93.65430670
_cell_angle_beta   90.00014527
_cell_angle_gamma   90.01410767
_symmetry_Int_Tables_number   1
_chemical_formula_structural   Li2CrTeO6
_chemical_formula_sum   'Li8 Cr4 Te4 O24'
_cell_volume   399.45954600
_cell_formula_units_Z   4
loop_
 _symmetry_equiv_pos_site_id
 _symmetry_equiv_pos_as_xyz
  1  'x, y, z'
loop_
 _atom_site_type_symbol
 _atom_site_label
 _atom_site_symmetry_multiplicity
 _atom_site_fract_x
 _atom_site_fract_y
 _atom_site_fract_z
 _atom_site_occupancy
  Li  Li0  1  0.00040800  0.28272900  0.71711900  1
  Li  Li1  1  0.00034700  0.78264800  0.71713400  1
  Li  Li2  1  0.50041200  0.53296500  0.21739100  1
  Li  Li3  1  0.50031800  0.03268000  0.21749800  1
  Li  Li4  1  0.99974100  0.28762900  0.21204300  1
  Li  Li5  1  0.99992500  0.78743100  0.21230200  1
  Li  Li6  1  0.50013000  0.53762300  0.71236500  1
  Li  Li7  1  0.49980700  0.03739400  0.71236800  1
  Cr  Cr8  1  0.00017800  0.50171800  0.99819800  1
  Cr  Cr9  1  0.50016800  0.75136600  0.49870500  1
  Cr  Cr10  1  0.00009200  0.00158300  0.99834700  1
  Cr  Cr11  1  0.50011500  0.25141100  0.49864700  1
  Te  Te12  1  0.49992400  0.25066600  0.99960600  1
  Te  Te13  1  0.49994700  0.75062100  0.99961200  1
  Te  Te14  1  0.00027900  0.50041600  0.49931800  1
  Te  Te15  1  0.00016300  0.00039400  0.49945000  1
  O  O16  1  0.31832500  0.08918000  0.94495200  1
  O  O17  1  0.31838400  0.58918400  0.94479500  1
  O  O18  1  0.81885700  0.33917500  0.44493700  1
  O  O19  1  0.81857500  0.83913400  0.44497200  1
  O  O20  1  0.37477400  0.24233300  0.25163900  1
  O  O21  1  0.37480300  0.74211900  0.25152300  1
  O  O22  1  0.87477600  0.49271800  0.75163000  1
  O  O23  1  0.87450400  0.99251700  0.75167300  1
  O  O24  1  0.80590400  0.15156400  0.07022900  1
  O  O25  1  0.80594800  0.65157200  0.07019800  1
  O  O26  1  0.30631700  0.40175600  0.57048800  1
  O  O27  1  0.30609800  0.90160700  0.57058400  1
  O  O28  1  0.17901100  0.33807600  0.94641800  1
  O  O29  1  0.17918600  0.83810800  0.94637800  1
  O  O30  1  0.67962000  0.58831600  0.44645500  1
  O  O31  1  0.67941100  0.08820900  0.44662000  1
  O  O32  1  0.62582400  0.24092500  0.75137400  1
  O  O33  1  0.62585300  0.74073900  0.75141600  1
  O  O34  1  0.12598500  0.49082600  0.25128100  1
  O  O35  1  0.12588900  0.99067200  0.25143300  1
  O  O36  1  0.69496900  0.40114000  0.07221200  1
  O  O37  1  0.69496900  0.90105700  0.07228500  1
  O  O38  1  0.19507600  0.65112800  0.57190800  1
  O  O39  1  0.19499100  0.15107100  0.57209800  1
