# generated using pymatgen
data_LiAlFeO4
_symmetry_space_group_name_H-M   'P 1'
_cell_length_a   9.46230285
_cell_length_b   2.90232777
_cell_length_c   10.06302039
_cell_angle_alpha   89.99227135
_cell_angle_beta   90.00510392
_cell_angle_gamma   91.78903752
_symmetry_Int_Tables_number   1
_chemical_formula_structural   LiAlFeO4
_chemical_formula_sum   'Li4 Al4 Fe4 O16'
_cell_volume   276.22303997
_cell_formula_units_Z   4
loop_
 _symmetry_equiv_pos_site_id
 _symmetry_equiv_pos_as_xyz
  1  'x, y, z'
loop_
 _atom_site_type_symbol
 _atom_site_label
 _atom_site_symmetry_multiplicity
 _atom_site_fract_x
 _atom_site_fract_y
 _atom_site_fract_z
 _atom_site_occupancy
  Li  Li0  1  0.08242240  0.29157545  0.62777211  1
  Li  Li1  1  0.41761974  0.70851534  0.12779740  1
  Li  Li2  1  0.58156686  0.29360763  0.87267565  1
  Li  Li3  1  0.91832598  0.70710518  0.37260030  1
  Al  Al4  1  0.00125701  0.23878075  0.12718585  1
  Al  Al5  1  0.49874565  0.76126485  0.62721808  1
  Al  Al6  1  0.50107156  0.23889593  0.37255410  1
  Al  Al7  1  0.99888645  0.76107247  0.87254645  1
  Fe  Fe8  1  0.22430793  0.75411083  0.35135640  1
  Fe  Fe9  1  0.27566736  0.24585185  0.85122003  1
  Fe  Fe10  1  0.72471841  0.75262034  0.14878860  1
  Fe  Fe11  1  0.77537102  0.24634164  0.64866618  1
  O  O12  1  0.10199507  0.26200098  0.96404246  1
  O  O13  1  0.13037550  0.28395188  0.44188330  1
  O  O14  1  0.08195596  0.74306128  0.21500299  1
  O  O15  1  0.16185162  0.78920611  0.75703426  1
  O  O16  1  0.33821946  0.21077198  0.25705568  1
  O  O17  1  0.41803902  0.25682534  0.71501593  1
  O  O18  1  0.36962968  0.71596162  0.94190420  1
  O  O19  1  0.39797925  0.73801516  0.46412209  1
  O  O20  1  0.60161920  0.26215632  0.53579226  1
  O  O21  1  0.63143040  0.28183987  0.05825479  1
  O  O22  1  0.58183791  0.74326985  0.28492335  1
  O  O23  1  0.66153926  0.78984840  0.74290293  1
  O  O24  1  0.83851420  0.21014910  0.24286829  1
  O  O25  1  0.91816104  0.25678847  0.78488460  1
  O  O26  1  0.86855584  0.71859542  0.55818971  1
  O  O27  1  0.89834020  0.73781597  0.03574101  1
