# generated using pymatgen
data_Li6V3P8O29
_symmetry_space_group_name_H-M   'P 1'
_cell_length_a   9.78688100
_cell_length_b   9.80334600
_cell_length_c   13.99158237
_cell_angle_alpha   90.03878154
_cell_angle_beta   90.37361160
_cell_angle_gamma   119.63315688
_symmetry_Int_Tables_number   1
_chemical_formula_structural   Li6V3P8O29
_chemical_formula_sum   'Li12 V6 P16 O58'
_cell_volume   1166.79900566
_cell_formula_units_Z   2
loop_
 _symmetry_equiv_pos_site_id
 _symmetry_equiv_pos_as_xyz
  1  'x, y, z'
loop_
 _atom_site_type_symbol
 _atom_site_label
 _atom_site_symmetry_multiplicity
 _atom_site_fract_x
 _atom_site_fract_y
 _atom_site_fract_z
 _atom_site_occupancy
  Li  Li0  1  0.31818900  0.09227200  0.94455300  1
  Li  Li1  1  0.66193500  0.32745300  0.60871500  1
  Li  Li2  1  0.90900100  0.22696000  0.94352900  1
  Li  Li3  1  0.77250900  0.68333000  0.94421000  1
  Li  Li4  1  0.10119400  0.33613600  0.55481500  1
  Li  Li5  1  0.90610000  0.67211600  0.43265800  1
  Li  Li6  1  0.23117700  0.32813700  0.06694000  1
  Li  Li7  1  0.09610000  0.76918600  0.06419800  1
  Li  Li8  1  0.23340400  0.90268300  0.55568300  1
  Li  Li9  1  0.67036800  0.76967600  0.55260900  1
  Li  Li10  1  0.67022100  0.90325100  0.06674800  1
  Li  Li11  1  0.01889200  0.03790000  0.48177200  1
  V  V12  1  0.00017900  0.43002900  0.75050200  1
  V  V13  1  0.00082900  0.56539100  0.24888700  1
  V  V14  1  0.43657200  0.43215300  0.25343500  1
  V  V15  1  0.56231000  0.56606000  0.74797300  1
  V  V16  1  0.43134500  0.99666300  0.75057600  1
  V  V17  1  0.56918900  0.00263800  0.25491400  1
  P  P18  1  0.31645100  0.08605800  0.15987800  1
  P  P19  1  0.30884700  0.22215100  0.66044400  1
  P  P20  1  0.77600500  0.08662000  0.65916300  1
  P  P21  1  0.66578100  0.33393500  0.86991500  1
  P  P22  1  0.67142300  0.33705200  0.37098500  1
  P  P23  1  0.90993200  0.22926000  0.16019900  1
  P  P24  1  0.08959400  0.31457500  0.34288500  1
  P  P25  1  0.76815800  0.67942600  0.15736500  1
  P  P26  1  0.23449200  0.32050300  0.84561700  1
  P  P27  1  0.90866900  0.68102900  0.65578700  1
  P  P28  1  0.08627600  0.76695700  0.84070800  1
  P  P29  1  0.32961400  0.66338600  0.62667300  1
  P  P30  1  0.33518400  0.66739900  0.12979300  1
  P  P31  1  0.22502600  0.91266500  0.34347300  1
  P  P32  1  0.68694600  0.77300400  0.34034500  1
  P  P33  1  0.68425300  0.91481800  0.84469500  1
  O  O34  1  0.20609400  0.98637400  0.43327100  1
  O  O35  1  0.33734800  0.07835700  0.65991500  1
  O  O36  1  0.24619100  0.24769400  0.93725200  1
  O  O37  1  0.33480500  0.25075000  0.15793500  1
  O  O38  1  0.47557800  0.09359000  0.17867100  1
  O  O39  1  0.51225000  0.18520300  0.83122600  1
  O  O40  1  0.62602200  0.10154500  0.66827900  1
  O  O41  1  0.75201400  0.00107500  0.93656700  1
  O  O42  1  0.74530100  0.08237100  0.15846400  1
  O  O43  1  0.52056600  0.33207400  0.32675400  1
  O  O44  1  0.47329200  0.37218900  0.66702000  1
  O  O45  1  0.67833100  0.19442400  0.32983400  1
  O  O46  1  0.66899000  0.34430000  0.97600000  1
  O  O47  1  0.67044100  0.34298600  0.47855700  1
  O  O48  1  0.81283700  0.32650900  0.83058200  1
  O  O49  1  0.62121700  0.52100000  0.17366100  1
  O  O50  1  0.66677700  0.48336600  0.82352200  1
  O  O51  1  0.91975500  0.25712900  0.65935600  1
  O  O52  1  0.99670200  0.20568300  0.25080000  1
  O  O53  1  0.01425900  0.22574500  0.43284800  1
  O  O54  1  0.00068400  0.24326600  0.07045800  1
  O  O55  1  0.89824300  0.37921300  0.17713000  1
  O  O56  1  0.81499800  0.49296600  0.33395300  1
  O  O57  1  0.08055700  0.32965400  0.84042400  1
  O  O58  1  0.88851000  0.51565900  0.67178400  1
  O  O59  1  0.74481900  0.66704700  0.65460600  1
  O  O60  1  0.21827600  0.20333100  0.75956800  1
  O  O61  1  0.20458600  0.21258200  0.57966400  1
  O  O62  1  0.78087300  0.78182500  0.42931300  1
  O  O63  1  0.25636900  0.34157500  0.33391200  1
  O  O64  1  0.08426500  0.46761000  0.33260100  1
  O  O65  1  0.91787000  0.66378100  0.15582300  1
  O  O66  1  0.18609700  0.50960600  0.66577100  1
  O  O67  1  0.09648700  0.61649200  0.82104400  1
  O  O68  1  0.99847000  0.75484000  0.93049900  1
  O  O69  1  0.00185600  0.76363100  0.56853200  1
  O  O70  1  0.99672100  0.78700900  0.74941200  1
  O  O71  1  0.08131300  0.74356900  0.33611500  1
  O  O72  1  0.33045700  0.51424200  0.16906600  1
  O  O73  1  0.37826400  0.48136500  0.82537100  1
  O  O74  1  0.18634300  0.67277300  0.16991200  1
  O  O75  1  0.33056700  0.66776000  0.02259600  1
  O  O76  1  0.33851200  0.66274200  0.52051100  1
  O  O77  1  0.32227400  0.80878400  0.66676000  1
  O  O78  1  0.53076200  0.61976700  0.33283800  1
  O  O79  1  0.48472700  0.66995700  0.67116000  1
  O  O80  1  0.25113800  0.91530000  0.84057700  1
  O  O81  1  0.20581200  0.99970500  0.25030800  1
  O  O82  1  0.23907100  0.99545000  0.06958400  1
  O  O83  1  0.37965900  0.91163900  0.33383200  1
  O  O84  1  0.48738100  0.81384800  0.16980000  1
  O  O85  1  0.52301600  0.90343500  0.82021400  1
  O  O86  1  0.66883100  0.75128600  0.84163100  1
  O  O87  1  0.75752800  0.76134800  0.06862700  1
  O  O88  1  0.79407100  0.79143700  0.24886600  1
  O  O89  1  0.66195000  0.91631000  0.33578600  1
  O  O90  1  0.78400400  0.99230500  0.57828700  1
  O  O91  1  0.79746700  0.01345100  0.75846400  1
