# generated using pymatgen
data_Li9Mn2Co5O16
_symmetry_space_group_name_H-M   'P 1'
_cell_length_a   4.97348800
_cell_length_b   6.68293772
_cell_length_c   8.82910220
_cell_angle_alpha   98.87343227
_cell_angle_beta   95.30647589
_cell_angle_gamma   98.56042456
_symmetry_Int_Tables_number   1
_chemical_formula_structural   Li9Mn2Co5O16
_chemical_formula_sum   'Li9 Mn2 Co5 O16'
_cell_volume   284.70646043
_cell_formula_units_Z   1
loop_
 _symmetry_equiv_pos_site_id
 _symmetry_equiv_pos_as_xyz
  1  'x, y, z'
loop_
 _atom_site_type_symbol
 _atom_site_label
 _atom_site_symmetry_multiplicity
 _atom_site_fract_x
 _atom_site_fract_y
 _atom_site_fract_z
 _atom_site_occupancy
  Li  Li0  1  0.24531900  0.68232800  0.80650200  1
  Li  Li1  1  0.23948900  0.93071800  0.55216000  1
  Li  Li2  1  0.74803900  0.56631500  0.93974100  1
  Li  Li3  1  0.74449000  0.80711900  0.68009100  1
  Li  Li4  1  0.24506700  0.44510100  0.06814500  1
  Li  Li5  1  0.25198400  0.18868700  0.31937600  1
  Li  Li6  1  0.75606000  0.05738800  0.43648100  1
  Li  Li7  1  0.76217100  0.31882600  0.19748100  1
  Li  Li8  1  0.99798200  0.74947400  0.25376300  1
  Mn  Mn9  1  0.00357500  0.99310200  0.00063200  1
  Mn  Mn10  1  0.50196100  0.87122000  0.12786200  1
  Co  Co11  1  0.00308000  0.24863800  0.75133600  1
  Co  Co12  1  0.99602400  0.50554700  0.49491400  1
  Co  Co13  1  0.50139300  0.12349600  0.87460100  1
  Co  Co14  1  0.50171500  0.38027800  0.62661300  1
  Co  Co15  1  0.49796100  0.63222400  0.37000500  1
  O  O16  1  0.14124200  0.97577600  0.79798900  1
  O  O17  1  0.13205400  0.22795400  0.54735600  1
  O  O18  1  0.64392900  0.85063000  0.92264200  1
  O  O19  1  0.63717100  0.10819200  0.67582400  1
  O  O20  1  0.13677100  0.74688800  0.03215900  1
  O  O21  1  0.14255200  0.47303000  0.28897700  1
  O  O22  1  0.63611500  0.35393600  0.41276900  1
  O  O23  1  0.60564100  0.61699500  0.15166200  1
  O  O24  1  0.35358800  0.39142400  0.83796600  1
  O  O25  1  0.35875300  0.64555700  0.58825300  1
  O  O26  1  0.87601900  0.25187700  0.95739500  1
  O  O27  1  0.85379100  0.52244800  0.71460300  1
  O  O28  1  0.37528300  0.13263200  0.08028800  1
  O  O29  1  0.38882500  0.90643500  0.32880200  1
  O  O30  1  0.85660900  0.76933200  0.46540400  1
  O  O31  1  0.86534500  0.02642800  0.19820700  1
