# generated using pymatgen
data_Li3Ti3VO8
_symmetry_space_group_name_H-M   'P 1'
_cell_length_a   5.91910092
_cell_length_b   10.50179271
_cell_length_c   10.30808571
_cell_angle_alpha   79.29689590
_cell_angle_beta   73.31331571
_cell_angle_gamma   90.00518023
_symmetry_Int_Tables_number   1
_chemical_formula_structural   Li3Ti3VO8
_chemical_formula_sum   'Li12 Ti12 V4 O32'
_cell_volume   602.12953484
_cell_formula_units_Z   4
loop_
 _symmetry_equiv_pos_site_id
 _symmetry_equiv_pos_as_xyz
  1  'x, y, z'
loop_
 _atom_site_type_symbol
 _atom_site_label
 _atom_site_symmetry_multiplicity
 _atom_site_fract_x
 _atom_site_fract_y
 _atom_site_fract_z
 _atom_site_occupancy
  Li  Li0  1  0.74897700  0.25150200  0.99922800  1
  Li  Li1  1  0.25165600  0.74901500  0.00024500  1
  Li  Li2  1  0.50100400  0.49848300  0.50077700  1
  Li  Li3  1  0.99835800  0.00099600  0.49977800  1
  Li  Li4  1  0.99820500  0.49850400  0.50078100  1
  Li  Li5  1  0.50183300  0.00100700  0.49977300  1
  Li  Li6  1  0.74813100  0.74900200  0.00025400  1
  Li  Li7  1  0.25181300  0.25148000  0.99922300  1
  Li  Li8  1  0.12500600  0.87504800  0.75000000  1
  Li  Li9  1  0.62499300  0.37496500  0.75000000  1
  Li  Li10  1  0.87423800  0.12553000  0.25157500  1
  Li  Li11  1  0.37577300  0.62445500  0.24842100  1
  Ti  Ti12  1  0.37909000  0.12740700  0.74731000  1
  Ti  Ti13  1  0.87084300  0.62273400  0.75241800  1
  Ti  Ti14  1  0.12501300  0.37490200  0.25016300  1
  Ti  Ti15  1  0.62505400  0.87493700  0.25010300  1
  Ti  Ti16  1  0.12488700  0.87494200  0.25008800  1
  Ti  Ti17  1  0.62485700  0.37492200  0.25013600  1
  Ti  Ti18  1  0.87346300  0.12732300  0.74737500  1
  Ti  Ti19  1  0.37680300  0.62279400  0.75239500  1
  Ti  Ti20  1  0.24862500  0.24802500  0.50251000  1
  Ti  Ti21  1  0.74779800  0.75004700  0.50414500  1
  Ti  Ti22  1  0.00131100  0.50193600  0.99768700  1
  Ti  Ti23  1  0.50228600  0.00000800  0.99565000  1
  V  V24  1  0.74900100  0.24910300  0.50194700  1
  V  V25  1  0.50099300  0.50089400  0.99804900  1
  V  V26  1  0.24979800  0.75001700  0.50030100  1
  V  V27  1  0.00019500  0.00000100  0.99970300  1
  O  O28  1  0.43584100  0.81897800  0.12826200  1
  O  O29  1  0.93585000  0.32050500  0.12835700  1
  O  O30  1  0.18704000  0.06930500  0.62603200  1
  O  O31  1  0.68603600  0.56752800  0.62812400  1
  O  O32  1  0.31417800  0.42962000  0.37159800  1
  O  O33  1  0.81418800  0.93122100  0.37167800  1
  O  O34  1  0.06290400  0.68046600  0.87401900  1
  O  O35  1  0.56393000  0.18238800  0.87197100  1
  O  O36  1  0.80957700  0.94988900  0.88059500  1
  O  O37  1  0.30330700  0.44842900  0.87742100  1
  O  O38  1  0.55500000  0.20148100  0.37683600  1
  O  O39  1  0.05909200  0.70155800  0.37953100  1
  O  O40  1  0.31005400  0.94999300  0.88058700  1
  O  O41  1  0.81933300  0.44851800  0.87738700  1
  O  O42  1  0.06803100  0.20143400  0.37685000  1
  O  O43  1  0.56135800  0.70150100  0.37957600  1
  O  O44  1  0.18467100  0.57659600  0.63073400  1
  O  O45  1  0.68304400  0.06926700  0.63387100  1
  O  O46  1  0.93426900  0.82480000  0.13144900  1
  O  O47  1  0.43312800  0.32277900  0.13368100  1
  O  O48  1  0.44031700  0.80012800  0.61947100  1
  O  O49  1  0.94653300  0.30173000  0.62258100  1
  O  O50  1  0.19107100  0.04834500  0.12043000  1
  O  O51  1  0.69514200  0.54843500  0.12310200  1
  O  O52  1  0.94001600  0.80001500  0.61949200  1
  O  O53  1  0.43085500  0.30167400  0.62262400  1
  O  O54  1  0.68848700  0.04838100  0.12037800  1
  O  O55  1  0.18185400  0.54847200  0.12307000  1
  O  O56  1  0.06534900  0.17343600  0.86922200  1
  O  O57  1  0.56697400  0.68076300  0.86607600  1
  O  O58  1  0.81684200  0.42723300  0.36637500  1
  O  O59  1  0.31571900  0.92515100  0.36858800  1
