# generated using pymatgen
data_Na6Li3Fe6(PO4)8
_symmetry_space_group_name_H-M   'P 1'
_cell_length_a   6.54129100
_cell_length_b   10.61775893
_cell_length_c   10.64349473
_cell_angle_alpha   91.40444052
_cell_angle_beta   107.71739201
_cell_angle_gamma   90.04927291
_symmetry_Int_Tables_number   1
_chemical_formula_structural   Na6Li3Fe6(PO4)8
_chemical_formula_sum   'Na6 Li3 Fe6 P8 O32'
_cell_volume   703.93090972
_cell_formula_units_Z   1
loop_
 _symmetry_equiv_pos_site_id
 _symmetry_equiv_pos_as_xyz
  1  'x, y, z'
loop_
 _atom_site_type_symbol
 _atom_site_label
 _atom_site_symmetry_multiplicity
 _atom_site_fract_x
 _atom_site_fract_y
 _atom_site_fract_z
 _atom_site_occupancy
  Na  Na0  1  0.06482000  0.01347600  0.84602100  1
  Na  Na1  1  0.20327800  0.53185100  0.16108000  1
  Na  Na2  1  0.79267000  0.54558200  0.85719900  1
  Na  Na3  1  0.40759900  0.75086600  0.00090000  1
  Na  Na4  1  0.64454400  0.25295300  0.99038200  1
  Na  Na5  1  0.92842400  0.95683200  0.13927100  1
  Li  Li6  1  0.03586600  0.96542500  0.49855700  1
  Li  Li7  1  0.31068500  0.26758300  0.13093100  1
  Li  Li8  1  0.54495100  0.53395400  0.51125400  1
  Fe  Fe9  1  0.31031200  0.25154500  0.69041000  1
  Fe  Fe10  1  0.37702900  0.75512900  0.69192200  1
  Fe  Fe11  1  0.50819600  0.99776900  0.49759100  1
  Fe  Fe12  1  0.64931900  0.24436500  0.32004700  1
  Fe  Fe13  1  0.67880200  0.74892700  0.30707500  1
  Fe  Fe14  1  0.00138800  0.49914700  0.49911500  1
  P  P15  1  0.25879000  0.50866000  0.82587700  1
  P  P16  1  0.17712900  0.23394600  0.40363600  1
  P  P17  1  0.22315600  0.74036700  0.39881900  1
  P  P18  1  0.57215700  0.00966400  0.82358500  1
  P  P19  1  0.42568900  0.99079600  0.16958400  1
  P  P20  1  0.76997800  0.26028500  0.60362200  1
  P  P21  1  0.82534200  0.75864100  0.59595900  1
  P  P22  1  0.72776000  0.48478700  0.17112700  1
  O  O23  1  0.99939600  0.22949900  0.68804500  1
  O  O24  1  0.07265500  0.50974900  0.69301900  1
  O  O25  1  0.05406100  0.79600300  0.67683900  1
  O  O26  1  0.16872200  0.53879800  0.93998200  1
  O  O27  1  0.19406000  0.34589500  0.50984400  1
  O  O28  1  0.36220500  0.37361200  0.83727400  1
  O  O29  1  0.24371400  0.62461500  0.49450200  1
  O  O30  1  0.38271000  0.10794600  0.80489300  1
  O  O31  1  0.43466300  0.60511000  0.82216100  1
  O  O32  1  0.26168600  0.12375100  0.50638700  1
  O  O33  1  0.48351100  0.88181200  0.84988200  1
  O  O34  1  0.30171900  0.85500000  0.50152200  1
  O  O35  1  0.31809000  0.27057900  0.31879100  1
  O  O36  1  0.37728500  0.99447400  0.30548000  1
  O  O37  1  0.36745400  0.70783500  0.31313000  1
  O  O38  1  0.22267000  0.94617400  0.06109400  1
  O  O39  1  0.76886000  0.05628500  0.93508900  1
  O  O40  1  0.62064200  0.28485800  0.68852700  1
  O  O41  1  0.63094200  0.00013700  0.69243700  1
  O  O42  1  0.68364900  0.72025600  0.67952000  1
  O  O43  1  0.69365300  0.14797100  0.49919600  1
  O  O44  1  0.49335400  0.12693600  0.14489300  1
  O  O45  1  0.74398200  0.87141500  0.49663100  1
  O  O46  1  0.55533400  0.38263000  0.17429200  1
  O  O47  1  0.61413800  0.89909000  0.17772300  1
  O  O48  1  0.75131800  0.37695600  0.50987800  1
  O  O49  1  0.61700000  0.61425000  0.15405300  1
  O  O50  1  0.80043300  0.64358000  0.49288600  1
  O  O51  1  0.83019900  0.45084700  0.06242600  1
  O  O52  1  0.95138200  0.19742400  0.31786700  1
  O  O53  1  0.91306000  0.48353000  0.30614800  1
  O  O54  1  0.99700000  0.77417700  0.31526700  1
