# generated using pymatgen
data_Li6V3P8O29
_symmetry_space_group_name_H-M   'P 1'
_cell_length_a   9.81716200
_cell_length_b   9.83975394
_cell_length_c   14.07868998
_cell_angle_alpha   90.27728500
_cell_angle_beta   90.19191838
_cell_angle_gamma   119.90774020
_symmetry_Int_Tables_number   1
_chemical_formula_structural   Li6V3P8O29
_chemical_formula_sum   'Li12 V6 P16 O58'
_cell_volume   1178.83057369
_cell_formula_units_Z   2
loop_
 _symmetry_equiv_pos_site_id
 _symmetry_equiv_pos_as_xyz
  1  'x, y, z'
loop_
 _atom_site_type_symbol
 _atom_site_label
 _atom_site_symmetry_multiplicity
 _atom_site_fract_x
 _atom_site_fract_y
 _atom_site_fract_z
 _atom_site_occupancy
  Li  Li0  1  0.76630500  0.67590100  0.93744500  1
  Li  Li1  1  0.90241500  0.66301600  0.43800700  1
  Li  Li2  1  0.32964800  0.23287000  0.44186800  1
  Li  Li3  1  0.66565800  0.33219100  0.11058400  1
  Li  Li4  1  0.32260500  0.09065300  0.93784600  1
  Li  Li5  1  0.91097800  0.23311700  0.94060200  1
  Li  Li6  1  0.76504200  0.09275100  0.43983300  1
  Li  Li7  1  0.34091400  0.67867600  0.39380900  1
  Li  Li8  1  0.33759000  0.67456700  0.89277000  1
  Li  Li9  1  0.09032700  0.31932900  0.56208300  1
  Li  Li10  1  0.99869500  0.99578600  0.00819800  1
  Li  Li11  1  0.98352800  0.94987600  0.50488500  1
  V  V12  1  0.43557400  0.99896300  0.74611500  1
  V  V13  1  0.56109500  0.99979100  0.24895800  1
  V  V14  1  0.00179500  0.56509400  0.24759400  1
  V  V15  1  0.99870600  0.43536000  0.75140700  1
  V  V16  1  0.56573200  0.56504000  0.75089200  1
  V  V17  1  0.43891400  0.43873200  0.24909300  1
  P  P18  1  0.77472800  0.68479000  0.15416000  1
  P  P19  1  0.91259700  0.68479400  0.65808400  1
  P  P20  1  0.31278400  0.22767600  0.65655500  1
  P  P21  1  0.66520500  0.32975500  0.87191300  1
  P  P22  1  0.66897400  0.33465200  0.37110400  1
  P  P23  1  0.31447800  0.09078900  0.15488700  1
  P  P24  1  0.21995200  0.91363400  0.33936100  1
  P  P25  1  0.90699200  0.22322400  0.15740100  1
  P  P26  1  0.08904000  0.78133500  0.84056100  1
  P  P27  1  0.77330700  0.08598600  0.65503200  1
  P  P28  1  0.69287800  0.91467200  0.83868600  1
  P  P29  1  0.33284700  0.66423700  0.63243500  1
  P  P30  1  0.33281400  0.66569700  0.13065300  1
  P  P31  1  0.69425300  0.78077500  0.33906500  1
  P  P32  1  0.09155700  0.31825100  0.34128300  1
  P  P33  1  0.22345100  0.31149000  0.83975700  1
  O  O34  1  0.80300100  0.78949800  0.41689100  1
  O  O35  1  0.74460000  0.65296500  0.67352600  1
  O  O36  1  0.98998000  0.78781600  0.91882900  1
  O  O37  1  0.91675100  0.66195100  0.16687200  1
  O  O38  1  0.62540600  0.51946500  0.16847500  1
  O  O39  1  0.66761500  0.48161300  0.83708200  1
  O  O40  1  0.46673100  0.38239900  0.67204200  1
  O  O41  1  0.21483000  0.20907300  0.91980800  1
  O  O42  1  0.33832600  0.25573900  0.16823400  1
  O  O43  1  0.81946000  0.48058000  0.32935900  1
  O  O44  1  0.91532400  0.52994800  0.67422800  1
  O  O45  1  0.52138500  0.33824400  0.32969100  1
  O  O46  1  0.66124900  0.32338700  0.97874700  1
  O  O47  1  0.67149800  0.33688600  0.47661000  1
  O  O48  1  0.51611200  0.18198000  0.82974400  1
  O  O49  1  0.89278800  0.37399400  0.16920700  1
  O  O50  1  0.81372200  0.32753500  0.83417500  1
  O  O51  1  0.33753300  0.08743000  0.66466100  1
  O  O52  1  0.20406900  0.98341200  0.23923900  1
  O  O53  1  0.21047700  0.01081900  0.41848700  1
  O  O54  1  0.23477900  0.01651100  0.06297700  1
  O  O55  1  0.47997300  0.10578500  0.16887700  1
  O  O56  1  0.66372500  0.18292900  0.32970800  1
  O  O57  1  0.25839500  0.92090100  0.84286200  1
  O  O58  1  0.62085800  0.09197100  0.66853800  1
  O  O59  1  0.91978400  0.25330700  0.66668800  1
  O  O60  1  0.01825500  0.80169400  0.74052800  1
  O  O61  1  0.97610800  0.75960200  0.56427100  1
  O  O62  1  0.99830900  0.23280800  0.42797300  1
  O  O63  1  0.08011300  0.74388900  0.34169500  1
  O  O64  1  0.37346600  0.90377000  0.33476200  1
  O  O65  1  0.74166500  0.08207200  0.16691100  1
  O  O66  1  0.33185400  0.81212000  0.67617800  1
  O  O67  1  0.52978700  0.90420600  0.83170000  1
  O  O68  1  0.79851200  0.01150700  0.91820100  1
  O  O69  1  0.78695500  0.01723200  0.56279200  1
  O  O70  1  0.78504200  0.98383400  0.74002800  1
  O  O71  1  0.66320500  0.92005100  0.34290300  1
  O  O72  1  0.18014500  0.65413900  0.17297000  1
  O  O73  1  0.10077100  0.62961800  0.83209600  1
  O  O74  1  0.47111200  0.81802800  0.17602500  1
  O  O75  1  0.33343500  0.66484200  0.02540500  1
  O  O76  1  0.32988300  0.66274400  0.52619800  1
  O  O77  1  0.47937300  0.66864200  0.67761600  1
  O  O78  1  0.10850300  0.48283400  0.33057400  1
  O  O79  1  0.18370500  0.51229100  0.66943700  1
  O  O80  1  0.66070200  0.74332400  0.84257300  1
  O  O81  1  0.77904800  0.79676200  0.23883000  1
  O  O82  1  0.77838500  0.76305700  0.06277700  1
  O  O83  1  0.53183200  0.62759500  0.33453500  1
  O  O84  1  0.34602700  0.52749000  0.17573300  1
  O  O85  1  0.37628500  0.47352600  0.83227100  1
  O  O86  1  0.08493300  0.34694700  0.84247200  1
  O  O87  1  0.98642000  0.21853300  0.06803400  1
  O  O88  1  0.00615700  0.21699100  0.24785600  1
  O  O89  1  0.25753800  0.33803100  0.34320000  1
  O  O90  1  0.22785100  0.22509100  0.56574700  1
  O  O91  1  0.19732800  0.21733200  0.74158000  1
