# generated using pymatgen
data_Li4Mn3O7
_symmetry_space_group_name_H-M   'P 1'
_cell_length_a   5.31026200
_cell_length_b   6.50639225
_cell_length_c   7.77804751
_cell_angle_alpha   87.01623796
_cell_angle_beta   74.61472382
_cell_angle_gamma   84.69195444
_symmetry_Int_Tables_number   1
_chemical_formula_structural   Li4Mn3O7
_chemical_formula_sum   'Li8 Mn6 O14'
_cell_volume   257.88897135
_cell_formula_units_Z   2
loop_
 _symmetry_equiv_pos_site_id
 _symmetry_equiv_pos_as_xyz
  1  'x, y, z'
loop_
 _atom_site_type_symbol
 _atom_site_label
 _atom_site_symmetry_multiplicity
 _atom_site_fract_x
 _atom_site_fract_y
 _atom_site_fract_z
 _atom_site_occupancy
  Li  Li0  1  0.50000000  0.00000000  0.50000000  1
  Li  Li1  1  0.21779100  0.57005900  0.07404800  1
  Li  Li2  1  0.07653300  0.85450000  0.35376000  1
  Li  Li3  1  0.78220900  0.42994100  0.92595200  1
  Li  Li4  1  0.65024300  0.72501200  0.20819300  1
  Li  Li5  1  0.34975700  0.27498800  0.79180700  1
  Li  Li6  1  0.92346700  0.14550000  0.64624000  1
  Li  Li7  1  0.00000000  0.00000000  0.00000000  1
  Mn  Mn8  1  0.57052000  0.85831300  0.85810000  1
  Mn  Mn9  1  0.42948000  0.14168700  0.14190000  1
  Mn  Mn10  1  0.28609400  0.42701700  0.42961800  1
  Mn  Mn11  1  0.71390600  0.57298300  0.57038200  1
  Mn  Mn12  1  0.14096100  0.71605100  0.71813100  1
  Mn  Mn13  1  0.85903900  0.28394900  0.28186900  1
  O  O14  1  0.80107900  0.85035200  0.61588800  1
  O  O15  1  0.51581500  0.41520600  0.18380200  1
  O  O16  1  0.36860900  0.70199900  0.47166200  1
  O  O17  1  0.12780700  0.27186800  0.05777200  1
  O  O18  1  0.94157600  0.56668300  0.32693500  1
  O  O19  1  0.65245700  0.13161500  0.90139300  1
  O  O20  1  0.27731200  0.97188700  0.75978700  1
  O  O21  1  0.19892100  0.14964800  0.38411200  1
  O  O22  1  0.87219300  0.72813200  0.94222800  1
  O  O23  1  0.72268800  0.02811300  0.24021300  1
  O  O24  1  0.48418500  0.58479400  0.81619800  1
  O  O25  1  0.34754300  0.86838500  0.09860700  1
  O  O26  1  0.05842400  0.43331700  0.67306500  1
  O  O27  1  0.63139100  0.29800100  0.52833800  1
