# generated using pymatgen
data_Li9Mn2Co5O16
_symmetry_space_group_name_H-M   'P 1'
_cell_length_a   5.79179400
_cell_length_b   6.62314245
_cell_length_c   7.73984316
_cell_angle_alpha   85.57958686
_cell_angle_beta   78.76195909
_cell_angle_gamma   77.23240709
_symmetry_Int_Tables_number   1
_chemical_formula_structural   Li9Mn2Co5O16
_chemical_formula_sum   'Li9 Mn2 Co5 O16'
_cell_volume   283.82693630
_cell_formula_units_Z   1
loop_
 _symmetry_equiv_pos_site_id
 _symmetry_equiv_pos_as_xyz
  1  'x, y, z'
loop_
 _atom_site_type_symbol
 _atom_site_label
 _atom_site_symmetry_multiplicity
 _atom_site_fract_x
 _atom_site_fract_y
 _atom_site_fract_z
 _atom_site_occupancy
  Li  Li0  1  0.80262100  0.63412500  0.12478900  1
  Li  Li1  1  0.93130600  0.88178900  0.37519300  1
  Li  Li2  1  0.68138200  0.36974700  0.87325600  1
  Li  Li3  1  0.56323100  0.12061900  0.63361200  1
  Li  Li4  1  0.44403700  0.87762100  0.36999300  1
  Li  Li5  1  0.31891800  0.62380500  0.12332200  1
  Li  Li6  1  0.19914500  0.36592500  0.86917800  1
  Li  Li7  1  0.06053500  0.12341300  0.63070600  1
  Li  Li8  1  0.50036700  0.00550200  0.00059100  1
  Mn  Mn9  1  0.99637800  0.00094000  0.00149700  1
  Mn  Mn10  1  0.13068100  0.24556300  0.24613800  1
  Co  Co11  1  0.24848600  0.50001400  0.50266400  1
  Co  Co12  1  0.37798200  0.75851900  0.75493400  1
  Co  Co13  1  0.62488700  0.24717400  0.24737600  1
  Co  Co14  1  0.74549400  0.50003000  0.50155400  1
  Co  Co15  1  0.86739500  0.75714700  0.75482500  1
  O  O16  1  0.72766500  0.95908900  0.17983400  1
  O  O17  1  0.84584400  0.19833900  0.41801100  1
  O  O18  1  0.59915900  0.68545900  0.91895400  1
  O  O19  1  0.47440900  0.44247500  0.67641400  1
  O  O20  1  0.34583800  0.19314200  0.41504500  1
  O  O21  1  0.20183200  0.95927300  0.18133300  1
  O  O22  1  0.08562600  0.71212500  0.94321600  1
  O  O23  1  0.97704800  0.44726800  0.67456900  1
  O  O24  1  0.90926300  0.29465200  0.07613200  1
  O  O25  1  0.02942800  0.53792100  0.31858100  1
  O  O26  1  0.79717700  0.05472700  0.82275900  1
  O  O27  1  0.65932100  0.80370300  0.56543900  1
  O  O28  1  0.52999900  0.53972000  0.31844800  1
  O  O29  1  0.39966700  0.30805100  0.08356600  1
  O  O30  1  0.26541500  0.05384700  0.82190500  1
  O  O31  1  0.15946300  0.79827300  0.57616600  1
