# generated using pymatgen
data_Li4MnCo2O7
_symmetry_space_group_name_H-M   'P 1'
_cell_length_a   2.97555400
_cell_length_b   8.10287031
_cell_length_c   10.66246349
_cell_angle_alpha   78.34331135
_cell_angle_beta   85.79860235
_cell_angle_gamma   89.03917641
_symmetry_Int_Tables_number   1
_chemical_formula_structural   Li4MnCo2O7
_chemical_formula_sum   'Li8 Mn2 Co4 O14'
_cell_volume   251.09850385
_cell_formula_units_Z   2
loop_
 _symmetry_equiv_pos_site_id
 _symmetry_equiv_pos_as_xyz
  1  'x, y, z'
loop_
 _atom_site_type_symbol
 _atom_site_label
 _atom_site_symmetry_multiplicity
 _atom_site_fract_x
 _atom_site_fract_y
 _atom_site_fract_z
 _atom_site_occupancy
  Li  Li0  1  0.14733800  0.07260000  0.71218600  1
  Li  Li1  1  0.85957500  0.93196300  0.28593700  1
  Li  Li2  1  0.57990800  0.78337500  0.85033400  1
  Li  Li3  1  0.72058000  0.35459200  0.57104000  1
  Li  Li4  1  0.42511200  0.22625200  0.14888100  1
  Li  Li5  1  0.27671700  0.63599700  0.43082200  1
  Li  Li6  1  0.98911500  0.49408900  0.00733100  1
  Li  Li7  1  0.87009400  0.42397400  0.28020800  1
  Mn  Mn8  1  0.99178300  0.00361000  0.00071100  1
  Mn  Mn9  1  0.42196000  0.70368000  0.14796700  1
  Co  Co10  1  0.71610700  0.85848800  0.57105000  1
  Co  Co11  1  0.14109900  0.57265200  0.71249200  1
  Co  Co12  1  0.57120400  0.28901500  0.85543600  1
  Co  Co13  1  0.29426300  0.15312400  0.42414300  1
  O  O14  1  0.59439600  0.04597700  0.85986800  1
  O  O15  1  0.30953800  0.90880700  0.43779500  1
  O  O16  1  0.96416300  0.75315900  0.01683200  1
  O  O17  1  0.16569700  0.33302100  0.72123700  1
  O  O18  1  0.88014900  0.17324100  0.29877900  1
  O  O19  1  0.73955800  0.61912000  0.57437100  1
  O  O20  1  0.43612600  0.48049700  0.14109500  1
  O  O21  1  0.69402700  0.09481600  0.56470700  1
  O  O22  1  0.39771500  0.95460300  0.13762100  1
  O  O23  1  0.12035800  0.81086900  0.70832800  1
  O  O24  1  0.28023500  0.36560900  0.43395500  1
  O  O25  1  0.97613400  0.24709400  0.99131000  1
  O  O26  1  0.88866800  0.68140000  0.26960100  1
  O  O27  1  0.54838200  0.52837900  0.84596400  1
