# generated using pymatgen
data_Cs2LiBr3
_symmetry_space_group_name_H-M   'P 1'
_cell_length_a   12.54098519
_cell_length_b   12.54098519
_cell_length_c   8.24528100
_cell_angle_alpha   90.00000000
_cell_angle_beta   90.00000000
_cell_angle_gamma   159.26640062
_symmetry_Int_Tables_number   1
_chemical_formula_structural   Cs2LiBr3
_chemical_formula_sum   'Cs4 Li2 Br6'
_cell_volume   459.09300266
_cell_formula_units_Z   2
loop_
 _symmetry_equiv_pos_site_id
 _symmetry_equiv_pos_as_xyz
  1  'x, y, z'
loop_
 _atom_site_type_symbol
 _atom_site_label
 _atom_site_symmetry_multiplicity
 _atom_site_fract_x
 _atom_site_fract_y
 _atom_site_fract_z
 _atom_site_occupancy
  Cs  Cs0  1  0.49472200  0.50527800  0.25000000  1
  Cs  Cs1  1  0.32259100  0.67740900  0.75000000  1
  Cs  Cs2  1  0.67740900  0.32259100  0.25000000  1
  Cs  Cs3  1  0.50527800  0.49472200  0.75000000  1
  Li  Li4  1  0.85057100  0.14942900  0.25000000  1
  Li  Li5  1  0.14942900  0.85057100  0.75000000  1
  Br  Br6  1  0.91199900  0.08800100  0.50200300  1
  Br  Br7  1  0.91199900  0.08800100  0.99799700  1
  Br  Br8  1  0.29519800  0.70480200  0.25000000  1
  Br  Br9  1  0.70480200  0.29519800  0.75000000  1
  Br  Br10  1  0.08800100  0.91199900  0.00200300  1
  Br  Br11  1  0.08800100  0.91199900  0.49799700  1
