# generated using pymatgen
data_Li2Ti6O13
_symmetry_space_group_name_H-M   'P 1'
_cell_length_a   7.99525298
_cell_length_b   7.99525298
_cell_length_c   9.23299537
_cell_angle_alpha   80.68841599
_cell_angle_beta   80.68841599
_cell_angle_gamma   27.41687837
_symmetry_Int_Tables_number   1
_chemical_formula_structural   Li2Ti6O13
_chemical_formula_sum   'Li2 Ti6 O13'
_cell_volume   267.97347462
_cell_formula_units_Z   1
loop_
 _symmetry_equiv_pos_site_id
 _symmetry_equiv_pos_as_xyz
  1  'x, y, z'
loop_
 _atom_site_type_symbol
 _atom_site_label
 _atom_site_symmetry_multiplicity
 _atom_site_fract_x
 _atom_site_fract_y
 _atom_site_fract_z
 _atom_site_occupancy
  Li  Li0  1  0.94998600  0.94998600  0.75375300  1
  Li  Li1  1  0.05001400  0.05001400  0.24624700  1
  Ti  Ti2  1  0.11484400  0.11484400  0.90450400  1
  Ti  Ti3  1  0.88515600  0.88515600  0.09549600  1
  Ti  Ti4  1  0.16791900  0.16791900  0.56465500  1
  Ti  Ti5  1  0.83208100  0.83208100  0.43534500  1
  Ti  Ti6  1  0.23075000  0.23075000  0.22802000  1
  Ti  Ti7  1  0.76925000  0.76925000  0.77198000  1
  O  O8  1  0.00000000  0.00000000  0.00000000  1
  O  O9  1  0.23795300  0.23795300  0.75807700  1
  O  O10  1  0.76204700  0.76204700  0.24192300  1
  O  O11  1  0.07375300  0.07375300  0.71114100  1
  O  O12  1  0.92624700  0.92624700  0.28885900  1
  O  O13  1  0.29616700  0.29616700  0.42694700  1
  O  O14  1  0.70383300  0.70383300  0.57305300  1
  O  O15  1  0.13065500  0.13065500  0.38720600  1
  O  O16  1  0.86934500  0.86934500  0.61279400  1
  O  O17  1  0.35455600  0.35455600  0.11221000  1
  O  O18  1  0.64544400  0.64544400  0.88779000  1
  O  O19  1  0.16094900  0.16094900  0.09331100  1
  O  O20  1  0.83905100  0.83905100  0.90668900  1
