# generated using pymatgen
data_Li6V3P8O29
_symmetry_space_group_name_H-M   'P 1'
_cell_length_a   9.76043100
_cell_length_b   9.78398562
_cell_length_c   13.97346853
_cell_angle_alpha   90.16196520
_cell_angle_beta   90.14230197
_cell_angle_gamma   119.52765717
_symmetry_Int_Tables_number   1
_chemical_formula_structural   Li6V3P8O29
_chemical_formula_sum   'Li12 V6 P16 O58'
_cell_volume   1161.07715055
_cell_formula_units_Z   2
loop_
 _symmetry_equiv_pos_site_id
 _symmetry_equiv_pos_as_xyz
  1  'x, y, z'
loop_
 _atom_site_type_symbol
 _atom_site_label
 _atom_site_symmetry_multiplicity
 _atom_site_fract_x
 _atom_site_fract_y
 _atom_site_fract_z
 _atom_site_occupancy
  Li  Li0  1  0.23713900  0.89991400  0.43918200  1
  Li  Li1  1  0.09752700  0.33597000  0.43644700  1
  Li  Li2  1  0.23338900  0.33416600  0.94365600  1
  Li  Li3  1  0.66788700  0.90520700  0.94037200  1
  Li  Li4  1  0.33730300  0.23671200  0.56232200  1
  Li  Li5  1  0.66269700  0.76328800  0.43767800  1
  Li  Li6  1  0.33211300  0.09479300  0.05962800  1
  Li  Li7  1  0.76661100  0.66583400  0.05634400  1
  Li  Li8  1  0.90247300  0.66403000  0.56355300  1
  Li  Li9  1  0.76286100  0.10008600  0.56081800  1
  Li  Li10  1  0.00000000  0.00000000  0.00000000  1
  Li  Li11  1  0.00000000  0.00000000  0.50000000  1
  V  V12  1  0.43795300  0.43905100  0.74923800  1
  V  V13  1  0.56204700  0.56094900  0.25076200  1
  V  V14  1  0.43521300  0.99732700  0.24703300  1
  V  V15  1  0.56478700  0.00267300  0.75296700  1
  V  V16  1  0.00411300  0.56354600  0.75432500  1
  V  V17  1  0.99588700  0.43645400  0.24567500  1
  P  P18  1  0.08359400  0.77893900  0.15956900  1
  P  P19  1  0.22384000  0.91392000  0.65898300  1
  P  P20  1  0.08348800  0.30848500  0.65405700  1
  P  P21  1  0.33635000  0.66732700  0.86860900  1
  P  P22  1  0.33088100  0.66432600  0.36918500  1
  P  P23  1  0.22270200  0.31176300  0.15892800  1
  P  P24  1  0.31252600  0.22354400  0.34211100  1
  P  P25  1  0.68939200  0.90997200  0.15614200  1
  P  P26  1  0.31060800  0.09002800  0.84385800  1
  P  P27  1  0.68747400  0.77645600  0.65788900  1
  P  P28  1  0.77729800  0.68823700  0.84107200  1
  P  P29  1  0.66911900  0.33567400  0.63081500  1
  P  P30  1  0.66365000  0.33267300  0.13139100  1
  P  P31  1  0.91651200  0.69151500  0.34594300  1
  P  P32  1  0.77616000  0.08608000  0.34101700  1
  P  P33  1  0.91640600  0.22106100  0.84043100  1
  O  O34  1  0.00201100  0.78140700  0.43683300  1
  O  O35  1  0.08152600  0.74733800  0.65879000  1
  O  O36  1  0.22730600  0.01249900  0.93399200  1
  O  O37  1  0.25485800  0.91954200  0.15837300  1
  O  O38  1  0.08619500  0.62326900  0.16879400  1
  O  O39  1  0.19130700  0.67063500  0.82180700  1
  O  O40  1  0.08173100  0.46327200  0.66579500  1
  O  O41  1  0.00961100  0.20861700  0.92156500  1
  O  O42  1  0.08285300  0.33988300  0.16142900  1
  O  O43  1  0.32251200  0.80917200  0.32940300  1
  O  O44  1  0.38042400  0.91426000  0.67072200  1
  O  O45  1  0.18586900  0.51145100  0.32873500  1
  O  O46  1  0.33660500  0.66056700  0.97487600  1
  O  O47  1  0.33879100  0.66435400  0.47623800  1
  O  O48  1  0.32792100  0.51305600  0.82501800  1
  O  O49  1  0.53105500  0.91066700  0.17179300  1
  O  O50  1  0.48950400  0.81218000  0.82945700  1
  O  O51  1  0.25185400  0.33321000  0.65698700  1
  O  O52  1  0.20429800  0.20117700  0.25036000  1
  O  O53  1  0.22150300  0.21857600  0.43143400  1
  O  O54  1  0.22347000  0.22310200  0.07020400  1
  O  O55  1  0.37851700  0.46749800  0.17129600  1
  O  O56  1  0.48599200  0.67198900  0.32700900  1
  O  O57  1  0.34066800  0.26025500  0.84014800  1
  O  O58  1  0.53244700  0.61994900  0.66576600  1
  O  O59  1  0.65946100  0.91845000  0.65822900  1
  O  O60  1  0.20394600  0.00207600  0.75135000  1
  O  O61  1  0.22140200  0.00242600  0.56989800  1
  O  O62  1  0.77859800  0.99757400  0.43010200  1
  O  O63  1  0.34053900  0.08155000  0.34177100  1
  O  O64  1  0.46755300  0.38005100  0.33423400  1
  O  O65  1  0.65933200  0.73974500  0.15985200  1
  O  O66  1  0.51400800  0.32801100  0.67299100  1
  O  O67  1  0.62148300  0.53250200  0.82870400  1
  O  O68  1  0.77653000  0.77689800  0.92979600  1
  O  O69  1  0.77849700  0.78142400  0.56856600  1
  O  O70  1  0.79570200  0.79882300  0.74964000  1
  O  O71  1  0.74814600  0.66679000  0.34301300  1
  O  O72  1  0.51049600  0.18782000  0.17054300  1
  O  O73  1  0.46894500  0.08933300  0.82820700  1
  O  O74  1  0.67207900  0.48694400  0.17498200  1
  O  O75  1  0.66339500  0.33943300  0.02512400  1
  O  O76  1  0.66120900  0.33564600  0.52376200  1
  O  O77  1  0.81413100  0.48854900  0.67126500  1
  O  O78  1  0.61957600  0.08574000  0.32927800  1
  O  O79  1  0.67748800  0.19082800  0.67059700  1
  O  O80  1  0.91714700  0.66011700  0.83857100  1
  O  O81  1  0.01113300  0.80482600  0.25826500  1
  O  O82  1  0.99038900  0.79138300  0.07843500  1
  O  O83  1  0.91826900  0.53672800  0.33420500  1
  O  O84  1  0.80869300  0.32936500  0.17819300  1
  O  O85  1  0.91380500  0.37673100  0.83120600  1
  O  O86  1  0.74514200  0.08045800  0.84162700  1
  O  O87  1  0.77269400  0.98750100  0.06600800  1
  O  O88  1  0.79605400  0.99792400  0.24865000  1
  O  O89  1  0.91847400  0.25266200  0.34121000  1
  O  O90  1  0.99798900  0.21859300  0.56316700  1
  O  O91  1  0.98886700  0.19517400  0.74173500  1
