# generated using pymatgen
data_Li9Mn2Co5O16
_symmetry_space_group_name_H-M   'P 1'
_cell_length_a   5.87097500
_cell_length_b   6.52108843
_cell_length_c   8.24611303
_cell_angle_alpha   90.75458893
_cell_angle_beta   89.96462663
_cell_angle_gamma   115.55448737
_symmetry_Int_Tables_number   1
_chemical_formula_structural   Li9Mn2Co5O16
_chemical_formula_sum   'Li9 Mn2 Co5 O16'
_cell_volume   284.79090128
_cell_formula_units_Z   1
loop_
 _symmetry_equiv_pos_site_id
 _symmetry_equiv_pos_as_xyz
  1  'x, y, z'
loop_
 _atom_site_type_symbol
 _atom_site_label
 _atom_site_symmetry_multiplicity
 _atom_site_fract_x
 _atom_site_fract_y
 _atom_site_fract_z
 _atom_site_occupancy
  Li  Li0  1  0.24429000  0.49354100  0.00066600  1
  Li  Li1  1  0.89004800  0.25438600  0.74398000  1
  Li  Li2  1  0.61545200  0.74688100  0.25840900  1
  Li  Li3  1  0.99633700  0.99879800  0.49774200  1
  Li  Li4  1  0.36863900  0.25804500  0.74413000  1
  Li  Li5  1  0.74883300  0.49950700  0.00484800  1
  Li  Li6  1  0.13265600  0.74503600  0.25935300  1
  Li  Li7  1  0.50620900  0.00906100  0.49852800  1
  Li  Li8  1  0.25364600  0.50127300  0.49902100  1
  Mn  Mn9  1  0.00120800  0.00150500  0.99711500  1
  Mn  Mn10  1  0.12662400  0.74502500  0.74600800  1
  Co  Co11  1  0.61578800  0.73892200  0.74393000  1
  Co  Co12  1  0.87477900  0.25043800  0.25447600  1
  Co  Co13  1  0.49845500  0.00022000  0.00304300  1
  Co  Co14  1  0.75176900  0.50002800  0.50147200  1
  Co  Co15  1  0.37539100  0.25912400  0.25475100  1
  O  O16  1  0.87823400  0.23524600  0.00766800  1
  O  O17  1  0.47625100  0.96191700  0.74409000  1
  O  O18  1  0.24840500  0.48284600  0.24799600  1
  O  O19  1  0.63983100  0.73498600  0.51633200  1
  O  O20  1  0.01019000  0.99206200  0.76092100  1
  O  O21  1  0.34968700  0.23166700  0.00073100  1
  O  O22  1  0.74709400  0.49506300  0.26762700  1
  O  O23  1  0.09629100  0.73333200  0.51423900  1
  O  O24  1  0.65059800  0.76740600  0.98081700  1
  O  O25  1  0.24025400  0.51600900  0.75323300  1
  O  O26  1  0.00020800  0.00421800  0.23434000  1
  O  O27  1  0.41694800  0.27918500  0.49799200  1
  O  O28  1  0.76498700  0.52026500  0.73840100  1
  O  O29  1  0.11248700  0.76015000  0.98484100  1
  O  O30  1  0.49868500  0.01478700  0.25267500  1
  O  O31  1  0.86972500  0.26907200  0.49062600  1
