# generated using pymatgen
data_Li4Ti3Mn3(SnO8)2
_symmetry_space_group_name_H-M   'P 1'
_cell_length_a   6.11814342
_cell_length_b   6.11814342
_cell_length_c   9.84774571
_cell_angle_alpha   87.85020209
_cell_angle_beta   87.85020209
_cell_angle_gamma   58.16963651
_symmetry_Int_Tables_number   1
_chemical_formula_structural   Li4Ti3Mn3(SnO8)2
_chemical_formula_sum   'Li4 Ti3 Mn3 Sn2 O16'
_cell_volume   312.89380689
_cell_formula_units_Z   1
loop_
 _symmetry_equiv_pos_site_id
 _symmetry_equiv_pos_as_xyz
  1  'x, y, z'
loop_
 _atom_site_type_symbol
 _atom_site_label
 _atom_site_symmetry_multiplicity
 _atom_site_fract_x
 _atom_site_fract_y
 _atom_site_fract_z
 _atom_site_occupancy
  Li  Li0  1  0.66013000  0.66013000  0.10496100  1
  Li  Li1  1  0.99801700  0.99801700  0.00879300  1
  Li  Li2  1  0.00479100  0.00479100  0.50750700  1
  Li  Li3  1  0.33223500  0.33223500  0.60455300  1
  Ti  Ti4  1  0.16823200  0.16823200  0.28192700  1
  Ti  Ti5  1  0.34024700  0.83378500  0.78552400  1
  Ti  Ti6  1  0.83378500  0.34024700  0.78552400  1
  Mn  Mn7  1  0.83088000  0.83088000  0.78620800  1
  Mn  Mn8  1  0.16787600  0.66009100  0.28782400  1
  Mn  Mn9  1  0.66009100  0.16787600  0.28782400  1
  Sn  Sn10  1  0.67060000  0.67060000  0.50881200  1
  Sn  Sn11  1  0.33461400  0.33461400  0.01042700  1
  O  O12  1  0.33524700  0.85359700  0.39972100  1
  O  O13  1  0.51852800  0.51852800  0.66578900  1
  O  O14  1  0.65002800  0.65002800  0.89422900  1
  O  O15  1  0.01197000  0.01197000  0.69278900  1
  O  O16  1  0.00033500  0.00033500  0.19634100  1
  O  O17  1  0.85359700  0.33524700  0.39972100  1
  O  O18  1  0.49925500  0.96242600  0.65650100  1
  O  O19  1  0.96242600  0.49925500  0.65650100  1
  O  O20  1  0.16522700  0.16522700  0.89446000  1
  O  O21  1  0.84635200  0.84635200  0.40535000  1
  O  O22  1  0.02827200  0.46585800  0.15588200  1
  O  O23  1  0.46585800  0.02827200  0.15588200  1
  O  O24  1  0.33089800  0.33089800  0.38767700  1
  O  O25  1  0.17599600  0.67789700  0.90345400  1
  O  O26  1  0.47655900  0.47655900  0.16452000  1
  O  O27  1  0.67789700  0.17599600  0.90345400  1
