# generated using pymatgen
data_LiSbN2
_symmetry_space_group_name_H-M   'P 1'
_cell_length_a   5.78413828
_cell_length_b   6.96137127
_cell_length_c   5.44757991
_cell_angle_alpha   90.00000000
_cell_angle_beta   90.00000000
_cell_angle_gamma   90.00000000
_symmetry_Int_Tables_number   1
_chemical_formula_structural   LiSbN2
_chemical_formula_sum   'Li4 Sb4 N8'
_cell_volume   219.34971432
_cell_formula_units_Z   4
loop_
 _symmetry_equiv_pos_site_id
 _symmetry_equiv_pos_as_xyz
  1  'x, y, z'
loop_
 _atom_site_type_symbol
 _atom_site_label
 _atom_site_symmetry_multiplicity
 _atom_site_fract_x
 _atom_site_fract_y
 _atom_site_fract_z
 _atom_site_occupancy
  Li  Li0  1  0.58320080  0.37477743  0.00063637  1
  Li  Li1  1  0.41679920  0.62522257  0.50063637  1
  Li  Li2  1  0.91679920  0.87477743  0.50063637  1
  Li  Li3  1  0.08320080  0.12522257  0.00063637  1
  Sb  Sb4  1  0.58115566  0.87398652  0.00417956  1
  Sb  Sb5  1  0.41884434  0.12601348  0.50417956  1
  Sb  Sb6  1  0.91884434  0.37398652  0.50417956  1
  Sb  Sb7  1  0.08115566  0.62601348  0.00417956  1
  N  N8  1  0.58790933  0.36451277  0.39032137  1
  N  N9  1  0.41209067  0.63548723  0.89032137  1
  N  N10  1  0.91209067  0.86451277  0.89032137  1
  N  N11  1  0.08790933  0.13548723  0.39032137  1
  N  N12  1  0.56534629  0.88461258  0.37486270  1
  N  N13  1  0.43465371  0.11538742  0.87486270  1
  N  N14  1  0.93465371  0.38461258  0.87486270  1
  N  N15  1  0.06534629  0.61538742  0.37486270  1
