# generated using pymatgen
data_Li32Mn5Cr11O48
_symmetry_space_group_name_H-M   'P 1'
_cell_length_a   5.00927800
_cell_length_b   5.03274565
_cell_length_c   38.42233228
_cell_angle_alpha   91.20164109
_cell_angle_beta   90.74977363
_cell_angle_gamma   119.56561252
_symmetry_Int_Tables_number   1
_chemical_formula_structural   Li32Mn5Cr11O48
_chemical_formula_sum   'Li32 Mn5 Cr11 O48'
_cell_volume   842.02619944
_cell_formula_units_Z   1
loop_
 _symmetry_equiv_pos_site_id
 _symmetry_equiv_pos_as_xyz
  1  'x, y, z'
loop_
 _atom_site_type_symbol
 _atom_site_label
 _atom_site_symmetry_multiplicity
 _atom_site_fract_x
 _atom_site_fract_y
 _atom_site_fract_z
 _atom_site_occupancy
  Li  Li0  1  0.91651500  0.09189100  0.75022400  1
  Li  Li1  1  0.00235900  0.50531500  0.99979300  1
  Li  Li2  1  0.94240600  0.44210300  0.81254100  1
  Li  Li3  1  0.87377800  0.37459600  0.62513600  1
  Li  Li4  1  0.81367500  0.30878200  0.43744400  1
  Li  Li5  1  0.74620600  0.25033900  0.25001500  1
  Li  Li6  1  0.68734000  0.18740700  0.06247900  1
  Li  Li7  1  0.96697900  0.78439500  0.87488400  1
  Li  Li8  1  0.62354400  0.12436100  0.87501000  1
  Li  Li9  1  0.84144600  0.66285100  0.49986400  1
  Li  Li10  1  0.72079100  0.53893200  0.12501400  1
  Li  Li11  1  0.56079200  0.06614900  0.68759400  1
  Li  Li12  1  0.50177200  0.00134600  0.49991600  1
  Li  Li13  1  0.58712700  0.41096600  0.74990500  1
  Li  Li14  1  0.46204600  0.28544100  0.37505600  1
  Li  Li15  1  0.78503500  0.96444400  0.37515600  1
  Li  Li16  1  0.65921500  0.83550000  0.99994900  1
  Li  Li17  1  0.33824400  0.15966200  0.99970800  1
  Li  Li18  1  0.22087500  0.03987000  0.62514000  1
  Li  Li19  1  0.53111000  0.70941100  0.62506300  1
  Li  Li20  1  0.41681100  0.59230200  0.25022800  1
  Li  Li21  1  0.43730300  0.93740900  0.31251000  1
  Li  Li22  1  0.28497000  0.46590800  0.87508100  1
  Li  Li23  1  0.15583800  0.33662000  0.50010900  1
  Li  Li24  1  0.37410100  0.87560800  0.12498500  1
  Li  Li25  1  0.03097900  0.20924500  0.12493000  1
  Li  Li26  1  0.30772900  0.80949900  0.93745500  1
  Li  Li27  1  0.24630500  0.74594300  0.75009100  1
  Li  Li28  1  0.18741100  0.68747500  0.56246900  1
  Li  Li29  1  0.12778300  0.62563800  0.37506500  1
  Li  Li30  1  0.05975000  0.56557900  0.18752400  1
  Li  Li31  1  0.08735900  0.90750400  0.24972800  1
  Mn  Mn32  1  0.64589400  0.47943600  0.93747900  1
  Mn  Mn33  1  0.72987300  0.89535000  0.18750000  1
  Mn  Mn34  1  0.60443400  0.77085500  0.81251000  1
  Mn  Mn35  1  0.23014000  0.39540500  0.68752200  1
  Mn  Mn36  1  0.14426900  0.97951600  0.43746400  1
  Cr  Cr37  1  0.97342600  0.14007000  0.93736300  1
  Cr  Cr38  1  0.85778900  0.01580600  0.56259800  1
  Cr  Cr39  1  0.89298800  0.73467200  0.68745400  1
  Cr  Cr40  1  0.77759500  0.60910100  0.31276300  1
  Cr  Cr41  1  0.51714900  0.35853700  0.56243500  1
  Cr  Cr42  1  0.39250700  0.23414600  0.18744900  1
  Cr  Cr43  1  0.27613100  0.11048000  0.81263400  1
  Cr  Cr44  1  0.48123800  0.64023000  0.43760200  1
  Cr  Cr45  1  0.35801400  0.51601400  0.06257500  1
  Cr  Cr46  1  0.09777400  0.26599500  0.31224200  1
  Cr  Cr47  1  0.01730300  0.85868000  0.06241000  1
  O  O48  1  0.91438100  0.05285700  0.65966000  1
  O  O49  1  0.94546900  0.08428000  0.84057100  1
  O  O50  1  0.92926300  0.42985400  0.71598600  1
  O  O51  1  0.80991100  0.29941800  0.34141200  1
  O  O52  1  0.94481000  0.45046900  0.90843900  1
  O  O53  1  0.82134000  0.32051200  0.53404700  1
  O  O54  1  0.69565900  0.19391800  0.15908800  1
  O  O55  1  0.68383400  0.18176000  0.96588800  1
  O  O56  1  0.55457000  0.05522500  0.59092400  1
  O  O57  1  0.92859600  0.78653700  0.78440800  1
  O  O58  1  0.56522700  0.06731700  0.78409800  1
  O  O59  1  0.80204900  0.66409200  0.40958000  1
  O  O60  1  0.66898600  0.53091400  0.03419000  1
  O  O61  1  0.96107000  0.81287500  0.96575400  1
  O  O62  1  0.84404100  0.70726800  0.59082100  1
  O  O63  1  0.71875400  0.57883200  0.21582700  1
  O  O64  1  0.79296300  0.94205100  0.28431800  1
  O  O65  1  0.82567200  0.96838300  0.46587500  1
  O  O66  1  0.70590600  0.84307700  0.09087800  1
  O  O67  1  0.54899700  0.40664600  0.65909000  1
  O  O68  1  0.43027600  0.28702900  0.28458900  1
  O  O69  1  0.58579100  0.44428000  0.84033200  1
  O  O70  1  0.46050400  0.32205400  0.46531400  1
  O  O71  1  0.34386900  0.20705700  0.09083400  1
  O  O72  1  0.66599100  0.80664800  0.90969500  1
  O  O73  1  0.53121100  0.66730800  0.53415700  1
  O  O74  1  0.41488200  0.55254800  0.15967900  1
  O  O75  1  0.57233400  0.71082700  0.71534800  1
  O  O76  1  0.44484400  0.58728600  0.34039800  1
  O  O77  1  0.30566400  0.16466200  0.90946800  1
  O  O78  1  0.16954700  0.03189200  0.53411700  1
  O  O79  1  0.21871500  0.07815900  0.71579100  1
  O  O80  1  0.28848100  0.43593900  0.78443100  1
  O  O81  1  0.15625000  0.29676300  0.40919400  1
  O  O82  1  0.03100400  0.16733100  0.03422900  1
  O  O83  1  0.32006500  0.46262900  0.96546100  1
  O  O84  1  0.20586200  0.34342100  0.59084600  1
  O  O85  1  0.43008500  0.93091100  0.21591900  1
  O  O86  1  0.07216300  0.21085200  0.21536900  1
  O  O87  1  0.44520300  0.94500900  0.40899600  1
  O  O88  1  0.32168500  0.82036100  0.03415400  1
  O  O89  1  0.30501000  0.79967600  0.84155800  1
  O  O90  1  0.17987300  0.68122100  0.46588800  1
  O  O91  1  0.05426400  0.55475300  0.09093100  1
  O  O92  1  0.19472900  0.69379800  0.65907200  1
  O  O93  1  0.06522600  0.57532600  0.28354600  1
  O  O94  1  0.04873500  0.90636800  0.15912700  1
  O  O95  1  0.08211700  0.93282200  0.34063500  1
