# generated using pymatgen
data_Li9Mn2Co5O16
_symmetry_space_group_name_H-M   'P 1'
_cell_length_a   2.94887800
_cell_length_b   10.16554796
_cell_length_c   10.63188789
_cell_angle_alpha   113.93940283
_cell_angle_beta   94.98572907
_cell_angle_gamma   92.32952060
_symmetry_Int_Tables_number   1
_chemical_formula_structural   Li9Mn2Co5O16
_chemical_formula_sum   'Li9 Mn2 Co5 O16'
_cell_volume   289.18210867
_cell_formula_units_Z   1
loop_
 _symmetry_equiv_pos_site_id
 _symmetry_equiv_pos_as_xyz
  1  'x, y, z'
loop_
 _atom_site_type_symbol
 _atom_site_label
 _atom_site_symmetry_multiplicity
 _atom_site_fract_x
 _atom_site_fract_y
 _atom_site_fract_z
 _atom_site_occupancy
  Li  Li0  1  0.13062000  0.93599900  0.25045900  1
  Li  Li1  1  0.88003000  0.06206900  0.75381200  1
  Li  Li2  1  0.61980000  0.19519800  0.25536100  1
  Li  Li3  1  0.62836600  0.68799400  0.25190500  1
  Li  Li4  1  0.37273900  0.80931700  0.74604700  1
  Li  Li5  1  0.13446800  0.44125100  0.25274400  1
  Li  Li6  1  0.86801200  0.55376100  0.73990600  1
  Li  Li7  1  0.35915300  0.31733300  0.74369300  1
  Li  Li8  1  0.26803200  0.37788000  0.50965200  1
  Mn  Mn9  1  0.00236200  0.00021900  0.00083700  1
  Mn  Mn10  1  0.74471000  0.13098200  0.50117200  1
  Co  Co11  1  0.49510100  0.25017200  0.99838500  1
  Co  Co12  1  0.99881800  0.49983200  0.99907700  1
  Co  Co13  1  0.75359900  0.61432400  0.49698400  1
  Co  Co14  1  0.50386400  0.75048200  0.00191600  1
  Co  Co15  1  0.23891900  0.87183900  0.49728800  1
  O  O16  1  0.60079300  0.96675600  0.12073700  1
  O  O17  1  0.27418500  0.08544100  0.60530700  1
  O  O18  1  0.07154900  0.21510100  0.11749700  1
  O  O19  1  0.06634600  0.71720300  0.11611200  1
  O  O20  1  0.83104300  0.82988400  0.60706400  1
  O  O21  1  0.56547000  0.46790800  0.11471600  1
  O  O22  1  0.34351300  0.59908200  0.61556700  1
  O  O23  1  0.81306900  0.32436000  0.61774700  1
  O  O24  1  0.65203800  0.91314000  0.38789200  1
  O  O25  1  0.40315200  0.03328400  0.87891600  1
  O  O26  1  0.21164100  0.15228800  0.39033500  1
  O  O27  1  0.17527300  0.66457300  0.38772600  1
  O  O28  1  0.93759300  0.78624600  0.88636000  1
  O  O29  1  0.69287500  0.43182300  0.38496100  1
  O  O30  1  0.43052900  0.53309000  0.88412200  1
  O  O31  1  0.93234100  0.28117100  0.88570100  1
