# generated using pymatgen
data_Li6MnV3(PO4)6
_symmetry_space_group_name_H-M   'P 1'
_cell_length_a   8.53359400
_cell_length_b   8.82572980
_cell_length_c   12.39380376
_cell_angle_alpha   90.26049644
_cell_angle_beta   92.63905390
_cell_angle_gamma   91.13865731
_symmetry_Int_Tables_number   1
_chemical_formula_structural   Li6MnV3(PO4)6
_chemical_formula_sum   'Li12 Mn2 V6 P12 O48'
_cell_volume   932.25368514
_cell_formula_units_Z   2
loop_
 _symmetry_equiv_pos_site_id
 _symmetry_equiv_pos_as_xyz
  1  'x, y, z'
loop_
 _atom_site_type_symbol
 _atom_site_label
 _atom_site_symmetry_multiplicity
 _atom_site_fract_x
 _atom_site_fract_y
 _atom_site_fract_z
 _atom_site_occupancy
  Li  Li0  1  0.00125200  0.00397700  0.00407600  1
  Li  Li1  1  0.00067000  0.90476900  0.24830400  1
  Li  Li2  1  0.00002700  0.00144100  0.49936000  1
  Li  Li3  1  0.00134200  0.10040400  0.74974800  1
  Li  Li4  1  0.70836400  0.19443200  0.04879900  1
  Li  Li5  1  0.70854600  0.80579400  0.54697200  1
  Li  Li6  1  0.49287200  0.49749300  0.00116400  1
  Li  Li7  1  0.50072000  0.59555100  0.24906500  1
  Li  Li8  1  0.49892900  0.49909200  0.49992100  1
  Li  Li9  1  0.49316200  0.39998900  0.75189600  1
  Li  Li10  1  0.29109900  0.19468400  0.45070900  1
  Li  Li11  1  0.29572500  0.80861200  0.95239200  1
  Mn  Mn12  1  0.28726500  0.00044700  0.14337400  1
  Mn  Mn13  1  0.21118100  0.50321200  0.85214100  1
  V  V14  1  0.78777800  0.50135700  0.14423400  1
  V  V15  1  0.78689900  0.49933200  0.64410300  1
  V  V16  1  0.71621600  0.00271100  0.35773000  1
  V  V17  1  0.71516400  0.99601600  0.85911700  1
  V  V18  1  0.28243800  0.99697500  0.64197900  1
  V  V19  1  0.21260700  0.49909300  0.35578800  1
  P  P20  1  0.99507000  0.20365700  0.24802700  1
  P  P21  1  0.99907600  0.80054800  0.75146100  1
  P  P22  1  0.84569700  0.64474600  0.39596600  1
  P  P23  1  0.84840500  0.35698700  0.89512000  1
  P  P24  1  0.65158100  0.84991700  0.10082500  1
  P  P25  1  0.64915400  0.14574600  0.60381500  1
  P  P26  1  0.49847100  0.29046600  0.24936800  1
  P  P27  1  0.49613200  0.70582900  0.74772600  1
  P  P28  1  0.34921600  0.85340200  0.39711600  1
  P  P29  1  0.35392500  0.14604000  0.89838400  1
  P  P30  1  0.16029900  0.64710600  0.10679500  1
  P  P31  1  0.15616600  0.35349100  0.60326200  1
  O  O32  1  0.99091400  0.59118000  0.10354700  1
  O  O33  1  0.98982200  0.41126600  0.60662900  1
  O  O34  1  0.92967000  0.09710900  0.33779900  1
  O  O35  1  0.92903100  0.91211000  0.83443200  1
  O  O36  1  0.86822400  0.30101300  0.19240100  1
  O  O37  1  0.87222900  0.70243000  0.69083900  1
  O  O38  1  0.85643100  0.82215100  0.41119900  1
  O  O39  1  0.85614800  0.18035000  0.90822200  1
  O  O40  1  0.75061800  0.59589200  0.29212600  1
  O  O41  1  0.75306400  0.93636700  0.01778100  1
  O  O42  1  0.74693200  0.58985100  0.49245800  1
  O  O43  1  0.75469300  0.40623600  0.79221900  1
  O  O44  1  0.74610000  0.06134600  0.51946900  1
  O  O45  1  0.72438400  0.90255900  0.21201000  1
  O  O46  1  0.75381400  0.40935700  0.99256600  1
  O  O47  1  0.72240000  0.09647500  0.71390100  1
  O  O48  1  0.65904400  0.67453700  0.08814600  1
  O  O49  1  0.65482100  0.32081200  0.58958400  1
  O  O50  1  0.61463500  0.19265500  0.31241400  1
  O  O51  1  0.61868500  0.80099600  0.81251000  1
  O  O52  1  0.56943200  0.39746900  0.16298100  1
  O  O53  1  0.56651700  0.59485700  0.66498500  1
  O  O54  1  0.52613600  0.89385600  0.40840000  1
  O  O55  1  0.52892600  0.10117000  0.91010100  1
  O  O56  1  0.47684400  0.88470600  0.08469100  1
  O  O57  1  0.47223600  0.10567000  0.59129200  1
  O  O58  1  0.42786400  0.39794800  0.33467500  1
  O  O59  1  0.42073700  0.60225400  0.83617300  1
  O  O60  1  0.37618500  0.19228700  0.18432100  1
  O  O61  1  0.38058300  0.80401700  0.68482400  1
  O  O62  1  0.34519500  0.67833000  0.41097600  1
  O  O63  1  0.35778900  0.32045400  0.91166400  1
  O  O64  1  0.27155200  0.90628800  0.28900000  1
  O  O65  1  0.25909800  0.59921600  0.01109800  1
  O  O66  1  0.27602500  0.09586500  0.78797300  1
  O  O67  1  0.25297400  0.93650200  0.48262600  1
  O  O68  1  0.25046800  0.59804700  0.21086900  1
  O  O69  1  0.25180500  0.40846200  0.50569200  1
  O  O70  1  0.25450600  0.05775600  0.98145500  1
  O  O71  1  0.25574700  0.39824300  0.70545800  1
  O  O72  1  0.14739900  0.82654000  0.09703600  1
  O  O73  1  0.14270000  0.17637600  0.58693200  1
  O  O74  1  0.12721500  0.29742800  0.30666100  1
  O  O75  1  0.12600300  0.71344000  0.81398000  1
  O  O76  1  0.05289400  0.09291500  0.16151900  1
  O  O77  1  0.06507300  0.90960400  0.66377800  1
  O  O78  1  0.01222100  0.58857900  0.39574700  1
  O  O79  1  0.01876700  0.41371000  0.89610100  1
