# generated using pymatgen
data_LiGe2Pt
_symmetry_space_group_name_H-M   'P 1'
_cell_length_a   10.08033291
_cell_length_b   10.08033291
_cell_length_c   10.08033291
_cell_angle_alpha   121.81302969
_cell_angle_beta   119.24396060
_cell_angle_gamma   89.10166117
_symmetry_Int_Tables_number   1
_chemical_formula_structural   LiGe2Pt
_chemical_formula_sum   'Li1 Ge2 Pt1'
_cell_volume   717.94345095
_cell_formula_units_Z   1
loop_
 _symmetry_equiv_pos_site_id
 _symmetry_equiv_pos_as_xyz
  1  'x, y, z'
loop_
 _atom_site_type_symbol
 _atom_site_label
 _atom_site_symmetry_multiplicity
 _atom_site_fract_x
 _atom_site_fract_y
 _atom_site_fract_z
 _atom_site_occupancy
  Li  Li0  1  0.00000000  0.00000000  0.00000000  1
  Ge  Ge1  1  0.00000000  0.26647500  0.26647500  1
  Ge  Ge2  1  0.00000000  0.73352500  0.73352500  1
  Pt  Pt3  1  0.00000000  0.50000000  0.50000000  1
