# generated using pymatgen
data_Li2CoP2O7
_symmetry_space_group_name_H-M   'P 1'
_cell_length_a   7.19298862
_cell_length_b   9.99220448
_cell_length_c   8.78876421
_cell_angle_alpha   89.95730796
_cell_angle_beta   66.26982441
_cell_angle_gamma   70.32382569
_symmetry_Int_Tables_number   1
_chemical_formula_structural   Li2CoP2O7
_chemical_formula_sum   'Li8 Co4 P8 O28'
_cell_volume   537.81410005
_cell_formula_units_Z   4
loop_
 _symmetry_equiv_pos_site_id
 _symmetry_equiv_pos_as_xyz
  1  'x, y, z'
loop_
 _atom_site_type_symbol
 _atom_site_label
 _atom_site_symmetry_multiplicity
 _atom_site_fract_x
 _atom_site_fract_y
 _atom_site_fract_z
 _atom_site_occupancy
  Li  Li0  1  0.20062700  0.11737600  0.01003500  1
  Li  Li1  1  0.70714600  0.61427500  0.01057100  1
  Li  Li2  1  0.79824000  0.88352500  0.98968900  1
  Li  Li3  1  0.29838900  0.38497200  0.98951200  1
  Li  Li4  1  0.72530500  0.16054800  0.75429200  1
  Li  Li5  1  0.23297000  0.64743500  0.75256400  1
  Li  Li6  1  0.27427600  0.83909700  0.24613200  1
  Li  Li7  1  0.77280600  0.33796200  0.24125900  1
  Co  Co8  1  0.31807000  0.50779100  0.33582900  1
  Co  Co9  1  0.68539400  0.50155100  0.66478100  1
  Co  Co10  1  0.81534900  0.01001900  0.33855900  1
  Co  Co11  1  0.18248400  0.99124900  0.66696100  1
  P  P12  1  0.04686800  0.20752100  0.39663500  1
  P  P13  1  0.55429500  0.70405300  0.39297500  1
  P  P14  1  0.94907200  0.79419500  0.60745900  1
  P  P15  1  0.44800500  0.29664200  0.60710600  1
  P  P16  1  0.51097900  0.18351900  0.14508000  1
  P  P17  1  0.01568200  0.68618600  0.14366400  1
  P  P18  1  0.48795700  0.81329800  0.85582300  1
  P  P19  1  0.98703600  0.31703900  0.85184400  1
  O  O20  1  0.40025300  0.86242100  0.44019700  1
  O  O21  1  0.90121000  0.36761500  0.44768200  1
  O  O22  1  0.59511900  0.13631600  0.56552700  1
  O  O23  1  0.10134300  0.63527200  0.56523600  1
  O  O24  1  0.02073700  0.12273300  0.54137700  1
  O  O25  1  0.52853200  0.62427800  0.54226100  1
  O  O26  1  0.97712600  0.86911900  0.45460400  1
  O  O27  1  0.48161800  0.37116600  0.45346400  1
  O  O28  1  0.01041500  0.13838500  0.25629400  1
  O  O29  1  0.52337000  0.62797200  0.25474700  1
  O  O30  1  0.97531800  0.87359000  0.74540600  1
  O  O31  1  0.47343300  0.37443500  0.74607500  1
  O  O32  1  0.30899200  0.94257000  0.84170000  1
  O  O33  1  0.80619300  0.44533200  0.83736900  1
  O  O34  1  0.68897700  0.05457200  0.16160800  1
  O  O35  1  0.19191800  0.55653600  0.16071600  1
  O  O36  1  0.46769100  0.15892200  0.99206300  1
  O  O37  1  0.97184600  0.66131600  0.99100800  1
  O  O38  1  0.53196000  0.83606100  0.00870400  1
  O  O39  1  0.02904100  0.34271200  0.00515200  1
  O  O40  1  0.29389400  0.19991100  0.31504000  1
  O  O41  1  0.79699500  0.70333300  0.31339600  1
  O  O42  1  0.70449200  0.79673700  0.68562300  1
  O  O43  1  0.20133300  0.30281400  0.68141100  1
  O  O44  1  0.95642600  0.17293900  0.84558200  1
  O  O45  1  0.45654200  0.66902500  0.84684500  1
  O  O46  1  0.04947400  0.82910000  0.14982300  1
  O  O47  1  0.54480100  0.32656700  0.15032000  1
