# generated using pymatgen
data_LiLu(SO4)2
_symmetry_space_group_name_H-M   'P 1'
_cell_length_a   7.41475841
_cell_length_b   7.41081780
_cell_length_c   5.90594353
_cell_angle_alpha   90.00000000
_cell_angle_beta   90.00000000
_cell_angle_gamma   90.00000000
_symmetry_Int_Tables_number   1
_chemical_formula_structural   LiLu(SO4)2
_chemical_formula_sum   'Li2 Lu2 S4 O16'
_cell_volume   324.52819283
_cell_formula_units_Z   2
loop_
 _symmetry_equiv_pos_site_id
 _symmetry_equiv_pos_as_xyz
  1  'x, y, z'
loop_
 _atom_site_type_symbol
 _atom_site_label
 _atom_site_symmetry_multiplicity
 _atom_site_fract_x
 _atom_site_fract_y
 _atom_site_fract_z
 _atom_site_occupancy
  Li  Li0  1  0.50000000  0.50000000  0.00879195  1
  Li  Li1  1  -0.00000000  0.00000000  0.50879195  1
  Lu  Lu2  1  0.50000000  0.50000000  0.50891937  1
  Lu  Lu3  1  -0.00000000  0.00000000  0.00891937  1
  S  S4  1  0.77449465  0.22535358  0.50876324  1
  S  S5  1  0.22550535  0.77464642  0.50876324  1
  S  S6  1  0.72550535  0.72535358  0.00876324  1
  S  S7  1  0.27449465  0.27464642  0.00876324  1
  O  O8  1  0.79162004  0.41253301  0.59293253  1
  O  O9  1  0.20837996  0.58746699  0.59293253  1
  O  O10  1  0.70837996  0.91253301  0.09293253  1
  O  O11  1  0.29162004  0.08746699  0.09293253  1
  O  O12  1  0.81839650  0.09222838  0.69464170  1
  O  O13  1  0.18160350  0.90777162  0.69464170  1
  O  O14  1  0.68160350  0.59222838  0.19464170  1
  O  O15  1  0.31839650  0.40777162  0.19464170  1
  O  O16  1  0.58728747  0.20832115  0.42458650  1
  O  O17  1  0.41271253  0.79167885  0.42458650  1
  O  O18  1  0.91271253  0.70832115  0.92458650  1
  O  O19  1  0.08728747  0.29167885  0.92458650  1
  O  O20  1  0.90746218  0.18143077  0.32271987  1
  O  O21  1  0.09253782  0.81856923  0.32271987  1
  O  O22  1  0.59253782  0.68143077  0.82271987  1
  O  O23  1  0.40746218  0.31856923  0.82271987  1
