# generated using pymatgen
data_Li9Mn2Co5O16
_symmetry_space_group_name_H-M   'P 1'
_cell_length_a   5.04988100
_cell_length_b   5.93445776
_cell_length_c   10.08068286
_cell_angle_alpha   90.11733682
_cell_angle_beta   101.19165727
_cell_angle_gamma   105.32881472
_symmetry_Int_Tables_number   1
_chemical_formula_structural   Li9Mn2Co5O16
_chemical_formula_sum   'Li9 Mn2 Co5 O16'
_cell_volume   285.35815527
_cell_formula_units_Z   1
loop_
 _symmetry_equiv_pos_site_id
 _symmetry_equiv_pos_as_xyz
  1  'x, y, z'
loop_
 _atom_site_type_symbol
 _atom_site_label
 _atom_site_symmetry_multiplicity
 _atom_site_fract_x
 _atom_site_fract_y
 _atom_site_fract_z
 _atom_site_occupancy
  Li  Li0  1  0.50062400  0.12570500  0.88352200  1
  Li  Li1  1  0.00000000  0.00000000  0.00000000  1
  Li  Li2  1  0.00609000  0.25618300  0.76068700  1
  Li  Li3  1  0.49937600  0.87429500  0.11647800  1
  Li  Li4  1  0.99391000  0.74381700  0.23931300  1
  Li  Li5  1  0.49708700  0.62086400  0.37481200  1
  Li  Li6  1  0.00000000  0.50000000  0.50000000  1
  Li  Li7  1  0.50291300  0.37913600  0.62518800  1
  Li  Li8  1  0.00000000  0.50000000  0.00000000  1
  Mn  Mn9  1  0.00041400  0.74712500  0.75381200  1
  Mn  Mn10  1  0.99958600  0.25287500  0.24618800  1
  Co  Co11  1  0.49533500  0.61725000  0.87920800  1
  Co  Co12  1  0.50466500  0.38275000  0.12079200  1
  Co  Co13  1  0.49724300  0.12405900  0.37399200  1
  Co  Co14  1  0.00000000  0.00000000  0.50000000  1
  Co  Co15  1  0.50275700  0.87594100  0.62600800  1
  O  O16  1  0.25218800  0.80357600  0.92334300  1
  O  O17  1  0.72703900  0.68381100  0.05140700  1
  O  O18  1  0.76164200  0.93361600  0.79881400  1
  O  O19  1  0.24514100  0.52417400  0.19246100  1
  O  O20  1  0.75367500  0.42246800  0.30118100  1
  O  O21  1  0.23528600  0.29798000  0.43200600  1
  O  O22  1  0.73522100  0.17634800  0.55230300  1
  O  O23  1  0.23215500  0.03894500  0.68366000  1
  O  O24  1  0.75485900  0.47582600  0.80753900  1
  O  O25  1  0.27296100  0.31618900  0.94859300  1
  O  O26  1  0.24632500  0.57753200  0.69881900  1
  O  O27  1  0.74781200  0.19642400  0.07665700  1
  O  O28  1  0.23835800  0.06638400  0.20118600  1
  O  O29  1  0.76784500  0.96105500  0.31634000  1
  O  O30  1  0.26477900  0.82365200  0.44769700  1
  O  O31  1  0.76471400  0.70202000  0.56799400  1
