# generated using pymatgen
data_Li5V3P8O29
_symmetry_space_group_name_H-M   'P 1'
_cell_length_a   9.75846900
_cell_length_b   9.79367597
_cell_length_c   14.11127249
_cell_angle_alpha   90.46304293
_cell_angle_beta   90.02816619
_cell_angle_gamma   119.81781378
_symmetry_Int_Tables_number   1
_chemical_formula_structural   Li5V3P8O29
_chemical_formula_sum   'Li10 V6 P16 O58'
_cell_volume   1170.03416523
_cell_formula_units_Z   2
loop_
 _symmetry_equiv_pos_site_id
 _symmetry_equiv_pos_as_xyz
  1  'x, y, z'
loop_
 _atom_site_type_symbol
 _atom_site_label
 _atom_site_symmetry_multiplicity
 _atom_site_fract_x
 _atom_site_fract_y
 _atom_site_fract_z
 _atom_site_occupancy
  Li  Li0  1  0.09502400  0.33231400  0.05903900  1
  Li  Li1  1  0.23092100  0.32038900  0.56463200  1
  Li  Li2  1  0.09520200  0.77150800  0.55790900  1
  Li  Li3  1  0.23454000  0.90103000  0.05822500  1
  Li  Li4  1  0.66728200  0.76534000  0.05630700  1
  Li  Li5  1  0.66863100  0.90278400  0.56350500  1
  Li  Li6  1  0.90985100  0.22835700  0.44204000  1
  Li  Li7  1  0.77560800  0.68475400  0.43908200  1
  Li  Li8  1  0.90100600  0.66688700  0.93763300  1
  Li  Li9  1  0.03623900  0.04582000  0.99025000  1
  V  V10  1  0.43269800  0.99989900  0.24951500  1
  V  V11  1  0.56642800  0.00210200  0.75404800  1
  V  V12  1  0.43452900  0.42811900  0.75300300  1
  V  V13  1  0.56285600  0.56546500  0.24837200  1
  V  V14  1  0.00277700  0.43185000  0.24764500  1
  V  V15  1  0.00129500  0.56819800  0.74843200  1
  P  P16  1  0.08861800  0.31561900  0.84209900  1
  P  P17  1  0.23421900  0.32111300  0.34649300  1
  P  P18  1  0.09083300  0.76988300  0.33868400  1
  P  P19  1  0.33367000  0.66934100  0.12692900  1
  P  P20  1  0.33613400  0.66380000  0.63043100  1
  P  P21  1  0.22493400  0.91596100  0.84647700  1
  P  P22  1  0.31025100  0.08262000  0.66284900  1
  P  P23  1  0.68621400  0.77311800  0.83869000  1
  P  P24  1  0.30472400  0.22089400  0.16262100  1
  P  P25  1  0.68250500  0.91439600  0.34379900  1
  P  P26  1  0.77597400  0.08082900  0.15970000  1
  P  P27  1  0.66987400  0.33351900  0.36707700  1
  P  P28  1  0.67178500  0.33909200  0.87106800  1
  P  P29  1  0.90985500  0.22879700  0.66058400  1
  P  P30  1  0.76868500  0.68018900  0.65624800  1
  P  P31  1  0.91019900  0.68007000  0.15778700  1
  O  O32  1  0.00059100  0.24249700  0.57160200  1
  O  O33  1  0.08356300  0.33654900  0.33757800  1
  O  O34  1  0.19265200  0.20223400  0.08438000  1
  O  O35  1  0.25952900  0.34278400  0.83104500  1
  O  O36  1  0.08734700  0.46981200  0.83221300  1
  O  O37  1  0.19040200  0.51215800  0.16446400  1
  O  O38  1  0.10258200  0.62068500  0.32087000  1
  O  O39  1  0.99561500  0.76571000  0.06943100  1
  O  O40  1  0.08036000  0.74579900  0.83438600  1
  O  O41  1  0.33193200  0.51231300  0.67321300  1
  O  O42  1  0.38158900  0.48233800  0.32044700  1
  O  O43  1  0.18703900  0.66988300  0.66878700  1
  O  O44  1  0.33132900  0.68062200  0.02148000  1
  O  O45  1  0.33404400  0.65561700  0.52450100  1
  O  O46  1  0.32211100  0.81317000  0.17245800  1
  O  O47  1  0.52873200  0.61703500  0.82550800  1
  O  O48  1  0.48980900  0.68138200  0.16546100  1
  O  O49  1  0.25716400  0.91766300  0.33318200  1
  O  O50  1  0.21004300  0.01327800  0.75961000  1
  O  O51  1  0.21786900  0.98928900  0.57949100  1
  O  O52  1  0.20369600  0.98351500  0.93779400  1
  O  O53  1  0.37932300  0.91408000  0.83487500  1
  O  O54  1  0.48783700  0.81221300  0.66974100  1
  O  O55  1  0.33600500  0.07861700  0.16041000  1
  O  O56  1  0.52105500  0.90264700  0.32150300  1
  O  O57  1  0.66705200  0.74974200  0.34002500  1
  O  O58  1  0.21653700  0.20053800  0.26306100  1
  O  O59  1  0.24744500  0.26041700  0.43969900  1
  O  O60  1  0.75585700  0.75769100  0.56760100  1
  O  O61  1  0.33829000  0.25422100  0.66160400  1
  O  O62  1  0.47035900  0.08885600  0.67816200  1
  O  O63  1  0.65830600  0.91390900  0.83542200  1
  O  O64  1  0.52340600  0.18512200  0.31664900  1
  O  O65  1  0.61527300  0.07578400  0.16944700  1
  O  O66  1  0.78951800  0.98817800  0.07938900  1
  O  O67  1  0.75174200  0.99910800  0.43589500  1
  O  O68  1  0.79980300  0.01286600  0.25951500  1
  O  O69  1  0.74463800  0.08119900  0.65973500  1
  O  O70  1  0.51831300  0.33355200  0.82221700  1
  O  O71  1  0.46003300  0.37722300  0.16762500  1
  O  O72  1  0.67643700  0.19615100  0.82759700  1
  O  O73  1  0.66241100  0.34880200  0.97583900  1
  O  O74  1  0.66352000  0.32385200  0.47212600  1
  O  O75  1  0.81702600  0.32666100  0.32805200  1
  O  O76  1  0.61840700  0.52209800  0.67542700  1
  O  O77  1  0.67099400  0.48436500  0.32895100  1
  O  O78  1  0.91477000  0.25322700  0.15857700  1
  O  O79  1  0.99739600  0.20569400  0.75120200  1
  O  O80  1  0.02061300  0.22777100  0.93226900  1
  O  O81  1  0.89937200  0.37933200  0.67898600  1
  O  O82  1  0.81300700  0.49459800  0.83104500  1
  O  O83  1  0.90484800  0.52280100  0.17149900  1
  O  O84  1  0.74136200  0.65853500  0.16026200  1
  O  O85  1  0.77268600  0.77396100  0.92768900  1
  O  O86  1  0.79382300  0.79226500  0.74740100  1
  O  O87  1  0.91695000  0.66197800  0.65482300  1
  O  O88  1  0.00466800  0.76155000  0.42843800  1
  O  O89  1  0.99683600  0.78926600  0.24986500  1
