# generated using pymatgen
data_Li9Mn2Co5O16
_symmetry_space_group_name_H-M   'P 1'
_cell_length_a   4.97902300
_cell_length_b   6.54495004
_cell_length_c   8.89164583
_cell_angle_alpha   98.03360167
_cell_angle_beta   96.22367152
_cell_angle_gamma   97.30802694
_symmetry_Int_Tables_number   1
_chemical_formula_structural   Li9Mn2Co5O16
_chemical_formula_sum   'Li9 Mn2 Co5 O16'
_cell_volume   282.22319721
_cell_formula_units_Z   1
loop_
 _symmetry_equiv_pos_site_id
 _symmetry_equiv_pos_as_xyz
  1  'x, y, z'
loop_
 _atom_site_type_symbol
 _atom_site_label
 _atom_site_symmetry_multiplicity
 _atom_site_fract_x
 _atom_site_fract_y
 _atom_site_fract_z
 _atom_site_occupancy
  Li  Li0  1  0.74435300  0.30756100  0.18484300  1
  Li  Li1  1  0.74017200  0.80784200  0.68856200  1
  Li  Li2  1  0.26459500  0.18427800  0.30068100  1
  Li  Li3  1  0.26091200  0.69292200  0.82385000  1
  Li  Li4  1  0.74573800  0.05245300  0.42293800  1
  Li  Li5  1  0.74267300  0.57193900  0.94625800  1
  Li  Li6  1  0.26882900  0.44896200  0.06963100  1
  Li  Li7  1  0.24720800  0.93094300  0.55579600  1
  Li  Li8  1  0.50501400  0.87554500  0.12145900  1
  Mn  Mn9  1  0.00146700  0.99755100  0.00243100  1
  Mn  Mn10  1  0.99377400  0.24900300  0.75450500  1
  Co  Co11  1  0.99962800  0.50282800  0.49458600  1
  Co  Co12  1  0.49173400  0.37653000  0.62652400  1
  Co  Co13  1  0.99901300  0.75183500  0.24149100  1
  Co  Co14  1  0.50604300  0.62796200  0.37048300  1
  Co  Co15  1  0.49644800  0.12417100  0.87683700  1
  O  O16  1  0.86423300  0.26140000  0.95486300  1
  O  O17  1  0.86353600  0.77144000  0.46074500  1
  O  O18  1  0.36270200  0.14796800  0.07226000  1
  O  O19  1  0.35707200  0.63911600  0.59720600  1
  O  O20  1  0.89858000  0.03314700  0.20209500  1
  O  O21  1  0.86665800  0.50675700  0.71867200  1
  O  O22  1  0.35591800  0.38535300  0.83950100  1
  O  O23  1  0.36803100  0.88280300  0.34504100  1
  O  O24  1  0.63171400  0.35778700  0.41636600  1
  O  O25  1  0.63927800  0.87024200  0.90629500  1
  O  O26  1  0.11596500  0.22387200  0.55287500  1
  O  O27  1  0.11463800  0.73815800  0.02826000  1
  O  O28  1  0.62848500  0.11044100  0.67478700  1
  O  O29  1  0.65132300  0.59683900  0.16368200  1
  O  O30  1  0.14736000  0.48228200  0.29220300  1
  O  O31  1  0.12690400  0.99007100  0.79427200  1
