# generated using pymatgen
data_Li9Mn7O16
_symmetry_space_group_name_H-M   'P 1'
_cell_length_a   3.01358900
_cell_length_b   7.85811294
_cell_length_c   12.64680322
_cell_angle_alpha   88.63876364
_cell_angle_beta   89.73766759
_cell_angle_gamma   84.00828059
_symmetry_Int_Tables_number   1
_chemical_formula_structural   Li9Mn7O16
_chemical_formula_sum   'Li9 Mn7 O16'
_cell_volume   297.76965897
_cell_formula_units_Z   1
loop_
 _symmetry_equiv_pos_site_id
 _symmetry_equiv_pos_as_xyz
  1  'x, y, z'
loop_
 _atom_site_type_symbol
 _atom_site_label
 _atom_site_symmetry_multiplicity
 _atom_site_fract_x
 _atom_site_fract_y
 _atom_site_fract_z
 _atom_site_occupancy
  Li  Li0  1  0.07465100  0.37095900  0.67771100  1
  Li  Li1  1  0.81323500  0.87491600  0.93769000  1
  Li  Li2  1  0.56691500  0.37281700  0.18860700  1
  Li  Li3  1  0.65675100  0.14383200  0.55919400  1
  Li  Li4  1  0.43308500  0.62718300  0.81139300  1
  Li  Li5  1  0.18676500  0.12508400  0.06231000  1
  Li  Li6  1  0.34324900  0.85616800  0.44080600  1
  Li  Li7  1  0.92534900  0.62904100  0.32228900  1
  Li  Li8  1  0.50000000  0.50000000  0.50000000  1
  Mn  Mn9  1  0.88489400  0.74169200  0.61992300  1
  Mn  Mn10  1  0.11510600  0.25830800  0.38007700  1
  Mn  Mn11  1  0.62574400  0.25051500  0.87366300  1
  Mn  Mn12  1  0.37425600  0.74948500  0.12633700  1
  Mn  Mn13  1  0.26172000  0.99622100  0.74938600  1
  Mn  Mn14  1  0.00000000  0.50000000  0.00000000  1
  Mn  Mn15  1  0.73828000  0.00377900  0.25061400  1
  O  O16  1  0.42863800  0.58828200  0.65113100  1
  O  O17  1  0.24956700  0.06442800  0.89806000  1
  O  O18  1  0.00193000  0.56421300  0.14998900  1
  O  O19  1  0.10661500  0.30162200  0.52171100  1
  O  O20  1  0.87698300  0.81574700  0.77200300  1
  O  O21  1  0.62527100  0.31373900  0.02349800  1
  O  O22  1  0.67279000  0.08655200  0.39751100  1
  O  O23  1  0.36904500  0.81568800  0.27637200  1
  O  O24  1  0.63095500  0.18431200  0.72362800  1
  O  O25  1  0.37472900  0.68626100  0.97650200  1
  O  O26  1  0.12301700  0.18425300  0.22799700  1
  O  O27  1  0.32721000  0.91344800  0.60248900  1
  O  O28  1  0.99807000  0.43578700  0.85001100  1
  O  O29  1  0.75043300  0.93557200  0.10194000  1
  O  O30  1  0.89338500  0.69837800  0.47828900  1
  O  O31  1  0.57136200  0.41171800  0.34886900  1
