# generated using pymatgen
data_Li3W
_symmetry_space_group_name_H-M   'P 1'
_cell_length_a   5.15411368
_cell_length_b   5.15411368
_cell_length_c   5.15411368
_cell_angle_alpha   136.50234963
_cell_angle_beta   136.50234963
_cell_angle_gamma   63.20464365
_symmetry_Int_Tables_number   1
_chemical_formula_structural   Li3W
_chemical_formula_sum   'Li3 W1'
_cell_volume   64.04392671
_cell_formula_units_Z   1
loop_
 _symmetry_equiv_pos_site_id
 _symmetry_equiv_pos_as_xyz
  1  'x, y, z'
loop_
 _atom_site_type_symbol
 _atom_site_label
 _atom_site_symmetry_multiplicity
 _atom_site_fract_x
 _atom_site_fract_y
 _atom_site_fract_z
 _atom_site_occupancy
  Li  Li0  1  0.75000000  0.25000000  0.50000000  1
  Li  Li1  1  0.25000000  0.75000000  0.50000000  1
  Li  Li2  1  0.50000000  0.50000000  0.00000000  1
  W  W3  1  0.00000000  0.00000000  0.00000000  1
