# generated using pymatgen
data_Li3Sm2(BO3)3
_symmetry_space_group_name_H-M   'P 1'
_cell_length_a   14.16942000
_cell_length_b   5.77384100
_cell_length_c   9.32795147
_cell_angle_alpha   66.93001054
_cell_angle_beta   90.00000000
_cell_angle_gamma   90.00000000
_symmetry_Int_Tables_number   1
_chemical_formula_structural   Li3Sm2(BO3)3
_chemical_formula_sum   'Li12 Sm8 B12 O36'
_cell_volume   702.10761481
_cell_formula_units_Z   4
loop_
 _symmetry_equiv_pos_site_id
 _symmetry_equiv_pos_as_xyz
  1  'x, y, z'
loop_
 _atom_site_type_symbol
 _atom_site_label
 _atom_site_symmetry_multiplicity
 _atom_site_fract_x
 _atom_site_fract_y
 _atom_site_fract_z
 _atom_site_occupancy
  Li  Li0  1  0.33485300  0.90950100  0.01772600  1
  Li  Li1  1  0.66514700  0.09049900  0.98227400  1
  Li  Li2  1  0.83485300  0.09049900  0.48227400  1
  Li  Li3  1  0.16514700  0.90950100  0.51772600  1
  Li  Li4  1  0.78265800  0.90665100  0.29327000  1
  Li  Li5  1  0.21734200  0.09334900  0.70673000  1
  Li  Li6  1  0.28265800  0.09334900  0.20673000  1
  Li  Li7  1  0.71734200  0.90665100  0.79327000  1
  Li  Li8  1  0.89605300  0.56296800  0.29152800  1
  Li  Li9  1  0.10394700  0.43703200  0.70847200  1
  Li  Li10  1  0.39605300  0.43703200  0.20847200  1
  Li  Li11  1  0.60394700  0.56296800  0.79152800  1
  Sm  Sm12  1  0.66502600  0.44296200  0.19282700  1
  Sm  Sm13  1  0.33497400  0.55703800  0.80717300  1
  Sm  Sm14  1  0.16502600  0.55703800  0.30717300  1
  Sm  Sm15  1  0.83497400  0.44296200  0.69282700  1
  Sm  Sm16  1  0.50436100  0.84824100  0.34068100  1
  Sm  Sm17  1  0.49563900  0.15175900  0.65931900  1
  Sm  Sm18  1  0.00436100  0.15175900  0.15931900  1
  Sm  Sm19  1  0.99563900  0.84824100  0.84068100  1
  B  B20  1  0.98420600  0.76372500  0.48576500  1
  B  B21  1  0.01579400  0.23627500  0.51423500  1
  B  B22  1  0.48420600  0.23627500  0.01423500  1
  B  B23  1  0.51579400  0.76372500  0.98576500  1
  B  B24  1  0.83658500  0.88877800  0.02679600  1
  B  B25  1  0.16341500  0.11122200  0.97320400  1
  B  B26  1  0.33658500  0.11122200  0.47320400  1
  B  B27  1  0.66341500  0.88877800  0.52679600  1
  B  B28  1  0.82474000  0.38953600  0.02095100  1
  B  B29  1  0.17526000  0.61046400  0.97904900  1
  B  B30  1  0.32474000  0.61046400  0.47904900  1
  B  B31  1  0.67526000  0.38953600  0.52095100  1
  O  O32  1  0.89731700  0.81233000  0.41370000  1
  O  O33  1  0.10268300  0.18767000  0.58630000  1
  O  O34  1  0.39731700  0.18767000  0.08630000  1
  O  O35  1  0.60268300  0.81233000  0.91370000  1
  O  O36  1  0.59300800  0.45713300  0.43233500  1
  O  O37  1  0.40699200  0.54286700  0.56766500  1
  O  O38  1  0.09300800  0.54286700  0.06766500  1
  O  O39  1  0.90699200  0.45713300  0.93233500  1
  O  O40  1  0.75612200  0.81882400  0.11686600  1
  O  O41  1  0.24387800  0.18117600  0.88313400  1
  O  O42  1  0.25612200  0.18117600  0.38313400  1
  O  O43  1  0.74387800  0.81882400  0.61686600  1
  O  O44  1  0.56547500  0.18429300  0.10437800  1
  O  O45  1  0.43452500  0.81570700  0.89562200  1
  O  O46  1  0.06547500  0.81570700  0.39562200  1
  O  O47  1  0.93452500  0.18429300  0.60437800  1
  O  O48  1  0.92602100  0.84212400  0.09283800  1
  O  O49  1  0.07397900  0.15787600  0.90716200  1
  O  O50  1  0.42602100  0.15787600  0.40716200  1
  O  O51  1  0.57397900  0.84212400  0.59283800  1
  O  O52  1  0.83221100  0.28830500  0.18223500  1
  O  O53  1  0.16778900  0.71169500  0.81776500  1
  O  O54  1  0.33221100  0.71169500  0.31776500  1
  O  O55  1  0.66778900  0.28830500  0.68223500  1
  O  O56  1  0.51091800  0.66065700  0.14727700  1
  O  O57  1  0.48908200  0.33934300  0.85272300  1
  O  O58  1  0.01091800  0.33934300  0.35272300  1
  O  O59  1  0.98908200  0.66065700  0.64727700  1
  O  O60  1  0.76141500  0.41671300  0.44663600  1
  O  O61  1  0.23858500  0.58328700  0.55336400  1
  O  O62  1  0.26141500  0.58328700  0.05336400  1
  O  O63  1  0.73858500  0.41671300  0.94663600  1
  O  O64  1  0.66673500  0.00262700  0.36534800  1
  O  O65  1  0.33326500  0.99737300  0.63465200  1
  O  O66  1  0.16673500  0.99737300  0.13465200  1
  O  O67  1  0.83326500  0.00262700  0.86534800  1
