# generated using pymatgen
data_Li9Mn2Co5O16
_symmetry_space_group_name_H-M   'P 1'
_cell_length_a   3.01769300
_cell_length_b   8.06076721
_cell_length_c   11.99792594
_cell_angle_alpha   90.80246648
_cell_angle_beta   94.54165032
_cell_angle_gamma   90.84529043
_symmetry_Int_Tables_number   1
_chemical_formula_structural   Li9Mn2Co5O16
_chemical_formula_sum   'Li9 Mn2 Co5 O16'
_cell_volume   290.86683552
_cell_formula_units_Z   1
loop_
 _symmetry_equiv_pos_site_id
 _symmetry_equiv_pos_as_xyz
  1  'x, y, z'
loop_
 _atom_site_type_symbol
 _atom_site_label
 _atom_site_symmetry_multiplicity
 _atom_site_fract_x
 _atom_site_fract_y
 _atom_site_fract_z
 _atom_site_occupancy
  Li  Li0  1  0.99932500  0.00214000  0.24927100  1
  Li  Li1  1  0.49951500  0.74572600  0.62869400  1
  Li  Li2  1  0.00429800  0.50233700  0.99867100  1
  Li  Li3  1  0.49972500  0.25004300  0.37640000  1
  Li  Li4  1  0.00094100  0.99978800  0.74984900  1
  Li  Li5  1  0.50223800  0.74778700  0.12459800  1
  Li  Li6  1  0.99510800  0.49603000  0.50182900  1
  Li  Li7  1  0.49840300  0.25699000  0.87011600  1
  Li  Li8  1  0.99959900  0.49968000  0.74955200  1
  Mn  Mn9  1  0.00084700  0.99825000  0.99895700  1
  Mn  Mn10  1  0.50839900  0.75130900  0.37708500  1
  Co  Co11  1  0.49156200  0.25057900  0.12409100  1
  Co  Co12  1  0.99997500  0.00358300  0.50202500  1
  Co  Co13  1  0.50529100  0.73903900  0.86850100  1
  Co  Co14  1  0.99922900  0.49772700  0.24879200  1
  Co  Co15  1  0.49759400  0.25945900  0.63022100  1
  O  O16  1  0.47508200  0.01197000  0.12118300  1
  O  O17  1  0.97844500  0.76320000  0.49975600  1
  O  O18  1  0.49535900  0.52338800  0.87660200  1
  O  O19  1  0.96467000  0.25836300  0.24314000  1
  O  O20  1  0.47617100  0.02069800  0.61760900  1
  O  O21  1  0.97538600  0.75780200  0.99360200  1
  O  O22  1  0.51628400  0.50875000  0.36885300  1
  O  O23  1  0.97443900  0.24907300  0.74085500  1
  O  O24  1  0.52726000  0.99349600  0.38292900  1
  O  O25  1  0.02349900  0.74970700  0.75873000  1
  O  O26  1  0.48257800  0.48699600  0.13139400  1
  O  O27  1  0.02400900  0.23854600  0.50797000  1
  O  O28  1  0.52147200  0.98023100  0.87866500  1
  O  O29  1  0.03643500  0.74047300  0.25322700  1
  O  O30  1  0.50370900  0.47520200  0.62246300  1
  O  O31  1  0.02315800  0.24164000  0.00436900  1
