# generated using pymatgen
data_LiGa2Tc
_symmetry_space_group_name_H-M   'P 1'
_cell_length_a   10.26916229
_cell_length_b   10.26916229
_cell_length_c   10.26916229
_cell_angle_alpha   120.19346728
_cell_angle_beta   119.58217489
_cell_angle_gamma   90.19522212
_symmetry_Int_Tables_number   1
_chemical_formula_structural   LiGa2Tc
_chemical_formula_sum   'Li1 Ga2 Tc1'
_cell_volume   767.02178411
_cell_formula_units_Z   1
loop_
 _symmetry_equiv_pos_site_id
 _symmetry_equiv_pos_as_xyz
  1  'x, y, z'
loop_
 _atom_site_type_symbol
 _atom_site_label
 _atom_site_symmetry_multiplicity
 _atom_site_fract_x
 _atom_site_fract_y
 _atom_site_fract_z
 _atom_site_occupancy
  Li  Li0  1  0.00000000  0.00000000  0.00000000  1
  Ga  Ga1  1  0.00000000  0.26004000  0.26004000  1
  Ga  Ga2  1  0.00000000  0.73996000  0.73996000  1
  Tc  Tc3  1  0.00000000  0.50000000  0.50000000  1
