# generated using pymatgen
data_Li4Mn3Co3(SnO8)2
_symmetry_space_group_name_H-M   'P 1'
_cell_length_a   5.97526235
_cell_length_b   11.40017739
_cell_length_c   10.23359469
_cell_angle_alpha   116.37721911
_cell_angle_beta   89.99384415
_cell_angle_gamma   106.05234817
_symmetry_Int_Tables_number   1
_chemical_formula_structural   Li4Mn3Co3(SnO8)2
_chemical_formula_sum   'Li8 Mn6 Co6 Sn4 O32'
_cell_volume   594.04515587
_cell_formula_units_Z   2
loop_
 _symmetry_equiv_pos_site_id
 _symmetry_equiv_pos_as_xyz
  1  'x, y, z'
loop_
 _atom_site_type_symbol
 _atom_site_label
 _atom_site_symmetry_multiplicity
 _atom_site_fract_x
 _atom_site_fract_y
 _atom_site_fract_z
 _atom_site_occupancy
  Li  Li0  1  0.44205003  0.89684967  0.11952099  1
  Li  Li1  1  0.94308736  0.89907126  0.62136094  1
  Li  Li2  1  0.00054621  0.99412162  0.99700316  1
  Li  Li3  1  0.50007832  0.99402461  0.49720912  1
  Li  Li4  1  0.74824064  0.49255872  0.74137704  1
  Li  Li5  1  0.24822242  0.49197810  0.24074285  1
  Li  Li6  1  0.19222177  0.39596293  0.52846081  1
  Li  Li7  1  0.69346874  0.39581773  0.02868724  1
  Mn  Mn8  1  0.86535348  0.21574476  0.69374082  1
  Mn  Mn9  1  0.11211247  0.71456326  0.77256599  1
  Mn  Mn10  1  0.35364955  0.71211346  0.52443014  1
  Mn  Mn11  1  0.36561593  0.21471650  0.19344843  1
  Mn  Mn12  1  0.61447460  0.71650969  0.27369558  1
  Mn  Mn13  1  0.85610401  0.71212726  0.02329254  1
  Co  Co14  1  0.11001873  0.21606075  0.93976084  1
  Co  Co15  1  0.61132765  0.21450849  0.43939262  1
  Co  Co16  1  0.35635960  0.21313669  0.69240352  1
  Co  Co17  1  0.85371658  0.21214206  0.19286048  1
  Co  Co18  1  0.60280239  0.71620283  0.77075999  1
  Co  Co19  1  0.10577844  0.71423457  0.27082722  1
  Sn  Sn20  1  0.25046555  0.49152830  0.90700796  1
  Sn  Sn21  1  0.74423627  0.49171516  0.40899705  1
  Sn  Sn22  1  0.49779821  0.99128096  0.83269370  1
  Sn  Sn23  1  0.99509086  0.99112249  0.33328079  1
  O  O24  1  0.31028460  0.60384014  0.13733144  1
  O  O25  1  0.80135895  0.60737641  0.64150311  1
  O  O26  1  0.39117381  0.33680168  0.90610250  1
  O  O27  1  0.88764442  0.33941525  0.40983869  1
  O  O28  1  0.04058931  0.10885804  0.71972184  1
  O  O29  1  0.54020797  0.10612007  0.21764324  1
  O  O30  1  0.66873427  0.30695779  0.65787143  1
  O  O31  1  0.16587551  0.30616681  0.15655364  1
  O  O32  1  0.92641036  0.80808376  0.90823427  1
  O  O33  1  0.41626395  0.80684548  0.40665162  1
  O  O34  1  0.56332974  0.59869305  0.87072352  1
  O  O35  1  0.05700296  0.59852646  0.37126791  1
  O  O36  1  0.94168867  0.33841103  0.90564599  1
  O  O37  1  0.43871454  0.33837288  0.40523708  1
  O  O38  1  0.15835400  0.33372125  0.68148153  1
  O  O39  1  0.65906495  0.33432999  0.18282780  1
  O  O40  1  0.31235512  0.10111958  0.47359076  1
  O  O41  1  0.81170368  0.09993322  0.97410249  1
  O  O42  1  0.04884766  0.59475860  0.86618126  1
  O  O43  1  0.54571172  0.59713660  0.36931600  1
  O  O44  1  0.41682381  0.82607330  0.89764649  1
  O  O45  1  0.90616245  0.83435698  0.40473672  1
  O  O46  1  0.64433795  0.83763987  0.68448453  1
  O  O47  1  0.14069665  0.83820727  0.18332221  1
  O  O48  1  0.28049484  0.60862339  0.63148772  1
  O  O49  1  0.78777137  0.61016538  0.13485512  1
  O  O50  1  0.79829069  0.10434339  0.47758945  1
  O  O51  1  0.30015187  0.10214405  0.97767089  1
  O  O52  1  0.18495286  0.84367555  0.69173634  1
  O  O53  1  0.68230612  0.84444196  0.19306378  1
  O  O54  1  0.05803570  0.10178989  0.21367239  1
  O  O55  1  0.55938169  0.10065603  0.71252642  1
