# generated using pymatgen
data_Li4MnCo2O7
_symmetry_space_group_name_H-M   'P 1'
_cell_length_a   5.00251300
_cell_length_b   5.17381128
_cell_length_c   10.21084576
_cell_angle_alpha   98.87348279
_cell_angle_beta   99.25079283
_cell_angle_gamma   100.72056839
_symmetry_Int_Tables_number   1
_chemical_formula_structural   Li4MnCo2O7
_chemical_formula_sum   'Li8 Mn2 Co4 O14'
_cell_volume   251.62439548
_cell_formula_units_Z   2
loop_
 _symmetry_equiv_pos_site_id
 _symmetry_equiv_pos_as_xyz
  1  'x, y, z'
loop_
 _atom_site_type_symbol
 _atom_site_label
 _atom_site_symmetry_multiplicity
 _atom_site_fract_x
 _atom_site_fract_y
 _atom_site_fract_z
 _atom_site_occupancy
  Li  Li0  1  0.71557000  0.43040900  0.92010900  1
  Li  Li1  1  0.29022200  0.57482800  0.07499700  1
  Li  Li2  1  0.85358400  0.71661600  0.22230000  1
  Li  Li3  1  0.57786900  0.13476800  0.63559100  1
  Li  Li4  1  0.13157900  0.27801800  0.77275200  1
  Li  Li5  1  0.42851500  0.85855200  0.36179700  1
  Li  Li6  1  0.99946400  0.99936400  0.50716100  1
  Li  Li7  1  0.85415900  0.71340600  0.71168900  1
  Mn  Mn8  1  0.00039200  0.99294400  0.99828100  1
  Mn  Mn9  1  0.42833100  0.85332000  0.85415000  1
  Co  Co10  1  0.56986000  0.14085400  0.14212000  1
  Co  Co11  1  0.14818500  0.29154400  0.28909800  1
  Co  Co12  1  0.71768400  0.43558700  0.43545700  1
  Co  Co13  1  0.29146300  0.58167000  0.57709000  1
  O  O14  1  0.78531900  0.06191100  0.83726600  1
  O  O15  1  0.35608200  0.18190500  0.97097700  1
  O  O16  1  0.91906600  0.31416500  0.10311800  1
  O  O17  1  0.62504300  0.76642200  0.53341200  1
  O  O18  1  0.24066700  0.92628900  0.69290300  1
  O  O19  1  0.48718300  0.48491700  0.25121200  1
  O  O20  1  0.06148700  0.62643000  0.39150700  1
  O  O21  1  0.65441700  0.79207200  0.02306700  1
  O  O22  1  0.21626900  0.94515900  0.16846500  1
  O  O23  1  0.77973700  0.08756100  0.30534800  1
  O  O24  1  0.48256200  0.53168300  0.75977500  1
  O  O25  1  0.09013400  0.68066700  0.90139500  1
  O  O26  1  0.35804600  0.23156700  0.46121800  1
  O  O27  1  0.93711000  0.36737000  0.59774600  1
