# generated using pymatgen
data_Li3V4O8
_symmetry_space_group_name_H-M   'P 1'
_cell_length_a   5.89524703
_cell_length_b   10.68577901
_cell_length_c   5.91334928
_cell_angle_alpha   90.42414872
_cell_angle_beta   60.06928402
_cell_angle_gamma   74.20822728
_symmetry_Int_Tables_number   1
_chemical_formula_structural   Li3V4O8
_chemical_formula_sum   'Li6 V8 O16'
_cell_volume   306.03273359
_cell_formula_units_Z   2
loop_
 _symmetry_equiv_pos_site_id
 _symmetry_equiv_pos_as_xyz
  1  'x, y, z'
loop_
 _atom_site_type_symbol
 _atom_site_label
 _atom_site_symmetry_multiplicity
 _atom_site_fract_x
 _atom_site_fract_y
 _atom_site_fract_z
 _atom_site_occupancy
  Li  Li0  1  0.00000800  0.25001700  0.25001100  1
  Li  Li1  1  0.99992700  0.75005000  0.75000300  1
  Li  Li2  1  0.14557300  0.03414500  0.18162000  1
  Li  Li3  1  0.14035300  0.53398300  0.67953500  1
  Li  Li4  1  0.85435200  0.46591700  0.31849700  1
  Li  Li5  1  0.85947700  0.96603500  0.82060500  1
  V  V6  1  0.49964000  0.75005700  0.75019300  1
  V  V7  1  0.49998200  0.74993200  0.24979800  1
  V  V8  1  0.00004100  0.74991500  0.25011400  1
  V  V9  1  0.50577800  0.99914800  0.50073300  1
  V  V10  1  0.49453100  0.50078300  0.99902400  1
  V  V11  1  0.49987500  0.25008800  0.24996500  1
  V  V12  1  0.50006300  0.25002500  0.74993300  1
  V  V13  1  0.00013500  0.24995800  0.75005900  1
  O  O14  1  0.27463300  0.35088400  0.62688800  1
  O  O15  1  0.24931300  0.85066100  0.12676400  1
  O  O16  1  0.72528900  0.14915700  0.87322400  1
  O  O17  1  0.75061900  0.64940600  0.37339900  1
  O  O18  1  0.25476400  0.13355200  0.38797900  1
  O  O19  1  0.24368000  0.63450100  0.89109200  1
  O  O20  1  0.72698100  0.13238100  0.39170800  1
  O  O21  1  0.72278800  0.63220500  0.88764100  1
  O  O22  1  0.26158300  0.13138200  0.85773400  1
  O  O23  1  0.24846200  0.63155200  0.35794700  1
  O  O24  1  0.27295300  0.36780000  0.10820400  1
  O  O25  1  0.27707700  0.86773600  0.61213000  1
  O  O26  1  0.73869700  0.36850700  0.64221800  1
  O  O27  1  0.75179000  0.86836100  0.14209900  1
  O  O28  1  0.74534800  0.36649100  0.11195600  1
  O  O29  1  0.75629000  0.86537100  0.60892700  1
