# generated using pymatgen
data_Li9Mn2Co5O16
_symmetry_space_group_name_H-M   'P 1'
_cell_length_a   5.74112500
_cell_length_b   6.61091145
_cell_length_c   7.69039217
_cell_angle_alpha   85.73541452
_cell_angle_beta   79.74876325
_cell_angle_gamma   77.46990536
_symmetry_Int_Tables_number   1
_chemical_formula_structural   Li9Mn2Co5O16
_chemical_formula_sum   'Li9 Mn2 Co5 O16'
_cell_volume   280.18705239
_cell_formula_units_Z   1
loop_
 _symmetry_equiv_pos_site_id
 _symmetry_equiv_pos_as_xyz
  1  'x, y, z'
loop_
 _atom_site_type_symbol
 _atom_site_label
 _atom_site_symmetry_multiplicity
 _atom_site_fract_x
 _atom_site_fract_y
 _atom_site_fract_z
 _atom_site_occupancy
  Li  Li0  1  0.80788700  0.61922900  0.13505600  1
  Li  Li1  1  0.94098400  0.88288300  0.37396900  1
  Li  Li2  1  0.69069100  0.36738600  0.87582500  1
  Li  Li3  1  0.56910600  0.12511200  0.62048400  1
  Li  Li4  1  0.43153100  0.88176000  0.36588000  1
  Li  Li5  1  0.31391500  0.61975700  0.13615900  1
  Li  Li6  1  0.18725300  0.37030000  0.88035900  1
  Li  Li7  1  0.05945000  0.13417400  0.61107600  1
  Li  Li8  1  0.12829600  0.24646700  0.24862000  1
  Mn  Mn9  1  0.99715100  0.00423200  0.00586100  1
  Mn  Mn10  1  0.37479400  0.75274400  0.74930500  1
  Co  Co11  1  0.24939000  0.48974000  0.49184700  1
  Co  Co12  1  0.50145400  0.99826600  0.00193200  1
  Co  Co13  1  0.62334700  0.24836400  0.24877900  1
  Co  Co14  1  0.75871700  0.49454500  0.49005500  1
  Co  Co15  1  0.87601200  0.74764600  0.74963200  1
  O  O16  1  0.73068800  0.93276400  0.16520700  1
  O  O17  1  0.82317100  0.20356000  0.42841600  1
  O  O18  1  0.58594100  0.70935400  0.92530600  1
  O  O19  1  0.45938900  0.46766200  0.68441200  1
  O  O20  1  0.35724600  0.20233900  0.43350600  1
  O  O21  1  0.22240600  0.93808300  0.16532500  1
  O  O22  1  0.09406700  0.70640400  0.92145600  1
  O  O23  1  0.96635100  0.44452500  0.68114100  1
  O  O24  1  0.90479300  0.28524300  0.06646400  1
  O  O25  1  0.02448800  0.57073200  0.32858600  1
  O  O26  1  0.77819100  0.04980300  0.83070600  1
  O  O27  1  0.65088200  0.80536700  0.58536200  1
  O  O28  1  0.52758000  0.56580700  0.31874800  1
  O  O29  1  0.42798100  0.27999000  0.07190500  1
  O  O30  1  0.28051900  0.04376800  0.82827000  1
  O  O31  1  0.15632700  0.81199500  0.58035100  1
