# generated using pymatgen
data_Ba4LiGa5Se12
_symmetry_space_group_name_H-M   'P 1'
_cell_length_a   13.90087000
_cell_length_b   13.90087000
_cell_length_c   6.58024500
_cell_angle_alpha   90.00000000
_cell_angle_beta   90.00000000
_cell_angle_gamma   90.00000000
_symmetry_Int_Tables_number   1
_chemical_formula_structural   Ba4LiGa5Se12
_chemical_formula_sum   'Ba8 Li2 Ga10 Se24'
_cell_volume   1271.52829124
_cell_formula_units_Z   2
loop_
 _symmetry_equiv_pos_site_id
 _symmetry_equiv_pos_as_xyz
  1  'x, y, z'
loop_
 _atom_site_type_symbol
 _atom_site_label
 _atom_site_symmetry_multiplicity
 _atom_site_fract_x
 _atom_site_fract_y
 _atom_site_fract_z
 _atom_site_occupancy
  Ba  Ba0  1  0.52116700  0.19685100  0.95185000  1
  Ba  Ba1  1  0.02116700  0.30314900  0.54815000  1
  Ba  Ba2  1  0.47883300  0.80314900  0.95185000  1
  Ba  Ba3  1  0.97883300  0.69685100  0.54815000  1
  Ba  Ba4  1  0.80314900  0.52116700  0.04815000  1
  Ba  Ba5  1  0.69685100  0.02116700  0.45185000  1
  Ba  Ba6  1  0.19685100  0.47883300  0.04815000  1
  Ba  Ba7  1  0.30314900  0.97883300  0.45185000  1
  Li  Li8  1  0.50000000  0.50000000  0.00000000  1
  Li  Li9  1  0.00000000  0.00000000  0.50000000  1
  Ga  Ga10  1  0.74587600  0.35907200  0.55248400  1
  Ga  Ga11  1  0.24587600  0.14092800  0.94751600  1
  Ga  Ga12  1  0.25412400  0.64092800  0.55248400  1
  Ga  Ga13  1  0.75412400  0.85907200  0.94751600  1
  Ga  Ga14  1  0.64092800  0.74587600  0.44751600  1
  Ga  Ga15  1  0.85907200  0.24587600  0.05248400  1
  Ga  Ga16  1  0.35907200  0.25412400  0.44751600  1
  Ga  Ga17  1  0.14092800  0.75412400  0.05248400  1
  Ga  Ga18  1  0.50000000  0.50000000  0.50000000  1
  Ga  Ga19  1  0.00000000  0.00000000  0.00000000  1
  Se  Se20  1  0.85977800  0.48648700  0.54606100  1
  Se  Se21  1  0.35977800  0.01351300  0.95393900  1
  Se  Se22  1  0.14022200  0.51351300  0.54606100  1
  Se  Se23  1  0.64022200  0.98648700  0.95393900  1
  Se  Se24  1  0.51351300  0.85977800  0.45393900  1
  Se  Se25  1  0.98648700  0.35977800  0.04606100  1
  Se  Se26  1  0.48648700  0.14022200  0.45393900  1
  Se  Se27  1  0.01351300  0.64022200  0.04606100  1
  Se  Se28  1  0.80344000  0.20856800  0.70903300  1
  Se  Se29  1  0.30344000  0.29143200  0.79096700  1
  Se  Se30  1  0.19656000  0.79143200  0.70903300  1
  Se  Se31  1  0.69656000  0.70856800  0.79096700  1
  Se  Se32  1  0.79143200  0.80344000  0.29096700  1
  Se  Se33  1  0.70856800  0.30344000  0.20903300  1
  Se  Se34  1  0.20856800  0.19656000  0.29096700  1
  Se  Se35  1  0.29143200  0.69656000  0.20903300  1
  Se  Se36  1  0.59928300  0.40862400  0.73764800  1
  Se  Se37  1  0.09928300  0.09137600  0.76235200  1
  Se  Se38  1  0.40071700  0.59137600  0.73764800  1
  Se  Se39  1  0.90071700  0.90862400  0.76235200  1
  Se  Se40  1  0.59137600  0.59928300  0.26235200  1
  Se  Se41  1  0.90862400  0.09928300  0.23764800  1
  Se  Se42  1  0.40862400  0.40071700  0.26235200  1
  Se  Se43  1  0.09137600  0.90071700  0.23764800  1
