# generated using pymatgen
data_Li9Mn2Co5O16
_symmetry_space_group_name_H-M   'P 1'
_cell_length_a   5.86549300
_cell_length_b   4.99664000
_cell_length_c   9.82175806
_cell_angle_alpha   79.45917442
_cell_angle_beta   90.00000000
_cell_angle_gamma   90.00000000
_symmetry_Int_Tables_number   1
_chemical_formula_structural   Li9Mn2Co5O16
_chemical_formula_sum   'Li9 Mn2 Co5 O16'
_cell_volume   282.99611136
_cell_formula_units_Z   1
loop_
 _symmetry_equiv_pos_site_id
 _symmetry_equiv_pos_as_xyz
  1  'x, y, z'
loop_
 _atom_site_type_symbol
 _atom_site_label
 _atom_site_symmetry_multiplicity
 _atom_site_fract_x
 _atom_site_fract_y
 _atom_site_fract_z
 _atom_site_occupancy
  Li  Li0  1  0.00261700  0.75580800  0.25312100  1
  Li  Li1  1  0.25520000  0.75460800  0.74766300  1
  Li  Li2  1  0.49782600  0.75532900  0.25434200  1
  Li  Li3  1  0.25520000  0.24539200  0.25233700  1
  Li  Li4  1  0.49782600  0.24467100  0.74565800  1
  Li  Li5  1  0.74182600  0.24543000  0.25181400  1
  Li  Li6  1  0.74182600  0.75457000  0.74818600  1
  Li  Li7  1  0.00261700  0.24419200  0.74687900  1
  Li  Li8  1  0.49619500  0.00000000  0.50000000  1
  Mn  Mn9  1  0.00658100  0.00000000  0.50000000  1
  Mn  Mn10  1  0.73922200  0.50000000  0.50000000  1
  Co  Co11  1  0.25031600  0.00000000  0.00000000  1
  Co  Co12  1  0.74968500  0.00000000  0.00000000  1
  Co  Co13  1  0.49991100  0.50000000  0.00000000  1
  Co  Co14  1  0.00050200  0.50000000  0.00000000  1
  Co  Co15  1  0.25222900  0.50000000  0.50000000  1
  O  O16  1  0.76619600  0.86250100  0.38989500  1
  O  O17  1  0.00218400  0.86052500  0.88506200  1
  O  O18  1  0.23462000  0.86576800  0.38977100  1
  O  O19  1  0.99938000  0.36748300  0.39195300  1
  O  O20  1  0.25353000  0.36483500  0.88538100  1
  O  O21  1  0.50112900  0.39862800  0.38946900  1
  O  O22  1  0.50030200  0.86644000  0.88172200  1
  O  O23  1  0.75076400  0.36114100  0.88407500  1
  O  O24  1  0.25353000  0.63516500  0.11461900  1
  O  O25  1  0.50112900  0.60137200  0.61053100  1
  O  O26  1  0.75076400  0.63885900  0.11592500  1
  O  O27  1  0.50030200  0.13356000  0.11827800  1
  O  O28  1  0.76619600  0.13749900  0.61010500  1
  O  O29  1  0.00218400  0.13947500  0.11493800  1
  O  O30  1  0.99938000  0.63251700  0.60804700  1
  O  O31  1  0.23462000  0.13423200  0.61022900  1
