# generated using pymatgen
data_Li9Mn2Co5O16
_symmetry_space_group_name_H-M   'P 1'
_cell_length_a   5.86410500
_cell_length_b   5.00219600
_cell_length_c   9.81018241
_cell_angle_alpha   79.26865896
_cell_angle_beta   90.00000000
_cell_angle_gamma   90.00000000
_symmetry_Int_Tables_number   1
_chemical_formula_structural   Li9Mn2Co5O16
_chemical_formula_sum   'Li9 Mn2 Co5 O16'
_cell_volume   282.73331539
_cell_formula_units_Z   1
loop_
 _symmetry_equiv_pos_site_id
 _symmetry_equiv_pos_as_xyz
  1  'x, y, z'
loop_
 _atom_site_type_symbol
 _atom_site_label
 _atom_site_symmetry_multiplicity
 _atom_site_fract_x
 _atom_site_fract_y
 _atom_site_fract_z
 _atom_site_occupancy
  Li  Li0  1  0.24740400  0.73820800  0.75223400  1
  Li  Li1  1  0.50000000  0.74121200  0.24727900  1
  Li  Li2  1  0.75259600  0.73820800  0.75223400  1
  Li  Li3  1  0.50000000  0.25878800  0.75272100  1
  Li  Li4  1  0.75259600  0.26179200  0.24776600  1
  Li  Li5  1  0.00000000  0.25988600  0.75343200  1
  Li  Li6  1  0.00000000  0.74011400  0.24656800  1
  Li  Li7  1  0.24740400  0.26179200  0.24776600  1
  Li  Li8  1  0.00000000  0.50000000  0.00000000  1
  Mn  Mn9  1  0.24650200  0.00000000  0.00000000  1
  Mn  Mn10  1  0.75349800  0.00000000  0.00000000  1
  Co  Co11  1  0.50000000  0.00000000  0.50000000  1
  Co  Co12  1  0.00000000  0.00000000  0.50000000  1
  Co  Co13  1  0.75050600  0.50000000  0.50000000  1
  Co  Co14  1  0.24949400  0.50000000  0.50000000  1
  Co  Co15  1  0.50000000  0.50000000  0.00000000  1
  O  O16  1  0.00000000  0.89993100  0.88837100  1
  O  O17  1  0.25316900  0.86339300  0.38391600  1
  O  O18  1  0.50000000  0.86922000  0.89279900  1
  O  O19  1  0.26452700  0.35892000  0.88946900  1
  O  O20  1  0.50000000  0.36299200  0.38369600  1
  O  O21  1  0.73547300  0.35892000  0.88946900  1
  O  O22  1  0.74683100  0.86339300  0.38391600  1
  O  O23  1  0.00000000  0.36793200  0.38173800  1
  O  O24  1  0.50000000  0.63700800  0.61630400  1
  O  O25  1  0.73547300  0.64108000  0.11053100  1
  O  O26  1  0.00000000  0.63206800  0.61826200  1
  O  O27  1  0.74683100  0.13660700  0.61608400  1
  O  O28  1  0.00000000  0.10006900  0.11162900  1
  O  O29  1  0.25316900  0.13660700  0.61608400  1
  O  O30  1  0.26452700  0.64108000  0.11053100  1
  O  O31  1  0.50000000  0.13078000  0.10720100  1
