# generated using pymatgen
data_Li6V3P8O29
_symmetry_space_group_name_H-M   'P 1'
_cell_length_a   9.84709708
_cell_length_b   9.84709708
_cell_length_c   13.95420337
_cell_angle_alpha   89.86014702
_cell_angle_beta   89.86014702
_cell_angle_gamma   59.90439557
_symmetry_Int_Tables_number   1
_chemical_formula_structural   Li6V3P8O29
_chemical_formula_sum   'Li12 V6 P16 O58'
_cell_volume   1170.66113624
_cell_formula_units_Z   2
loop_
 _symmetry_equiv_pos_site_id
 _symmetry_equiv_pos_as_xyz
  1  'x, y, z'
loop_
 _atom_site_type_symbol
 _atom_site_label
 _atom_site_symmetry_multiplicity
 _atom_site_fract_x
 _atom_site_fract_y
 _atom_site_fract_z
 _atom_site_occupancy
  Li  Li0  1  0.90773300  0.77532900  0.68855300  1
  Li  Li1  1  0.90551500  0.32103700  0.19027000  1
  Li  Li2  1  0.66686000  0.66656000  0.86621300  1
  Li  Li3  1  0.77810500  0.31537100  0.69050600  1
  Li  Li4  1  0.31208800  0.91522000  0.68911700  1
  Li  Li5  1  0.68462900  0.22189500  0.30949400  1
  Li  Li6  1  0.31801400  0.77311600  0.19110600  1
  Li  Li7  1  0.67896300  0.09448500  0.80973000  1
  Li  Li8  1  0.22688400  0.68198600  0.80889400  1
  Li  Li9  1  0.33344000  0.33314000  0.13378700  1
  Li  Li10  1  0.08478000  0.68791200  0.31088300  1
  Li  Li11  1  0.22467100  0.09226700  0.31144700  1
  V  V12  1  0.56838400  0.43161600  0.50000000  1
  V  V13  1  0.43414300  0.56585700  0.00000000  1
  V  V14  1  0.56898400  0.99604700  0.00429700  1
  V  V15  1  0.43296700  0.00185500  0.49897000  1
  V  V16  1  0.99814500  0.56703300  0.50103000  1
  V  V17  1  0.00395300  0.43101600  0.99570300  1
  P  P18  1  0.91153700  0.77019600  0.90946700  1
  P  P19  1  0.76885800  0.91415000  0.40984300  1
  P  P20  1  0.91248700  0.32098000  0.40714600  1
  P  P21  1  0.66459600  0.66685500  0.62449400  1
  P  P22  1  0.66799900  0.66338600  0.12319300  1
  P  P23  1  0.77100000  0.32034300  0.90849600  1
  P  P24  1  0.67965700  0.22900000  0.09150400  1
  P  P25  1  0.32034000  0.91097800  0.90562000  1
  P  P26  1  0.67902000  0.08751300  0.59285400  1
  P  P27  1  0.32046300  0.76793900  0.40939100  1
  P  P28  1  0.23206100  0.67953700  0.59060900  1
  P  P29  1  0.33314500  0.33540400  0.37550600  1
  P  P30  1  0.33661400  0.33200100  0.87680700  1
  P  P31  1  0.08902200  0.67966000  0.09438000  1
  P  P32  1  0.22980400  0.08846300  0.09053300  1
  P  P33  1  0.08585000  0.23114200  0.59015700  1
  O  O34  1  0.00396300  0.75564800  0.18498000  1
  O  O35  1  0.91365600  0.74580500  0.41245900  1
  O  O36  1  0.75747700  0.00204600  0.68461300  1
  O  O37  1  0.74859400  0.91988400  0.90855900  1
  O  O38  1  0.88745000  0.62676000  0.92401500  1
  O  O39  1  0.81281100  0.67365500  0.58667100  1
  O  O40  1  0.89815900  0.48019900  0.42624000  1
  O  O41  1  0.99483100  0.23801500  0.67695200  1
  O  O42  1  0.91531300  0.33918100  0.91053300  1
  O  O43  1  0.66039100  0.81470200  0.07749800  1
  O  O44  1  0.61738700  0.90520800  0.42775400  1
  O  O45  1  0.81935300  0.51730900  0.08146700  1
  O  O46  1  0.66705300  0.66581900  0.73281100  1
  O  O47  1  0.66182800  0.66432300  0.22945900  1
  O  O48  1  0.67264200  0.51281300  0.58656000  1
  O  O49  1  0.48598500  0.88992600  0.92317000  1
  O  O50  1  0.51253900  0.81363600  0.58586400  1
  O  O51  1  0.74894100  0.33371800  0.40981700  1
  O  O52  1  0.78603000  0.21397000  0.00000000  1
  O  O53  1  0.75642400  0.24670100  0.18093700  1
  O  O54  1  0.75329900  0.24357600  0.81906300  1
  O  O55  1  0.62418600  0.48654900  0.92368400  1
  O  O56  1  0.51808400  0.66245800  0.08068800  1
  O  O57  1  0.66628200  0.25105900  0.59018300  1
  O  O58  1  0.48021700  0.61927400  0.42768100  1
  O  O59  1  0.33541300  0.91686000  0.40919600  1
  O  O60  1  0.79320300  0.99354400  0.50524400  1
  O  O61  1  0.76198500  0.00516900  0.32304800  1
  O  O62  1  0.24610000  0.99638900  0.18110200  1
  O  O63  1  0.66081900  0.08468700  0.08946700  1
  O  O64  1  0.51345100  0.37581400  0.07631600  1
  O  O65  1  0.33471000  0.74669200  0.90945600  1
  O  O66  1  0.48718700  0.32735800  0.41344000  1
  O  O67  1  0.38072600  0.51978300  0.57231900  1
  O  O68  1  0.24305000  0.75802000  0.68165900  1
  O  O69  1  0.24198000  0.75695000  0.31834100  1
  O  O70  1  0.20957300  0.79042700  0.50000000  1
  O  O71  1  0.25330800  0.66529000  0.09054400  1
  O  O72  1  0.48269100  0.18064700  0.91853300  1
  O  O73  1  0.51980100  0.10184100  0.57376000  1
  O  O74  1  0.33754200  0.48191600  0.91931200  1
  O  O75  1  0.33567700  0.33817200  0.77054100  1
  O  O76  1  0.33418100  0.33294700  0.26718900  1
  O  O77  1  0.18636400  0.48746100  0.41413600  1
  O  O78  1  0.37324000  0.11255000  0.07598500  1
  O  O79  1  0.32634500  0.18718900  0.41332900  1
  O  O80  1  0.08314000  0.66458700  0.59080400  1
  O  O81  1  0.00045200  0.78493800  0.00136100  1
  O  O82  1  0.00361100  0.75390000  0.81889800  1
  O  O83  1  0.11007400  0.51401500  0.07683000  1
  O  O84  1  0.18529800  0.33960900  0.92250200  1
  O  O85  1  0.09479200  0.38261300  0.57224600  1
  O  O86  1  0.25419500  0.08634400  0.58754100  1
  O  O87  1  0.24435200  0.99603700  0.81502000  1
  O  O88  1  0.21506200  0.99954800  0.99863900  1
  O  O89  1  0.08011600  0.25140600  0.09144100  1
  O  O90  1  0.99795400  0.24252300  0.31538700  1
  O  O91  1  0.00645600  0.20679700  0.49475600  1
