# generated using pymatgen
data_Li2Ti2V3O10
_symmetry_space_group_name_H-M   'P 1'
_cell_length_a   5.21916823
_cell_length_b   5.16613093
_cell_length_c   7.73764829
_cell_angle_alpha   77.87958927
_cell_angle_beta   104.24011264
_cell_angle_gamma   103.40146685
_symmetry_Int_Tables_number   1
_chemical_formula_structural   Li2Ti2V3O10
_chemical_formula_sum   'Li2 Ti2 V3 O10'
_cell_volume   194.10703785
_cell_formula_units_Z   1
loop_
 _symmetry_equiv_pos_site_id
 _symmetry_equiv_pos_as_xyz
  1  'x, y, z'
loop_
 _atom_site_type_symbol
 _atom_site_label
 _atom_site_symmetry_multiplicity
 _atom_site_fract_x
 _atom_site_fract_y
 _atom_site_fract_z
 _atom_site_occupancy
  Li  Li0  1  0.21144900  0.55172900  0.39404300  1
  Li  Li1  1  0.78320200  0.44709200  0.60897900  1
  Ti  Ti2  1  0.12604600  0.00737800  0.68741500  1
  Ti  Ti3  1  0.86860400  0.98925200  0.31667900  1
  V  V4  1  0.99781300  0.50314900  0.99497400  1
  V  V5  1  0.69294000  0.95966000  0.89469000  1
  V  V6  1  0.31279300  0.04477500  0.10809800  1
  O  O7  1  0.06138700  0.21571900  0.86319100  1
  O  O8  1  0.05157200  0.77210300  0.50700700  1
  O  O9  1  0.31372800  0.79137400  0.94575500  1
  O  O10  1  0.20636300  0.27583800  0.21298900  1
  O  O11  1  0.47941600  0.15375300  0.68499700  1
  O  O12  1  0.51048200  0.83757800  0.31182200  1
  O  O13  1  0.80617100  0.71387300  0.78025600  1
  O  O14  1  0.68064000  0.21426700  0.06694900  1
  O  O15  1  0.94432900  0.22848700  0.48657500  1
  O  O16  1  0.95306600  0.79397200  0.13558200  1
