# generated using pymatgen
data_Li3MnV(PO4)3
_symmetry_space_group_name_H-M   'P 1'
_cell_length_a   8.76427500
_cell_length_b   8.57563200
_cell_length_c   12.07001006
_cell_angle_alpha   88.37618204
_cell_angle_beta   90.00000000
_cell_angle_gamma   90.00000000
_symmetry_Int_Tables_number   1
_chemical_formula_structural   Li3MnV(PO4)3
_chemical_formula_sum   'Li12 Mn4 V4 P12 O48'
_cell_volume   906.80796453
_cell_formula_units_Z   4
loop_
 _symmetry_equiv_pos_site_id
 _symmetry_equiv_pos_as_xyz
  1  'x, y, z'
loop_
 _atom_site_type_symbol
 _atom_site_label
 _atom_site_symmetry_multiplicity
 _atom_site_fract_x
 _atom_site_fract_y
 _atom_site_fract_z
 _atom_site_occupancy
  Li  Li0  1  0.51217100  0.31487500  0.40414300  1
  Li  Li1  1  0.08624900  0.32990200  0.05964600  1
  Li  Li2  1  0.77948400  0.42960000  0.57232900  1
  Li  Li3  1  0.27948400  0.57040000  0.42767100  1
  Li  Li4  1  0.58624900  0.67009800  0.94035400  1
  Li  Li5  1  0.01217100  0.68512500  0.59585700  1
  Li  Li6  1  0.98538300  0.81440800  0.90285600  1
  Li  Li7  1  0.41520200  0.83039500  0.55876600  1
  Li  Li8  1  0.72096300  0.93074600  0.07248900  1
  Li  Li9  1  0.22096300  0.06925400  0.92751100  1
  Li  Li10  1  0.91520200  0.16960500  0.44123400  1
  Li  Li11  1  0.48538300  0.18559200  0.09714400  1
  Mn  Mn12  1  0.03663500  0.99753700  0.14035100  1
  Mn  Mn13  1  0.47120400  0.99774000  0.35568300  1
  Mn  Mn14  1  0.53663500  0.00246300  0.85964900  1
  Mn  Mn15  1  0.97120400  0.00226000  0.64431700  1
  V  V16  1  0.02797000  0.49417000  0.85495400  1
  V  V17  1  0.46485300  0.49510200  0.64195200  1
  V  V18  1  0.52797000  0.50583000  0.14504600  1
  V  V19  1  0.96485300  0.50489800  0.35804800  1
  P  P20  1  0.24812400  0.29387800  0.26005700  1
  P  P21  1  0.38209400  0.36440900  0.90407900  1
  P  P22  1  0.11120900  0.36456400  0.60383000  1
  P  P23  1  0.88209400  0.63559100  0.09592100  1
  P  P24  1  0.61120900  0.63543600  0.39617000  1
  P  P25  1  0.74812400  0.70612200  0.73994300  1
  P  P26  1  0.24935200  0.79303400  0.75986100  1
  P  P27  1  0.38973200  0.86682400  0.10017100  1
  P  P28  1  0.11887600  0.86586300  0.39728400  1
  P  P29  1  0.88973200  0.13317600  0.89982900  1
  P  P30  1  0.61887600  0.13413700  0.60271600  1
  P  P31  1  0.74935200  0.20696600  0.24013900  1
  O  O32  1  0.89342300  0.30085700  0.85523200  1
  O  O33  1  0.86795300  0.29852000  0.30637500  1
  O  O34  1  0.66378800  0.30447400  0.15077000  1
  O  O35  1  0.58021000  0.30625300  0.56343400  1
  O  O36  1  0.36042000  0.35106100  0.16843900  1
  O  O37  1  0.20533000  0.37635500  0.92018600  1
  O  O38  1  0.42106600  0.38995400  0.78125000  1
  O  O39  1  0.99409200  0.37845100  0.50459800  1
  O  O40  1  0.26919700  0.42561600  0.56297000  1
  O  O41  1  0.17716200  0.43937800  0.31582600  1
  O  O42  1  0.47139800  0.48093500  0.97470900  1
  O  O43  1  0.05004100  0.48536200  0.68828800  1
  O  O44  1  0.55004100  0.51463800  0.31171200  1
  O  O45  1  0.97139800  0.51906500  0.02529100  1
  O  O46  1  0.67716200  0.56062200  0.68417400  1
  O  O47  1  0.76919700  0.57438400  0.43703000  1
  O  O48  1  0.92106600  0.61004600  0.21875000  1
  O  O49  1  0.49409200  0.62154900  0.49540200  1
  O  O50  1  0.70533000  0.62364500  0.07981400  1
  O  O51  1  0.86042000  0.64893900  0.83156100  1
  O  O52  1  0.16378800  0.69552600  0.84923000  1
  O  O53  1  0.08021000  0.69374700  0.43656600  1
  O  O54  1  0.39342300  0.69914300  0.14476800  1
  O  O55  1  0.36795300  0.70148000  0.69362500  1
  O  O56  1  0.62636200  0.79538100  0.80309500  1
  O  O57  1  0.61395900  0.80270800  0.35080500  1
  O  O58  1  0.91801100  0.80707600  0.05732900  1
  O  O59  1  0.83170200  0.80147500  0.64715700  1
  O  O60  1  0.13626700  0.85141600  0.66563800  1
  O  O61  1  0.29763900  0.87344300  0.41558500  1
  O  O62  1  0.50775000  0.87713800  0.99913900  1
  O  O63  1  0.08321000  0.88526300  0.27347600  1
  O  O64  1  0.23025600  0.92034000  0.05879700  1
  O  O65  1  0.31996100  0.93738500  0.81430800  1
  O  O66  1  0.03025800  0.98148800  0.46740400  1
  O  O67  1  0.45104100  0.98771300  0.18240300  1
  O  O68  1  0.95104100  0.01228700  0.81759700  1
  O  O69  1  0.53025800  0.01851200  0.53259600  1
  O  O70  1  0.81996100  0.06261500  0.18569200  1
  O  O71  1  0.73025600  0.07966000  0.94120300  1
  O  O72  1  0.00775000  0.12286200  0.00086100  1
  O  O73  1  0.58321000  0.11473700  0.72652400  1
  O  O74  1  0.79763900  0.12655700  0.58441500  1
  O  O75  1  0.63626700  0.14858400  0.33436200  1
  O  O76  1  0.41801100  0.19292400  0.94267100  1
  O  O77  1  0.33170200  0.19852500  0.35284300  1
  O  O78  1  0.12636200  0.20461900  0.19690500  1
  O  O79  1  0.11395900  0.19729200  0.64919500  1
