# generated using pymatgen
data_Li2CoSiO4
_symmetry_space_group_name_H-M   'P 1'
_cell_length_a   10.43431841
_cell_length_b   5.29480861
_cell_length_c   13.02108512
_cell_angle_alpha   90.00000000
_cell_angle_beta   90.00000000
_cell_angle_gamma   90.00000000
_symmetry_Int_Tables_number   1
_chemical_formula_structural   Li2CoSiO4
_chemical_formula_sum   'Li16 Co8 Si8 O32'
_cell_volume   719.38525122
_cell_formula_units_Z   8
loop_
 _symmetry_equiv_pos_site_id
 _symmetry_equiv_pos_as_xyz
  1  'x, y, z'
loop_
 _atom_site_type_symbol
 _atom_site_label
 _atom_site_symmetry_multiplicity
 _atom_site_fract_x
 _atom_site_fract_y
 _atom_site_fract_z
 _atom_site_occupancy
  Li  Li0  1  0.96272692  0.94844415  0.56419917  1
  Li  Li1  1  0.95130009  0.44520804  0.93699318  1
  Li  Li2  1  0.21416544  0.37016064  0.29759981  1
  Li  Li3  1  0.21654413  0.86613481  0.19976607  1
  Li  Li4  1  0.28345587  0.86613481  0.69976607  1
  Li  Li5  1  0.28583456  0.37016064  0.79759981  1
  Li  Li6  1  0.54869991  0.44520804  0.43699318  1
  Li  Li7  1  0.53727308  0.94844415  0.06419917  1
  Li  Li8  1  0.45130009  0.55479196  0.93699318  1
  Li  Li9  1  0.46272692  0.05155585  0.56419917  1
  Li  Li10  1  0.71416544  0.62983936  0.29759981  1
  Li  Li11  1  0.71654413  0.13386519  0.19976607  1
  Li  Li12  1  0.78345587  0.13386519  0.69976607  1
  Li  Li13  1  0.78583456  0.62983936  0.79759981  1
  Li  Li14  1  0.04869991  0.55479196  0.43699318  1
  Li  Li15  1  0.03727308  0.05155585  0.06419917  1
  Co  Co16  1  0.03752487  0.94980619  0.81329482  1
  Co  Co17  1  0.20856136  0.53712614  0.05727501  1
  Co  Co18  1  0.29143864  0.53712614  0.55727501  1
  Co  Co19  1  0.46247513  0.94980619  0.31329482  1
  Co  Co20  1  0.53752487  0.05019381  0.81329482  1
  Co  Co21  1  0.70856136  0.46287386  0.05727501  1
  Co  Co22  1  0.79143864  0.46287386  0.55727501  1
  Co  Co23  1  0.96247513  0.05019381  0.31329482  1
  Si  Si24  1  0.03407505  0.45668935  0.68663165  1
  Si  Si25  1  0.20783808  0.04078816  0.44202987  1
  Si  Si26  1  0.29216192  0.04078816  0.94202987  1
  Si  Si27  1  0.46592495  0.45668935  0.18663165  1
  Si  Si28  1  0.53407505  0.54331065  0.68663165  1
  Si  Si29  1  0.70783808  0.95921184  0.44202987  1
  Si  Si30  1  0.79216192  0.95921184  0.94202987  1
  Si  Si31  1  0.96592495  0.54331065  0.18663165  1
  O  O32  1  0.02448747  0.40338157  0.29054148  1
  O  O33  1  0.01025148  0.84415162  0.19133686  1
  O  O34  1  0.06027079  0.93147285  0.43635353  1
  O  O35  1  0.03031990  0.42564108  0.08064829  1
  O  O36  1  0.19066470  0.50942128  0.68698312  1
  O  O37  1  0.22534150  0.99304948  0.82789988  1
  O  O38  1  0.20575073  0.35324553  0.44959662  1
  O  O39  1  0.21340791  0.91602964  0.03893064  1
  O  O40  1  0.28659209  0.91602964  0.53893064  1
  O  O41  1  0.29424927  0.35324553  0.94959662  1
  O  O42  1  0.27465850  0.99304948  0.32789988  1
  O  O43  1  0.30933530  0.50942128  0.18698312  1
  O  O44  1  0.46968010  0.42564108  0.58064829  1
  O  O45  1  0.43972921  0.93147285  0.93635353  1
  O  O46  1  0.48974852  0.84415162  0.69133686  1
  O  O47  1  0.47551253  0.40338157  0.79054148  1
  O  O48  1  0.52448747  0.59661843  0.29054148  1
  O  O49  1  0.51025148  0.15584838  0.19133686  1
  O  O50  1  0.56027079  0.06852715  0.43635353  1
  O  O51  1  0.53031990  0.57435892  0.08064829  1
  O  O52  1  0.69066470  0.49057872  0.68698312  1
  O  O53  1  0.72534150  0.00695052  0.82789988  1
  O  O54  1  0.70575073  0.64675447  0.44959662  1
  O  O55  1  0.71340791  0.08397036  0.03893064  1
  O  O56  1  0.78659209  0.08397036  0.53893064  1
  O  O57  1  0.79424927  0.64675447  0.94959662  1
  O  O58  1  0.77465850  0.00695052  0.32789988  1
  O  O59  1  0.80933530  0.49057872  0.18698312  1
  O  O60  1  0.96968010  0.57435892  0.58064829  1
  O  O61  1  0.93972921  0.06852715  0.93635353  1
  O  O62  1  0.98974852  0.15584838  0.69133686  1
  O  O63  1  0.97551253  0.59661843  0.79054148  1
