# generated using pymatgen
data_Li9Mn2Co5O16
_symmetry_space_group_name_H-M   'P 1'
_cell_length_a   5.01414400
_cell_length_b   5.13719928
_cell_length_c   11.47149547
_cell_angle_alpha   80.53064755
_cell_angle_beta   84.97215185
_cell_angle_gamma   80.39544465
_symmetry_Int_Tables_number   1
_chemical_formula_structural   Li9Mn2Co5O16
_chemical_formula_sum   'Li9 Mn2 Co5 O16'
_cell_volume   286.82747721
_cell_formula_units_Z   1
loop_
 _symmetry_equiv_pos_site_id
 _symmetry_equiv_pos_as_xyz
  1  'x, y, z'
loop_
 _atom_site_type_symbol
 _atom_site_label
 _atom_site_symmetry_multiplicity
 _atom_site_fract_x
 _atom_site_fract_y
 _atom_site_fract_z
 _atom_site_occupancy
  Li  Li0  1  0.75111400  0.18807800  0.80777300  1
  Li  Li1  1  0.26225300  0.06110200  0.93433300  1
  Li  Li2  1  0.24812800  0.31065900  0.67745500  1
  Li  Li3  1  0.73909800  0.43931100  0.55565400  1
  Li  Li4  1  0.26090200  0.56068900  0.44434600  1
  Li  Li5  1  0.75187200  0.68934100  0.32254500  1
  Li  Li6  1  0.24888600  0.81192200  0.19222700  1
  Li  Li7  1  0.73774700  0.93889800  0.06566700  1
  Li  Li8  1  0.50000000  0.00000000  0.50000000  1
  Mn  Mn9  1  0.00164700  0.62670300  0.87539800  1
  Mn  Mn10  1  0.99835300  0.37329700  0.12460200  1
  Co  Co11  1  0.50000000  0.50000000  0.00000000  1
  Co  Co12  1  0.49197700  0.23671700  0.25851300  1
  Co  Co13  1  0.98698100  0.12743800  0.38286700  1
  Co  Co14  1  0.01301900  0.87256200  0.61713300  1
  Co  Co15  1  0.50802300  0.76328300  0.74148700  1
  O  O16  1  0.12108500  0.94037500  0.78935600  1
  O  O17  1  0.64110200  0.81090200  0.91115500  1
  O  O18  1  0.62783900  0.06935800  0.66524300  1
  O  O19  1  0.10618300  0.20758200  0.53124300  1
  O  O20  1  0.63511100  0.34136100  0.39687500  1
  O  O21  1  0.11874300  0.45971600  0.26564200  1
  O  O22  1  0.63391400  0.56431000  0.14571600  1
  O  O23  1  0.13266300  0.68854500  0.02641300  1
  O  O24  1  0.36608600  0.43569000  0.85428400  1
  O  O25  1  0.86733700  0.31145500  0.97358700  1
  O  O26  1  0.88125700  0.54028400  0.73435800  1
  O  O27  1  0.36488900  0.65863900  0.60312500  1
  O  O28  1  0.89381700  0.79241800  0.46875700  1
  O  O29  1  0.37216100  0.93064200  0.33475700  1
  O  O30  1  0.87891500  0.05962500  0.21064400  1
  O  O31  1  0.35889800  0.18909800  0.08884500  1
