# generated using pymatgen
data_Li9Mn2Co5O16
_symmetry_space_group_name_H-M   'P 1'
_cell_length_a   5.14387600
_cell_length_b   7.67520618
_cell_length_c   7.76761797
_cell_angle_alpha   97.77970984
_cell_angle_beta   102.14900234
_cell_angle_gamma   102.96997122
_symmetry_Int_Tables_number   1
_chemical_formula_structural   Li9Mn2Co5O16
_chemical_formula_sum   'Li9 Mn2 Co5 O16'
_cell_volume   286.73436683
_cell_formula_units_Z   1
loop_
 _symmetry_equiv_pos_site_id
 _symmetry_equiv_pos_as_xyz
  1  'x, y, z'
loop_
 _atom_site_type_symbol
 _atom_site_label
 _atom_site_symmetry_multiplicity
 _atom_site_fract_x
 _atom_site_fract_y
 _atom_site_fract_z
 _atom_site_occupancy
  Li  Li0  1  0.50075300  0.12806500  0.87078100  1
  Li  Li1  1  0.49808400  0.00124700  0.50537400  1
  Li  Li2  1  0.49857700  0.37817600  0.62254100  1
  Li  Li3  1  0.51070800  0.25806400  0.25902300  1
  Li  Li4  1  0.49489500  0.61786500  0.38326700  1
  Li  Li5  1  0.50453700  0.49614100  0.99856000  1
  Li  Li6  1  0.49961200  0.87469100  0.12300000  1
  Li  Li7  1  0.49274500  0.74557300  0.74179200  1
  Li  Li8  1  0.00024300  0.49930000  0.49744900  1
  Mn  Mn9  1  0.99844400  0.00168000  0.99768400  1
  Mn  Mn10  1  0.99977200  0.74775500  0.25254800  1
  Co  Co11  1  0.00241200  0.86905100  0.62473300  1
  Co  Co12  1  0.00251800  0.61603500  0.86384200  1
  Co  Co13  1  0.99629500  0.37608700  0.12999800  1
  Co  Co14  1  0.99363200  0.25385400  0.73885600  1
  Co  Co15  1  0.00487700  0.12735500  0.37788700  1
  O  O16  1  0.77044100  0.12283200  0.11728300  1
  O  O17  1  0.77389900  0.00171900  0.76563200  1
  O  O18  1  0.76572800  0.37798000  0.87792100  1
  O  O19  1  0.77132300  0.23723100  0.50642800  1
  O  O20  1  0.76479400  0.64067600  0.63273000  1
  O  O21  1  0.76668000  0.51481100  0.24476700  1
  O  O22  1  0.78517200  0.88327000  0.37212800  1
  O  O23  1  0.78401300  0.76095300  0.01080200  1
  O  O24  1  0.23458600  0.11713400  0.62587000  1
  O  O25  1  0.21739000  0.99273000  0.23546900  1
  O  O26  1  0.22682800  0.35549400  0.36677700  1
  O  O27  1  0.22140200  0.23878400  0.99545900  1
  O  O28  1  0.22288500  0.62675300  0.13296100  1
  O  O29  1  0.24045300  0.50392800  0.76695800  1
  O  O30  1  0.22523000  0.87909900  0.87921600  1
  O  O31  1  0.23107300  0.75566600  0.48226400  1
