# generated using pymatgen
data_LiYGeO4
_symmetry_space_group_name_H-M   'P 1'
_cell_length_a   5.10753500
_cell_length_b   6.40389600
_cell_length_c   11.16386800
_cell_angle_alpha   90.00000000
_cell_angle_beta   90.00000000
_cell_angle_gamma   90.00000000
_symmetry_Int_Tables_number   1
_chemical_formula_structural   LiYGeO4
_chemical_formula_sum   'Li4 Y4 Ge4 O16'
_cell_volume   365.14916721
_cell_formula_units_Z   4
loop_
 _symmetry_equiv_pos_site_id
 _symmetry_equiv_pos_as_xyz
  1  'x, y, z'
loop_
 _atom_site_type_symbol
 _atom_site_label
 _atom_site_symmetry_multiplicity
 _atom_site_fract_x
 _atom_site_fract_y
 _atom_site_fract_z
 _atom_site_occupancy
  Li  Li0  1  0.50000000  0.50000000  0.50000000  1
  Li  Li1  1  0.00000000  0.50000000  0.00000000  1
  Li  Li2  1  0.50000000  0.00000000  0.50000000  1
  Li  Li3  1  0.00000000  0.00000000  0.00000000  1
  Y  Y4  1  0.02090600  0.75000000  0.72667000  1
  Y  Y5  1  0.97909400  0.25000000  0.27333000  1
  Y  Y6  1  0.52090600  0.25000000  0.77333000  1
  Y  Y7  1  0.47909400  0.75000000  0.22667000  1
  Ge  Ge8  1  0.57817300  0.75000000  0.91843200  1
  Ge  Ge9  1  0.42182700  0.25000000  0.08156800  1
  Ge  Ge10  1  0.07817300  0.25000000  0.58156800  1
  Ge  Ge11  1  0.92182700  0.75000000  0.41843200  1
  O  O12  1  0.73302800  0.53762700  0.83853900  1
  O  O13  1  0.26697200  0.46237300  0.16146100  1
  O  O14  1  0.23302800  0.46237300  0.66146100  1
  O  O15  1  0.26697200  0.03762700  0.16146100  1
  O  O16  1  0.76697200  0.53762700  0.33853900  1
  O  O17  1  0.73302800  0.96237300  0.83853900  1
  O  O18  1  0.76697200  0.96237300  0.33853900  1
  O  O19  1  0.23302800  0.03762700  0.66146100  1
  O  O20  1  0.77199700  0.75000000  0.56049100  1
  O  O21  1  0.22800300  0.25000000  0.43950900  1
  O  O22  1  0.27199700  0.25000000  0.93950900  1
  O  O23  1  0.72800300  0.75000000  0.06049100  1
  O  O24  1  0.23727300  0.75000000  0.90918600  1
  O  O25  1  0.76272700  0.25000000  0.09081400  1
  O  O26  1  0.73727300  0.25000000  0.59081400  1
  O  O27  1  0.26272700  0.75000000  0.40918600  1
