# generated using pymatgen
data_LiFeSiO4
_symmetry_space_group_name_H-M   'P 1'
_cell_length_a   5.10620500
_cell_length_b   8.52557300
_cell_length_c   10.51099976
_cell_angle_alpha   52.05395444
_cell_angle_beta   90.00000000
_cell_angle_gamma   90.00000000
_symmetry_Int_Tables_number   1
_chemical_formula_structural   LiFeSiO4
_chemical_formula_sum   'Li4 Fe4 Si4 O16'
_cell_volume   360.84210253
_cell_formula_units_Z   4
loop_
 _symmetry_equiv_pos_site_id
 _symmetry_equiv_pos_as_xyz
  1  'x, y, z'
loop_
 _atom_site_type_symbol
 _atom_site_label
 _atom_site_symmetry_multiplicity
 _atom_site_fract_x
 _atom_site_fract_y
 _atom_site_fract_z
 _atom_site_occupancy
  Li  Li0  1  0.92937200  0.99522900  0.15688700  1
  Li  Li1  1  0.07062800  0.99522900  0.65688700  1
  Li  Li2  1  0.55533300  0.50068100  0.09979400  1
  Li  Li3  1  0.44466700  0.50068100  0.59979400  1
  Fe  Fe4  1  0.56793100  0.00344400  0.83951600  1
  Fe  Fe5  1  0.43206900  0.00344400  0.33951600  1
  Fe  Fe6  1  0.93398500  0.50149100  0.90445400  1
  Fe  Fe7  1  0.06601500  0.50149100  0.40445400  1
  Si  Si8  1  0.93140400  0.75068300  0.53035300  1
  Si  Si9  1  0.06859600  0.75068300  0.03035300  1
  Si  Si10  1  0.56788300  0.24928200  0.46917400  1
  Si  Si11  1  0.43211700  0.24928200  0.96917400  1
  O  O12  1  0.56677800  0.45033700  0.93026300  1
  O  O13  1  0.43322200  0.45033700  0.43026300  1
  O  O14  1  0.95931000  0.55082300  0.05712500  1
  O  O15  1  0.04069000  0.55082300  0.55712500  1
  O  O16  1  0.88710700  0.26154700  0.48392300  1
  O  O17  1  0.11289300  0.26154700  0.98392300  1
  O  O18  1  0.61155100  0.76631700  0.50386000  1
  O  O19  1  0.38844900  0.76631700  0.00386000  1
  O  O20  1  0.06742100  0.94635300  0.36564600  1
  O  O21  1  0.93257900  0.94635300  0.86564600  1
  O  O22  1  0.45388900  0.05464100  0.64407600  1
  O  O23  1  0.54611100  0.05464100  0.14407600  1
  O  O24  1  0.99303900  0.73461600  0.19068800  1
  O  O25  1  0.00696100  0.73461600  0.69068800  1
  O  O26  1  0.50424800  0.23455500  0.82424100  1
  O  O27  1  0.49575200  0.23455500  0.32424100  1
