# generated using pymatgen
data_KLi3Ca7Ti2(Si6O19)2
_symmetry_space_group_name_H-M   'P 1'
_cell_length_a   9.88278287
_cell_length_b   9.88278287
_cell_length_c   21.12183535
_cell_angle_alpha   70.68065588
_cell_angle_beta   70.68065588
_cell_angle_gamma   59.82489188
_symmetry_Int_Tables_number   1
_chemical_formula_structural   KLi3Ca7Ti2(Si6O19)2
_chemical_formula_sum   'K2 Li6 Ca14 Ti4 Si24 O76'
_cell_volume   1648.40065250
_cell_formula_units_Z   2
loop_
 _symmetry_equiv_pos_site_id
 _symmetry_equiv_pos_as_xyz
  1  'x, y, z'
loop_
 _atom_site_type_symbol
 _atom_site_label
 _atom_site_symmetry_multiplicity
 _atom_site_fract_x
 _atom_site_fract_y
 _atom_site_fract_z
 _atom_site_occupancy
  K  K0  1  0.07086600  0.92913400  0.25000000  1
  K  K1  1  0.92913400  0.07086600  0.75000000  1
  Li  Li2  1  0.07084300  0.43485900  0.24940600  1
  Li  Li3  1  0.92915700  0.56514100  0.75059400  1
  Li  Li4  1  0.56514100  0.92915700  0.25059400  1
  Li  Li5  1  0.43485900  0.07084300  0.74940600  1
  Li  Li6  1  0.58292100  0.41707900  0.25000000  1
  Li  Li7  1  0.41707900  0.58292100  0.75000000  1
  Ca  Ca8  1  0.00000000  0.00000000  0.50000000  1
  Ca  Ca9  1  0.00000000  0.00000000  0.00000000  1
  Ca  Ca10  1  0.70453800  0.85298400  0.51260500  1
  Ca  Ca11  1  0.29546200  0.14701600  0.48739500  1
  Ca  Ca12  1  0.56682400  0.28838400  0.50012400  1
  Ca  Ca13  1  0.43317600  0.71161600  0.49987600  1
  Ca  Ca14  1  0.85991300  0.43205900  0.49335400  1
  Ca  Ca15  1  0.14008700  0.56794100  0.50664600  1
  Ca  Ca16  1  0.14701600  0.29546200  0.98739500  1
  Ca  Ca17  1  0.85298400  0.70453800  0.01260500  1
  Ca  Ca18  1  0.56794100  0.14008700  0.00664600  1
  Ca  Ca19  1  0.43205900  0.85991300  0.99335400  1
  Ca  Ca20  1  0.28838400  0.56682400  0.00012400  1
  Ca  Ca21  1  0.71161600  0.43317600  0.99987600  1
  Ti  Ti22  1  0.40470800  0.26456300  0.24829500  1
  Ti  Ti23  1  0.59529200  0.73543700  0.75170500  1
  Ti  Ti24  1  0.73543700  0.59529200  0.25170500  1
  Ti  Ti25  1  0.26456300  0.40470800  0.74829500  1
  Si  Si26  1  0.89215800  0.24543200  0.36016200  1
  Si  Si27  1  0.10784200  0.75456800  0.63983800  1
  Si  Si28  1  0.26570400  0.99656200  0.35952500  1
  Si  Si29  1  0.73429600  0.00343800  0.64047500  1
  Si  Si30  1  0.38836800  0.62913000  0.36084500  1
  Si  Si31  1  0.61163200  0.37087000  0.63915500  1
  Si  Si32  1  0.14192500  0.51068300  0.35922900  1
  Si  Si33  1  0.85807500  0.48931700  0.64077100  1
  Si  Si34  1  0.76988800  0.75357900  0.36220700  1
  Si  Si35  1  0.23011200  0.24642100  0.63779300  1
  Si  Si36  1  0.65125300  0.12033600  0.36062600  1
  Si  Si37  1  0.34874700  0.87966400  0.63937400  1
  Si  Si38  1  0.62913000  0.38836800  0.86084500  1
  Si  Si39  1  0.37087000  0.61163200  0.13915500  1
  Si  Si40  1  0.99656200  0.26570400  0.85952500  1
  Si  Si41  1  0.00343800  0.73429600  0.14047500  1
  Si  Si42  1  0.24543200  0.89215800  0.86016200  1
  Si  Si43  1  0.75456800  0.10784200  0.13983800  1
  Si  Si44  1  0.12033600  0.65125300  0.86062600  1
  Si  Si45  1  0.87966400  0.34874700  0.13937400  1
  Si  Si46  1  0.75357900  0.76988800  0.86220700  1
  Si  Si47  1  0.24642100  0.23011200  0.13779300  1
  Si  Si48  1  0.51068300  0.14192500  0.85922900  1
  Si  Si49  1  0.48931700  0.85807500  0.14077100  1
  O  O50  1  0.79447200  0.17576800  0.34069800  1
  O  O51  1  0.20552800  0.82423200  0.65930200  1
  O  O52  1  0.88498400  0.40754600  0.30607400  1
  O  O53  1  0.11501600  0.59245400  0.69392600  1
  O  O54  1  0.83110900  0.26428100  0.44012900  1
  O  O55  1  0.16889100  0.73571900  0.55987100  1
  O  O56  1  0.07753700  0.10174100  0.35109500  1
  O  O57  1  0.92246300  0.89825900  0.64890500  1
  O  O58  1  0.37774700  0.07460000  0.30417300  1
  O  O59  1  0.62225300  0.92540000  0.69582700  1
  O  O60  1  0.27135700  0.97251400  0.43904300  1
  O  O61  1  0.72864300  0.02748600  0.56095700  1
  O  O62  1  0.32211600  0.82444800  0.34099900  1
  O  O63  1  0.67788400  0.17555200  0.65900100  1
  O  O64  1  0.55538000  0.54824000  0.30875800  1
  O  O65  1  0.44462000  0.45176000  0.69124200  1
  O  O66  1  0.39915200  0.55833700  0.44190800  1
  O  O67  1  0.60084800  0.44166300  0.55809200  1
  O  O68  1  0.24819900  0.60715000  0.34511500  1
  O  O69  1  0.75180100  0.39285000  0.65488500  1
  O  O70  1  0.21224500  0.39900600  0.30407300  1
  O  O71  1  0.78775500  0.60099400  0.69592700  1
  O  O72  1  0.12575600  0.41634700  0.43898700  1
  O  O73  1  0.87424400  0.58365300  0.56101300  1
  O  O74  1  0.96502200  0.65028000  0.34474100  1
  O  O75  1  0.03497800  0.34972000  0.65525900  1
  O  O76  1  0.69213100  0.73726200  0.31024700  1
  O  O77  1  0.30786900  0.26273800  0.68975300  1
  O  O78  1  0.69642400  0.70107500  0.44298800  1
  O  O79  1  0.30357600  0.29892500  0.55701200  1
  O  O80  1  0.74445000  0.93913800  0.34473500  1
  O  O81  1  0.25555000  0.06086200  0.65526500  1
  O  O82  1  0.53201500  0.24199700  0.30824100  1
  O  O83  1  0.46798500  0.75800300  0.69175900  1
  O  O84  1  0.56380000  0.11705100  0.44139300  1
  O  O85  1  0.43620000  0.88294900  0.55860700  1
  O  O86  1  0.60715000  0.24819900  0.84511500  1
  O  O87  1  0.39285000  0.75180100  0.15488500  1
  O  O88  1  0.54824000  0.55538000  0.80875800  1
  O  O89  1  0.45176000  0.44462000  0.19124200  1
  O  O90  1  0.55833700  0.39915200  0.94190800  1
  O  O91  1  0.44166300  0.60084800  0.05809200  1
  O  O92  1  0.82444800  0.32211600  0.84099900  1
  O  O93  1  0.17555200  0.67788400  0.15900100  1
  O  O94  1  0.07460000  0.37774700  0.80417300  1
  O  O95  1  0.92540000  0.62225300  0.19582700  1
  O  O96  1  0.97251400  0.27135700  0.93904300  1
  O  O97  1  0.02748600  0.72864300  0.06095700  1
  O  O98  1  0.10174100  0.07753700  0.85109500  1
  O  O99  1  0.89825900  0.92246300  0.14890500  1
  O  O100  1  0.40754600  0.88498400  0.80607400  1
  O  O101  1  0.59245400  0.11501600  0.19392600  1
  O  O102  1  0.26428100  0.83110900  0.94012900  1
  O  O103  1  0.73571900  0.16889100  0.05987100  1
  O  O104  1  0.17576800  0.79447200  0.84069800  1
  O  O105  1  0.82423200  0.20552800  0.15930200  1
  O  O106  1  0.24199700  0.53201500  0.80824100  1
  O  O107  1  0.75800300  0.46798500  0.19175900  1
  O  O108  1  0.11705100  0.56380000  0.94139300  1
  O  O109  1  0.88294900  0.43620000  0.05860700  1
  O  O110  1  0.93913800  0.74445000  0.84473500  1
  O  O111  1  0.06086200  0.25555000  0.15526500  1
  O  O112  1  0.73726200  0.69213100  0.81024700  1
  O  O113  1  0.26273800  0.30786900  0.18975300  1
  O  O114  1  0.70107500  0.69642400  0.94298800  1
  O  O115  1  0.29892500  0.30357600  0.05701200  1
  O  O116  1  0.65028000  0.96502200  0.84474100  1
  O  O117  1  0.34972000  0.03497800  0.15525900  1
  O  O118  1  0.39900600  0.21224500  0.80407300  1
  O  O119  1  0.60099400  0.78775500  0.19592700  1
  O  O120  1  0.41634700  0.12575600  0.93898700  1
  O  O121  1  0.58365300  0.87424400  0.06101300  1
  O  O122  1  0.03437300  0.17235900  0.53965900  1
  O  O123  1  0.96562700  0.82764100  0.46034100  1
  O  O124  1  0.17235900  0.03437300  0.03965900  1
  O  O125  1  0.82764100  0.96562700  0.96034100  1
