# generated using pymatgen
data_LiScRh2
_symmetry_space_group_name_H-M   'P 1'
_cell_length_a   10.51172667
_cell_length_b   10.51172667
_cell_length_c   10.51172667
_cell_angle_alpha   126.40936086
_cell_angle_beta   117.92804765
_cell_angle_gamma   86.45038980
_symmetry_Int_Tables_number   1
_chemical_formula_structural   LiScRh2
_chemical_formula_sum   'Li1 Sc1 Rh2'
_cell_volume   786.85155951
_cell_formula_units_Z   1
loop_
 _symmetry_equiv_pos_site_id
 _symmetry_equiv_pos_as_xyz
  1  'x, y, z'
loop_
 _atom_site_type_symbol
 _atom_site_label
 _atom_site_symmetry_multiplicity
 _atom_site_fract_x
 _atom_site_fract_y
 _atom_site_fract_z
 _atom_site_occupancy
  Li  Li0  1  0.00000000  0.00000000  0.00000000  1
  Sc  Sc1  1  0.00000000  0.50000000  0.50000000  1
  Rh  Rh2  1  0.00000000  0.26907400  0.26907400  1
  Rh  Rh3  1  0.00000000  0.73092600  0.73092600  1
