# generated using pymatgen
data_Li2TiCrO4
_symmetry_space_group_name_H-M   'P 1'
_cell_length_a   5.92290644
_cell_length_b   8.71427879
_cell_length_c   5.92285752
_cell_angle_alpha   89.05530692
_cell_angle_beta   90.05003998
_cell_angle_gamma   89.05108956
_symmetry_Int_Tables_number   1
_chemical_formula_structural   Li2TiCrO4
_chemical_formula_sum   'Li8 Ti4 Cr4 O16'
_cell_volume   305.61785554
_cell_formula_units_Z   4
loop_
 _symmetry_equiv_pos_site_id
 _symmetry_equiv_pos_as_xyz
  1  'x, y, z'
loop_
 _atom_site_type_symbol
 _atom_site_label
 _atom_site_symmetry_multiplicity
 _atom_site_fract_x
 _atom_site_fract_y
 _atom_site_fract_z
 _atom_site_occupancy
  Li  Li0  1  0.25360700  0.25741800  0.74982800  1
  Li  Li1  1  0.75858100  0.75199000  0.24777400  1
  Li  Li2  1  0.00023400  0.99269400  0.49630200  1
  Li  Li3  1  0.50227600  0.49801400  0.99135900  1
  Li  Li4  1  0.25543000  0.25605100  0.25042600  1
  Li  Li5  1  0.74835900  0.74521900  0.75375900  1
  Li  Li6  1  0.49953800  0.99390400  0.49459300  1
  Li  Li7  1  0.99609900  0.50474300  0.00154000  1
  Ti  Ti8  1  0.74963800  0.24621200  0.76072600  1
  Ti  Ti9  1  0.25934700  0.74351200  0.24646400  1
  Ti  Ti10  1  0.98932000  0.00384900  0.00034400  1
  Ti  Ti11  1  0.50369100  0.50654600  0.49059600  1
  Cr  Cr12  1  0.99790400  0.50131000  0.50443900  1
  Cr  Cr13  1  0.24490700  0.74864800  0.75236200  1
  Cr  Cr14  1  0.49450800  0.99623700  0.99401800  1
  Cr  Cr15  1  0.75641100  0.25369300  0.25600600  1
  O  O16  1  0.75930600  0.98609000  0.22600200  1
  O  O17  1  0.25208300  0.51343700  0.73194600  1
  O  O18  1  0.52414400  0.26386600  0.99085500  1
  O  O19  1  0.01793800  0.73661700  0.49786200  1
  O  O20  1  0.98998800  0.26727400  0.51625200  1
  O  O21  1  0.47471500  0.73253400  0.00593500  1
  O  O22  1  0.74408300  0.51748500  0.27504100  1
  O  O23  1  0.23385500  0.98277200  0.76019000  1
  O  O24  1  0.00165000  0.23793000  0.00066200  1
  O  O25  1  0.48335800  0.74380800  0.50783300  1
  O  O26  1  0.74941800  0.01203500  0.74821100  1
  O  O27  1  0.24226000  0.50612100  0.26634500  1
  O  O28  1  0.75099400  0.49282100  0.73700400  1
  O  O29  1  0.24274900  0.98033400  0.23891700  1
  O  O30  1  0.51099800  0.26967900  0.50733300  1
  O  O31  1  0.01261400  0.75715600  0.99907900  1
