# generated using pymatgen
data_Li9Mn21O40
_symmetry_space_group_name_H-M   'P 1'
_cell_length_a   5.98781645
_cell_length_b   5.98558447
_cell_length_c   21.48813655
_cell_angle_alpha   97.52776989
_cell_angle_beta   82.46905047
_cell_angle_gamma   86.59724262
_symmetry_Int_Tables_number   1
_chemical_formula_structural   Li9Mn21O40
_chemical_formula_sum   'Li9 Mn21 O40'
_cell_volume   754.62603309
_cell_formula_units_Z   1
loop_
 _symmetry_equiv_pos_site_id
 _symmetry_equiv_pos_as_xyz
  1  'x, y, z'
loop_
 _atom_site_type_symbol
 _atom_site_label
 _atom_site_symmetry_multiplicity
 _atom_site_fract_x
 _atom_site_fract_y
 _atom_site_fract_z
 _atom_site_occupancy
  Li  Li0  1  0.97644473  0.77355527  0.04711155  1
  Li  Li1  1  0.37355315  0.37644685  0.25289270  1
  Li  Li2  1  0.82580048  0.42419952  0.34839805  1
  Li  Li3  1  0.77291268  0.97708732  0.45417565  1
  Li  Li4  1  0.22565807  0.02434193  0.54868385  1
  Li  Li5  1  0.57708050  0.17291950  0.84583799  1
  Li  Li6  1  0.17500362  0.57499638  0.64999277  1
  Li  Li7  1  0.62436852  0.62563148  0.75126296  1
  Li  Li8  1  0.02422249  0.22577751  0.95155603  1
  Mn  Mn9  1  0.49929701  0.00081140  0.99758657  1
  Mn  Mn10  1  0.89806179  0.10400723  0.20085541  1
  Mn  Mn11  1  0.50311642  0.49677517  0.99758657  1
  Mn  Mn12  1  0.70409855  0.29814401  0.09920381  1
  Mn  Mn13  1  0.19669764  0.30105980  0.09920381  1
  Mn  Mn14  1  0.90108279  0.59684818  0.20085541  1
  Mn  Mn15  1  0.42500465  0.82499535  0.14999071  1
  Mn  Mn16  1  0.29910690  0.20074801  0.40133208  1
  Mn  Mn17  1  0.60068185  0.89921205  0.30244303  1
  Mn  Mn18  1  0.90254538  0.09793167  0.69932200  1
  Mn  Mn19  1  0.69796522  0.30251318  0.60066547  1
  Mn  Mn20  1  0.29956202  0.70058406  0.40133208  1
  Mn  Mn21  1  0.49926676  0.49989783  0.50088628  1
  Mn  Mn22  1  0.09687512  0.90323098  0.30244303  1
  Mn  Mn23  1  0.70136931  0.79815129  0.60066547  1
  Mn  Mn24  1  0.39813162  0.10139034  0.69932200  1
  Mn  Mn25  1  0.99984696  0.50098845  0.50088628  1
  Mn  Mn26  1  0.80073268  0.69910669  0.89867120  1
  Mn  Mn27  1  0.10102609  0.39984971  0.79908219  1
  Mn  Mn28  1  0.09989173  0.89923248  0.79908219  1
  Mn  Mn29  1  0.30059612  0.69956551  0.89867120  1
  O  O30  1  0.94392391  0.07312462  0.10636561  1
  O  O31  1  0.72510878  0.25884248  0.00536940  1
  O  O32  1  0.94971048  0.53324199  0.10636561  1
  O  O33  1  0.26952182  0.24652692  0.00536940  1
  O  O34  1  0.44861869  0.07119397  0.09483019  1
  O  O35  1  0.85888569  0.12512516  0.29467548  1
  O  O36  1  0.45655112  0.52363522  0.09483019  1
  O  O37  1  0.67313337  0.34392415  0.19366677  1
  O  O38  1  0.13320086  0.34974262  0.19366677  1
  O  O39  1  0.67108220  0.84859514  0.20517047  1
  O  O40  1  0.35604974  0.13262810  0.30954595  1
  O  O41  1  0.84643882  0.66955032  0.29467548  1
  O  O42  1  0.33440432  0.67691685  0.30954595  1
  O  O43  1  0.12374633  0.85657533  0.20517047  1
  O  O44  1  0.51363503  0.43953780  0.40356369  1
  O  O45  1  0.73293563  0.27366915  0.50899617  1
  O  O46  1  0.91835697  0.04885041  0.60621778  1
  O  O47  1  0.92016342  0.54036668  0.59803683  1
  O  O48  1  0.51562384  0.93791646  0.39940475  1
  O  O49  1  0.75806720  0.73532802  0.50899617  1
  O  O50  1  0.08280128  0.46402589  0.40356369  1
  O  O51  1  0.47542525  0.05736837  0.60621778  1
  O  O52  1  0.24042237  0.26672453  0.49307530  1
  O  O53  1  0.87372334  0.13289055  0.79098141  1
  O  O54  1  0.48180075  0.55766915  0.59803683  1
  O  O55  1  0.08497142  0.96148829  0.39940475  1
  O  O56  1  0.26650233  0.72635076  0.49307530  1
  O  O57  1  0.64904662  0.31840383  0.69373730  1
  O  O58  1  0.86668358  0.64047356  0.80692007  1
  O  O59  1  0.33529625  0.15808986  0.79098141  1
  O  O60  1  0.65721708  0.87533347  0.69373730  1
  O  O61  1  0.14045722  0.32032135  0.70194826  1
  O  O62  1  0.56148426  0.48491946  0.90062533  1
  O  O63  1  0.15759351  0.88162791  0.70194826  1
  O  O64  1  0.32639634  0.66644651  0.80692007  1
  O  O65  1  0.06403232  0.48276353  0.89641012  1
  O  O66  1  0.73257996  0.75603988  0.99045996  1
  O  O67  1  0.53789041  0.91570587  0.90062533  1
  O  O68  1  0.27695908  0.73442008  0.99045996  1
  O  O69  1  0.03955756  0.91364659  0.89641012  1
