# generated using pymatgen
data_Li9Mn2Co5O16
_symmetry_space_group_name_H-M   'P 1'
_cell_length_a   5.84412200
_cell_length_b   7.71200558
_cell_length_c   7.73911519
_cell_angle_alpha   66.98663280
_cell_angle_beta   67.82546841
_cell_angle_gamma   67.97720258
_symmetry_Int_Tables_number   1
_chemical_formula_structural   Li9Mn2Co5O16
_chemical_formula_sum   'Li9 Mn2 Co5 O16'
_cell_volume   286.51854396
_cell_formula_units_Z   1
loop_
 _symmetry_equiv_pos_site_id
 _symmetry_equiv_pos_as_xyz
  1  'x, y, z'
loop_
 _atom_site_type_symbol
 _atom_site_label
 _atom_site_symmetry_multiplicity
 _atom_site_fract_x
 _atom_site_fract_y
 _atom_site_fract_z
 _atom_site_occupancy
  Li  Li0  1  0.00000000  0.50000000  0.00000000  1
  Li  Li1  1  0.50000000  0.00000000  0.50000000  1
  Li  Li2  1  0.62372900  0.37959700  0.36556400  1
  Li  Li3  1  0.12844000  0.86986400  0.88180100  1
  Li  Li4  1  0.25423900  0.24747100  0.75145400  1
  Li  Li5  1  0.74576100  0.75252900  0.24854600  1
  Li  Li6  1  0.87156000  0.13013600  0.11819900  1
  Li  Li7  1  0.37627100  0.62040300  0.63443600  1
  Li  Li8  1  0.50000000  0.50000000  0.00000000  1
  Mn  Mn9  1  0.87405800  0.62097000  0.62955000  1
  Mn  Mn10  1  0.12594200  0.37903000  0.37045000  1
  Co  Co11  1  0.37582400  0.13212100  0.11389100  1
  Co  Co12  1  0.00000000  0.00000000  0.50000000  1
  Co  Co13  1  0.62417600  0.86787900  0.88610900  1
  Co  Co14  1  0.74974400  0.25214700  0.74997900  1
  Co  Co15  1  0.25025600  0.74785300  0.25002100  1
  O  O16  1  0.99460900  0.74187000  0.74405000  1
  O  O17  1  0.47072500  0.24391500  0.25796100  1
  O  O18  1  0.59490800  0.64339600  0.12838400  1
  O  O19  1  0.10384800  0.15039200  0.60811100  1
  O  O20  1  0.22713900  0.49366200  0.50365000  1
  O  O21  1  0.74681200  0.99482000  0.99522700  1
  O  O22  1  0.86539900  0.39029900  0.84882300  1
  O  O23  1  0.34581200  0.88110900  0.37048000  1
  O  O24  1  0.00539100  0.25813000  0.25595000  1
  O  O25  1  0.52927500  0.75608500  0.74203900  1
  O  O26  1  0.65418800  0.11889100  0.62952000  1
  O  O27  1  0.13460100  0.60970100  0.15117700  1
  O  O28  1  0.25318800  0.00518000  0.00477300  1
  O  O29  1  0.77286100  0.50633800  0.49635000  1
  O  O30  1  0.89615200  0.84960800  0.39188900  1
  O  O31  1  0.40509200  0.35660400  0.87161600  1
