# generated using pymatgen
data_Li3V3P8O29
_symmetry_space_group_name_H-M   'P 1'
_cell_length_a   9.76844807
_cell_length_b   9.76844807
_cell_length_c   14.55553335
_cell_angle_alpha   89.52195486
_cell_angle_beta   89.52195486
_cell_angle_gamma   60.12395291
_symmetry_Int_Tables_number   1
_chemical_formula_structural   Li3V3P8O29
_chemical_formula_sum   'Li6 V6 P16 O58'
_cell_volume   1204.28925657
_cell_formula_units_Z   2
loop_
 _symmetry_equiv_pos_site_id
 _symmetry_equiv_pos_as_xyz
  1  'x, y, z'
loop_
 _atom_site_type_symbol
 _atom_site_label
 _atom_site_symmetry_multiplicity
 _atom_site_fract_x
 _atom_site_fract_y
 _atom_site_fract_z
 _atom_site_occupancy
  Li  Li0  1  0.32207300  0.91112900  0.55465600  1
  Li  Li1  1  0.91112900  0.32207300  0.05465600  1
  Li  Li2  1  0.77289700  0.90750900  0.05943800  1
  Li  Li3  1  0.90750900  0.77289700  0.55943800  1
  Li  Li4  1  0.06954900  0.94712600  0.01092200  1
  Li  Li5  1  0.94712600  0.06954900  0.51092200  1
  V  V6  1  0.99820900  0.43737400  0.25300400  1
  V  V7  1  0.00100100  0.56037600  0.74716000  1
  V  V8  1  0.43737400  0.99820900  0.75300400  1
  V  V9  1  0.56037600  0.00100100  0.24716000  1
  V  V10  1  0.43941300  0.56248500  0.24761900  1
  V  V11  1  0.56248500  0.43941300  0.74761900  1
  P  P12  1  0.30383600  0.77634800  0.84072800  1
  P  P13  1  0.31294300  0.90942400  0.34009700  1
  P  P14  1  0.77634800  0.30383600  0.34072800  1
  P  P15  1  0.67166100  0.66438600  0.13273000  1
  P  P16  1  0.66438600  0.67166100  0.63273000  1
  P  P17  1  0.90942400  0.31294300  0.84009700  1
  P  P18  1  0.08650000  0.21645300  0.66255500  1
  P  P19  1  0.77691900  0.90798900  0.84269000  1
  P  P20  1  0.21645300  0.08650000  0.16255500  1
  P  P21  1  0.90798900  0.77691900  0.34269000  1
  P  P22  1  0.08764300  0.69557700  0.16722600  1
  P  P23  1  0.33363900  0.33304900  0.36149900  1
  P  P24  1  0.33304900  0.33363900  0.86149900  1
  P  P25  1  0.22101200  0.69607700  0.66028400  1
  P  P26  1  0.69557700  0.08764300  0.66722600  1
  P  P27  1  0.69607700  0.22101200  0.16028400  1
  O  O28  1  0.21246200  0.79628600  0.58078000  1
  O  O29  1  0.34611800  0.73861700  0.32688100  1
  O  O30  1  0.19621600  0.00590200  0.08309900  1
  O  O31  1  0.34471800  0.91128800  0.82632300  1
  O  O32  1  0.45899500  0.61673500  0.82711200  1
  O  O33  1  0.52671200  0.66312000  0.18008800  1
  O  O34  1  0.61673500  0.45899500  0.32711200  1
  O  O35  1  0.79628600  0.21246200  0.08078000  1
  O  O36  1  0.73861700  0.34611800  0.82688100  1
  O  O37  1  0.51462400  0.81896500  0.67491000  1
  O  O38  1  0.47099900  0.90973300  0.32007600  1
  O  O39  1  0.66312000  0.52671200  0.68008800  1
  O  O40  1  0.67665900  0.65713100  0.03096000  1
  O  O41  1  0.65713100  0.67665900  0.53096000  1
  O  O42  1  0.81896500  0.51462400  0.17491000  1
  O  O43  1  0.61910200  0.90839800  0.82521800  1
  O  O44  1  0.67183300  0.81555800  0.16967400  1
  O  O45  1  0.91128800  0.34471800  0.32632300  1
  O  O46  1  0.01187000  0.19588400  0.75845900  1
  O  O47  1  0.00590200  0.19621600  0.58309900  1
  O  O48  1  0.97727900  0.24307000  0.93061900  1
  O  O49  1  0.90973300  0.47099900  0.82007600  1
  O  O50  1  0.81555800  0.67183300  0.66967400  1
  O  O51  1  0.08344000  0.26339300  0.16526400  1
  O  O52  1  0.90839800  0.61910200  0.32521800  1
  O  O53  1  0.73901500  0.91573500  0.32250900  1
  O  O54  1  0.19588400  0.01187000  0.25845900  1
  O  O55  1  0.24307000  0.97727900  0.43061900  1
  O  O56  1  0.80280800  0.99887100  0.58928700  1
  O  O57  1  0.26339300  0.08344000  0.66526400  1
  O  O58  1  0.07639400  0.38043100  0.67113500  1
  O  O59  1  0.91573500  0.73901500  0.82250900  1
  O  O60  1  0.18282100  0.33733900  0.31866600  1
  O  O61  1  0.07697000  0.54308200  0.17521500  1
  O  O62  1  0.99887100  0.80280800  0.08928700  1
  O  O63  1  0.96596300  0.78691600  0.43467300  1
  O  O64  1  0.01705100  0.78862400  0.26356100  1
  O  O65  1  0.08520000  0.65584900  0.65912200  1
  O  O66  1  0.33733900  0.18282100  0.81866600  1
  O  O67  1  0.38043100  0.07639400  0.17113500  1
  O  O68  1  0.18384300  0.47657900  0.81364200  1
  O  O69  1  0.32588500  0.33683800  0.96254400  1
  O  O70  1  0.33683800  0.32588500  0.46254400  1
  O  O71  1  0.33621300  0.47758800  0.31689500  1
  O  O72  1  0.54308200  0.07697000  0.67521500  1
  O  O73  1  0.47657900  0.18384300  0.31364200  1
  O  O74  1  0.26301000  0.65312800  0.16803300  1
  O  O75  1  0.19432700  0.79338300  0.75404400  1
  O  O76  1  0.21383200  0.79660400  0.92590700  1
  O  O77  1  0.38124400  0.54046800  0.67252400  1
  O  O78  1  0.47758800  0.33621300  0.81689500  1
  O  O79  1  0.54046800  0.38124400  0.17252400  1
  O  O80  1  0.65584900  0.08520000  0.15912200  1
  O  O81  1  0.78691600  0.96596300  0.93467300  1
  O  O82  1  0.78862400  0.01705100  0.76356100  1
  O  O83  1  0.65312800  0.26301000  0.66803300  1
  O  O84  1  0.79660400  0.21383200  0.42590700  1
  O  O85  1  0.79338300  0.19432700  0.25404400  1
