# generated using pymatgen
data_LiV3O4
_symmetry_space_group_name_H-M   'P 1'
_cell_length_a   4.33315900
_cell_length_b   7.90890172
_cell_length_c   5.26153035
_cell_angle_alpha   90.62071696
_cell_angle_beta   114.31489379
_cell_angle_gamma   74.10296688
_symmetry_Int_Tables_number   1
_chemical_formula_structural   LiV3O4
_chemical_formula_sum   'Li2 V6 O8'
_cell_volume   156.96359953
_cell_formula_units_Z   2
loop_
 _symmetry_equiv_pos_site_id
 _symmetry_equiv_pos_as_xyz
  1  'x, y, z'
loop_
 _atom_site_type_symbol
 _atom_site_label
 _atom_site_symmetry_multiplicity
 _atom_site_fract_x
 _atom_site_fract_y
 _atom_site_fract_z
 _atom_site_occupancy
  Li  Li0  1  0.99999400  0.00000400  0.00001200  1
  Li  Li1  1  0.50000600  0.49999600  0.49998800  1
  V  V2  1  0.75000000  0.75000000  0.25000000  1
  V  V3  1  0.63130700  0.11765800  0.38022700  1
  V  V4  1  0.86869300  0.38234200  0.11977300  1
  V  V5  1  0.25000000  0.25000000  0.75000000  1
  V  V6  1  0.13130100  0.61765800  0.88022500  1
  V  V7  1  0.36870000  0.88234200  0.61977500  1
  O  O8  1  0.50006000  0.00000700  0.00000500  1
  O  O9  1  0.99994000  0.49999300  0.49999500  1
  O  O10  1  0.75000000  0.25000000  0.75000000  1
  O  O11  1  0.25000000  0.75000000  0.25000000  1
  O  O12  1  0.62032200  0.63341900  0.87402400  1
  O  O13  1  0.12032500  0.13343200  0.37402000  1
  O  O14  1  0.37967400  0.36656800  0.12598000  1
  O  O15  1  0.87967900  0.86658100  0.62597600  1
