# generated using pymatgen
data_Li5Mn3Cu(PO4)4
_symmetry_space_group_name_H-M   'P 1'
_cell_length_a   4.87203200
_cell_length_b   6.26808428
_cell_length_c   10.57843289
_cell_angle_alpha   92.38356220
_cell_angle_beta   91.08962129
_cell_angle_gamma   90.25127434
_symmetry_Int_Tables_number   1
_chemical_formula_structural   Li5Mn3Cu(PO4)4
_chemical_formula_sum   'Li5 Mn3 Cu1 P4 O16'
_cell_volume   322.70523571
_cell_formula_units_Z   1
loop_
 _symmetry_equiv_pos_site_id
 _symmetry_equiv_pos_as_xyz
  1  'x, y, z'
loop_
 _atom_site_type_symbol
 _atom_site_label
 _atom_site_symmetry_multiplicity
 _atom_site_fract_x
 _atom_site_fract_y
 _atom_site_fract_z
 _atom_site_occupancy
  Li  Li0  1  0.98568500  0.51412200  0.97945800  1
  Li  Li1  1  0.99319100  0.99098800  0.98799800  1
  Li  Li2  1  0.60591000  0.47532000  0.38410700  1
  Li  Li3  1  0.52655500  0.98081400  0.49666000  1
  Li  Li4  1  0.37172300  0.55377400  0.64297800  1
  Mn  Mn5  1  0.52830100  0.76641100  0.20328100  1
  Mn  Mn6  1  0.05533200  0.23279800  0.27698900  1
  Mn  Mn7  1  0.47729200  0.22467800  0.78811400  1
  Cu  Cu8  1  0.89429900  0.76801700  0.70840100  1
  P  P9  1  0.89831900  0.25962900  0.59329000  1
  P  P10  1  0.59744800  0.25151100  0.09724000  1
  P  P11  1  0.41133600  0.74442100  0.90673900  1
  P  P12  1  0.10837900  0.74774900  0.40293000  1
  O  O13  1  0.80380800  0.24316900  0.45048700  1
  O  O14  1  0.76282300  0.06273400  0.65660200  1
  O  O15  1  0.76039100  0.45836700  0.65967800  1
  O  O16  1  0.79180000  0.75109500  0.38985500  1
  O  O17  1  0.72703800  0.75301000  0.91922700  1
  O  O18  1  0.73568900  0.05376900  0.15984600  1
  O  O19  1  0.71063000  0.44667500  0.18104700  1
  O  O20  1  0.72050600  0.26210700  0.96292400  1
  O  O21  1  0.27491100  0.73644400  0.03997600  1
  O  O22  1  0.30455600  0.54123800  0.82977600  1
  O  O23  1  0.28703500  0.94426200  0.84405900  1
  O  O24  1  0.28263900  0.23754100  0.09728900  1
  O  O25  1  0.21279300  0.26431000  0.60728100  1
  O  O26  1  0.24328500  0.94077800  0.33421300  1
  O  O27  1  0.23147000  0.54386100  0.33373900  1
  O  O28  1  0.21689500  0.76328600  0.54050700  1
