# generated using pymatgen
data_Li4Co3O7
_symmetry_space_group_name_H-M   'P 1'
_cell_length_a   16.66295512
_cell_length_b   16.66295512
_cell_length_c   5.04028624
_cell_angle_alpha   89.74776015
_cell_angle_beta   89.74776015
_cell_angle_gamma   10.33965741
_symmetry_Int_Tables_number   1
_chemical_formula_structural   Li4Co3O7
_chemical_formula_sum   'Li8 Co6 O14'
_cell_volume   251.17634715
_cell_formula_units_Z   2
loop_
 _symmetry_equiv_pos_site_id
 _symmetry_equiv_pos_as_xyz
  1  'x, y, z'
loop_
 _atom_site_type_symbol
 _atom_site_label
 _atom_site_symmetry_multiplicity
 _atom_site_fract_x
 _atom_site_fract_y
 _atom_site_fract_z
 _atom_site_occupancy
  Li  Li0  1  0.92842400  0.92842400  0.14703900  1
  Li  Li1  1  0.35730300  0.35730300  0.28670700  1
  Li  Li2  1  0.78568800  0.78568800  0.42853500  1
  Li  Li3  1  0.21431200  0.21431200  0.57146500  1
  Li  Li4  1  0.64269700  0.64269700  0.71329300  1
  Li  Li5  1  0.50000000  0.50000000  0.00000000  1
  Li  Li6  1  0.07157600  0.07157600  0.85296100  1
  Li  Li7  1  0.00000000  0.00000000  0.50000000  1
  Co  Co8  1  0.43172900  0.43172900  0.64343500  1
  Co  Co9  1  0.56827100  0.56827100  0.35656500  1
  Co  Co10  1  0.85793800  0.85793800  0.77975300  1
  Co  Co11  1  0.28611300  0.28611300  0.92928600  1
  Co  Co12  1  0.71388700  0.71388700  0.07071400  1
  Co  Co13  1  0.14206200  0.14206200  0.22024700  1
  O  O14  1  0.96163200  0.96163200  0.81246800  1
  O  O15  1  0.39405500  0.39405500  0.93098000  1
  O  O16  1  0.82235200  0.82235200  0.08680200  1
  O  O17  1  0.25019700  0.25019700  0.23028000  1
  O  O18  1  0.67880000  0.67880000  0.37501700  1
  O  O19  1  0.53976200  0.53976200  0.64471200  1
  O  O20  1  0.10713000  0.10713000  0.51699100  1
  O  O21  1  0.89287000  0.89287000  0.48300900  1
  O  O22  1  0.32120000  0.32120000  0.62498300  1
  O  O23  1  0.74980300  0.74980300  0.76972000  1
  O  O24  1  0.17764800  0.17764800  0.91319800  1
  O  O25  1  0.60594500  0.60594500  0.06902000  1
  O  O26  1  0.46023800  0.46023800  0.35528800  1
  O  O27  1  0.03836800  0.03836800  0.18753200  1
