# generated using pymatgen
data_Li2TiVO4
_symmetry_space_group_name_H-M   'P 1'
_cell_length_a   5.23394526
_cell_length_b   7.87080592
_cell_length_c   7.87102327
_cell_angle_alpha   97.83026945
_cell_angle_beta   102.45078924
_cell_angle_gamma   102.45280487
_symmetry_Int_Tables_number   1
_chemical_formula_structural   Li2TiVO4
_chemical_formula_sum   'Li8 Ti4 V4 O16'
_cell_volume   303.44448519
_cell_formula_units_Z   4
loop_
 _symmetry_equiv_pos_site_id
 _symmetry_equiv_pos_as_xyz
  1  'x, y, z'
loop_
 _atom_site_type_symbol
 _atom_site_label
 _atom_site_symmetry_multiplicity
 _atom_site_fract_x
 _atom_site_fract_y
 _atom_site_fract_z
 _atom_site_occupancy
  Li  Li0  1  0.00206500  0.62528500  0.87523900  1
  Li  Li1  1  0.99792300  0.37469400  0.12475900  1
  Li  Li2  1  0.00206900  0.87525000  0.62529000  1
  Li  Li3  1  0.99793400  0.12476000  0.37471700  1
  Li  Li4  1  0.00001500  0.00000900  0.00000500  1
  Li  Li5  1  0.00006100  0.75057000  0.24946100  1
  Li  Li6  1  0.99994600  0.24941700  0.75055000  1
  Li  Li7  1  0.99997400  0.49997800  0.49999100  1
  Ti  Ti8  1  0.50003500  0.49989500  0.00001100  1
  Ti  Ti9  1  0.49692900  0.25667600  0.25675300  1
  Ti  Ti10  1  0.50305200  0.74336600  0.74320600  1
  Ti  Ti11  1  0.49997500  0.00010700  0.50000300  1
  V  V12  1  0.49998600  0.88027200  0.11969900  1
  V  V13  1  0.50002200  0.11972100  0.88019600  1
  V  V14  1  0.49998600  0.62833700  0.37182700  1
  V  V15  1  0.49998800  0.37170000  0.62830100  1
  O  O16  1  0.72980900  0.37536200  0.88410400  1
  O  O17  1  0.73295500  0.13087700  0.13100700  1
  O  O18  1  0.73424000  0.62964500  0.62965600  1
  O  O19  1  0.72963700  0.88410100  0.37522000  1
  O  O20  1  0.26702900  0.86897000  0.86911300  1
  O  O21  1  0.27036200  0.62479200  0.11594200  1
  O  O22  1  0.27019200  0.11586900  0.62461400  1
  O  O23  1  0.26577800  0.37035300  0.37036800  1
  O  O24  1  0.73045400  0.74176400  0.99017400  1
  O  O25  1  0.73463100  0.49324800  0.24207900  1
  O  O26  1  0.73056900  0.99018100  0.74172000  1
  O  O27  1  0.73470400  0.24210300  0.49327100  1
  O  O28  1  0.26547600  0.50683800  0.75793000  1
  O  O29  1  0.26940300  0.25827100  0.00975100  1
  O  O30  1  0.26538800  0.75791600  0.50684400  1
  O  O31  1  0.26940500  0.00969500  0.25822400  1
