# generated using pymatgen
data_Li4MnCo2O7
_symmetry_space_group_name_H-M   'P 1'
_cell_length_a   2.90385600
_cell_length_b   9.76518627
_cell_length_c   9.80750404
_cell_angle_alpha   114.09908110
_cell_angle_beta   92.09478938
_cell_angle_gamma   97.44236516
_symmetry_Int_Tables_number   1
_chemical_formula_structural   Li4MnCo2O7
_chemical_formula_sum   'Li8 Mn2 Co4 O14'
_cell_volume   250.49801080
_cell_formula_units_Z   2
loop_
 _symmetry_equiv_pos_site_id
 _symmetry_equiv_pos_as_xyz
  1  'x, y, z'
loop_
 _atom_site_type_symbol
 _atom_site_label
 _atom_site_symmetry_multiplicity
 _atom_site_fract_x
 _atom_site_fract_y
 _atom_site_fract_z
 _atom_site_occupancy
  Li  Li0  1  0.85922500  0.72741100  0.93920100  1
  Li  Li1  1  0.14077500  0.27258900  0.06079900  1
  Li  Li2  1  0.43958000  0.85916600  0.20752600  1
  Li  Li3  1  0.71048000  0.42695400  0.35628300  1
  Li  Li4  1  0.00000000  0.00000000  0.50000000  1
  Li  Li5  1  0.28952000  0.57304600  0.64371700  1
  Li  Li6  1  0.56042000  0.14083400  0.79247400  1
  Li  Li7  1  0.50000000  0.00000000  0.00000000  1
  Mn  Mn8  1  0.92865200  0.86652800  0.72451200  1
  Mn  Mn9  1  0.07134800  0.13347200  0.27548800  1
  Co  Co10  1  0.21542500  0.42875700  0.85681100  1
  Co  Co11  1  0.78457500  0.57124300  0.14318900  1
  Co  Co12  1  0.34740500  0.71280600  0.42885900  1
  Co  Co13  1  0.65259500  0.28719400  0.57114100  1
  O  O14  1  0.40494200  0.79335300  0.80829300  1
  O  O15  1  0.66482600  0.36384500  0.96020800  1
  O  O16  1  0.97084400  0.94438100  0.12362600  1
  O  O17  1  0.23625300  0.50675800  0.24594900  1
  O  O18  1  0.55824400  0.08117600  0.38466000  1
  O  O19  1  0.80523500  0.65642800  0.53803000  1
  O  O20  1  0.09891300  0.22179600  0.67115900  1
  O  O21  1  0.33517400  0.63615500  0.03979200  1
  O  O22  1  0.59505800  0.20664700  0.19170700  1
  O  O23  1  0.90108700  0.77820400  0.32884100  1
  O  O24  1  0.19476500  0.34357200  0.46197000  1
  O  O25  1  0.44175600  0.91882400  0.61534000  1
  O  O26  1  0.76374700  0.49324200  0.75405100  1
  O  O27  1  0.02915600  0.05561900  0.87637400  1
