# generated using pymatgen
data_BaLi2Ca
_symmetry_space_group_name_H-M   'P 1'
_cell_length_a   13.89841369
_cell_length_b   13.89841369
_cell_length_c   13.89841369
_cell_angle_alpha   121.03470016
_cell_angle_beta   116.80189622
_cell_angle_gamma   91.92182076
_symmetry_Int_Tables_number   1
_chemical_formula_structural   BaLi2Ca
_chemical_formula_sum   'Ba1 Li2 Ca1'
_cell_volume   1925.07564470
_cell_formula_units_Z   1
loop_
 _symmetry_equiv_pos_site_id
 _symmetry_equiv_pos_as_xyz
  1  'x, y, z'
loop_
 _atom_site_type_symbol
 _atom_site_label
 _atom_site_symmetry_multiplicity
 _atom_site_fract_x
 _atom_site_fract_y
 _atom_site_fract_z
 _atom_site_occupancy
  Ba  Ba0  1  0.50000000  0.00000000  0.50000000  1
  Li  Li1  1  0.23602400  0.00000000  0.23602400  1
  Li  Li2  1  0.76397600  0.00000000  0.76397600  1
  Ca  Ca3  1  0.00000000  0.00000000  0.00000000  1
