# generated using pymatgen
data_LiLa2Mn3O9
_symmetry_space_group_name_H-M   'P 1'
_cell_length_a   5.45061830
_cell_length_b   5.45061830
_cell_length_c   6.69145200
_cell_angle_alpha   90.00000000
_cell_angle_beta   90.00000000
_cell_angle_gamma   120.00000363
_symmetry_Int_Tables_number   1
_chemical_formula_structural   LiLa2Mn3O9
_chemical_formula_sum   'Li1 La2 Mn3 O9'
_cell_volume   172.16407068
_cell_formula_units_Z   1
loop_
 _symmetry_equiv_pos_site_id
 _symmetry_equiv_pos_as_xyz
  1  'x, y, z'
loop_
 _atom_site_type_symbol
 _atom_site_label
 _atom_site_symmetry_multiplicity
 _atom_site_fract_x
 _atom_site_fract_y
 _atom_site_fract_z
 _atom_site_occupancy
  Li  Li0  1  0.00000000  0.00000000  0.50000000  1
  La  La1  1  0.33333300  0.66666700  0.82193700  1
  La  La2  1  0.66666700  0.33333300  0.17806300  1
  Mn  Mn3  1  0.00000000  0.00000000  0.00000000  1
  Mn  Mn4  1  0.33333300  0.66666700  0.33676700  1
  Mn  Mn5  1  0.66666700  0.33333300  0.66323300  1
  O  O6  1  0.00000000  0.50000000  0.50000000  1
  O  O7  1  0.34137400  0.17068700  0.84165600  1
  O  O8  1  0.65862600  0.82931300  0.15834400  1
  O  O9  1  0.82931300  0.65862600  0.84165600  1
  O  O10  1  0.17068700  0.34137400  0.15834400  1
  O  O11  1  0.50000000  0.00000000  0.50000000  1
  O  O12  1  0.50000000  0.50000000  0.50000000  1
  O  O13  1  0.82931300  0.17068700  0.84165600  1
  O  O14  1  0.17068700  0.82931300  0.15834400  1
