# generated using pymatgen
data_Li9Mn7O16
_symmetry_space_group_name_H-M   'P 1'
_cell_length_a   5.99460100
_cell_length_b   7.67358901
_cell_length_c   7.77069048
_cell_angle_alpha   64.21749698
_cell_angle_beta   70.81055494
_cell_angle_gamma   70.97172065
_symmetry_Int_Tables_number   1
_chemical_formula_structural   Li9Mn7O16
_chemical_formula_sum   'Li9 Mn7 O16'
_cell_volume   296.85784422
_cell_formula_units_Z   1
loop_
 _symmetry_equiv_pos_site_id
 _symmetry_equiv_pos_as_xyz
  1  'x, y, z'
loop_
 _atom_site_type_symbol
 _atom_site_label
 _atom_site_symmetry_multiplicity
 _atom_site_fract_x
 _atom_site_fract_y
 _atom_site_fract_z
 _atom_site_occupancy
  Li  Li0  1  0.00000000  0.50000000  0.00000000  1
  Li  Li1  1  0.86679300  0.13221600  0.12273800  1
  Li  Li2  1  0.24784800  0.25016100  0.75128300  1
  Li  Li3  1  0.13320700  0.86778400  0.87726200  1
  Li  Li4  1  0.50000000  0.00000000  0.50000000  1
  Li  Li5  1  0.37819100  0.62492900  0.63648000  1
  Li  Li6  1  0.75215200  0.74983900  0.24871700  1
  Li  Li7  1  0.62180900  0.37507100  0.36352000  1
  Li  Li8  1  0.50000000  0.50000000  0.00000000  1
  Mn  Mn9  1  0.61931100  0.87402500  0.87446100  1
  Mn  Mn10  1  0.13151200  0.37755100  0.36826500  1
  Mn  Mn11  1  0.38068900  0.12597500  0.12553900  1
  Mn  Mn12  1  0.25723400  0.74782000  0.24600700  1
  Mn  Mn13  1  0.00000000  0.00000000  0.50000000  1
  Mn  Mn14  1  0.86848800  0.62244900  0.63173500  1
  Mn  Mn15  1  0.74276600  0.25218000  0.75399300  1
  O  O16  1  0.58575400  0.65092500  0.12654200  1
  O  O17  1  0.49160100  0.23602400  0.25013800  1
  O  O18  1  0.87809300  0.37530900  0.85749700  1
  O  O19  1  0.75548100  0.00552800  0.97631000  1
  O  O20  1  0.08448300  0.14183800  0.62184600  1
  O  O21  1  0.00520500  0.75032200  0.73290300  1
  O  O22  1  0.37312600  0.87546100  0.35901200  1
  O  O23  1  0.25285400  0.50572100  0.47534700  1
  O  O24  1  0.41424600  0.34907500  0.87345800  1
  O  O25  1  0.24451900  0.99447200  0.02369000  1
  O  O26  1  0.62687400  0.12453900  0.64098800  1
  O  O27  1  0.50839900  0.76397600  0.74986200  1
  O  O28  1  0.91551700  0.85816200  0.37815400  1
  O  O29  1  0.74714600  0.49427900  0.52465300  1
  O  O30  1  0.12190700  0.62469100  0.14250300  1
  O  O31  1  0.99479500  0.24967800  0.26709700  1
