# generated using pymatgen
data_Li4Co3O7
_symmetry_space_group_name_H-M   'P 1'
_cell_length_a   5.10103700
_cell_length_b   5.14855302
_cell_length_c   10.01526742
_cell_angle_alpha   99.28825914
_cell_angle_beta   101.60609043
_cell_angle_gamma   99.61306182
_symmetry_Int_Tables_number   1
_chemical_formula_structural   Li4Co3O7
_chemical_formula_sum   'Li8 Co6 O14'
_cell_volume   248.80293544
_cell_formula_units_Z   2
loop_
 _symmetry_equiv_pos_site_id
 _symmetry_equiv_pos_as_xyz
  1  'x, y, z'
loop_
 _atom_site_type_symbol
 _atom_site_label
 _atom_site_symmetry_multiplicity
 _atom_site_fract_x
 _atom_site_fract_y
 _atom_site_fract_z
 _atom_site_occupancy
  Li  Li0  1  0.28334300  0.08312800  0.57010400  1
  Li  Li1  1  0.84980600  0.21301000  0.71450100  1
  Li  Li2  1  0.43073500  0.36586100  0.85874000  1
  Li  Li3  1  0.15019400  0.78699000  0.28549900  1
  Li  Li4  1  0.71665700  0.91687200  0.42989600  1
  Li  Li5  1  0.00000000  0.50000000  0.00000000  1
  Li  Li6  1  0.56926500  0.63413900  0.14126000  1
  Li  Li7  1  0.00000000  0.50000000  0.50000000  1
  Co  Co8  1  0.56507000  0.63698800  0.63883600  1
  Co  Co9  1  0.43493000  0.36301200  0.36116400  1
  Co  Co10  1  0.14149200  0.77899500  0.77715900  1
  Co  Co11  1  0.71530200  0.92564800  0.93058400  1
  Co  Co12  1  0.28469800  0.07435200  0.06941600  1
  Co  Co13  1  0.85850800  0.22100500  0.22284100  1
  O  O14  1  0.38031200  0.68734100  0.46904900  1
  O  O15  1  0.91180900  0.84479800  0.61766500  1
  O  O16  1  0.50499500  0.96515700  0.74622700  1
  O  O17  1  0.22121200  0.41655400  0.19206300  1
  O  O18  1  0.75103900  0.54639200  0.32270300  1
  O  O19  1  0.07869400  0.13824800  0.90099700  1
  O  O20  1  0.64940200  0.26866000  0.04008800  1
  O  O21  1  0.24896100  0.45360800  0.67729700  1
  O  O22  1  0.77878800  0.58344600  0.80793700  1
  O  O23  1  0.35059800  0.73134000  0.95991200  1
  O  O24  1  0.08819100  0.15520200  0.38233500  1
  O  O25  1  0.61968800  0.31265900  0.53095100  1
  O  O26  1  0.92130600  0.86175200  0.09900300  1
  O  O27  1  0.49500500  0.03484300  0.25377300  1
