# generated using pymatgen
data_Na4Li4MnFe3P4(O4F)4
_symmetry_space_group_name_H-M   'P 1'
_cell_length_a   11.12278900
_cell_length_b   6.44012300
_cell_length_c   13.26918615
_cell_angle_alpha   61.19925192
_cell_angle_beta   90.00000000
_cell_angle_gamma   90.00000000
_symmetry_Int_Tables_number   1
_chemical_formula_structural   Na4Li4MnFe3P4(O4F)4
_chemical_formula_sum   'Na8 Li8 Mn2 Fe6 P8 O32 F8'
_cell_volume   832.92357122
_cell_formula_units_Z   2
loop_
 _symmetry_equiv_pos_site_id
 _symmetry_equiv_pos_as_xyz
  1  'x, y, z'
loop_
 _atom_site_type_symbol
 _atom_site_label
 _atom_site_symmetry_multiplicity
 _atom_site_fract_x
 _atom_site_fract_y
 _atom_site_fract_z
 _atom_site_occupancy
  Na  Na0  1  0.27347600  0.85355100  0.15351000  1
  Na  Na1  1  0.77347600  0.14644900  0.34649000  1
  Na  Na2  1  0.72647700  0.66031400  0.84684500  1
  Na  Na3  1  0.22647700  0.33968600  0.65315500  1
  Na  Na4  1  0.72652400  0.14644900  0.84649000  1
  Na  Na5  1  0.22652400  0.85355100  0.65351000  1
  Na  Na6  1  0.27352300  0.33968600  0.15315500  1
  Na  Na7  1  0.77352300  0.66031400  0.34684500  1
  Li  Li8  1  0.22275400  0.34213400  0.90805900  1
  Li  Li9  1  0.72275400  0.65786600  0.59194100  1
  Li  Li10  1  0.77724600  0.65786600  0.09194100  1
  Li  Li11  1  0.27724600  0.34213400  0.40805900  1
  Li  Li12  1  0.54936500  0.01751600  0.23221600  1
  Li  Li13  1  0.04936500  0.98248400  0.26778400  1
  Li  Li14  1  0.45063500  0.98248400  0.76778400  1
  Li  Li15  1  0.95063500  0.01751600  0.73221600  1
  Mn  Mn16  1  0.50000000  0.00000000  0.00000000  1
  Mn  Mn17  1  0.00000000  0.00000000  0.50000000  1
  Fe  Fe18  1  0.50000000  0.50000000  0.00000000  1
  Fe  Fe19  1  0.00000000  0.50000000  0.50000000  1
  Fe  Fe20  1  0.50000000  0.50000000  0.50000000  1
  Fe  Fe21  1  0.00000000  0.50000000  0.00000000  1
  Fe  Fe22  1  0.50000000  0.00000000  0.50000000  1
  Fe  Fe23  1  0.00000000  0.00000000  0.00000000  1
  P  P24  1  0.25394600  0.82957900  0.41966100  1
  P  P25  1  0.75394600  0.17042100  0.08033900  1
  P  P26  1  0.74605400  0.17042100  0.58033900  1
  P  P27  1  0.24605400  0.82957900  0.91966100  1
  P  P28  1  0.45978900  0.49341600  0.75678700  1
  P  P29  1  0.95978900  0.50658400  0.74321300  1
  P  P30  1  0.54021100  0.50658400  0.24321300  1
  P  P31  1  0.04021100  0.49341600  0.25678700  1
  O  O32  1  0.00939500  0.37894700  0.86943600  1
  O  O33  1  0.50939500  0.62105300  0.63056400  1
  O  O34  1  0.99060500  0.62105300  0.13056400  1
  O  O35  1  0.49060500  0.37894700  0.36943600  1
  O  O36  1  0.12767700  0.76680300  0.48165900  1
  O  O37  1  0.62767700  0.23319700  0.01834100  1
  O  O38  1  0.87232300  0.23319700  0.51834100  1
  O  O39  1  0.37232300  0.76680300  0.98165900  1
  O  O40  1  0.32119700  0.49165800  0.75869800  1
  O  O41  1  0.82119700  0.50834200  0.74130200  1
  O  O42  1  0.67880300  0.50834200  0.24130200  1
  O  O43  1  0.17880300  0.49165800  0.25869800  1
  O  O44  1  0.49121400  0.36999100  0.18002600  1
  O  O45  1  0.99121400  0.63000900  0.31997400  1
  O  O46  1  0.50938600  0.23310900  0.81650400  1
  O  O47  1  0.00938600  0.76689100  0.68349600  1
  O  O48  1  0.50878600  0.63000900  0.81997400  1
  O  O49  1  0.00878600  0.36999100  0.68002600  1
  O  O50  1  0.49061400  0.76689100  0.18349600  1
  O  O51  1  0.99061400  0.23310900  0.31650400  1
  O  O52  1  0.32036600  0.58869400  0.46212900  1
  O  O53  1  0.82036600  0.41130600  0.03787100  1
  O  O54  1  0.68033300  0.01368000  0.53761200  1
  O  O55  1  0.18033300  0.98632000  0.96238800  1
  O  O56  1  0.67963400  0.41130600  0.53787100  1
  O  O57  1  0.17963400  0.58869400  0.96212900  1
  O  O58  1  0.31966700  0.98632000  0.46238800  1
  O  O59  1  0.81966700  0.01368000  0.03761200  1
  O  O60  1  0.23449700  0.96001100  0.28986200  1
  O  O61  1  0.73449700  0.03998900  0.21013800  1
  O  O62  1  0.76550300  0.03998900  0.71013800  1
  O  O63  1  0.26550300  0.96001100  0.78986200  1
  F  F64  1  0.06324600  0.14329700  0.10672600  1
  F  F65  1  0.56324600  0.85670300  0.39327400  1
  F  F66  1  0.93675400  0.85670300  0.89327400  1
  F  F67  1  0.43675400  0.14329700  0.60672600  1
  F  F68  1  0.36842200  0.22313000  0.02849200  1
  F  F69  1  0.86842200  0.77687000  0.47150800  1
  F  F70  1  0.63157800  0.77687000  0.97150800  1
  F  F71  1  0.13157800  0.22313000  0.52849200  1
