# generated using pymatgen
data_Li9Mn2Co5O16
_symmetry_space_group_name_H-M   'P 1'
_cell_length_a   2.96391600
_cell_length_b   7.80727313
_cell_length_c   12.57412746
_cell_angle_alpha   90.57841452
_cell_angle_beta   89.92676565
_cell_angle_gamma   99.20378338
_symmetry_Int_Tables_number   1
_chemical_formula_structural   Li9Mn2Co5O16
_chemical_formula_sum   'Li9 Mn2 Co5 O16'
_cell_volume   287.20594702
_cell_formula_units_Z   1
loop_
 _symmetry_equiv_pos_site_id
 _symmetry_equiv_pos_as_xyz
  1  'x, y, z'
loop_
 _atom_site_type_symbol
 _atom_site_label
 _atom_site_symmetry_multiplicity
 _atom_site_fract_x
 _atom_site_fract_y
 _atom_site_fract_z
 _atom_site_occupancy
  Li  Li0  1  0.93240100  0.37407500  0.32174500  1
  Li  Li1  1  0.18577800  0.87612200  0.06315400  1
  Li  Li2  1  0.43543000  0.37503300  0.81417200  1
  Li  Li3  1  0.33881800  0.14193500  0.43786400  1
  Li  Li4  1  0.56457000  0.62496700  0.18582800  1
  Li  Li5  1  0.81422200  0.12387800  0.93684600  1
  Li  Li6  1  0.66118200  0.85806500  0.56213600  1
  Li  Li7  1  0.06759900  0.62592500  0.67825500  1
  Li  Li8  1  0.50000000  0.50000000  0.50000000  1
  Mn  Mn9  1  0.10947400  0.74472600  0.37833000  1
  Mn  Mn10  1  0.89052600  0.25527400  0.62167000  1
  Co  Co11  1  0.38217000  0.24964500  0.12593200  1
  Co  Co12  1  0.61783000  0.75035500  0.87406800  1
  Co  Co13  1  0.74749300  0.99887300  0.24832500  1
  Co  Co14  1  0.00000000  0.50000000  0.00000000  1
  Co  Co15  1  0.25250700  0.00112700  0.75167500  1
  O  O16  1  0.54211300  0.58740000  0.34697700  1
  O  O17  1  0.79956700  0.06866300  0.10268300  1
  O  O18  1  0.03015600  0.56491000  0.85080500  1
  O  O19  1  0.90652300  0.30163600  0.47894500  1
  O  O20  1  0.12224600  0.82348400  0.22676900  1
  O  O21  1  0.41791300  0.31531500  0.97703000  1
  O  O22  1  0.31397600  0.08207500  0.60547400  1
  O  O23  1  0.61505600  0.81903600  0.72536200  1
  O  O24  1  0.38494400  0.18096400  0.27463800  1
  O  O25  1  0.58208700  0.68468500  0.02297000  1
  O  O26  1  0.87775400  0.17651600  0.77323100  1
  O  O27  1  0.68602400  0.91792500  0.39452600  1
  O  O28  1  0.96984400  0.43509000  0.14919500  1
  O  O29  1  0.20043300  0.93133700  0.89731700  1
  O  O30  1  0.09347700  0.69836400  0.52105500  1
  O  O31  1  0.45788700  0.41260000  0.65302300  1
