# generated using pymatgen
data_Li4MnCo2O7
_symmetry_space_group_name_H-M   'P 1'
_cell_length_a   3.02188300
_cell_length_b   8.03861459
_cell_length_c   10.68303994
_cell_angle_alpha   78.47300436
_cell_angle_beta   86.66368249
_cell_angle_gamma   89.06183459
_symmetry_Int_Tables_number   1
_chemical_formula_structural   Li4MnCo2O7
_chemical_formula_sum   'Li8 Mn2 Co4 O14'
_cell_volume   253.84167498
_cell_formula_units_Z   2
loop_
 _symmetry_equiv_pos_site_id
 _symmetry_equiv_pos_as_xyz
  1  'x, y, z'
loop_
 _atom_site_type_symbol
 _atom_site_label
 _atom_site_symmetry_multiplicity
 _atom_site_fract_x
 _atom_site_fract_y
 _atom_site_fract_z
 _atom_site_occupancy
  Li  Li0  1  0.78739300  0.64502500  0.42875500  1
  Li  Li1  1  0.50000000  0.50000000  0.00000000  1
  Li  Li2  1  0.21260700  0.35497500  0.57124500  1
  Li  Li3  1  0.35883700  0.92736300  0.28483600  1
  Li  Li4  1  0.07100500  0.79036300  0.86098900  1
  Li  Li5  1  0.92899500  0.20963700  0.13901100  1
  Li  Li6  1  0.64116300  0.07263700  0.71516400  1
  Li  Li7  1  0.50000000  0.00000000  0.00000000  1
  Mn  Mn8  1  0.64128600  0.57013100  0.71468300  1
  Mn  Mn9  1  0.35871400  0.42986900  0.28531700  1
  Co  Co10  1  0.06395000  0.27300100  0.86447100  1
  Co  Co11  1  0.78290600  0.14137500  0.42944700  1
  Co  Co12  1  0.21709400  0.85862500  0.57055300  1
  Co  Co13  1  0.93605000  0.72699900  0.13552900  1
  O  O14  1  0.23391500  0.61802600  0.57441300  1
  O  O15  1  0.94606300  0.48250900  0.14773000  1
  O  O16  1  0.66298400  0.32680400  0.72234700  1
  O  O17  1  0.80431600  0.90251100  0.43750200  1
  O  O18  1  0.51450500  0.74741600  0.01006900  1
  O  O19  1  0.37835200  0.18377300  0.29182900  1
  O  O20  1  0.07862200  0.05932100  0.85438400  1
  O  O21  1  0.33701600  0.67319600  0.27765300  1
  O  O22  1  0.05393700  0.51749100  0.85227000  1
  O  O23  1  0.76608500  0.38197400  0.42558700  1
  O  O24  1  0.92137800  0.94067900  0.14561600  1
  O  O25  1  0.62164800  0.81622700  0.70817100  1
  O  O26  1  0.48549500  0.25258400  0.98993100  1
  O  O27  1  0.19568400  0.09748900  0.56249800  1
