# generated using pymatgen
data_Li3(CoO2)4
_symmetry_space_group_name_H-M   'P 1'
_cell_length_a   5.75452437
_cell_length_b   10.24004406
_cell_length_c   5.77010631
_cell_angle_alpha   106.43144216
_cell_angle_beta   60.43357806
_cell_angle_gamma   106.41959422
_symmetry_Int_Tables_number   1
_chemical_formula_structural   Li3(CoO2)4
_chemical_formula_sum   'Li6 Co8 O16'
_cell_volume   279.45568942
_cell_formula_units_Z   2
loop_
 _symmetry_equiv_pos_site_id
 _symmetry_equiv_pos_as_xyz
  1  'x, y, z'
loop_
 _atom_site_type_symbol
 _atom_site_label
 _atom_site_symmetry_multiplicity
 _atom_site_fract_x
 _atom_site_fract_y
 _atom_site_fract_z
 _atom_site_occupancy
  Li  Li0  1  0.49764000  0.99680300  0.99760800  1
  Li  Li1  1  0.00235900  0.50319700  0.50239100  1
  Li  Li2  1  0.00063300  0.00326200  0.50505300  1
  Li  Li3  1  0.49936700  0.49673800  0.99494700  1
  Li  Li4  1  0.49451800  0.99985400  0.50576500  1
  Li  Li5  1  0.00548200  0.50014500  0.99423600  1
  Co  Co6  1  0.25000000  0.75000000  0.75000000  1
  Co  Co7  1  0.75000000  0.75000000  0.75000000  1
  Co  Co8  1  0.25000000  0.25000000  0.75000000  1
  Co  Co9  1  0.75000000  0.25000000  0.75000000  1
  Co  Co10  1  0.25000000  0.75000000  0.25000000  1
  Co  Co11  1  0.75000000  0.25000000  0.25000000  1
  Co  Co12  1  0.25000000  0.25000000  0.25000000  1
  Co  Co13  1  0.75000000  0.75000000  0.25000000  1
  O  O14  1  0.36893800  0.13659600  0.39837200  1
  O  O15  1  0.90011300  0.63646800  0.86749400  1
  O  O16  1  0.13106200  0.36340400  0.10162800  1
  O  O17  1  0.59988600  0.86353200  0.63250600  1
  O  O18  1  0.87748900  0.14310700  0.38841800  1
  O  O19  1  0.36709600  0.64456000  0.88922200  1
  O  O20  1  0.11115700  0.35467500  0.63466200  1
  O  O21  1  0.61454000  0.85432200  0.12146400  1
  O  O22  1  0.88951200  0.14374000  0.86520300  1
  O  O23  1  0.36420500  0.64470700  0.39219700  1
  O  O24  1  0.61048800  0.35626000  0.63479700  1
  O  O25  1  0.13579500  0.85529200  0.10780300  1
  O  O26  1  0.38884400  0.14532500  0.86533800  1
  O  O27  1  0.88546000  0.64567700  0.37853500  1
  O  O28  1  0.62251100  0.35689300  0.11158200  1
  O  O29  1  0.13290400  0.85544000  0.61077700  1
