# generated using pymatgen
data_Li2TiFeO4
_symmetry_space_group_name_H-M   'P 1'
_cell_length_a   6.03901827
_cell_length_b   8.48587274
_cell_length_c   6.03946158
_cell_angle_alpha   89.48498428
_cell_angle_beta   89.55824103
_cell_angle_gamma   90.49261970
_symmetry_Int_Tables_number   1
_chemical_formula_structural   Li2TiFeO4
_chemical_formula_sum   'Li8 Ti4 Fe4 O16'
_cell_volume   309.46697717
_cell_formula_units_Z   4
loop_
 _symmetry_equiv_pos_site_id
 _symmetry_equiv_pos_as_xyz
  1  'x, y, z'
loop_
 _atom_site_type_symbol
 _atom_site_label
 _atom_site_symmetry_multiplicity
 _atom_site_fract_x
 _atom_site_fract_y
 _atom_site_fract_z
 _atom_site_occupancy
  Li  Li0  1  0.50719900  0.49738400  0.99710300  1
  Li  Li1  1  0.00613600  0.99487100  0.50041500  1
  Li  Li2  1  0.25428600  0.75020900  0.25085200  1
  Li  Li3  1  0.75162000  0.24758300  0.75143000  1
  Li  Li4  1  0.25747000  0.74685800  0.75567400  1
  Li  Li5  1  0.75713100  0.24687700  0.25693400  1
  Li  Li6  1  0.01053900  0.49932100  0.00367600  1
  Li  Li7  1  0.50915000  0.99932500  0.50374900  1
  Ti  Ti8  1  0.00487500  0.99894200  0.00434100  1
  Ti  Ti9  1  0.49939200  0.49838600  0.49435400  1
  Ti  Ti10  1  0.75726700  0.74755200  0.25129400  1
  Ti  Ti11  1  0.24797100  0.24816000  0.74630000  1
  Fe  Fe12  1  0.25659000  0.24642300  0.24759400  1
  Fe  Fe13  1  0.00068500  0.50036500  0.50367700  1
  Fe  Fe14  1  0.75244100  0.74937200  0.75026600  1
  Fe  Fe15  1  0.50373100  0.99738300  0.99908800  1
  O  O16  1  0.52104400  0.75372500  0.02245100  1
  O  O17  1  0.02915700  0.24904500  0.51188900  1
  O  O18  1  0.26600200  0.49805000  0.27542900  1
  O  O19  1  0.77597900  0.99293800  0.76750300  1
  O  O20  1  0.73745900  0.50418500  0.72645700  1
  O  O21  1  0.22962600  0.99694400  0.22901600  1
  O  O22  1  0.47913800  0.24266800  0.98505500  1
  O  O23  1  0.98220300  0.74930900  0.47640800  1
  O  O24  1  0.73466000  0.50883200  0.25772700  1
  O  O25  1  0.23866600  0.01256600  0.75841600  1
  O  O26  1  0.01095000  0.23776200  0.98092600  1
  O  O27  1  0.51179100  0.73414900  0.48500300  1
  O  O28  1  0.99423900  0.75973700  0.01544000  1
  O  O29  1  0.49604600  0.26043400  0.51762100  1
  O  O30  1  0.27070200  0.48594100  0.74269900  1
  O  O31  1  0.76890200  0.98697900  0.24096000  1
