# generated using pymatgen
data_Li9Mn2Co5O16
_symmetry_space_group_name_H-M   'P 1'
_cell_length_a   5.84748200
_cell_length_b   5.15437700
_cell_length_c   9.71034539
_cell_angle_alpha   79.55958932
_cell_angle_beta   90.00000000
_cell_angle_gamma   90.00000000
_symmetry_Int_Tables_number   1
_chemical_formula_structural   Li9Mn2Co5O16
_chemical_formula_sum   'Li9 Mn2 Co5 O16'
_cell_volume   287.82555141
_cell_formula_units_Z   1
loop_
 _symmetry_equiv_pos_site_id
 _symmetry_equiv_pos_as_xyz
  1  'x, y, z'
loop_
 _atom_site_type_symbol
 _atom_site_label
 _atom_site_symmetry_multiplicity
 _atom_site_fract_x
 _atom_site_fract_y
 _atom_site_fract_z
 _atom_site_occupancy
  Li  Li0  1  0.74359600  0.50000000  0.00000000  1
  Li  Li1  1  0.50000000  0.25637600  0.25797000  1
  Li  Li2  1  0.25595600  0.00000000  0.50000000  1
  Li  Li3  1  0.50000000  0.74362400  0.74203000  1
  Li  Li4  1  0.25640400  0.50000000  0.00000000  1
  Li  Li5  1  0.00000000  0.24154500  0.25512400  1
  Li  Li6  1  0.00000000  0.75845500  0.74487600  1
  Li  Li7  1  0.74404400  0.00000000  0.50000000  1
  Li  Li8  1  0.50000000  0.50000000  0.50000000  1
  Mn  Mn9  1  0.00000000  0.00000000  0.00000000  1
  Mn  Mn10  1  0.00000000  0.50000000  0.50000000  1
  Co  Co11  1  0.74236500  0.74091000  0.25709800  1
  Co  Co12  1  0.25763500  0.25909000  0.74290200  1
  Co  Co13  1  0.50000000  0.00000000  0.00000000  1
  Co  Co14  1  0.25763500  0.74091000  0.25709800  1
  Co  Co15  1  0.74236500  0.25909000  0.74290200  1
  O  O16  1  0.75943900  0.89131600  0.88512100  1
  O  O17  1  0.50000000  0.63641200  0.12769100  1
  O  O18  1  0.23332700  0.39275100  0.37741200  1
  O  O19  1  0.50000000  0.12329100  0.64202100  1
  O  O20  1  0.24056100  0.89131600  0.88512100  1
  O  O21  1  0.00000000  0.66125700  0.12740300  1
  O  O22  1  0.00000000  0.15428500  0.61843500  1
  O  O23  1  0.76667300  0.39275100  0.37741200  1
  O  O24  1  0.75943900  0.10868400  0.11487900  1
  O  O25  1  0.50000000  0.87670900  0.35797900  1
  O  O26  1  0.23332700  0.60724900  0.62258800  1
  O  O27  1  0.50000000  0.36358800  0.87230900  1
  O  O28  1  0.24056100  0.10868400  0.11487900  1
  O  O29  1  0.00000000  0.84571500  0.38156500  1
  O  O30  1  0.00000000  0.33874300  0.87259700  1
  O  O31  1  0.76667300  0.60724900  0.62258800  1
