# generated using pymatgen
data_Rb5Li6(BO2)11
_symmetry_space_group_name_H-M   'P 1'
_cell_length_a   6.91087150
_cell_length_b   6.91087150
_cell_length_c   13.90918786
_cell_angle_alpha   75.49352378
_cell_angle_beta   75.49352378
_cell_angle_gamma   62.92486310
_symmetry_Int_Tables_number   1
_chemical_formula_structural   Rb5Li6(BO2)11
_chemical_formula_sum   'Rb5 Li6 B11 O22'
_cell_volume   565.42393422
_cell_formula_units_Z   1
loop_
 _symmetry_equiv_pos_site_id
 _symmetry_equiv_pos_as_xyz
  1  'x, y, z'
loop_
 _atom_site_type_symbol
 _atom_site_label
 _atom_site_symmetry_multiplicity
 _atom_site_fract_x
 _atom_site_fract_y
 _atom_site_fract_z
 _atom_site_occupancy
  Rb  Rb0  1  0.04920600  0.30389000  0.21294700  1
  Rb  Rb1  1  0.69611000  0.95079400  0.78705300  1
  Rb  Rb2  1  0.46837200  0.12576700  0.41168400  1
  Rb  Rb3  1  0.87423300  0.53162800  0.58831600  1
  Rb  Rb4  1  0.02064000  0.97936000  0.00000000  1
  Li  Li5  1  0.57473900  0.58581500  0.40446900  1
  Li  Li6  1  0.41418500  0.42526100  0.59553100  1
  Li  Li7  1  0.56951200  0.88411600  0.23200700  1
  Li  Li8  1  0.11588400  0.43048800  0.76799300  1
  Li  Li9  1  0.91209900  0.50232300  0.95415900  1
  Li  Li10  1  0.49767700  0.08790100  0.04584100  1
  B  B11  1  0.55124200  0.35418800  0.16416100  1
  B  B12  1  0.64581200  0.44875800  0.83583900  1
  B  B13  1  0.15748100  0.83104200  0.40937800  1
  B  B14  1  0.16895800  0.84251900  0.59062200  1
  B  B15  1  0.31512400  0.71120500  0.23487600  1
  B  B16  1  0.28879500  0.68487600  0.76512400  1
  B  B17  1  0.95403400  0.73302200  0.31604000  1
  B  B18  1  0.26697800  0.04596600  0.68396000  1
  B  B19  1  0.87045400  0.12954600  0.50000000  1
  B  B20  1  0.60160100  0.68986100  0.07469700  1
  B  B21  1  0.31013900  0.39839900  0.92530300  1
  O  O22  1  0.56395800  0.15809700  0.15913800  1
  O  O23  1  0.84190300  0.43604200  0.84086200  1
  O  O24  1  0.42496300  0.81170900  0.14177000  1
  O  O25  1  0.18829100  0.57503700  0.85823000  1
  O  O26  1  0.77754700  0.69761800  0.31646100  1
  O  O27  1  0.30238200  0.22245300  0.68353900  1
  O  O28  1  0.66681600  0.46020100  0.08569000  1
  O  O29  1  0.53979900  0.33318400  0.91431000  1
  O  O30  1  0.43360000  0.46571800  0.24555400  1
  O  O31  1  0.53428200  0.56640000  0.75444600  1
  O  O32  1  0.68297900  0.31702100  0.50000000  1
  O  O33  1  0.01223000  0.72707000  0.40652500  1
  O  O34  1  0.27293000  0.98777000  0.59347500  1
  O  O35  1  0.01796300  0.07165500  0.41068700  1
  O  O36  1  0.92834500  0.98203700  0.58931300  1
  O  O37  1  0.08653600  0.77418100  0.22549400  1
  O  O38  1  0.22581900  0.91346400  0.77450600  1
  O  O39  1  0.33072600  0.79575300  0.31885500  1
  O  O40  1  0.20424700  0.66927400  0.68114500  1
  O  O41  1  0.26894400  0.73105600  0.50000000  1
  O  O42  1  0.70953500  0.78900900  0.00185200  1
  O  O43  1  0.21099100  0.29046500  0.99814800  1
