# generated using pymatgen
data_LiMnV(PO4)3
_symmetry_space_group_name_H-M   'P 1'
_cell_length_a   8.88197543
_cell_length_b   8.29904389
_cell_length_c   8.40318093
_cell_angle_alpha   59.68852401
_cell_angle_beta   63.81118312
_cell_angle_gamma   90.54006796
_symmetry_Int_Tables_number   1
_chemical_formula_structural   LiMnV(PO4)3
_chemical_formula_sum   'Li2 Mn2 V2 P6 O24'
_cell_volume   457.78739417
_cell_formula_units_Z   2
loop_
 _symmetry_equiv_pos_site_id
 _symmetry_equiv_pos_as_xyz
  1  'x, y, z'
loop_
 _atom_site_type_symbol
 _atom_site_label
 _atom_site_symmetry_multiplicity
 _atom_site_fract_x
 _atom_site_fract_y
 _atom_site_fract_z
 _atom_site_occupancy
  Li  Li0  1  0.13763115  0.32952517  0.93610810  1
  Li  Li1  1  0.87422278  0.92576646  0.37422070  1
  Mn  Mn2  1  0.56909685  0.86166135  0.27906663  1
  Mn  Mn3  1  0.43449360  0.13789995  0.71093511  1
  V  V4  1  0.05068343  0.35384530  0.31323560  1
  V  V5  1  0.95127345  0.65180088  0.70368098  1
  P  P6  1  0.24533071  0.04431312  0.21965447  1
  P  P7  1  0.25800303  0.46965753  0.50004961  1
  P  P8  1  0.24993836  0.75007536  0.79330418  1
  P  P9  1  0.75144371  0.24867951  0.20729560  1
  P  P10  1  0.75208208  0.53051284  0.50148710  1
  P  P11  1  0.74960512  0.95812028  0.78479507  1
  O  O12  1  0.09116078  0.84516236  0.39032972  1
  O  O13  1  0.25100051  0.13111880  0.00819182  1
  O  O14  1  0.18585536  0.18772685  0.29313336  1
  O  O15  1  0.18497099  0.47699390  0.35651453  1
  O  O16  1  0.11558678  0.49365247  0.67499709  1
  O  O17  1  0.09728065  0.77471519  0.73658342  1
  O  O18  1  0.41687192  0.02232676  0.20996831  1
  O  O19  1  0.27392864  0.26694134  0.62468835  1
  O  O20  1  0.43015336  0.63363725  0.34811214  1
  O  O21  1  0.17905604  0.53252046  0.99962512  1
  O  O22  1  0.26003006  0.89266807  0.85431113  1
  O  O23  1  0.41442955  0.77155646  0.61101433  1
  O  O24  1  0.58931952  0.23324504  0.38396555  1
  O  O25  1  0.73705566  0.10094750  0.15116457  1
  O  O26  1  0.82262122  0.46038972  0.99240615  1
  O  O27  1  0.58056536  0.36805919  0.64430725  1
  O  O28  1  0.73559168  0.73634900  0.38289892  1
  O  O29  1  0.57597680  0.97546916  0.79379928  1
  O  O30  1  0.91085628  0.21777100  0.24719668  1
  O  O31  1  0.89669377  0.50656081  0.32602882  1
  O  O32  1  0.82480256  0.52716864  0.64336934  1
  O  O33  1  0.80994936  0.82210242  0.70018538  1
  O  O34  1  0.74549743  0.88224315  0.99081817  1
  O  O35  1  0.89639743  0.16422872  0.60139140  1
