# generated using pymatgen
data_Li4Fe3CoO8
_symmetry_space_group_name_H-M   'P 1'
_cell_length_a   5.90782302
_cell_length_b   10.31291098
_cell_length_c   5.95579703
_cell_angle_alpha   73.95370418
_cell_angle_beta   119.68749947
_cell_angle_gamma   106.46399359
_symmetry_Int_Tables_number   1
_chemical_formula_structural   Li4Fe3CoO8
_chemical_formula_sum   'Li8 Fe6 Co2 O16'
_cell_volume   298.25430024
_cell_formula_units_Z   2
loop_
 _symmetry_equiv_pos_site_id
 _symmetry_equiv_pos_as_xyz
  1  'x, y, z'
loop_
 _atom_site_type_symbol
 _atom_site_label
 _atom_site_symmetry_multiplicity
 _atom_site_fract_x
 _atom_site_fract_y
 _atom_site_fract_z
 _atom_site_occupancy
  Li  Li0  1  0.75719000  0.25244900  0.25440800  1
  Li  Li1  1  0.24317100  0.74752300  0.74595600  1
  Li  Li2  1  0.75458600  0.75009200  0.25573700  1
  Li  Li3  1  0.24500400  0.24989600  0.74377800  1
  Li  Li4  1  0.75522100  0.75111100  0.75059600  1
  Li  Li5  1  0.24460800  0.24891500  0.24930800  1
  Li  Li6  1  0.74923700  0.24785300  0.74987600  1
  Li  Li7  1  0.25083800  0.75216600  0.24995700  1
  Fe  Fe8  1  0.49968700  0.00004600  0.50024500  1
  Fe  Fe9  1  0.99992200  0.50014400  0.50004400  1
  Fe  Fe10  1  0.50012300  0.50006100  0.99972000  1
  Fe  Fe11  1  0.99989800  0.49988300  0.99983100  1
  Fe  Fe12  1  0.50066200  0.99982200  0.00082900  1
  Fe  Fe13  1  0.00049000  0.00000700  0.50020200  1
  Co  Co14  1  0.99995500  0.00010600  0.99976000  1
  Co  Co15  1  0.49961800  0.50009900  0.49942600  1
  O  O16  1  0.62578800  0.88528400  0.36676500  1
  O  O17  1  0.12840500  0.38588800  0.86715100  1
  O  O18  1  0.87165100  0.61420500  0.13279800  1
  O  O19  1  0.37422000  0.11478300  0.63353900  1
  O  O20  1  0.62150600  0.38844400  0.37386300  1
  O  O21  1  0.12376800  0.88861600  0.87477700  1
  O  O22  1  0.62980000  0.38397000  0.87575300  1
  O  O23  1  0.13886800  0.88143600  0.39222200  1
  O  O24  1  0.64734800  0.89002900  0.87718900  1
  O  O25  1  0.12311100  0.38506200  0.36734600  1
  O  O26  1  0.87644700  0.11121800  0.12563100  1
  O  O27  1  0.37864400  0.61162900  0.62592500  1
  O  O28  1  0.86099200  0.11832400  0.60780300  1
  O  O29  1  0.37013300  0.61570900  0.12386700  1
  O  O30  1  0.87664800  0.61518200  0.63294700  1
  O  O31  1  0.35246100  0.11004300  0.12275600  1
