# generated using pymatgen
data_Li5Mn3O8
_symmetry_space_group_name_H-M   'P 1'
_cell_length_a   5.89960703
_cell_length_b   10.22602223
_cell_length_c   5.82633487
_cell_angle_alpha   89.60479494
_cell_angle_beta   59.58443813
_cell_angle_gamma   106.76758865
_symmetry_Int_Tables_number   1
_chemical_formula_structural   Li5Mn3O8
_chemical_formula_sum   'Li10 Mn6 O16'
_cell_volume   285.21436167
_cell_formula_units_Z   2
loop_
 _symmetry_equiv_pos_site_id
 _symmetry_equiv_pos_as_xyz
  1  'x, y, z'
loop_
 _atom_site_type_symbol
 _atom_site_label
 _atom_site_symmetry_multiplicity
 _atom_site_fract_x
 _atom_site_fract_y
 _atom_site_fract_z
 _atom_site_occupancy
  Li  Li0  1  0.49602100  0.25003100  0.74995700  1
  Li  Li1  1  0.50391300  0.75003700  0.25001700  1
  Li  Li2  1  0.00006000  0.99994700  0.49998900  1
  Li  Li3  1  0.99989600  0.49998500  0.00012200  1
  Li  Li4  1  0.47205400  0.24171800  0.25479400  1
  Li  Li5  1  0.52807000  0.75826700  0.74511700  1
  Li  Li6  1  0.98986800  0.24991800  0.74985200  1
  Li  Li7  1  0.01008300  0.75005500  0.25031100  1
  Li  Li8  1  0.98503500  0.25835600  0.24498500  1
  Li  Li9  1  0.01472300  0.74168100  0.75506400  1
  Mn  Mn10  1  0.50002300  0.49995600  0.99987600  1
  Mn  Mn11  1  0.50019400  0.99981400  0.99975800  1
  Mn  Mn12  1  0.49976500  0.50000600  0.49991300  1
  Mn  Mn13  1  0.00026700  0.00002000  0.00011900  1
  Mn  Mn14  1  0.99990000  0.50012900  0.50019600  1
  Mn  Mn15  1  0.50020800  0.00006400  0.49982500  1
  O  O16  1  0.71165400  0.11936300  0.14073000  1
  O  O17  1  0.76701900  0.61940100  0.64073000  1
  O  O18  1  0.23287200  0.38068600  0.35923800  1
  O  O19  1  0.28854500  0.88065400  0.85922900  1
  O  O20  1  0.72161600  0.11123900  0.63581300  1
  O  O21  1  0.72170800  0.61033000  0.13324800  1
  O  O22  1  0.25244100  0.10761200  0.11004000  1
  O  O23  1  0.24510800  0.60765400  0.61009400  1
  O  O24  1  0.25532900  0.11025200  0.63324700  1
  O  O25  1  0.25379900  0.61125400  0.13586500  1
  O  O26  1  0.27814800  0.38970400  0.86678200  1
  O  O27  1  0.27854900  0.88874800  0.36411300  1
  O  O28  1  0.75468300  0.39236700  0.38998200  1
  O  O29  1  0.74766100  0.89231900  0.88994600  1
  O  O30  1  0.74606500  0.38878500  0.86419500  1
  O  O31  1  0.74472100  0.88965000  0.36685700  1
