# generated using pymatgen
data_Li2V3TeO8
_symmetry_space_group_name_H-M   'P 1'
_cell_length_a   6.02953292
_cell_length_b   6.06822020
_cell_length_c   9.95673855
_cell_angle_alpha   89.87440213
_cell_angle_beta   90.05324690
_cell_angle_gamma   120.21341957
_symmetry_Int_Tables_number   1
_chemical_formula_structural   Li2V3TeO8
_chemical_formula_sum   'Li4 V6 Te2 O16'
_cell_volume   314.81374574
_cell_formula_units_Z   2
loop_
 _symmetry_equiv_pos_site_id
 _symmetry_equiv_pos_as_xyz
  1  'x, y, z'
loop_
 _atom_site_type_symbol
 _atom_site_label
 _atom_site_symmetry_multiplicity
 _atom_site_fract_x
 _atom_site_fract_y
 _atom_site_fract_z
 _atom_site_occupancy
  Li  Li0  1  0.33520387  0.66687823  0.90437192  1
  Li  Li1  1  0.66468403  0.33174155  0.40428855  1
  Li  Li2  1  0.00004621  0.00069533  0.99016148  1
  Li  Li3  1  0.00016232  0.00088220  0.49015273  1
  V  V4  1  0.66149976  0.83108125  0.21199918  1
  V  V5  1  0.83315724  0.65733531  0.71836281  1
  V  V6  1  0.82906789  0.17143047  0.71679568  1
  V  V7  1  0.16687886  0.82413612  0.21839246  1
  V  V8  1  0.17093548  0.34234695  0.21675156  1
  V  V9  1  0.33838025  0.16948092  0.71217821  1
  Te  Te10  1  0.34020491  0.67195829  0.49197626  1
  Te  Te11  1  0.66004294  0.33179189  0.99181540  1
  O  O12  1  0.32771876  0.66573781  0.10895406  1
  O  O13  1  0.67194071  0.33788094  0.60904378  1
  O  O14  1  0.00622861  0.00280123  0.30682925  1
  O  O15  1  0.99380103  0.99660398  0.80693621  1
  O  O16  1  0.16770447  0.85013001  0.59602299  1
  O  O17  1  0.15466344  0.31502885  0.59803951  1
  O  O18  1  0.32246098  0.15483579  0.09539501  1
  O  O19  1  0.67758918  0.83238086  0.59541346  1
  O  O20  1  0.83245901  0.68237462  0.09594744  1
  O  O21  1  0.84502221  0.15990483  0.09800497  1
  O  O22  1  0.02799712  0.52374438  0.33368608  1
  O  O23  1  0.48968689  0.96563858  0.34238744  1
  O  O24  1  0.47613095  0.50913935  0.33862054  1
  O  O25  1  0.51008564  0.47556557  0.84255886  1
  O  O26  1  0.52440707  0.03305129  0.83887065  1
  O  O27  1  0.97184014  0.49572440  0.83387950  1
