# generated using pymatgen
data_Li9Mn2Co5O16
_symmetry_space_group_name_H-M   'P 1'
_cell_length_a   6.71069405
_cell_length_b   6.71069405
_cell_length_c   15.29289933
_cell_angle_alpha   86.96854503
_cell_angle_beta   86.96854503
_cell_angle_gamma   24.89261859
_symmetry_Int_Tables_number   1
_chemical_formula_structural   Li9Mn2Co5O16
_chemical_formula_sum   'Li9 Mn2 Co5 O16'
_cell_volume   289.45787428
_cell_formula_units_Z   1
loop_
 _symmetry_equiv_pos_site_id
 _symmetry_equiv_pos_as_xyz
  1  'x, y, z'
loop_
 _atom_site_type_symbol
 _atom_site_label
 _atom_site_symmetry_multiplicity
 _atom_site_fract_x
 _atom_site_fract_y
 _atom_site_fract_z
 _atom_site_occupancy
  Li  Li0  1  0.69276400  0.69276400  0.93360200  1
  Li  Li1  1  0.06394100  0.06394100  0.81215200  1
  Li  Li2  1  0.43308100  0.43308100  0.68990300  1
  Li  Li3  1  0.31533800  0.31533800  0.05920900  1
  Li  Li4  1  0.93477300  0.93477300  0.18601300  1
  Li  Li5  1  0.56439300  0.56439300  0.31323500  1
  Li  Li6  1  0.81249800  0.81249800  0.56451200  1
  Li  Li7  1  0.18614700  0.18614700  0.43942100  1
  Li  Li8  1  0.37248800  0.37248800  0.87572600  1
  Mn  Mn9  1  0.99160000  0.99160000  0.99667700  1
  Mn  Mn10  1  0.87349900  0.87349900  0.37570900  1
  Co  Co11  1  0.75932100  0.75932100  0.75588300  1
  Co  Co12  1  0.12965300  0.12965300  0.62824000  1
  Co  Co13  1  0.50536900  0.50536900  0.50207300  1
  Co  Co14  1  0.24687100  0.24687100  0.24770600  1
  Co  Co15  1  0.62397100  0.62397100  0.12253100  1
  O  O16  1  0.52910400  0.52910400  0.91678500  1
  O  O17  1  0.89212400  0.89212400  0.77542000  1
  O  O18  1  0.27574600  0.27574600  0.66155000  1
  O  O19  1  0.14291700  0.14291700  0.03799200  1
  O  O20  1  0.77798100  0.77798100  0.16281700  1
  O  O21  1  0.40299800  0.40299800  0.28888400  1
  O  O22  1  0.65556000  0.65556000  0.53914200  1
  O  O23  1  0.02913700  0.02913700  0.41790300  1
  O  O24  1  0.85648900  0.85648900  0.97159600  1
  O  O25  1  0.21885500  0.21885500  0.83704900  1
  O  O26  1  0.60268300  0.60268300  0.71523200  1
  O  O27  1  0.47096900  0.47096900  0.08432400  1
  O  O28  1  0.09834200  0.09834200  0.20767400  1
  O  O29  1  0.71708500  0.71708500  0.33541400  1
  O  O30  1  0.97774500  0.97774500  0.58505100  1
  O  O31  1  0.34655500  0.34655500  0.46057500  1
