# generated using pymatgen
data_Li3MnV(PO4)3
_symmetry_space_group_name_H-M   'P 1'
_cell_length_a   8.69781800
_cell_length_b   8.76126691
_cell_length_c   12.29604729
_cell_angle_alpha   89.98816869
_cell_angle_beta   88.86248075
_cell_angle_gamma   89.70023986
_symmetry_Int_Tables_number   1
_chemical_formula_structural   Li3MnV(PO4)3
_chemical_formula_sum   'Li12 Mn4 V4 P12 O48'
_cell_volume   936.80933410
_cell_formula_units_Z   4
loop_
 _symmetry_equiv_pos_site_id
 _symmetry_equiv_pos_as_xyz
  1  'x, y, z'
loop_
 _atom_site_type_symbol
 _atom_site_label
 _atom_site_symmetry_multiplicity
 _atom_site_fract_x
 _atom_site_fract_y
 _atom_site_fract_z
 _atom_site_occupancy
  Li  Li0  1  0.07812000  0.90503800  0.30201200  1
  Li  Li1  1  0.08171000  0.29512400  0.24101600  1
  Li  Li2  1  0.20968800  0.22630900  0.82179400  1
  Li  Li3  1  0.28976900  0.72672500  0.67824800  1
  Li  Li4  1  0.41789900  0.79701600  0.25921400  1
  Li  Li5  1  0.42362200  0.40321000  0.19799800  1
  Li  Li6  1  0.57906900  0.59554000  0.80244500  1
  Li  Li7  1  0.58398100  0.20496500  0.74124700  1
  Li  Li8  1  0.71228600  0.27320700  0.32173800  1
  Li  Li9  1  0.78749400  0.77267000  0.17850000  1
  Li  Li10  1  0.91519300  0.70205100  0.75919300  1
  Li  Li11  1  0.92230300  0.09815900  0.69783700  1
  Mn  Mn12  1  0.25394300  0.96584000  0.10643000  1
  Mn  Mn13  1  0.74645100  0.95800900  0.38996200  1
  Mn  Mn14  1  0.75249400  0.45675200  0.11037400  1
  Mn  Mn15  1  0.75465200  0.53367000  0.60513400  1
  V  V16  1  0.24694200  0.46888800  0.38978200  1
  V  V17  1  0.24605300  0.54123200  0.88857000  1
  V  V18  1  0.25280700  0.04301400  0.61130400  1
  V  V19  1  0.74656800  0.03126200  0.89106500  1
  P  P20  1  0.03833100  0.75316700  0.50659800  1
  P  P21  1  0.10526600  0.61316200  0.14702700  1
  P  P22  1  0.10465700  0.90074400  0.84855500  1
  P  P23  1  0.39541600  0.11096600  0.35555000  1
  P  P24  1  0.39570300  0.40155400  0.64837100  1
  P  P25  1  0.45897600  0.25114800  0.99396300  1
  P  P26  1  0.53737200  0.75078600  0.00520900  1
  P  P27  1  0.60500300  0.59664800  0.34566100  1
  P  P28  1  0.60679200  0.88733400  0.64512500  1
  P  P29  1  0.89624000  0.09511900  0.15066600  1
  P  P30  1  0.89272400  0.38840800  0.85729800  1
  P  P31  1  0.96038700  0.25240200  0.49411700  1
  O  O32  1  0.04927000  0.13712900  0.56571900  1
  O  O33  1  0.06597400  0.32980300  0.40759400  1
  O  O34  1  0.06815100  0.40514300  0.83570700  1
  O  O35  1  0.07675700  0.10049200  0.15205200  1
  O  O36  1  0.11565100  0.64322300  0.42485500  1
  O  O37  1  0.14800200  0.58659400  0.02721100  1
  O  O38  1  0.15071700  0.77926800  0.18085800  1
  O  O39  1  0.14877600  0.02375700  0.76014200  1
  O  O40  1  0.15717600  0.73852400  0.81124900  1
  O  O41  1  0.16550000  0.83616900  0.56986200  1
  O  O42  1  0.17018700  0.94972600  0.95505400  1
  O  O43  1  0.19272600  0.49271200  0.21719000  1
  O  O44  1  0.30718300  0.99000100  0.28994100  1
  O  O45  1  0.32971900  0.44949100  0.54072200  1
  O  O46  1  0.33201800  0.33402800  0.92943900  1
  O  O47  1  0.34240300  0.24002500  0.68668200  1
  O  O48  1  0.35218000  0.27696100  0.31981700  1
  O  O49  1  0.34974500  0.52384500  0.73687000  1
  O  O50  1  0.35523900  0.08958000  0.47644800  1
  O  O51  1  0.38436500  0.14121100  0.07727000  1
  O  O52  1  0.42571500  0.60165400  0.34475800  1
  O  O53  1  0.43121600  0.90520500  0.66529300  1
  O  O54  1  0.43305200  0.83072000  0.09329000  1
  O  O55  1  0.44838100  0.63741700  0.93394000  1
  O  O56  1  0.54754500  0.36478900  0.06578500  1
  O  O57  1  0.56312600  0.17304700  0.90640500  1
  O  O58  1  0.57213100  0.09403500  0.33485500  1
  O  O59  1  0.57532700  0.39339600  0.65122400  1
  O  O60  1  0.61324900  0.86072400  0.92250000  1
  O  O61  1  0.64353200  0.91079900  0.52369200  1
  O  O62  1  0.65022200  0.47148800  0.25726700  1
  O  O63  1  0.65140700  0.72047500  0.67938600  1
  O  O64  1  0.65353100  0.75696100  0.30691500  1
  O  O65  1  0.66375700  0.67135800  0.07026300  1
  O  O66  1  0.67132800  0.54733800  0.45260900  1
  O  O67  1  0.69382800  0.00677100  0.71536100  1
  O  O68  1  0.80373000  0.50989900  0.79169700  1
  O  O69  1  0.82994300  0.04992000  0.04236600  1
  O  O70  1  0.83302300  0.17429600  0.43099900  1
  O  O71  1  0.84734200  0.25588000  0.19067000  1
  O  O72  1  0.85018300  0.97162400  0.23879400  1
  O  O73  1  0.84927200  0.22244900  0.82143500  1
  O  O74  1  0.85951700  0.40726100  0.98020900  1
  O  O75  1  0.89009100  0.36236300  0.58121200  1
  O  O76  1  0.92554300  0.89449500  0.84593900  1
  O  O77  1  0.92984100  0.59712000  0.16749500  1
  O  O78  1  0.93646700  0.67425900  0.59493200  1
  O  O79  1  0.94805000  0.86645200  0.43402300  1
