# generated using pymatgen
data_Li2V3FeO8
_symmetry_space_group_name_H-M   'P 1'
_cell_length_a   5.92953542
_cell_length_b   5.92953542
_cell_length_c   9.60379995
_cell_angle_alpha   89.46096246
_cell_angle_beta   89.46096246
_cell_angle_gamma   120.28557948
_symmetry_Int_Tables_number   1
_chemical_formula_structural   Li2V3FeO8
_chemical_formula_sum   'Li4 V6 Fe2 O16'
_cell_volume   291.52818050
_cell_formula_units_Z   2
loop_
 _symmetry_equiv_pos_site_id
 _symmetry_equiv_pos_as_xyz
  1  'x, y, z'
loop_
 _atom_site_type_symbol
 _atom_site_label
 _atom_site_symmetry_multiplicity
 _atom_site_fract_x
 _atom_site_fract_y
 _atom_site_fract_z
 _atom_site_occupancy
  Li  Li0  1  0.33405600  0.66968900  0.10649300  1
  Li  Li1  1  0.00348800  0.99979300  0.00485100  1
  Li  Li2  1  0.99979300  0.00348800  0.50485100  1
  Li  Li3  1  0.66968900  0.33405600  0.60649300  1
  V  V4  1  0.17734700  0.34188900  0.78338100  1
  V  V5  1  0.65764400  0.82757200  0.79028600  1
  V  V6  1  0.17585600  0.83303500  0.78372300  1
  V  V7  1  0.83303500  0.17585600  0.28372300  1
  V  V8  1  0.34188900  0.17734700  0.28338100  1
  V  V9  1  0.82757200  0.65764400  0.29028600  1
  Fe  Fe10  1  0.32836300  0.66821800  0.50657700  1
  Fe  Fe11  1  0.66821800  0.32836300  0.00657700  1
  O  O12  1  0.16356200  0.33093900  0.39688400  1
  O  O13  1  0.47179300  0.51059700  0.66330300  1
  O  O14  1  0.31131600  0.65371600  0.89988400  1
  O  O15  1  0.00988000  0.00455400  0.69005300  1
  O  O16  1  0.00455400  0.00988000  0.19005300  1
  O  O17  1  0.67455200  0.84467100  0.39828400  1
  O  O18  1  0.04036900  0.52133200  0.66227900  1
  O  O19  1  0.47116600  0.96140400  0.66409300  1
  O  O20  1  0.84509400  0.16778600  0.89598600  1
  O  O21  1  0.16778600  0.84509400  0.39598600  1
  O  O22  1  0.52133200  0.04036900  0.16227900  1
  O  O23  1  0.96140400  0.47116600  0.16409300  1
  O  O24  1  0.65371600  0.31131600  0.39988400  1
  O  O25  1  0.33093900  0.16356200  0.89688400  1
  O  O26  1  0.51059700  0.47179300  0.16330300  1
  O  O27  1  0.84467100  0.67455200  0.89828400  1
