# generated using pymatgen
data_LiMn(PO3)4
_symmetry_space_group_name_H-M   'P 1'
_cell_length_a   8.69861790
_cell_length_b   8.69861790
_cell_length_c   9.62832429
_cell_angle_alpha   59.17255474
_cell_angle_beta   59.17255474
_cell_angle_gamma   50.33959614
_symmetry_Int_Tables_number   1
_chemical_formula_structural   LiMn(PO3)4
_chemical_formula_sum   'Li2 Mn2 P8 O24'
_cell_volume   462.29038870
_cell_formula_units_Z   2
loop_
 _symmetry_equiv_pos_site_id
 _symmetry_equiv_pos_as_xyz
  1  'x, y, z'
loop_
 _atom_site_type_symbol
 _atom_site_label
 _atom_site_symmetry_multiplicity
 _atom_site_fract_x
 _atom_site_fract_y
 _atom_site_fract_z
 _atom_site_occupancy
  Li  Li0  1  0.70552000  0.29448000  0.75000000  1
  Li  Li1  1  0.29448000  0.70552000  0.25000000  1
  Mn  Mn2  1  0.15534800  0.84465200  0.75000000  1
  Mn  Mn3  1  0.84465200  0.15534800  0.25000000  1
  P  P4  1  0.03633600  0.69492800  0.16390200  1
  P  P5  1  0.44193800  0.29129900  0.13855400  1
  P  P6  1  0.70870100  0.55806200  0.36144600  1
  P  P7  1  0.30507200  0.96366400  0.33609800  1
  P  P8  1  0.69492800  0.03633600  0.66390200  1
  P  P9  1  0.29129900  0.44193800  0.63855400  1
  P  P10  1  0.55806200  0.70870100  0.86144600  1
  P  P11  1  0.96366400  0.30507200  0.83609800  1
  O  O12  1  0.60113800  0.18598800  0.22643000  1
  O  O13  1  0.23464500  0.47927500  0.21847900  1
  O  O14  1  0.04083400  0.73835900  0.98801000  1
  O  O15  1  0.85325400  0.65274200  0.29487600  1
  O  O16  1  0.97847200  0.14887000  0.79738400  1
  O  O17  1  0.34725800  0.14674600  0.20512400  1
  O  O18  1  0.26164100  0.95916600  0.51199000  1
  O  O19  1  0.64127000  0.50589000  0.54748700  1
  O  O20  1  0.49411000  0.35873000  0.95251300  1
  O  O21  1  0.52072500  0.76535500  0.28152100  1
  O  O22  1  0.81401200  0.39886200  0.27357000  1
  O  O23  1  0.85113000  0.02152800  0.70261600  1
  O  O24  1  0.14887000  0.97847200  0.29738400  1
  O  O25  1  0.18598800  0.60113800  0.72643000  1
  O  O26  1  0.47927500  0.23464500  0.71847900  1
  O  O27  1  0.50589000  0.64127000  0.04748700  1
  O  O28  1  0.35873000  0.49411000  0.45251300  1
  O  O29  1  0.73835900  0.04083400  0.48801000  1
  O  O30  1  0.65274200  0.85325400  0.79487600  1
  O  O31  1  0.02152800  0.85113000  0.20261600  1
  O  O32  1  0.14674600  0.34725800  0.70512400  1
  O  O33  1  0.95916600  0.26164100  0.01199000  1
  O  O34  1  0.76535500  0.52072500  0.78152100  1
  O  O35  1  0.39886200  0.81401200  0.77357000  1
