# generated using pymatgen
data_LiSi4H27(C3O)3
_symmetry_space_group_name_H-M   'P 1'
_cell_length_a   16.53734900
_cell_length_b   9.95583300
_cell_length_c   13.11144507
_cell_angle_alpha   75.81926172
_cell_angle_beta   90.00000000
_cell_angle_gamma   90.00000000
_symmetry_Int_Tables_number   1
_chemical_formula_structural   LiSi4H27(C3O)3
_chemical_formula_sum   'Li4 Si16 H108 C36 O12'
_cell_volume   2092.92807746
_cell_formula_units_Z   4
loop_
 _symmetry_equiv_pos_site_id
 _symmetry_equiv_pos_as_xyz
  1  'x, y, z'
loop_
 _atom_site_type_symbol
 _atom_site_label
 _atom_site_symmetry_multiplicity
 _atom_site_fract_x
 _atom_site_fract_y
 _atom_site_fract_z
 _atom_site_occupancy
  Li  Li0  1  0.24907900  0.29356000  0.92384700  1
  Li  Li1  1  0.74907900  0.70644000  0.57615300  1
  Li  Li2  1  0.75092100  0.70644000  0.07615300  1
  Li  Li3  1  0.25092100  0.29356000  0.42384700  1
  Si  Si4  1  0.12837300  0.23574100  0.11069900  1
  Si  Si5  1  0.62837300  0.76425900  0.38930100  1
  Si  Si6  1  0.87162700  0.76425900  0.88930100  1
  Si  Si7  1  0.37162700  0.23574100  0.61069900  1
  Si  Si8  1  0.28324800  0.49594400  0.06483300  1
  Si  Si9  1  0.78324800  0.50405600  0.43516700  1
  Si  Si10  1  0.71675200  0.50405600  0.93516700  1
  Si  Si11  1  0.21675200  0.49594400  0.56483300  1
  Si  Si12  1  0.33538000  0.13932100  0.12989900  1
  Si  Si13  1  0.83538000  0.86067900  0.37010100  1
  Si  Si14  1  0.66462000  0.86067900  0.87010100  1
  Si  Si15  1  0.16462000  0.13932100  0.62989900  1
  Si  Si16  1  0.24799100  0.29068200  0.18859600  1
  Si  Si17  1  0.74799100  0.70931800  0.31140400  1
  Si  Si18  1  0.75200900  0.70931800  0.81140400  1
  Si  Si19  1  0.25200900  0.29068200  0.68859600  1
  H  H20  1  0.04401600  0.43789300  0.13125300  1
  H  H21  1  0.54401600  0.56210700  0.36874700  1
  H  H22  1  0.95598400  0.56210700  0.86874700  1
  H  H23  1  0.45598400  0.43789300  0.63125300  1
  H  H24  1  0.02911500  0.28897400  0.23646600  1
  H  H25  1  0.52911500  0.71102600  0.26353400  1
  H  H26  1  0.97088500  0.71102600  0.76353400  1
  H  H27  1  0.47088500  0.28897400  0.73646600  1
  H  H28  1  0.98099400  0.29910800  0.11423100  1
  H  H29  1  0.48099400  0.70089200  0.38576900  1
  H  H30  1  0.01900600  0.70089200  0.88576900  1
  H  H31  1  0.51900600  0.29910800  0.61423100  1
  H  H32  1  0.04031000  0.03113600  0.11245100  1
  H  H33  1  0.54031000  0.96886400  0.38754900  1
  H  H34  1  0.95969000  0.96886400  0.88754900  1
  H  H35  1  0.45969000  0.03113600  0.61245100  1
  H  H36  1  0.10203700  0.99956000  0.22658800  1
  H  H37  1  0.60203700  0.00044000  0.27341200  1
  H  H38  1  0.89796300  0.00044000  0.77341200  1
  H  H39  1  0.39796300  0.99956000  0.72658800  1
  H  H40  1  0.14468500  0.98837500  0.10402800  1
  H  H41  1  0.64468500  0.01162500  0.39597200  1
  H  H42  1  0.85531500  0.01162500  0.89597200  1
  H  H43  1  0.35531500  0.98837500  0.60402800  1
  H  H44  1  0.22334600  0.72480800  0.97449900  1
  H  H45  1  0.72334600  0.27519200  0.52550100  1
  H  H46  1  0.77665400  0.27519200  0.02550100  1
  H  H47  1  0.27665400  0.72480800  0.47449900  1
  H  H48  1  0.19241600  0.67496200  0.10801600  1
  H  H49  1  0.69241600  0.32503800  0.39198400  1
  H  H50  1  0.80758400  0.32503800  0.89198400  1
  H  H51  1  0.30758400  0.67496200  0.60801600  1
  H  H52  1  0.14633100  0.59691800  0.01353100  1
  H  H53  1  0.64633100  0.40308200  0.48646900  1
  H  H54  1  0.85366900  0.40308200  0.98646900  1
  H  H55  1  0.35366900  0.59691800  0.51353100  1
  H  H56  1  0.42825200  0.50766200  0.12085600  1
  H  H57  1  0.92825200  0.49233800  0.37914400  1
  H  H58  1  0.57174800  0.49233800  0.87914400  1
  H  H59  1  0.07174800  0.50766200  0.62085600  1
  H  H60  1  0.36302400  0.60839900  0.18027700  1
  H  H61  1  0.86302400  0.39160100  0.31972300  1
  H  H62  1  0.63697600  0.39160100  0.81972300  1
  H  H63  1  0.13697600  0.60839900  0.68027700  1
  H  H64  1  0.39415500  0.67366700  0.04789000  1
  H  H65  1  0.89415500  0.32633300  0.45211000  1
  H  H66  1  0.60584500  0.32633300  0.95211000  1
  H  H67  1  0.10584500  0.67366700  0.54789000  1
  H  H68  1  0.48225700  0.11015600  0.09604200  1
  H  H69  1  0.98225700  0.88984400  0.40395800  1
  H  H70  1  0.51774300  0.88984400  0.90395800  1
  H  H71  1  0.01774300  0.11015600  0.59604200  1
  H  H72  1  0.46892700  0.20878200  0.19066500  1
  H  H73  1  0.96892700  0.79121800  0.30933500  1
  H  H74  1  0.53107300  0.79121800  0.80933500  1
  H  H75  1  0.03107300  0.20878200  0.69066500  1
  H  H76  1  0.45309400  0.28813200  0.05453700  1
  H  H77  1  0.95309400  0.71186800  0.44546300  1
  H  H78  1  0.54690600  0.71186800  0.94546300  1
  H  H79  1  0.04690600  0.28813200  0.55453700  1
  H  H80  1  0.27512100  0.90961300  0.22291000  1
  H  H81  1  0.77512100  0.09038700  0.27709000  1
  H  H82  1  0.72487900  0.09038700  0.77709000  1
  H  H83  1  0.22487900  0.90961300  0.72291000  1
  H  H84  1  0.35142900  0.96483400  0.29925400  1
  H  H85  1  0.85142900  0.03516600  0.20074600  1
  H  H86  1  0.64857100  0.03516600  0.70074600  1
  H  H87  1  0.14857100  0.96483400  0.79925400  1
  H  H88  1  0.37974800  0.89046600  0.19502700  1
  H  H89  1  0.87974800  0.10953400  0.30497300  1
  H  H90  1  0.62025200  0.10953400  0.80497300  1
  H  H91  1  0.12025200  0.89046600  0.69502700  1
  H  H92  1  0.00992100  0.28218100  0.94653900  1
  H  H93  1  0.50992100  0.71781900  0.55346100  1
  H  H94  1  0.99007900  0.71781900  0.05346100  1
  H  H95  1  0.49007900  0.28218100  0.44653900  1
  H  H96  1  0.06998500  0.16882500  0.89131400  1
  H  H97  1  0.56998500  0.83117500  0.60868600  1
  H  H98  1  0.93001500  0.83117500  0.10868600  1
  H  H99  1  0.43001500  0.16882500  0.39131400  1
  H  H100  1  0.07273100  0.35215800  0.83538500  1
  H  H101  1  0.57273100  0.64784200  0.66461500  1
  H  H102  1  0.92726900  0.64784200  0.16461500  1
  H  H103  1  0.42726900  0.35215800  0.33538500  1
  H  H104  1  0.29837400  0.65481300  0.83249200  1
  H  H105  1  0.79837400  0.34518700  0.66750800  1
  H  H106  1  0.70162600  0.34518700  0.16750800  1
  H  H107  1  0.20162600  0.65481300  0.33249200  1
  H  H108  1  0.35143900  0.51816100  0.79441400  1
  H  H109  1  0.85143900  0.48183900  0.70558600  1
  H  H110  1  0.64856100  0.48183900  0.20558600  1
  H  H111  1  0.14856100  0.51816100  0.29441400  1
  H  H112  1  0.39693500  0.60500600  0.88443100  1
  H  H113  1  0.89693500  0.39499400  0.61556900  1
  H  H114  1  0.60306500  0.39499400  0.11556900  1
  H  H115  1  0.10306500  0.60500600  0.38443100  1
  H  H116  1  0.40093500  0.07322800  0.91592800  1
  H  H117  1  0.90093500  0.92677200  0.58407200  1
  H  H118  1  0.59906500  0.92677200  0.08407200  1
  H  H119  1  0.09906500  0.07322800  0.41592800  1
  H  H120  1  0.30324900  0.00473900  0.89856100  1
  H  H121  1  0.80324900  0.99526100  0.60143900  1
  H  H122  1  0.69675100  0.99526100  0.10143900  1
  H  H123  1  0.19675100  0.00473900  0.39856100  1
  H  H124  1  0.36088100  0.93140100  0.01411500  1
  H  H125  1  0.86088100  0.06859900  0.48588500  1
  H  H126  1  0.63911900  0.06859900  0.98588500  1
  H  H127  1  0.13911900  0.93140100  0.51411500  1
  C  C128  1  0.06829400  0.27123800  0.90953600  1
  C  C129  1  0.56829400  0.72876200  0.59046400  1
  C  C130  1  0.93170600  0.72876200  0.09046400  1
  C  C131  1  0.43170600  0.27123800  0.40953600  1
  C  C132  1  0.33956800  0.56605500  0.86009300  1
  C  C133  1  0.83956800  0.43394500  0.63990700  1
  C  C134  1  0.66043200  0.43394500  0.13990700  1
  C  C135  1  0.16043200  0.56605500  0.36009300  1
  C  C136  1  0.34526000  0.02849100  0.95683500  1
  C  C137  1  0.84526000  0.97150900  0.54316500  1
  C  C138  1  0.65474000  0.97150900  0.04316500  1
  C  C139  1  0.15474000  0.02849100  0.45683500  1
  C  C140  1  0.03708600  0.32462700  0.15070300  1
  C  C141  1  0.53708600  0.67537300  0.34929700  1
  C  C142  1  0.96291400  0.67537300  0.84929700  1
  C  C143  1  0.46291400  0.32462700  0.65070300  1
  C  C144  1  0.10153100  0.04556800  0.14132800  1
  C  C145  1  0.60153100  0.95443200  0.35867200  1
  C  C146  1  0.89846900  0.95443200  0.85867200  1
  C  C147  1  0.39846900  0.04556800  0.64132800  1
  C  C148  1  0.20352500  0.63602000  0.03766700  1
  C  C149  1  0.70352500  0.36398000  0.46233300  1
  C  C150  1  0.79647500  0.36398000  0.96233300  1
  C  C151  1  0.29647500  0.63602000  0.53766700  1
  C  C152  1  0.37634800  0.57873900  0.10648300  1
  C  C153  1  0.87634800  0.42126100  0.39351700  1
  C  C154  1  0.62365200  0.42126100  0.89351700  1
  C  C155  1  0.12365200  0.57873900  0.60648300  1
  C  C156  1  0.44531800  0.19209500  0.11635900  1
  C  C157  1  0.94531800  0.80790500  0.38364100  1
  C  C158  1  0.55468200  0.80790500  0.88364100  1
  C  C159  1  0.05468200  0.19209500  0.61635900  1
  C  C160  1  0.33500200  0.95857100  0.21917400  1
  C  C161  1  0.83500200  0.04142900  0.28082600  1
  C  C162  1  0.66499800  0.04142900  0.78082600  1
  C  C163  1  0.16499800  0.95857100  0.71917400  1
  O  O164  1  0.13516500  0.28754200  0.97527600  1
  O  O165  1  0.63516500  0.71245800  0.52472400  1
  O  O166  1  0.86483500  0.71245800  0.02472400  1
  O  O167  1  0.36483500  0.28754200  0.47527600  1
  O  O168  1  0.30437500  0.46266700  0.94428500  1
  O  O169  1  0.80437500  0.53733300  0.55571500  1
  O  O170  1  0.69562500  0.53733300  0.05571500  1
  O  O171  1  0.19562500  0.46266700  0.44428500  1
  O  O172  1  0.30637500  0.12458700  0.00653400  1
  O  O173  1  0.80637500  0.87541300  0.49346600  1
  O  O174  1  0.69362500  0.87541300  0.99346600  1
  O  O175  1  0.19362500  0.12458700  0.50653400  1
