# generated using pymatgen
data_Li9Co7O16
_symmetry_space_group_name_H-M   'P 1'
_cell_length_a   10.12783495
_cell_length_b   10.12783495
_cell_length_c   4.98847875
_cell_angle_alpha   80.39489495
_cell_angle_beta   80.39489495
_cell_angle_gamma   33.04427156
_symmetry_Int_Tables_number   1
_chemical_formula_structural   Li9Co7O16
_chemical_formula_sum   'Li9 Co7 O16'
_cell_volume   274.75598100
_cell_formula_units_Z   1
loop_
 _symmetry_equiv_pos_site_id
 _symmetry_equiv_pos_as_xyz
  1  'x, y, z'
loop_
 _atom_site_type_symbol
 _atom_site_label
 _atom_site_symmetry_multiplicity
 _atom_site_fract_x
 _atom_site_fract_y
 _atom_site_fract_z
 _atom_site_occupancy
  Li  Li0  1  0.86638000  0.37565000  0.75049200  1
  Li  Li1  1  0.13362000  0.62435000  0.24950800  1
  Li  Li2  1  0.37565000  0.86638000  0.75049200  1
  Li  Li3  1  0.62016400  0.62016400  0.24970600  1
  Li  Li4  1  0.87849500  0.87849500  0.74473600  1
  Li  Li5  1  0.12150500  0.12150500  0.25526400  1
  Li  Li6  1  0.62435000  0.13362000  0.24950800  1
  Li  Li7  1  0.37983600  0.37983600  0.75029400  1
  Li  Li8  1  0.50000000  0.50000000  0.00000000  1
  Co  Co9  1  0.00000000  0.00000000  0.00000000  1
  Co  Co10  1  0.25352900  0.74647100  0.50000000  1
  Co  Co11  1  0.25060700  0.25060700  0.50018500  1
  Co  Co12  1  0.74939300  0.74939300  0.49981500  1
  Co  Co13  1  0.00000000  0.50000000  0.00000000  1
  Co  Co14  1  0.50000000  0.00000000  0.00000000  1
  Co  Co15  1  0.74647100  0.25352900  0.50000000  1
  O  O16  1  0.82368700  0.28534200  0.13896600  1
  O  O17  1  0.05604200  0.55902300  0.61905100  1
  O  O18  1  0.28534200  0.82368700  0.13896600  1
  O  O19  1  0.55532600  0.55532600  0.60250300  1
  O  O20  1  0.80617100  0.80617100  0.14726200  1
  O  O21  1  0.05338700  0.05338700  0.63501400  1
  O  O22  1  0.55902300  0.05604200  0.61905100  1
  O  O23  1  0.30787200  0.30787200  0.14777200  1
  O  O24  1  0.94395800  0.44097700  0.38094900  1
  O  O25  1  0.17631300  0.71465800  0.86103400  1
  O  O26  1  0.44097700  0.94395800  0.38094900  1
  O  O27  1  0.69212800  0.69212800  0.85222800  1
  O  O28  1  0.94661300  0.94661300  0.36498600  1
  O  O29  1  0.19382900  0.19382900  0.85273800  1
  O  O30  1  0.71465800  0.17631300  0.86103400  1
  O  O31  1  0.44467400  0.44467400  0.39749700  1
