# generated using pymatgen
data_Li4MnFe3(BO3)4
_symmetry_space_group_name_H-M   'P 1'
_cell_length_a   5.22139200
_cell_length_b   5.22579887
_cell_length_c   20.87297093
_cell_angle_alpha   91.08435446
_cell_angle_beta   90.74406281
_cell_angle_gamma   119.85038801
_symmetry_Int_Tables_number   1
_chemical_formula_structural   Li4MnFe3(BO3)4
_chemical_formula_sum   'Li8 Mn2 Fe6 B8 O24'
_cell_volume   493.72357607
_cell_formula_units_Z   2
loop_
 _symmetry_equiv_pos_site_id
 _symmetry_equiv_pos_as_xyz
  1  'x, y, z'
loop_
 _atom_site_type_symbol
 _atom_site_label
 _atom_site_symmetry_multiplicity
 _atom_site_fract_x
 _atom_site_fract_y
 _atom_site_fract_z
 _atom_site_occupancy
  Li  Li0  1  0.34906900  0.32108100  0.66631800  1
  Li  Li1  1  0.32098900  0.34636200  0.91633300  1
  Li  Li2  1  0.34673500  0.32154500  0.16603100  1
  Li  Li3  1  0.32109700  0.34785200  0.41587600  1
  Li  Li4  1  0.66497500  0.65293600  0.79160800  1
  Li  Li5  1  0.65131700  0.66140500  0.54141500  1
  Li  Li6  1  0.66135700  0.65082400  0.29119200  1
  Li  Li7  1  0.65237000  0.66390400  0.04144500  1
  Mn  Mn8  1  0.99512600  0.32643500  0.55901500  1
  Mn  Mn9  1  0.99899000  0.67888400  0.43316500  1
  Fe  Fe10  1  0.00125100  0.33034700  0.05821000  1
  Fe  Fe11  1  0.99583700  0.68078200  0.93398900  1
  Fe  Fe12  1  0.68215500  0.99856700  0.68428800  1
  Fe  Fe13  1  0.67929500  0.99393800  0.18377900  1
  Fe  Fe14  1  0.32669200  0.00106100  0.80831400  1
  Fe  Fe15  1  0.33199300  0.00320000  0.30776900  1
  B  B16  1  0.66137700  0.00424000  0.93684300  1
  B  B17  1  0.65874000  0.00352000  0.43655000  1
  B  B18  1  0.99299100  0.33188400  0.81208300  1
  B  B19  1  0.99314100  0.33251400  0.31141500  1
  B  B20  1  0.00333300  0.66165700  0.68759500  1
  B  B21  1  0.00518700  0.66200400  0.18698300  1
  B  B22  1  0.33478300  0.99403800  0.56276000  1
  B  B23  1  0.33283600  0.99324400  0.06207200  1
  O  O24  1  0.74580800  0.06800700  0.79171000  1
  O  O25  1  0.74505700  0.06705700  0.29129700  1
  O  O26  1  0.93085400  0.25814500  0.95181500  1
  O  O27  1  0.41621600  0.02351700  0.91681700  1
  O  O28  1  0.93257600  0.25299200  0.45204300  1
  O  O29  1  0.42314000  0.03689500  0.41559500  1
  O  O30  1  0.97021600  0.58143800  0.82726500  1
  O  O31  1  0.36253000  0.27049700  0.56982500  1
  O  O32  1  0.96817400  0.58122100  0.32619600  1
  O  O33  1  0.34946000  0.26627100  0.06844200  1
  O  O34  1  0.26735300  0.35042100  0.81867500  1
  O  O35  1  0.26516700  0.34942500  0.31829700  1
  O  O36  1  0.72750600  0.63779900  0.69426200  1
  O  O37  1  0.72889500  0.63879600  0.19346100  1
  O  O38  1  0.63798400  0.72833300  0.94377700  1
  O  O39  1  0.02422400  0.41580100  0.66783400  1
  O  O40  1  0.62587900  0.72614700  0.44401900  1
  O  O41  1  0.02466300  0.41606600  0.16737300  1
  O  O42  1  0.57651100  0.95816500  0.57855700  1
  O  O43  1  0.58135100  0.96970900  0.07744000  1
  O  O44  1  0.06880300  0.75261100  0.54110900  1
  O  O45  1  0.06848100  0.74487300  0.04161400  1
  O  O46  1  0.25773500  0.93005600  0.70226900  1
  O  O47  1  0.25858200  0.93233300  0.20146300  1
