# generated using pymatgen
data_Li9Mn2Co5O16
_symmetry_space_group_name_H-M   'P 1'
_cell_length_a   2.98636500
_cell_length_b   7.79211377
_cell_length_c   12.54385555
_cell_angle_alpha   89.28281370
_cell_angle_beta   89.78720244
_cell_angle_gamma   81.41864629
_symmetry_Int_Tables_number   1
_chemical_formula_structural   Li9Mn2Co5O16
_chemical_formula_sum   'Li9 Mn2 Co5 O16'
_cell_volume   288.60582065
_cell_formula_units_Z   1
loop_
 _symmetry_equiv_pos_site_id
 _symmetry_equiv_pos_as_xyz
  1  'x, y, z'
loop_
 _atom_site_type_symbol
 _atom_site_label
 _atom_site_symmetry_multiplicity
 _atom_site_fract_x
 _atom_site_fract_y
 _atom_site_fract_z
 _atom_site_occupancy
  Li  Li0  1  0.18541100  0.62773700  0.06398500  1
  Li  Li1  1  0.94272400  0.12591600  0.31203900  1
  Li  Li2  1  0.68946200  0.62106300  0.57032200  1
  Li  Li3  1  0.81636000  0.37295400  0.93354700  1
  Li  Li4  1  0.56393300  0.87418200  0.19081600  1
  Li  Li5  1  0.30886900  0.37498600  0.43980700  1
  Li  Li6  1  0.42180200  0.13216000  0.80410500  1
  Li  Li7  1  0.07168300  0.86164000  0.68677200  1
  Li  Li8  1  0.23421800  0.50772400  0.74455400  1
  Mn  Mn9  1  0.00987000  0.00079300  0.00138200  1
  Mn  Mn10  1  0.63793300  0.74048500  0.87044800  1
  Co  Co11  1  0.73876500  0.50008000  0.25107000  1
  Co  Co12  1  0.50285500  0.00086800  0.50200300  1
  Co  Co13  1  0.36363600  0.25281000  0.12466400  1
  Co  Co14  1  0.12037300  0.75038500  0.37732700  1
  Co  Co15  1  0.87245100  0.25901500  0.62863600  1
  O  O16  1  0.63781000  0.81751000  0.02444500  1
  O  O17  1  0.32408200  0.31983700  0.27162700  1
  O  O18  1  0.08991900  0.81617500  0.52519300  1
  O  O19  1  0.20300800  0.58355200  0.90175400  1
  O  O20  1  0.99648700  0.07321300  0.14988600  1
  O  O21  1  0.70182000  0.56737000  0.39865300  1
  O  O22  1  0.85374900  0.29817500  0.76595300  1
  O  O23  1  0.50981700  0.06933000  0.64737200  1
  O  O24  1  0.73439900  0.43121600  0.10131200  1
  O  O25  1  0.54021400  0.93671700  0.35286300  1
  O  O26  1  0.26080100  0.41998200  0.59534200  1
  O  O27  1  0.37591700  0.18639100  0.97410600  1
  O  O28  1  0.15686700  0.68478600  0.22752400  1
  O  O29  1  0.91936700  0.18367200  0.48114700  1
  O  O30  1  0.06611300  0.91549700  0.85277900  1
  O  O31  1  0.64928500  0.69378000  0.72856400  1
