# generated using pymatgen
data_Li2Th5OF22
_symmetry_space_group_name_H-M   'P 1'
_cell_length_a   11.33866800
_cell_length_b   11.33866800
_cell_length_c   6.87913500
_cell_angle_alpha   90.00000000
_cell_angle_beta   90.00000000
_cell_angle_gamma   90.00000000
_symmetry_Int_Tables_number   1
_chemical_formula_structural   Li2Th5OF22
_chemical_formula_sum   'Li4 Th10 O2 F44'
_cell_volume   884.41868799
_cell_formula_units_Z   2
loop_
 _symmetry_equiv_pos_site_id
 _symmetry_equiv_pos_as_xyz
  1  'x, y, z'
loop_
 _atom_site_type_symbol
 _atom_site_label
 _atom_site_symmetry_multiplicity
 _atom_site_fract_x
 _atom_site_fract_y
 _atom_site_fract_z
 _atom_site_occupancy
  Li  Li0  1  0.50000000  0.50000000  0.24960600  1
  Li  Li1  1  0.00000000  0.00000000  0.75039400  1
  Li  Li2  1  0.50000000  0.50000000  0.75039400  1
  Li  Li3  1  0.00000000  0.00000000  0.24960600  1
  Th  Th4  1  0.65444400  0.34555600  0.50000000  1
  Th  Th5  1  0.34555600  0.65444400  0.50000000  1
  Th  Th6  1  0.84555600  0.84555600  0.50000000  1
  Th  Th7  1  0.15444400  0.15444400  0.50000000  1
  Th  Th8  1  0.84394900  0.15605100  0.00000000  1
  Th  Th9  1  0.15605100  0.84394900  0.00000000  1
  Th  Th10  1  0.65605100  0.65605100  0.00000000  1
  Th  Th11  1  0.34394900  0.34394900  0.00000000  1
  Th  Th12  1  0.50000000  0.00000000  0.25601300  1
  Th  Th13  1  0.00000000  0.50000000  0.74398700  1
  O  O14  1  0.50000000  0.00000000  0.69661500  1
  O  O15  1  0.00000000  0.50000000  0.30338500  1
  F  F16  1  0.65061400  0.08855400  0.06246300  1
  F  F17  1  0.34938600  0.91144600  0.06246300  1
  F  F18  1  0.84938600  0.58855400  0.93753700  1
  F  F19  1  0.15061400  0.41144600  0.93753700  1
  F  F20  1  0.08855400  0.65061400  0.93753700  1
  F  F21  1  0.91144600  0.34938600  0.93753700  1
  F  F22  1  0.58855400  0.84938600  0.06246300  1
  F  F23  1  0.41144600  0.15061400  0.06246300  1
  F  F24  1  0.83193800  0.99812900  0.24863400  1
  F  F25  1  0.16806200  0.00187100  0.24863400  1
  F  F26  1  0.66806200  0.49812900  0.75136600  1
  F  F27  1  0.33193800  0.50187100  0.75136600  1
  F  F28  1  0.99812900  0.83193800  0.75136600  1
  F  F29  1  0.00187100  0.16806200  0.75136600  1
  F  F30  1  0.49812900  0.66806200  0.24863400  1
  F  F31  1  0.50187100  0.33193800  0.24863400  1
  F  F32  1  0.67649600  0.50353100  0.25161200  1
  F  F33  1  0.32350400  0.49646900  0.25161200  1
  F  F34  1  0.82350400  0.00353100  0.74838800  1
  F  F35  1  0.17649600  0.99646900  0.74838800  1
  F  F36  1  0.50353100  0.67649600  0.74838800  1
  F  F37  1  0.49646900  0.32350400  0.74838800  1
  F  F38  1  0.00353100  0.82350400  0.25161200  1
  F  F39  1  0.99646900  0.17649600  0.25161200  1
  F  F40  1  0.59049200  0.15265200  0.44360400  1
  F  F41  1  0.40950800  0.84734800  0.44360400  1
  F  F42  1  0.90950800  0.65265200  0.55639600  1
  F  F43  1  0.09049200  0.34734800  0.55639600  1
  F  F44  1  0.15265200  0.59049200  0.55639600  1
  F  F45  1  0.84734800  0.40950800  0.55639600  1
  F  F46  1  0.65265200  0.90950800  0.44360400  1
  F  F47  1  0.34734800  0.09049200  0.44360400  1
  F  F48  1  0.76473200  0.26872100  0.24706800  1
  F  F49  1  0.23526800  0.73127900  0.24706800  1
  F  F50  1  0.73526800  0.76872100  0.75293200  1
  F  F51  1  0.26473200  0.23127900  0.75293200  1
  F  F52  1  0.26872100  0.76473200  0.75293200  1
  F  F53  1  0.73127900  0.23526800  0.75293200  1
  F  F54  1  0.76872100  0.73526800  0.24706800  1
  F  F55  1  0.23127900  0.26473200  0.24706800  1
  F  F56  1  0.50000000  0.50000000  0.00000000  1
  F  F57  1  0.00000000  0.00000000  0.00000000  1
  F  F58  1  0.50000000  0.50000000  0.50000000  1
  F  F59  1  0.00000000  0.00000000  0.50000000  1
