# generated using pymatgen
data_Li7V3P8O29
_symmetry_space_group_name_H-M   'P 1'
_cell_length_a   9.83524300
_cell_length_b   9.85327486
_cell_length_c   13.93233063
_cell_angle_alpha   89.68564565
_cell_angle_beta   89.57120903
_cell_angle_gamma   60.06581640
_symmetry_Int_Tables_number   1
_chemical_formula_structural   Li7V3P8O29
_chemical_formula_sum   'Li14 V6 P16 O58'
_cell_volume   1170.02379184
_cell_formula_units_Z   2
loop_
 _symmetry_equiv_pos_site_id
 _symmetry_equiv_pos_as_xyz
  1  'x, y, z'
loop_
 _atom_site_type_symbol
 _atom_site_label
 _atom_site_symmetry_multiplicity
 _atom_site_fract_x
 _atom_site_fract_y
 _atom_site_fract_z
 _atom_site_occupancy
  Li  Li0  1  0.32659200  0.90781300  0.06455700  1
  Li  Li1  1  0.76738300  0.90135800  0.55794500  1
  Li  Li2  1  0.66788200  0.65999400  0.88599700  1
  Li  Li3  1  0.90220100  0.76880300  0.06484400  1
  Li  Li4  1  0.76448900  0.32663800  0.06275900  1
  Li  Li5  1  0.09705100  0.66233300  0.43714900  1
  Li  Li6  1  0.90549100  0.32997600  0.56121500  1
  Li  Li7  1  0.09334700  0.23271400  0.93845900  1
  Li  Li8  1  0.33065600  0.34499600  0.61433700  1
  Li  Li9  1  0.23148700  0.09391100  0.43430200  1
  Li  Li10  1  0.68661200  0.22410100  0.43736300  1
  Li  Li11  1  0.65055600  0.11006200  0.94853600  1
  Li  Li12  1  0.04981000  0.92755900  0.98452100  1
  Li  Li13  1  0.07942600  0.93021900  0.52000500  1
  V  V14  1  0.99956200  0.56749200  0.24802200  1
  V  V15  1  0.99896300  0.43669200  0.75346100  1
  V  V16  1  0.43163500  0.57036400  0.74940700  1
  V  V17  1  0.55862200  0.43961900  0.25180000  1
  V  V18  1  0.43272400  0.99954200  0.24997800  1
  V  V19  1  0.56290600  0.00055200  0.74627700  1
  P  P20  1  0.31269300  0.91092700  0.84036000  1
  P  P21  1  0.30487300  0.77536800  0.34389700  1
  P  P22  1  0.77197700  0.91021300  0.34192500  1
  P  P23  1  0.66746600  0.66364600  0.12770100  1
  P  P24  1  0.66670600  0.66612900  0.62680600  1
  P  P25  1  0.90125300  0.77890800  0.84627000  1
  P  P26  1  0.08982600  0.68636500  0.66116300  1
  P  P27  1  0.76868700  0.31660700  0.84383300  1
  P  P28  1  0.22407800  0.69247800  0.15617600  1
  P  P29  1  0.90903700  0.31930400  0.34231300  1
  P  P30  1  0.08376000  0.23157300  0.15674000  1
  P  P31  1  0.33080800  0.33652500  0.37229000  1
  P  P32  1  0.34218700  0.33002100  0.87175100  1
  P  P33  1  0.22369400  0.09038500  0.65319100  1
  P  P34  1  0.68171500  0.22962100  0.65561600  1
  P  P35  1  0.68586500  0.08930900  0.15950700  1
  O  O36  1  0.21907000  0.00676600  0.56440900  1
  O  O37  1  0.32633300  0.91877500  0.34217300  1
  O  O38  1  0.21253500  0.79453900  0.07237300  1
  O  O39  1  0.33522600  0.74646200  0.84015500  1
  O  O40  1  0.47544500  0.90056800  0.83162300  1
  O  O41  1  0.51241200  0.81098700  0.15789700  1
  O  O42  1  0.62471900  0.90046900  0.32979400  1
  O  O43  1  0.77710600  0.00261200  0.07018900  1
  O  O44  1  0.73790600  0.92873600  0.84222200  1
  O  O45  1  0.52204000  0.66358500  0.67519300  1
  O  O46  1  0.46347100  0.62202800  0.33031000  1
  O  O47  1  0.66627300  0.81577800  0.67261400  1
  O  O48  1  0.68190600  0.64462000  0.01972700  1
  O  O49  1  0.66074900  0.68141300  0.52066900  1
  O  O50  1  0.81195200  0.67651300  0.16581700  1
  O  O51  1  0.62541900  0.48249500  0.83083400  1
  O  O52  1  0.67556600  0.51361900  0.17383700  1
  O  O53  1  0.92086500  0.74300800  0.33811100  1
  O  O54  1  0.99458900  0.78943000  0.75311300  1
  O  O55  1  0.00001300  0.77639500  0.57208700  1
  O  O56  1  0.98632800  0.78009600  0.93526300  1
  O  O57  1  0.88194600  0.63383700  0.83469900  1
  O  O58  1  0.81436600  0.51646000  0.66416600  1
  O  O59  1  0.08327800  0.66243000  0.15614200  1
  O  O60  1  0.90599800  0.47494900  0.32853600  1
  O  O61  1  0.74203000  0.34153000  0.34389800  1
  O  O62  1  0.19953200  0.79448500  0.25089900  1
  O  O63  1  0.21065800  0.77432000  0.42911200  1
  O  O64  1  0.77096700  0.23479300  0.56834200  1
  O  O65  1  0.25096100  0.67313900  0.66281100  1
  O  O66  1  0.10877200  0.52173100  0.66989600  1
  O  O67  1  0.91917100  0.32734800  0.84423000  1
  O  O68  1  0.18883900  0.48979200  0.33119700  1
  O  O69  1  0.09169300  0.38314400  0.17374900  1
  O  O70  1  0.99361200  0.24272800  0.06663700  1
  O  O71  1  0.99852900  0.23042200  0.43064800  1
  O  O72  1  0.99337200  0.21262700  0.24850200  1
  O  O73  1  0.07986200  0.25520700  0.65864500  1
  O  O74  1  0.34068700  0.47600900  0.82435500  1
  O  O75  1  0.38164700  0.53910700  0.16480600  1
  O  O76  1  0.18627600  0.33481900  0.84634000  1
  O  O77  1  0.38840500  0.30226400  0.97481500  1
  O  O78  1  0.33315000  0.34931200  0.48037600  1
  O  O79  1  0.32236900  0.19097600  0.34061500  1
  O  O80  1  0.51730500  0.37595400  0.66653100  1
  O  O81  1  0.48671000  0.32519200  0.32949900  1
  O  O82  1  0.24692700  0.08663700  0.15594600  1
  O  O83  1  0.21145700  0.99999900  0.74713400  1
  O  O84  1  0.22079800  0.00031200  0.92891900  1
  O  O85  1  0.37479800  0.10195900  0.66225300  1
  O  O86  1  0.47924600  0.18445800  0.81456900  1
  O  O87  1  0.52906000  0.09688400  0.17131700  1
  O  O88  1  0.66740000  0.25505800  0.16258300  1
  O  O89  1  0.75835100  0.23208800  0.93186100  1
  O  O90  1  0.78203200  0.21354100  0.75026600  1
  O  O91  1  0.66700900  0.08045800  0.65299800  1
  O  O92  1  0.77689900  0.99330000  0.43224600  1
  O  O93  1  0.79568400  0.99998100  0.25158000  1
