# generated using pymatgen
data_LiCaHg2
_symmetry_space_group_name_H-M   'P 1'
_cell_length_a   12.41412117
_cell_length_b   12.41412117
_cell_length_c   12.41412117
_cell_angle_alpha   120.70018484
_cell_angle_beta   119.67490369
_cell_angle_gamma   89.67777597
_symmetry_Int_Tables_number   1
_chemical_formula_structural   LiCaHg2
_chemical_formula_sum   'Li1 Ca1 Hg2'
_cell_volume   1348.80410546
_cell_formula_units_Z   1
loop_
 _symmetry_equiv_pos_site_id
 _symmetry_equiv_pos_as_xyz
  1  'x, y, z'
loop_
 _atom_site_type_symbol
 _atom_site_label
 _atom_site_symmetry_multiplicity
 _atom_site_fract_x
 _atom_site_fract_y
 _atom_site_fract_z
 _atom_site_occupancy
  Li  Li0  1  0.00000000  0.00000000  0.00000000  1
  Ca  Ca1  1  0.00000000  0.50000000  0.50000000  1
  Hg  Hg2  1  0.00000000  0.22542200  0.22542200  1
  Hg  Hg3  1  0.00000000  0.77457800  0.77457800  1
