# generated using pymatgen
data_Li2CoSn(PO4)2
_symmetry_space_group_name_H-M   'P 1'
_cell_length_a   4.84141827
_cell_length_b   11.24450041
_cell_length_c   6.30227905
_cell_angle_alpha   89.95749980
_cell_angle_beta   91.18934497
_cell_angle_gamma   90.69686133
_symmetry_Int_Tables_number   1
_chemical_formula_structural   Li2CoSn(PO4)2
_chemical_formula_sum   'Li4 Co2 Sn2 P4 O16'
_cell_volume   342.99251998
_cell_formula_units_Z   2
loop_
 _symmetry_equiv_pos_site_id
 _symmetry_equiv_pos_as_xyz
  1  'x, y, z'
loop_
 _atom_site_type_symbol
 _atom_site_label
 _atom_site_symmetry_multiplicity
 _atom_site_fract_x
 _atom_site_fract_y
 _atom_site_fract_z
 _atom_site_occupancy
  Li  Li0  1  0.99835600  0.00039800  0.00037200  1
  Li  Li1  1  0.99389800  0.00268600  0.49733000  1
  Li  Li2  1  0.50084200  0.50015500  0.99988800  1
  Li  Li3  1  0.50048700  0.50000800  0.49959600  1
  Co  Co4  1  0.06514900  0.70706300  0.74719100  1
  Co  Co5  1  0.93671800  0.29317400  0.25262700  1
  Sn  Sn6  1  0.48334100  0.22438700  0.75491900  1
  Sn  Sn7  1  0.51658000  0.77575300  0.24541200  1
  P  P8  1  0.34857000  0.12075600  0.25007200  1
  P  P9  1  0.65190600  0.87864800  0.75078100  1
  P  P10  1  0.92057800  0.42498700  0.75027600  1
  P  P11  1  0.08009300  0.57478900  0.24922100  1
  O  O12  1  0.74300100  0.01121400  0.73759900  1
  O  O13  1  0.25462400  0.98866300  0.26270200  1
  O  O14  1  0.66365300  0.13892700  0.24485400  1
  O  O15  1  0.33749900  0.85949000  0.75714100  1
  O  O16  1  0.23897800  0.41604900  0.75379900  1
  O  O17  1  0.76171600  0.58345700  0.24571300  1
  O  O18  1  0.19285300  0.44607500  0.25786800  1
  O  O19  1  0.80844500  0.55371600  0.74184400  1
  O  O20  1  0.19203400  0.17457400  0.05116300  1
  O  O21  1  0.21401600  0.18726100  0.44227000  1
  O  O22  1  0.78615300  0.81239200  0.55836800  1
  O  O23  1  0.80943200  0.82579700  0.94993600  1
  O  O24  1  0.78324500  0.35823700  0.55294800  1
  O  O25  1  0.79002800  0.36448600  0.95193800  1
  O  O26  1  0.21073100  0.63525000  0.04764800  1
  O  O27  1  0.21707400  0.64160800  0.44652300  1
