# generated using pymatgen
data_Li7Co5O12
_symmetry_space_group_name_H-M   'P 1'
_cell_length_a   8.72957500
_cell_length_b   5.02959300
_cell_length_c   5.10824429
_cell_angle_alpha   70.28395068
_cell_angle_beta   90.00000000
_cell_angle_gamma   90.00000000
_symmetry_Int_Tables_number   1
_chemical_formula_structural   Li7Co5O12
_chemical_formula_sum   'Li7 Co5 O12'
_cell_volume   211.13525731
_cell_formula_units_Z   1
loop_
 _symmetry_equiv_pos_site_id
 _symmetry_equiv_pos_as_xyz
  1  'x, y, z'
loop_
 _atom_site_type_symbol
 _atom_site_label
 _atom_site_symmetry_multiplicity
 _atom_site_fract_x
 _atom_site_fract_y
 _atom_site_fract_z
 _atom_site_occupancy
  Li  Li0  1  0.16774600  0.00000000  0.50000000  1
  Li  Li1  1  0.00000000  0.50000000  0.50000000  1
  Li  Li2  1  0.83225400  0.00000000  0.50000000  1
  Li  Li3  1  0.65703000  0.50000000  0.50000000  1
  Li  Li4  1  0.50000000  0.00000000  0.50000000  1
  Li  Li5  1  0.34297000  0.50000000  0.50000000  1
  Li  Li6  1  0.50000000  0.50000000  0.00000000  1
  Co  Co7  1  0.33803000  0.00000000  0.00000000  1
  Co  Co8  1  0.66197000  0.00000000  0.00000000  1
  Co  Co9  1  0.16561200  0.50000000  0.00000000  1
  Co  Co10  1  0.00000000  0.00000000  0.00000000  1
  Co  Co11  1  0.83438800  0.50000000  0.00000000  1
  O  O12  1  0.15941700  0.74960800  0.21759000  1
  O  O13  1  0.00000000  0.27725900  0.22033900  1
  O  O14  1  0.84058300  0.74960800  0.21759000  1
  O  O15  1  0.68695100  0.25852200  0.22058400  1
  O  O16  1  0.50000000  0.77368200  0.24580700  1
  O  O17  1  0.31304900  0.25852200  0.22058400  1
  O  O18  1  0.15941700  0.25039200  0.78241000  1
  O  O19  1  0.00000000  0.72274100  0.77966100  1
  O  O20  1  0.84058300  0.25039200  0.78241000  1
  O  O21  1  0.68695100  0.74147800  0.77941600  1
  O  O22  1  0.50000000  0.22631800  0.75419300  1
  O  O23  1  0.31304900  0.74147800  0.77941600  1
