# generated using pymatgen
data_Li6V5SbO12
_symmetry_space_group_name_H-M   'P 1'
_cell_length_a   5.31670663
_cell_length_b   21.02196178
_cell_length_c   5.31641726
_cell_angle_alpha   94.84562959
_cell_angle_beta   61.11965706
_cell_angle_gamma   85.13425851
_symmetry_Int_Tables_number   1
_chemical_formula_structural   Li6V5SbO12
_chemical_formula_sum   'Li12 V10 Sb2 O24'
_cell_volume   513.04114126
_cell_formula_units_Z   2
loop_
 _symmetry_equiv_pos_site_id
 _symmetry_equiv_pos_as_xyz
  1  'x, y, z'
loop_
 _atom_site_type_symbol
 _atom_site_label
 _atom_site_symmetry_multiplicity
 _atom_site_fract_x
 _atom_site_fract_y
 _atom_site_fract_z
 _atom_site_occupancy
  Li  Li0  1  0.76343000  0.35620500  0.23737600  1
  Li  Li1  1  0.76228700  0.85610000  0.23714000  1
  Li  Li2  1  0.23706500  0.14384900  0.76215200  1
  Li  Li3  1  0.23704700  0.64380900  0.76368900  1
  Li  Li4  1  0.56874800  0.14262700  0.09934800  1
  Li  Li5  1  0.56975800  0.64284900  0.09913900  1
  Li  Li6  1  0.09913400  0.35713000  0.56967500  1
  Li  Li7  1  0.09941600  0.85732300  0.56891600  1
  Li  Li8  1  0.90125900  0.14293400  0.43003300  1
  Li  Li9  1  0.90012100  0.64259100  0.43149700  1
  Li  Li10  1  0.43171800  0.35746400  0.90010200  1
  Li  Li11  1  0.43024600  0.85705300  0.90084000  1
  V  V12  1  0.49984600  0.74988100  0.50009500  1
  V  V13  1  0.17021500  0.74986300  0.17075700  1
  V  V14  1  0.82954800  0.74991100  0.82951900  1
  V  V15  1  0.66506500  0.00013000  0.66531600  1
  V  V16  1  0.66539400  0.50005500  0.66548200  1
  V  V17  1  0.50025500  0.25008500  0.49974200  1
  V  V18  1  0.17074600  0.25017600  0.16995200  1
  V  V19  1  0.82979200  0.25012700  0.82949700  1
  V  V20  1  0.33448300  0.99998200  0.33461600  1
  V  V21  1  0.33480800  0.49996000  0.33492800  1
  Sb  Sb22  1  0.00049200  0.99991100  0.00059200  1
  Sb  Sb23  1  0.99937200  0.50006900  0.99957000  1
  O  O24  1  0.88019700  0.19642900  0.11972500  1
  O  O25  1  0.87970700  0.69618100  0.12033800  1
  O  O26  1  0.12037100  0.30375700  0.87965200  1
  O  O27  1  0.11999300  0.80358800  0.87988800  1
  O  O28  1  0.70872400  0.44797900  0.27793900  1
  O  O29  1  0.72195100  0.94791800  0.29169200  1
  O  O30  1  0.29118100  0.05203700  0.72219700  1
  O  O31  1  0.27777200  0.55209900  0.70858000  1
  O  O32  1  0.65053500  0.05124400  0.02153800  1
  O  O33  1  0.63748700  0.55168600  0.04752700  1
  O  O34  1  0.04727100  0.44834000  0.63786100  1
  O  O35  1  0.02133100  0.94873100  0.65053900  1
  O  O36  1  0.95263200  0.05168300  0.36218800  1
  O  O37  1  0.97853800  0.55129100  0.34952300  1
  O  O38  1  0.34945000  0.44878400  0.97855100  1
  O  O39  1  0.36244600  0.94831100  0.95263700  1
  O  O40  1  0.45689400  0.30637300  0.19563700  1
  O  O41  1  0.45634700  0.80632400  0.19599800  1
  O  O42  1  0.19616600  0.19363700  0.45616200  1
  O  O43  1  0.19563200  0.69362800  0.45691500  1
  O  O44  1  0.80415900  0.30652500  0.54330000  1
  O  O45  1  0.80411400  0.80612900  0.54342300  1
  O  O46  1  0.54355600  0.19378700  0.80401200  1
  O  O47  1  0.54334300  0.69345700  0.80416500  1
