# generated using pymatgen
data_LiY9(Si3O13)2
_symmetry_space_group_name_H-M   'P 1'
_cell_length_a   9.45480138
_cell_length_b   9.45480138
_cell_length_c   6.78190600
_cell_angle_alpha   90.00000000
_cell_angle_beta   90.00000000
_cell_angle_gamma   119.99999564
_symmetry_Int_Tables_number   1
_chemical_formula_structural   LiY9(Si3O13)2
_chemical_formula_sum   'Li1 Y9 Si6 O26'
_cell_volume   525.03376796
_cell_formula_units_Z   1
loop_
 _symmetry_equiv_pos_site_id
 _symmetry_equiv_pos_as_xyz
  1  'x, y, z'
loop_
 _atom_site_type_symbol
 _atom_site_label
 _atom_site_symmetry_multiplicity
 _atom_site_fract_x
 _atom_site_fract_y
 _atom_site_fract_z
 _atom_site_occupancy
  Li  Li0  1  0.33333300  0.66666700  0.02397000  1
  Y  Y1  1  0.90381800  0.33493900  0.24936900  1
  Y  Y2  1  0.43112100  0.09618200  0.24936900  1
  Y  Y3  1  0.66506100  0.56887900  0.24936900  1
  Y  Y4  1  0.43389000  0.33589700  0.75195500  1
  Y  Y5  1  0.90200700  0.56611000  0.75195500  1
  Y  Y6  1  0.66410300  0.09799300  0.75195500  1
  Y  Y7  1  0.00000000  0.00000000  0.50270000  1
  Y  Y8  1  0.00000000  0.00000000  0.99894700  1
  Y  Y9  1  0.33333300  0.66666700  0.49924900  1
  Si  Si10  1  0.69251700  0.96084800  0.25135400  1
  Si  Si11  1  0.26833100  0.30748300  0.25135400  1
  Si  Si12  1  0.03915200  0.73166900  0.25135400  1
  Si  Si13  1  0.63698600  0.70665100  0.75107400  1
  Si  Si14  1  0.06966400  0.36301400  0.75107400  1
  Si  Si15  1  0.29334900  0.93033600  0.75107400  1
  O  O16  1  0.76429500  0.08613400  0.44236700  1
  O  O17  1  0.32183900  0.23570500  0.44236700  1
  O  O18  1  0.91386600  0.67816100  0.44236700  1
  O  O19  1  0.58935500  0.57838700  0.93521700  1
  O  O20  1  0.98903300  0.41064500  0.93521700  1
  O  O21  1  0.42161300  0.01096700  0.93521700  1
  O  O22  1  0.57742200  0.58377700  0.55779200  1
  O  O23  1  0.00635500  0.42257800  0.55779200  1
  O  O24  1  0.41622300  0.99364500  0.55779200  1
  O  O25  1  0.76025300  0.08244500  0.05807300  1
  O  O26  1  0.32219300  0.23974700  0.05807300  1
  O  O27  1  0.91755500  0.67780700  0.05807300  1
  O  O28  1  0.49636100  0.84822300  0.25484200  1
  O  O29  1  0.35186300  0.50363900  0.25484200  1
  O  O30  1  0.15177700  0.64813700  0.25484200  1
  O  O31  1  0.83558800  0.83019600  0.75098700  1
  O  O32  1  0.99460800  0.16441200  0.75098700  1
  O  O33  1  0.16980400  0.00539200  0.75098700  1
  O  O34  1  0.79699300  0.86278600  0.25034900  1
  O  O35  1  0.06579400  0.20300700  0.25034900  1
  O  O36  1  0.13721400  0.93420600  0.25034900  1
  O  O37  1  0.54029400  0.80869100  0.74102000  1
  O  O38  1  0.26839700  0.45970600  0.74102000  1
  O  O39  1  0.19130900  0.73160300  0.74102000  1
  O  O40  1  0.66666700  0.33333300  0.24924700  1
  O  O41  1  0.66666700  0.33333300  0.74268800  1
