# generated using pymatgen
data_Li9Mn2Co5O16
_symmetry_space_group_name_H-M   'P 1'
_cell_length_a   5.89127800
_cell_length_b   6.44995373
_cell_length_c   8.62045514
_cell_angle_alpha   83.02339693
_cell_angle_beta   109.49935092
_cell_angle_gamma   114.16533778
_symmetry_Int_Tables_number   1
_chemical_formula_structural   Li9Mn2Co5O16
_chemical_formula_sum   'Li9 Mn2 Co5 O16'
_cell_volume   281.67411638
_cell_formula_units_Z   1
loop_
 _symmetry_equiv_pos_site_id
 _symmetry_equiv_pos_as_xyz
  1  'x, y, z'
loop_
 _atom_site_type_symbol
 _atom_site_label
 _atom_site_symmetry_multiplicity
 _atom_site_fract_x
 _atom_site_fract_y
 _atom_site_fract_z
 _atom_site_occupancy
  Li  Li0  1  0.75740900  0.74492100  0.25717700  1
  Li  Li1  1  0.25197700  0.99810800  0.49905000  1
  Li  Li2  1  0.24615300  0.74747700  0.25491600  1
  Li  Li3  1  0.74802300  0.00189200  0.50095000  1
  Li  Li4  1  0.75384700  0.25252300  0.74508400  1
  Li  Li5  1  0.24259100  0.25507900  0.74282300  1
  Li  Li6  1  0.24421500  0.50081800  0.00019000  1
  Li  Li7  1  0.75578500  0.49918200  0.99981000  1
  Li  Li8  1  0.00000000  0.50000000  0.50000000  1
  Mn  Mn9  1  0.00000000  0.00000000  0.00000000  1
  Mn  Mn10  1  0.50000000  0.50000000  0.50000000  1
  Co  Co11  1  0.51586200  0.25844800  0.25464600  1
  Co  Co12  1  0.48413800  0.74155200  0.74535400  1
  Co  Co13  1  0.50000000  0.00000000  0.00000000  1
  Co  Co14  1  0.00137800  0.25423300  0.25128300  1
  Co  Co15  1  0.99862200  0.74576700  0.74871700  1
  O  O16  1  0.11260000  0.01246100  0.23732900  1
  O  O17  1  0.61060100  0.25712100  0.48915800  1
  O  O18  1  0.60798300  0.01093100  0.23416700  1
  O  O19  1  0.14867000  0.26939600  0.48566300  1
  O  O20  1  0.12622000  0.52066300  0.75449400  1
  O  O21  1  0.60090100  0.50381400  0.73790900  1
  O  O22  1  0.64666100  0.77927800  0.99067100  1
  O  O23  1  0.11477900  0.76209300  0.99028600  1
  O  O24  1  0.39909900  0.49618600  0.26209100  1
  O  O25  1  0.85133000  0.73060400  0.51433700  1
  O  O26  1  0.87378000  0.47933700  0.24550600  1
  O  O27  1  0.38939900  0.74287900  0.51084200  1
  O  O28  1  0.39201700  0.98906900  0.76583300  1
  O  O29  1  0.88740000  0.98753900  0.76267100  1
  O  O30  1  0.88522100  0.23790700  0.00971400  1
  O  O31  1  0.35333900  0.22072200  0.00932900  1
