# generated using pymatgen
data_LiMnPO4F
_symmetry_space_group_name_H-M   'P 1'
_cell_length_a   6.44707100
_cell_length_b   10.66623297
_cell_length_c   11.00176014
_cell_angle_alpha   90.45053327
_cell_angle_beta   91.17167101
_cell_angle_gamma   90.30985178
_symmetry_Int_Tables_number   1
_chemical_formula_structural   LiMnPO4F
_chemical_formula_sum   'Li8 Mn8 P8 O32 F8'
_cell_volume   756.35331200
_cell_formula_units_Z   8
loop_
 _symmetry_equiv_pos_site_id
 _symmetry_equiv_pos_as_xyz
  1  'x, y, z'
loop_
 _atom_site_type_symbol
 _atom_site_label
 _atom_site_symmetry_multiplicity
 _atom_site_fract_x
 _atom_site_fract_y
 _atom_site_fract_z
 _atom_site_occupancy
  Li  Li0  1  0.24556700  0.22596400  0.91114500  1
  Li  Li1  1  0.52761800  0.23861600  0.66291100  1
  Li  Li2  1  0.25549700  0.43864700  0.22059900  1
  Li  Li3  1  0.25710100  0.72187200  0.59164700  1
  Li  Li4  1  0.98598600  0.73133300  0.82184900  1
  Li  Li5  1  0.50411300  0.76566500  0.32881200  1
  Li  Li6  1  0.75538600  0.77870700  0.09020100  1
  Li  Li7  1  0.23422500  0.96790000  0.27149100  1
  Mn  Mn8  1  0.99886600  0.00191500  0.99874200  1
  Mn  Mn9  1  0.50541300  0.99975300  0.99545600  1
  Mn  Mn10  1  0.98779500  0.00967500  0.50354800  1
  Mn  Mn11  1  0.49881500  0.99705500  0.50204300  1
  Mn  Mn12  1  0.99551400  0.49376200  0.50252000  1
  Mn  Mn13  1  0.50558800  0.49396000  0.50064800  1
  Mn  Mn14  1  0.99897400  0.49925400  0.99969400  1
  Mn  Mn15  1  0.50853900  0.50300400  0.99632900  1
  P  P16  1  0.73846700  0.04048300  0.26216100  1
  P  P17  1  0.74550500  0.23819400  0.91729100  1
  P  P18  1  0.23981600  0.26389600  0.42690100  1
  P  P19  1  0.25436100  0.46501000  0.76534200  1
  P  P20  1  0.75048700  0.54129200  0.23739900  1
  P  P21  1  0.76212100  0.73626000  0.57823400  1
  P  P22  1  0.26016700  0.76539100  0.07824400  1
  P  P23  1  0.24379700  0.96469400  0.73521700  1
  O  O24  1  0.26031800  0.02090400  0.86951800  1
  O  O25  1  0.05109300  0.02654000  0.67347700  1
  O  O26  1  0.44402100  0.01420400  0.67216600  1
  O  O27  1  0.23352500  0.11987500  0.46269300  1
  O  O28  1  0.72534700  0.17827700  0.25580000  1
  O  O29  1  0.55087400  0.17532900  0.97827200  1
  O  O30  1  0.94968400  0.17725000  0.97334000  1
  O  O31  1  0.73696200  0.23182700  0.78264800  1
  O  O32  1  0.25373000  0.28155300  0.29341100  1
  O  O33  1  0.04315900  0.32099100  0.48700800  1
  O  O34  1  0.43573000  0.31842400  0.50072700  1
  O  O35  1  0.27001600  0.32371600  0.76348100  1
  O  O36  1  0.74697600  0.37720100  0.96915200  1
  O  O37  1  0.55720200  0.48043100  0.16954700  1
  O  O38  1  0.95412100  0.49751100  0.17297400  1
  O  O39  1  0.75971200  0.48726100  0.36842800  1
  O  O40  1  0.24177600  0.52287100  0.63352800  1
  O  O41  1  0.05604700  0.51852200  0.83042800  1
  O  O42  1  0.44923500  0.52670000  0.82906900  1
  O  O43  1  0.26077400  0.62338100  0.04058500  1
  O  O44  1  0.72580500  0.68326200  0.23802400  1
  O  O45  1  0.55828400  0.67752900  0.51349300  1
  O  O46  1  0.95804400  0.67189500  0.52150700  1
  O  O47  1  0.75678500  0.72829300  0.71307800  1
  O  O48  1  0.26496000  0.78754900  0.21382200  1
  O  O49  1  0.05605100  0.82075600  0.01622600  1
  O  O50  1  0.45450600  0.82314000  0.01542700  1
  O  O51  1  0.22259700  0.82273500  0.73848400  1
  O  O52  1  0.76688000  0.87411900  0.52815200  1
  O  O53  1  0.54729100  0.97229300  0.32813400  1
  O  O54  1  0.94046400  0.98740700  0.32804800  1
  O  O55  1  0.73798200  0.97330000  0.13061800  1
  F  F56  1  0.23540100  0.03830500  0.10778100  1
  F  F57  1  0.71624300  0.11854700  0.52124900  1
  F  F58  1  0.24516000  0.38212400  0.02121300  1
  F  F59  1  0.73409500  0.45856500  0.60694100  1
  F  F60  1  0.26992400  0.53394800  0.39229300  1
  F  F61  1  0.76751000  0.62727100  0.98400700  1
  F  F62  1  0.26925200  0.87556200  0.47858000  1
  F  F63  1  0.77095000  0.95353000  0.89524900  1
