# generated using pymatgen
data_Li4V3P8O29
_symmetry_space_group_name_H-M   'P 1'
_cell_length_a   9.81091050
_cell_length_b   9.81091050
_cell_length_c   14.01536539
_cell_angle_alpha   89.88843573
_cell_angle_beta   89.88843573
_cell_angle_gamma   59.91170392
_symmetry_Int_Tables_number   1
_chemical_formula_structural   Li4V3P8O29
_chemical_formula_sum   'Li8 V6 P16 O58'
_cell_volume   1167.25433304
_cell_formula_units_Z   2
loop_
 _symmetry_equiv_pos_site_id
 _symmetry_equiv_pos_as_xyz
  1  'x, y, z'
loop_
 _atom_site_type_symbol
 _atom_site_label
 _atom_site_symmetry_multiplicity
 _atom_site_fract_x
 _atom_site_fract_y
 _atom_site_fract_z
 _atom_site_occupancy
  Li  Li0  1  0.31696500  0.77078000  0.19023900  1
  Li  Li1  1  0.90608600  0.76948900  0.68902300  1
  Li  Li2  1  0.77620300  0.32066900  0.69195300  1
  Li  Li3  1  0.90464100  0.32355500  0.18887400  1
  Li  Li4  1  0.22922000  0.68303500  0.80976100  1
  Li  Li5  1  0.23051100  0.09391400  0.31097700  1
  Li  Li6  1  0.67933100  0.22379700  0.30804700  1
  Li  Li7  1  0.67644500  0.09535900  0.81112600  1
  V  V8  1  0.00519400  0.56549600  0.49426900  1
  V  V9  1  0.00654700  0.43198600  0.99533200  1
  V  V10  1  0.43043500  0.56956500  0.00000000  1
  V  V11  1  0.56524600  0.43475400  0.50000000  1
  V  V12  1  0.43450400  0.99480600  0.50573100  1
  V  V13  1  0.56801400  0.99345300  0.00466800  1
  P  P14  1  0.31463900  0.91630400  0.90505200  1
  P  P15  1  0.31857000  0.77031700  0.40821700  1
  P  P16  1  0.76857900  0.91416200  0.40849600  1
  P  P17  1  0.67275500  0.66404000  0.62241400  1
  P  P18  1  0.66796900  0.66262800  0.12249200  1
  P  P19  1  0.91295700  0.77037100  0.90918000  1
  P  P20  1  0.08369600  0.68536100  0.09494800  1
  P  P21  1  0.76937200  0.32078100  0.90955000  1
  P  P22  1  0.22968300  0.68143000  0.59178300  1
  P  P23  1  0.91308100  0.31794400  0.40773200  1
  P  P24  1  0.08583800  0.23142100  0.59150400  1
  P  P25  1  0.33596000  0.32724500  0.37758600  1
  P  P26  1  0.33737200  0.33203100  0.87750800  1
  P  P27  1  0.22962900  0.08704300  0.09082000  1
  P  P28  1  0.67921900  0.23062800  0.09045000  1
  P  P29  1  0.68205600  0.08691900  0.59226800  1
  O  O30  1  0.24174900  0.00280900  0.18240400  1
  O  O31  1  0.33890500  0.91887000  0.41494200  1
  O  O32  1  0.23150800  0.75580400  0.68292300  1
  O  O33  1  0.33980900  0.74645600  0.91097600  1
  O  O34  1  0.47513300  0.90835500  0.92941200  1
  O  O35  1  0.52145700  0.81467600  0.57619700  1
  O  O36  1  0.61532000  0.90864100  0.42778800  1
  O  O37  1  0.75528400  0.99985700  0.68303300  1
  O  O38  1  0.74492800  0.91662300  0.91110100  1
  O  O39  1  0.51311400  0.67342700  0.08288400  1
  O  O40  1  0.47957700  0.62008600  0.42680700  1
  O  O41  1  0.66667700  0.81406600  0.07584400  1
  O  O42  1  0.66909200  0.67342800  0.72815900  1
  O  O43  1  0.66723500  0.66725000  0.22842900  1
  O  O44  1  0.81851900  0.67015400  0.58015600  1
  O  O45  1  0.61922200  0.47955900  0.92547700  1
  O  O46  1  0.67283300  0.51472400  0.58319500  1
  O  O47  1  0.91109000  0.74396200  0.41535600  1
  O  O48  1  0.00364100  0.78892800  0.99743500  1
  O  O49  1  0.99492600  0.76431100  0.18148100  1
  O  O50  1  0.99719100  0.75825100  0.81759600  1
  O  O51  1  0.90275400  0.61848600  0.92645000  1
  O  O52  1  0.81771500  0.51367000  0.08128100  1
  O  O53  1  0.08113000  0.66109500  0.58505800  1
  O  O54  1  0.90306700  0.47871500  0.42671700  1
  O  O55  1  0.74692200  0.33727600  0.40920600  1
  O  O56  1  0.21003100  0.78996900  0.50000000  1
  O  O57  1  0.24419600  0.76849200  0.31707700  1
  O  O58  1  0.75908900  0.23742200  0.17991300  1
  O  O59  1  0.25354400  0.66019100  0.08902400  1
  O  O60  1  0.09164500  0.52486700  0.07058800  1
  O  O61  1  0.91522700  0.34218000  0.91678600  1
  O  O62  1  0.18532400  0.47854300  0.42380300  1
  O  O63  1  0.09135900  0.38468000  0.57221200  1
  O  O64  1  0.99517200  0.23751400  0.67676900  1
  O  O65  1  0.00014300  0.24471600  0.31696700  1
  O  O66  1  0.00408000  0.20674500  0.49640800  1
  O  O67  1  0.08337700  0.25507200  0.08889900  1
  O  O68  1  0.32657300  0.48688600  0.91711600  1
  O  O69  1  0.37991400  0.52042300  0.57319300  1
  O  O70  1  0.18593400  0.33332300  0.92415600  1
  O  O71  1  0.33275000  0.33276500  0.77157100  1
  O  O72  1  0.32657200  0.33090800  0.27184100  1
  O  O73  1  0.32984600  0.18148100  0.41984400  1
  O  O74  1  0.52044100  0.38077800  0.07452300  1
  O  O75  1  0.48527600  0.32716700  0.41680500  1
  O  O76  1  0.25603800  0.08891000  0.58464400  1
  O  O77  1  0.21107200  0.99635900  0.00256500  1
  O  O78  1  0.23568900  0.00507400  0.81851900  1
  O  O79  1  0.38151400  0.09724600  0.07355000  1
  O  O80  1  0.48633000  0.18228500  0.91871900  1
  O  O81  1  0.52128500  0.09693300  0.57328300  1
  O  O82  1  0.66272400  0.25307800  0.59079400  1
  O  O83  1  0.76257800  0.24091100  0.82008700  1
  O  O84  1  0.79139800  0.20860200  0.00000000  1
  O  O85  1  0.65782000  0.08477300  0.08321400  1
  O  O86  1  0.76248600  0.00482800  0.32323100  1
  O  O87  1  0.79325500  0.99592000  0.50359200  1
