# generated using pymatgen
data_Li4V3P8O29
_symmetry_space_group_name_H-M   'P 1'
_cell_length_a   9.76599700
_cell_length_b   9.77071666
_cell_length_c   14.26062329
_cell_angle_alpha   89.93929356
_cell_angle_beta   90.24255699
_cell_angle_gamma   119.91594182
_symmetry_Int_Tables_number   1
_chemical_formula_structural   Li4V3P8O29
_chemical_formula_sum   'Li8 V6 P16 O58'
_cell_volume   1179.43814525
_cell_formula_units_Z   2
loop_
 _symmetry_equiv_pos_site_id
 _symmetry_equiv_pos_as_xyz
  1  'x, y, z'
loop_
 _atom_site_type_symbol
 _atom_site_label
 _atom_site_symmetry_multiplicity
 _atom_site_fract_x
 _atom_site_fract_y
 _atom_site_fract_z
 _atom_site_occupancy
  Li  Li0  1  0.09858800  0.77655300  0.94187800  1
  Li  Li1  1  0.08643500  0.31212600  0.44436600  1
  Li  Li2  1  0.67546500  0.91088100  0.93442300  1
  Li  Li3  1  0.32974100  0.23156200  0.55852700  1
  Li  Li4  1  0.66963100  0.76041600  0.44126300  1
  Li  Li5  1  0.77706100  0.68588600  0.05794500  1
  Li  Li6  1  0.93288000  0.21918600  0.05232600  1
  Li  Li7  1  0.98903600  0.93459400  0.51395700  1
  V  V8  1  0.43142400  0.43119400  0.75584900  1
  V  V9  1  0.56416700  0.56599900  0.24439900  1
  V  V10  1  0.43097700  0.99740000  0.25500400  1
  V  V11  1  0.56635000  0.00517700  0.74664900  1
  V  V12  1  0.99632100  0.56570300  0.74178700  1
  V  V13  1  0.00144300  0.43807700  0.25574400  1
  P  P14  1  0.09056500  0.77180700  0.15945000  1
  P  P15  1  0.22079100  0.92028900  0.66004800  1
  P  P16  1  0.08718500  0.31213400  0.65857700  1
  P  P17  1  0.33089800  0.66895700  0.86769200  1
  P  P18  1  0.33584700  0.66682100  0.37056400  1
  P  P19  1  0.22195500  0.31040000  0.16066900  1
  P  P20  1  0.31838300  0.23088500  0.34135600  1
  P  P21  1  0.68134600  0.91681600  0.15356600  1
  P  P22  1  0.31372800  0.08499400  0.84359900  1
  P  P23  1  0.68345900  0.77164200  0.65889700  1
  P  P24  1  0.77438000  0.68550000  0.83918600  1
  P  P25  1  0.66224500  0.33416600  0.63179700  1
  P  P26  1  0.66812500  0.32892300  0.13465000  1
  P  P27  1  0.91522500  0.69704600  0.33954700  1
  P  P28  1  0.77841600  0.08075600  0.33729100  1
  P  P29  1  0.91260800  0.23228500  0.83916700  1
  O  O30  1  0.99740800  0.79576400  0.42188400  1
  O  O31  1  0.08252100  0.74556600  0.66690000  1
  O  O32  1  0.23216600  0.99840800  0.92952200  1
  O  O33  1  0.25775500  0.91550000  0.16693000  1
  O  O34  1  0.09788500  0.61919100  0.18154700  1
  O  O35  1  0.18257300  0.66697300  0.82250300  1
  O  O36  1  0.08893400  0.47221700  0.67130400  1
  O  O37  1  0.99976700  0.24743400  0.92750500  1
  O  O38  1  0.07811500  0.34028100  0.16787600  1
  O  O39  1  0.32820700  0.81038300  0.32416400  1
  O  O40  1  0.37904900  0.92553500  0.66462800  1
  O  O41  1  0.18683500  0.51093500  0.32964300  1
  O  O42  1  0.32033300  0.65737600  0.97159200  1
  O  O43  1  0.32923000  0.66407100  0.47463300  1
  O  O44  1  0.33796300  0.52283200  0.82127400  1
  O  O45  1  0.52224300  0.90504700  0.17736900  1
  O  O46  1  0.48377800  0.81688200  0.83262100  1
  O  O47  1  0.25928500  0.34147000  0.66436400  1
  O  O48  1  0.20168000  0.21023000  0.25621200  1
  O  O49  1  0.23861200  0.23089900  0.43168500  1
  O  O50  1  0.21624200  0.22457200  0.07503400  1
  O  O51  1  0.37715000  0.47310600  0.17720000  1
  O  O52  1  0.48797600  0.67509300  0.33113600  1
  O  O53  1  0.34213400  0.25734000  0.83588500  1
  O  O54  1  0.53158100  0.61199500  0.67329700  1
  O  O55  1  0.64842500  0.90842600  0.66912300  1
  O  O56  1  0.20084100  0.99977200  0.75416100  1
  O  O57  1  0.19465900  0.00316600  0.57922200  1
  O  O58  1  0.79239000  0.98537000  0.41422700  1
  O  O59  1  0.34106600  0.08396100  0.33437600  1
  O  O60  1  0.47633000  0.38010000  0.32433900  1
  O  O61  1  0.66635400  0.75130500  0.15669500  1
  O  O62  1  0.50983400  0.32646500  0.67655500  1
  O  O63  1  0.62181900  0.52390700  0.82345000  1
  O  O64  1  0.76305000  0.76256200  0.92780300  1
  O  O65  1  0.76883400  0.78399100  0.56962600  1
  O  O66  1  0.79574300  0.79283000  0.74900400  1
  O  O67  1  0.74038900  0.65708400  0.33247200  1
  O  O68  1  0.52505500  0.18573600  0.18374200  1
  O  O69  1  0.47359400  0.09345900  0.82374500  1
  O  O70  1  0.66913500  0.48510400  0.16162200  1
  O  O71  1  0.68503700  0.31364100  0.03243000  1
  O  O72  1  0.65383000  0.34161200  0.52803700  1
  O  O73  1  0.81175500  0.48991100  0.67391000  1
  O  O74  1  0.61779600  0.07658500  0.33040400  1
  O  O75  1  0.67811500  0.19754000  0.67449200  1
  O  O76  1  0.92039400  0.66319300  0.83925000  1
  O  O77  1  0.99100900  0.79076400  0.24241100  1
  O  O78  1  0.00647500  0.75533500  0.06821600  1
  O  O79  1  0.92311200  0.54190700  0.33067900  1
  O  O80  1  0.81780100  0.33824300  0.18743300  1
  O  O81  1  0.90377400  0.38340400  0.81565600  1
  O  O82  1  0.74623900  0.08430400  0.83695900  1
  O  O83  1  0.75132600  0.99977200  0.06259400  1
  O  O84  1  0.80221800  0.01870900  0.23654800  1
  O  O85  1  0.91713600  0.25569200  0.34177600  1
  O  O86  1  0.01180500  0.23084600  0.56898200  1
  O  O87  1  0.00143800  0.20889000  0.74928700  1
