# generated using pymatgen
data_Li4MnCo2O7
_symmetry_space_group_name_H-M   'P 1'
_cell_length_a   3.01693000
_cell_length_b   7.78299463
_cell_length_c   11.13144051
_cell_angle_alpha   79.73668353
_cell_angle_beta   83.08501102
_cell_angle_gamma   82.67460304
_symmetry_Int_Tables_number   1
_chemical_formula_structural   Li4MnCo2O7
_chemical_formula_sum   'Li8 Mn2 Co4 O14'
_cell_volume   253.81237390
_cell_formula_units_Z   2
loop_
 _symmetry_equiv_pos_site_id
 _symmetry_equiv_pos_as_xyz
  1  'x, y, z'
loop_
 _atom_site_type_symbol
 _atom_site_label
 _atom_site_symmetry_multiplicity
 _atom_site_fract_x
 _atom_site_fract_y
 _atom_site_fract_z
 _atom_site_occupancy
  Li  Li0  1  0.78506400  0.35883400  0.06892600  1
  Li  Li1  1  0.92328300  0.78940100  0.36067500  1
  Li  Li2  1  0.07580700  0.21464600  0.63999200  1
  Li  Li3  1  0.21345500  0.64257600  0.92793000  1
  Li  Li4  1  0.36062300  0.07094400  0.21727600  1
  Li  Li5  1  0.49369700  0.49873900  0.50466700  1
  Li  Li6  1  0.64783500  0.92531600  0.77877100  1
  Li  Li7  1  0.28541800  0.85609600  0.57150700  1
  Mn  Mn8  1  0.99903200  0.99889700  0.99861700  1
  Mn  Mn9  1  0.14392700  0.42762800  0.28795900  1
  Co  Co10  1  0.42474700  0.28919900  0.85297700  1
  Co  Co11  1  0.56993200  0.71425300  0.14392100  1
  Co  Co12  1  0.72432200  0.12901400  0.43481200  1
  Co  Co13  1  0.85027600  0.58519700  0.70982000  1
  O  O14  1  0.36315200  0.18237500  0.02592400  1
  O  O15  1  0.51384600  0.60705900  0.31430700  1
  O  O16  1  0.67522500  0.04895500  0.59131900  1
  O  O17  1  0.83689600  0.46651800  0.87763100  1
  O  O18  1  0.94225300  0.88638800  0.17053300  1
  O  O19  1  0.09286800  0.31400600  0.45699000  1
  O  O20  1  0.23767500  0.73677100  0.74686400  1
  O  O21  1  0.20531600  0.53934300  0.11557800  1
  O  O22  1  0.33783700  0.97740300  0.39707600  1
  O  O23  1  0.48196400  0.39981000  0.68769300  1
  O  O24  1  0.62738600  0.82178100  0.97417400  1
  O  O25  1  0.77071200  0.24648000  0.26502600  1
  O  O26  1  0.89509900  0.66351500  0.55252100  1
  O  O27  1  0.02235500  0.10885500  0.82651300  1
