# generated using pymatgen
data_LiAg2Hg
_symmetry_space_group_name_H-M   'P 1'
_cell_length_a   11.39028009
_cell_length_b   11.39028009
_cell_length_c   11.39028009
_cell_angle_alpha   123.68461244
_cell_angle_beta   118.82929181
_cell_angle_gamma   87.88974407
_symmetry_Int_Tables_number   1
_chemical_formula_structural   LiAg2Hg
_chemical_formula_sum   'Li1 Ag2 Hg1'
_cell_volume   1021.91708707
_cell_formula_units_Z   1
loop_
 _symmetry_equiv_pos_site_id
 _symmetry_equiv_pos_as_xyz
  1  'x, y, z'
loop_
 _atom_site_type_symbol
 _atom_site_label
 _atom_site_symmetry_multiplicity
 _atom_site_fract_x
 _atom_site_fract_y
 _atom_site_fract_z
 _atom_site_occupancy
  Li  Li0  1  0.00000000  0.00000000  0.00000000  1
  Ag  Ag1  1  0.00000000  0.24435900  0.24435900  1
  Ag  Ag2  1  0.00000000  0.75564100  0.75564100  1
  Hg  Hg3  1  0.00000000  0.50000000  0.50000000  1
