# generated using pymatgen
data_Li3Mn28O56
_symmetry_space_group_name_H-M   'P 1'
_cell_length_a   10.17356110
_cell_length_b   10.17356110
_cell_length_c   13.12761531
_cell_angle_alpha   82.68802866
_cell_angle_beta   82.68802866
_cell_angle_gamma   48.20615871
_symmetry_Int_Tables_number   1
_chemical_formula_structural   Li3Mn28O56
_chemical_formula_sum   'Li3 Mn28 O56'
_cell_volume   1003.10008947
_cell_formula_units_Z   1
loop_
 _symmetry_equiv_pos_site_id
 _symmetry_equiv_pos_as_xyz
  1  'x, y, z'
loop_
 _atom_site_type_symbol
 _atom_site_label
 _atom_site_symmetry_multiplicity
 _atom_site_fract_x
 _atom_site_fract_y
 _atom_site_fract_z
 _atom_site_occupancy
  Li  Li0  1  0.19723700  0.80276300  0.00000000  1
  Li  Li1  1  0.66071600  0.76792000  0.35700200  1
  Li  Li2  1  0.23208000  0.33928400  0.64299800  1
  Mn  Mn3  1  0.78412300  0.14459900  0.10744100  1
  Mn  Mn4  1  0.64463800  0.49771300  0.03632700  1
  Mn  Mn5  1  0.50114200  0.85826900  0.96360300  1
  Mn  Mn6  1  0.14173100  0.49885800  0.03639700  1
  Mn  Mn7  1  0.07187800  0.92862900  0.25109400  1
  Mn  Mn8  1  0.50228700  0.35536200  0.96367300  1
  Mn  Mn9  1  0.78476800  0.64201800  0.10682400  1
  Mn  Mn10  1  0.42884500  0.78449300  0.17868200  1
  Mn  Mn11  1  0.07149500  0.42765300  0.25014500  1
  Mn  Mn12  1  0.35700400  0.71276900  0.39329700  1
  Mn  Mn13  1  0.92752100  0.78622900  0.17859200  1
  Mn  Mn14  1  0.21203900  0.07274900  0.32125500  1
  Mn  Mn15  1  0.28723100  0.64299600  0.60670300  1
  Mn  Mn16  1  0.35595200  0.21559600  0.39204300  1
  Mn  Mn17  1  0.00061700  0.35549900  0.46337600  1
  Mn  Mn18  1  0.71514500  0.07227600  0.32115800  1
  Mn  Mn19  1  0.64307200  0.49830400  0.53585400  1
  Mn  Mn20  1  0.50169600  0.35692800  0.46414600  1
  Mn  Mn21  1  0.92772400  0.28485500  0.67884200  1
  Mn  Mn22  1  0.78440400  0.64404800  0.60795700  1
  Mn  Mn23  1  0.64450100  0.99938300  0.53662400  1
  Mn  Mn24  1  0.07137100  0.92812200  0.74890600  1
  Mn  Mn25  1  0.85540100  0.21587700  0.89255900  1
  Mn  Mn26  1  0.21377100  0.07247900  0.82140800  1
  Mn  Mn27  1  0.57234700  0.92850500  0.74985500  1
  Mn  Mn28  1  0.92725100  0.78796100  0.67874500  1
  Mn  Mn29  1  0.35798200  0.21523200  0.89317600  1
  Mn  Mn30  1  0.21550700  0.57115500  0.82131800  1
  O  O31  1  0.74382100  0.13104900  0.96875900  1
  O  O32  1  0.86895100  0.25617900  0.03124100  1
  O  O33  1  0.55505300  0.38209300  0.09408500  1
  O  O34  1  0.01831300  0.90317600  0.11838100  1
  O  O35  1  0.41428400  0.74013500  0.04150000  1
  O  O36  1  0.73325200  0.61407400  0.97832100  1
  O  O37  1  0.82792800  0.15442000  0.24609500  1
  O  O38  1  0.66762400  0.55539300  0.16552000  1
  O  O39  1  0.38592600  0.26674800  0.02167900  1
  O  O40  1  0.54237300  0.86735200  0.10337100  1
  O  O41  1  0.02515500  0.41607500  0.11431500  1
  O  O42  1  0.18897000  0.01527300  0.19201800  1
  O  O43  1  0.90013500  0.73224900  0.04983900  1
  O  O44  1  0.31415600  0.70289300  0.25460800  1
  O  O45  1  0.44479500  0.82461000  0.31780500  1
  O  O46  1  0.15286400  0.54223600  0.17448200  1
  O  O47  1  0.83839000  0.66877500  0.23912400  1
  O  O48  1  0.12737500  0.95141200  0.38021400  1
  O  O49  1  0.27462800  0.59973500  0.46895500  1
  O  O50  1  0.30018000  0.19073600  0.26189500  1
  O  O51  1  0.70223100  0.03006200  0.18346100  1
  O  O52  1  0.58788200  0.47457000  0.40575700  1
  O  O53  1  0.98480700  0.31845600  0.32595600  1
  O  O54  1  0.11307400  0.44036800  0.38904300  1
  O  O55  1  0.95270500  0.84201300  0.30813800  1
  O  O56  1  0.40026500  0.72537200  0.53104500  1
  O  O57  1  0.52543000  0.41211800  0.59424300  1
  O  O58  1  0.23864400  0.12767900  0.45108200  1
  O  O59  1  0.60154600  0.98601000  0.39664300  1
  O  O60  1  0.76003300  0.58810000  0.47480900  1
  O  O61  1  0.04858800  0.87262500  0.61978600  1
  O  O62  1  0.88629500  0.27412300  0.53971800  1
  O  O63  1  0.47584400  0.30148500  0.33508000  1
  O  O64  1  0.01399000  0.39845400  0.60335700  1
  O  O65  1  0.29710700  0.68584400  0.74539200  1
  O  O66  1  0.41190000  0.23996700  0.52519100  1
  O  O67  1  0.72587700  0.11370500  0.46028200  1
  O  O68  1  0.69851500  0.52415600  0.66492000  1
  O  O69  1  0.84558000  0.17207200  0.75390500  1
  O  O70  1  0.55963200  0.88692600  0.61095700  1
  O  O71  1  0.87232100  0.76135600  0.54891800  1
  O  O72  1  0.15798700  0.04729500  0.69186200  1
  O  O73  1  0.09682400  0.98168700  0.88161900  1
  O  O74  1  0.80926400  0.69982000  0.73810500  1
  O  O75  1  0.68154400  0.01519300  0.67404400  1
  O  O76  1  0.96993800  0.29776900  0.81653900  1
  O  O77  1  0.61790700  0.44494700  0.90591500  1
  O  O78  1  0.45776400  0.84713600  0.82551800  1
  O  O79  1  0.33122500  0.16161000  0.76087600  1
  O  O80  1  0.17539000  0.55520500  0.68219500  1
  O  O81  1  0.26775100  0.09986500  0.95016100  1
  O  O82  1  0.58392500  0.97484500  0.88568500  1
  O  O83  1  0.98472700  0.81103000  0.80798200  1
  O  O84  1  0.13264800  0.45762700  0.89662900  1
  O  O85  1  0.44460700  0.33237600  0.83448000  1
  O  O86  1  0.25986500  0.58571600  0.95850000  1
