# generated using pymatgen
data_NaLi2(RuO2)6
_symmetry_space_group_name_H-M   'P 1'
_cell_length_a   5.62418826
_cell_length_b   9.51069024
_cell_length_c   9.87308894
_cell_angle_alpha   118.68144241
_cell_angle_beta   105.97453742
_cell_angle_gamma   90.67268909
_symmetry_Int_Tables_number   1
_chemical_formula_structural   NaLi2(RuO2)6
_chemical_formula_sum   'Na2 Li4 Ru12 O24'
_cell_volume   438.89723443
_cell_formula_units_Z   2
loop_
 _symmetry_equiv_pos_site_id
 _symmetry_equiv_pos_as_xyz
  1  'x, y, z'
loop_
 _atom_site_type_symbol
 _atom_site_label
 _atom_site_symmetry_multiplicity
 _atom_site_fract_x
 _atom_site_fract_y
 _atom_site_fract_z
 _atom_site_occupancy
  Na  Na0  1  0.75262337  0.98489428  0.00111049  1
  Na  Na1  1  0.24737663  0.01510572  0.99888951  1
  Li  Li2  1  0.96439728  0.32891363  0.66481288  1
  Li  Li3  1  0.03560272  0.67108637  0.33518712  1
  Li  Li4  1  0.47363196  0.33864803  0.66804054  1
  Li  Li5  1  0.52636804  0.66135197  0.33195946  1
  Ru  Ru6  1  0.82637792  0.33536092  0.35835133  1
  Ru  Ru7  1  0.17362208  0.66463908  0.64164867  1
  Ru  Ru8  1  0.28190736  0.34474907  0.36139107  1
  Ru  Ru9  1  0.71809264  0.65525093  0.63860893  1
  Ru  Ru10  1  0.86038520  0.36266953  0.01882183  1
  Ru  Ru11  1  0.13961480  0.63733047  0.98117817  1
  Ru  Ru12  1  0.40604195  0.35594402  0.02028013  1
  Ru  Ru13  1  0.59395805  0.64405598  0.97971987  1
  Ru  Ru14  1  0.52318520  0.98542005  0.34003228  1
  Ru  Ru15  1  0.47681480  0.01457995  0.65996772  1
  Ru  Ru16  1  0.06777070  0.97603189  0.34016908  1
  Ru  Ru17  1  0.93222930  0.02396811  0.65983092  1
  O  O18  1  0.18007418  0.12016831  0.59431691  1
  O  O19  1  0.81992582  0.87983169  0.40568309  1
  O  O20  1  0.66573985  0.14257676  0.59378117  1
  O  O21  1  0.33426015  0.85742324  0.40621883  1
  O  O22  1  0.42194203  0.82807294  0.09817255  1
  O  O23  1  0.57805797  0.17192706  0.90182745  1
  O  O24  1  0.92857592  0.79650181  0.09772911  1
  O  O25  1  0.07142408  0.20349819  0.90227089  1
  O  O26  1  0.74466308  0.89733324  0.72273910  1
  O  O27  1  0.25533692  0.10266676  0.27726090  1
  O  O28  1  0.21675122  0.90256287  0.69864225  1
  O  O29  1  0.78324878  0.09743713  0.30135775  1
  O  O30  1  0.47937068  0.29822431  0.20291531  1
  O  O31  1  0.52062932  0.70177569  0.79708469  1
  O  O32  1  0.95931421  0.27638562  0.17425441  1
  O  O33  1  0.04068579  0.72361438  0.82574559  1
  O  O34  1  0.14360932  0.41270412  0.55165714  1
  O  O35  1  0.85639068  0.58729588  0.44834286  1
  O  O36  1  0.63707446  0.40111658  0.52578725  1
  O  O37  1  0.36292554  0.59888342  0.47421275  1
  O  O38  1  0.31399682  0.44860077  0.86339739  1
  O  O39  1  0.68600318  0.55139923  0.13660261  1
  O  O40  1  0.80802502  0.47378435  0.87488354  1
  O  O41  1  0.19197498  0.52621565  0.12511646  1
