# generated using pymatgen
data_Li2CaTl
_symmetry_space_group_name_H-M   'P 1'
_cell_length_a   12.38733840
_cell_length_b   12.38733840
_cell_length_c   12.38733840
_cell_angle_alpha   121.33062448
_cell_angle_beta   118.35346132
_cell_angle_gamma   90.29305205
_symmetry_Int_Tables_number   1
_chemical_formula_structural   Li2CaTl
_chemical_formula_sum   'Li2 Ca1 Tl1'
_cell_volume   1346.12118762
_cell_formula_units_Z   1
loop_
 _symmetry_equiv_pos_site_id
 _symmetry_equiv_pos_as_xyz
  1  'x, y, z'
loop_
 _atom_site_type_symbol
 _atom_site_label
 _atom_site_symmetry_multiplicity
 _atom_site_fract_x
 _atom_site_fract_y
 _atom_site_fract_z
 _atom_site_occupancy
  Li  Li0  1  0.27230000  0.00000000  0.27230000  1
  Li  Li1  1  0.72770000  0.00000000  0.72770000  1
  Ca  Ca2  1  0.00000000  0.00000000  0.00000000  1
  Tl  Tl3  1  0.50000000  0.00000000  0.50000000  1
