# generated using pymatgen
data_Li2Mn3FeO8
_symmetry_space_group_name_H-M   'P 1'
_cell_length_a   5.96886828
_cell_length_b   5.79211151
_cell_length_c   9.50340300
_cell_angle_alpha   90.00199928
_cell_angle_beta   90.00180400
_cell_angle_gamma   60.00237389
_symmetry_Int_Tables_number   1
_chemical_formula_structural   Li2Mn3FeO8
_chemical_formula_sum   'Li4 Mn6 Fe2 O16'
_cell_volume   284.54376609
_cell_formula_units_Z   2
loop_
 _symmetry_equiv_pos_site_id
 _symmetry_equiv_pos_as_xyz
  1  'x, y, z'
loop_
 _atom_site_type_symbol
 _atom_site_label
 _atom_site_symmetry_multiplicity
 _atom_site_fract_x
 _atom_site_fract_y
 _atom_site_fract_z
 _atom_site_occupancy
  Li  Li0  1  0.66608300  0.66390300  0.88991100  1
  Li  Li1  1  0.33390100  0.33611800  0.38989700  1
  Li  Li2  1  0.00471300  0.99407100  0.99810600  1
  Li  Li3  1  0.99524900  0.00595800  0.49811100  1
  Mn  Mn4  1  0.82833100  0.33894900  0.21345700  1
  Mn  Mn5  1  0.17165900  0.66107100  0.71345700  1
  Mn  Mn6  1  0.33946900  0.83183000  0.21772300  1
  Mn  Mn7  1  0.83061700  0.82837200  0.21314800  1
  Mn  Mn8  1  0.16935600  0.17165300  0.71315200  1
  Mn  Mn9  1  0.66051800  0.16817200  0.71772200  1
  Fe  Fe10  1  0.67426600  0.66634600  0.49307000  1
  Fe  Fe11  1  0.32570900  0.33365300  0.99307200  1
  O  O12  1  0.69063700  0.65418500  0.10182600  1
  O  O13  1  0.30938700  0.34580700  0.60183500  1
  O  O14  1  0.97417700  0.01055400  0.31232400  1
  O  O15  1  0.02576700  0.98949400  0.81231200  1
  O  O16  1  0.32110500  0.83892400  0.59969900  1
  O  O17  1  0.84671800  0.32777900  0.60401100  1
  O  O18  1  0.15630000  0.16153600  0.10599700  1
  O  O19  1  0.84367100  0.83849000  0.60599400  1
  O  O20  1  0.15328200  0.67226400  0.10402200  1
  O  O21  1  0.67887100  0.16109300  0.09969700  1
  O  O22  1  0.52537400  0.51633500  0.33472800  1
  O  O23  1  0.53428300  0.96199700  0.33660000  1
  O  O24  1  0.96238700  0.51541000  0.33331800  1
  O  O25  1  0.03759500  0.48463600  0.83331100  1
  O  O26  1  0.46565800  0.03802600  0.83662300  1
  O  O27  1  0.47461500  0.48367700  0.83471900  1
