# generated using pymatgen
data_Li3MnV(PO4)3
_symmetry_space_group_name_H-M   'P 1'
_cell_length_a   8.45788800
_cell_length_b   8.86759806
_cell_length_c   12.43399200
_cell_angle_alpha   90.69072081
_cell_angle_beta   91.68394408
_cell_angle_gamma   90.33883645
_symmetry_Int_Tables_number   1
_chemical_formula_structural   Li3MnV(PO4)3
_chemical_formula_sum   'Li12 Mn4 V4 P12 O48'
_cell_volume   932.07490834
_cell_formula_units_Z   4
loop_
 _symmetry_equiv_pos_site_id
 _symmetry_equiv_pos_as_xyz
  1  'x, y, z'
loop_
 _atom_site_type_symbol
 _atom_site_label
 _atom_site_symmetry_multiplicity
 _atom_site_fract_x
 _atom_site_fract_y
 _atom_site_fract_z
 _atom_site_occupancy
  Li  Li0  1  0.00372100  0.00223100  0.99904900  1
  Li  Li1  1  0.00013300  0.89706300  0.75062600  1
  Li  Li2  1  0.00079900  0.00004200  0.50044200  1
  Li  Li3  1  0.00691100  0.10380500  0.24923200  1
  Li  Li4  1  0.29018800  0.19447300  0.95283500  1
  Li  Li5  1  0.29422300  0.80723400  0.45050400  1
  Li  Li6  1  0.49824700  0.49856000  0.00067800  1
  Li  Li7  1  0.49738500  0.60226900  0.74730800  1
  Li  Li8  1  0.50304800  0.50364700  0.50051200  1
  Li  Li9  1  0.50282800  0.39838400  0.24958900  1
  Li  Li10  1  0.70898700  0.19437600  0.55262400  1
  Li  Li11  1  0.70746200  0.80426700  0.04904800  1
  Mn  Mn12  1  0.21012800  0.49817200  0.85271900  1
  Mn  Mn13  1  0.28868400  0.99252400  0.14277000  1
  Mn  Mn14  1  0.78927600  0.49943400  0.64542600  1
  Mn  Mn15  1  0.79080200  0.50242900  0.14727000  1
  V  V16  1  0.21438100  0.49960100  0.35603200  1
  V  V17  1  0.28411600  0.00354800  0.64097400  1
  V  V18  1  0.71528100  0.00269300  0.85800900  1
  V  V19  1  0.71650700  0.99829100  0.35923600  1
  P  P20  1  0.99917700  0.19985600  0.75097900  1
  P  P21  1  0.00485300  0.79913600  0.24994500  1
  P  P22  1  0.15526700  0.64608800  0.60324700  1
  P  P23  1  0.15228800  0.35552300  0.10634300  1
  P  P24  1  0.34797800  0.85199800  0.89487500  1
  P  P25  1  0.34893200  0.14880800  0.39700000  1
  P  P26  1  0.50015200  0.29393800  0.75060300  1
  P  P27  1  0.50506600  0.70459400  0.25055100  1
  P  P28  1  0.64705500  0.85390300  0.60210800  1
  P  P29  1  0.64684700  0.14517000  0.10502100  1
  P  P30  1  0.84653500  0.64397400  0.89318800  1
  P  P31  1  0.84284400  0.35490900  0.39726500  1
  O  O32  1  0.01771200  0.58867300  0.89397600  1
  O  O33  1  0.01266500  0.41089000  0.39518300  1
  O  O34  1  0.07076700  0.08819500  0.66660400  1
  O  O35  1  0.07852600  0.90744500  0.16456500  1
  O  O36  1  0.12562400  0.29565500  0.81276700  1
  O  O37  1  0.12716100  0.70288100  0.30995200  1
  O  O38  1  0.14372500  0.82178500  0.58818200  1
  O  O39  1  0.13580800  0.17969300  0.09327900  1
  O  O40  1  0.25297200  0.59931500  0.70261400  1
  O  O41  1  0.24914600  0.93857300  0.97943200  1
  O  O42  1  0.25011600  0.59169800  0.50409900  1
  O  O43  1  0.24269600  0.40417000  0.21128700  1
  O  O44  1  0.25103700  0.06463500  0.48278800  1
  O  O45  1  0.27602700  0.90258300  0.78564800  1
  O  O46  1  0.25460600  0.40810500  0.01260000  1
  O  O47  1  0.27202600  0.09697800  0.28869200  1
  O  O48  1  0.34700300  0.67688100  0.90610300  1
  O  O49  1  0.34801400  0.32356100  0.41076500  1
  O  O50  1  0.38141900  0.19824400  0.68552500  1
  O  O51  1  0.38786800  0.79570400  0.18276900  1
  O  O52  1  0.42334600  0.40294900  0.83559500  1
  O  O53  1  0.43169000  0.59703200  0.33440000  1
  O  O54  1  0.47114300  0.90123700  0.58914200  1
  O  O55  1  0.46740500  0.10369700  0.09259100  1
  O  O56  1  0.52629400  0.89246600  0.90844300  1
  O  O57  1  0.52649100  0.10817900  0.40862500  1
  O  O58  1  0.57654400  0.39993100  0.66573600  1
  O  O59  1  0.58257700  0.59665400  0.16489100  1
  O  O60  1  0.61513600  0.19781700  0.81616800  1
  O  O61  1  0.61981000  0.80499400  0.31524400  1
  O  O62  1  0.64175500  0.68133200  0.58871200  1
  O  O63  1  0.64653300  0.31884100  0.09283100  1
  O  O64  1  0.72267000  0.90463300  0.71202900  1
  O  O65  1  0.74627200  0.59089500  0.98823300  1
  O  O66  1  0.72144900  0.09363100  0.21286600  1
  O  O67  1  0.74786600  0.93950700  0.51840500  1
  O  O68  1  0.75494000  0.59542400  0.78872400  1
  O  O69  1  0.74747300  0.41032800  0.49605900  1
  O  O70  1  0.74373100  0.05984900  0.01838300  1
  O  O71  1  0.74696300  0.40141300  0.29633700  1
  O  O72  1  0.85800600  0.82059500  0.90608400  1
  O  O73  1  0.85409700  0.17933100  0.41126200  1
  O  O74  1  0.87340900  0.28723600  0.68872300  1
  O  O75  1  0.87644700  0.71076200  0.18539400  1
  O  O76  1  0.93295900  0.09052100  0.83757000  1
  O  O77  1  0.93540300  0.91096200  0.33465000  1
  O  O78  1  0.98348100  0.59033600  0.60498000  1
  O  O79  1  0.98109300  0.41284500  0.10508900  1
