# generated using pymatgen
data_LiNbFeO4
_symmetry_space_group_name_H-M   'P 1'
_cell_length_a   6.16153598
_cell_length_b   10.76018263
_cell_length_c   6.24720993
_cell_angle_alpha   89.58224635
_cell_angle_beta   60.42311677
_cell_angle_gamma   73.39664227
_symmetry_Int_Tables_number   1
_chemical_formula_structural   LiNbFeO4
_chemical_formula_sum   'Li4 Nb4 Fe4 O16'
_cell_volume   340.72164212
_cell_formula_units_Z   4
loop_
 _symmetry_equiv_pos_site_id
 _symmetry_equiv_pos_as_xyz
  1  'x, y, z'
loop_
 _atom_site_type_symbol
 _atom_site_label
 _atom_site_symmetry_multiplicity
 _atom_site_fract_x
 _atom_site_fract_y
 _atom_site_fract_z
 _atom_site_occupancy
  Li  Li0  1  0.85637800  0.19737100  0.09188300  1
  Li  Li1  1  0.85424300  0.69735200  0.59190300  1
  Li  Li2  1  0.14565600  0.30259700  0.40807200  1
  Li  Li3  1  0.14367900  0.80255500  0.90810700  1
  Nb  Nb4  1  0.50092200  0.49950500  0.50019200  1
  Nb  Nb5  1  0.50098100  0.99951900  0.00028600  1
  Nb  Nb6  1  0.49458000  0.74961100  0.25052100  1
  Nb  Nb7  1  0.50341000  0.24961400  0.75058600  1
  Fe  Fe8  1  0.99980100  0.00020800  0.50013200  1
  Fe  Fe9  1  0.50040700  0.50003500  0.99983700  1
  Fe  Fe10  1  0.00020600  0.50016400  0.00001100  1
  Fe  Fe11  1  0.49985500  0.00007800  0.49986700  1
  O  O12  1  0.71440400  0.39788500  0.15665800  1
  O  O13  1  0.73131400  0.89779200  0.65683100  1
  O  O14  1  0.73123500  0.62865400  0.92574800  1
  O  O15  1  0.71403000  0.12872800  0.42564300  1
  O  O16  1  0.28593700  0.87152200  0.57405500  1
  O  O17  1  0.26911400  0.37163700  0.07413500  1
  O  O18  1  0.26831000  0.10238400  0.34294500  1
  O  O19  1  0.28581400  0.60230600  0.84303000  1
  O  O20  1  0.71456300  0.62680600  0.37952000  1
  O  O21  1  0.71422500  0.12809500  0.88362800  1
  O  O22  1  0.27392000  0.62803200  0.38382800  1
  O  O23  1  0.27903900  0.12674100  0.87958200  1
  O  O24  1  0.28583100  0.87197600  0.11635300  1
  O  O25  1  0.28527000  0.37331200  0.62041400  1
  O  O26  1  0.72102100  0.87346400  0.12016500  1
  O  O27  1  0.72585400  0.37205700  0.61606800  1
