# generated using pymatgen
data_Li2V3CrO8
_symmetry_space_group_name_H-M   'P 1'
_cell_length_a   5.93632454
_cell_length_b   10.41121655
_cell_length_c   5.93622490
_cell_angle_alpha   71.61579871
_cell_angle_beta   119.11168938
_cell_angle_gamma   91.29615052
_symmetry_Int_Tables_number   1
_chemical_formula_structural   Li2V3CrO8
_chemical_formula_sum   'Li4 V6 Cr2 O16'
_cell_volume   300.36742297
_cell_formula_units_Z   2
loop_
 _symmetry_equiv_pos_site_id
 _symmetry_equiv_pos_as_xyz
  1  'x, y, z'
loop_
 _atom_site_type_symbol
 _atom_site_label
 _atom_site_symmetry_multiplicity
 _atom_site_fract_x
 _atom_site_fract_y
 _atom_site_fract_z
 _atom_site_occupancy
  Li  Li0  1  0.93652100  0.18698300  0.87655000  1
  Li  Li1  1  0.43633200  0.68678300  0.87694700  1
  Li  Li2  1  0.56367600  0.31320700  0.12309200  1
  Li  Li3  1  0.06347700  0.81301000  0.12345100  1
  V  V4  1  0.49998900  0.00002000  0.99994600  1
  V  V5  1  0.50009900  0.99998200  0.49996600  1
  V  V6  1  0.00002100  0.00001700  0.49999500  1
  V  V7  1  0.99998700  0.50002800  0.99997100  1
  V  V8  1  0.99995200  0.50003900  0.49996000  1
  V  V9  1  0.50003700  0.50001600  0.50003800  1
  Cr  Cr10  1  0.74924500  0.75061100  0.50010600  1
  Cr  Cr11  1  0.25075700  0.24937000  0.49988500  1
  O  O12  1  0.86320900  0.39347500  0.74331700  1
  O  O13  1  0.36331100  0.89370600  0.74295500  1
  O  O14  1  0.63668400  0.10630600  0.25702300  1
  O  O15  1  0.13679100  0.60652200  0.25671400  1
  O  O16  1  0.09092800  0.61750100  0.74588800  1
  O  O17  1  0.59252900  0.11711700  0.74688600  1
  O  O18  1  0.64283300  0.61273200  0.74446400  1
  O  O19  1  0.14355400  0.11295700  0.74349300  1
  O  O20  1  0.63657000  0.61749500  0.29154800  1
  O  O21  1  0.13596500  0.11712800  0.29033600  1
  O  O22  1  0.86402900  0.88283600  0.70969000  1
  O  O23  1  0.36339500  0.38250700  0.70846400  1
  O  O24  1  0.85643300  0.88702100  0.25651500  1
  O  O25  1  0.35716700  0.38727100  0.25556000  1
  O  O26  1  0.40745700  0.88284400  0.25314700  1
  O  O27  1  0.90905100  0.38251500  0.25409400  1
