# generated using pymatgen
data_Li9Mn2Co5O16
_symmetry_space_group_name_H-M   'P 1'
_cell_length_a   5.84625400
_cell_length_b   5.91912486
_cell_length_c   9.72568859
_cell_angle_alpha   92.15375936
_cell_angle_beta   99.07737595
_cell_angle_gamma   119.35422755
_symmetry_Int_Tables_number   1
_chemical_formula_structural   Li9Mn2Co5O16
_chemical_formula_sum   'Li9 Mn2 Co5 O16'
_cell_volume   287.07542623
_cell_formula_units_Z   1
loop_
 _symmetry_equiv_pos_site_id
 _symmetry_equiv_pos_as_xyz
  1  'x, y, z'
loop_
 _atom_site_type_symbol
 _atom_site_label
 _atom_site_symmetry_multiplicity
 _atom_site_fract_x
 _atom_site_fract_y
 _atom_site_fract_z
 _atom_site_occupancy
  Li  Li0  1  0.25073300  0.12407300  0.74761600  1
  Li  Li1  1  0.00736600  0.26072300  0.49332200  1
  Li  Li2  1  0.74369000  0.36717600  0.25585600  1
  Li  Li3  1  0.49681500  0.49659000  0.00444800  1
  Li  Li4  1  0.25166000  0.62623700  0.74584700  1
  Li  Li5  1  0.00816300  0.75842100  0.48825900  1
  Li  Li6  1  0.74861800  0.87472300  0.25193200  1
  Li  Li7  1  0.48984900  0.98830200  0.01255200  1
  Li  Li8  1  0.25214300  0.88076200  0.25255600  1
  Mn  Mn9  1  0.99684100  0.99602000  0.00319800  1
  Mn  Mn10  1  0.74714400  0.62011900  0.74828300  1
  Co  Co11  1  0.50645000  0.25126300  0.49849400  1
  Co  Co12  1  0.00940300  0.50679400  0.01101400  1
  Co  Co13  1  0.74268400  0.12035000  0.74682800  1
  Co  Co14  1  0.50541800  0.75931700  0.49253200  1
  Co  Co15  1  0.24963500  0.37534800  0.25667200  1
  O  O16  1  0.10025900  0.80979900  0.87587200  1
  O  O17  1  0.84762600  0.90062100  0.62974400  1
  O  O18  1  0.62286300  0.07825300  0.38733600  1
  O  O19  1  0.34410400  0.18731200  0.11896800  1
  O  O20  1  0.08812500  0.27527300  0.87666300  1
  O  O21  1  0.85602600  0.43044500  0.63267200  1
  O  O22  1  0.61850100  0.58020600  0.37657000  1
  O  O23  1  0.34780300  0.67001600  0.11730200  1
  O  O24  1  0.40255100  0.43385300  0.62664400  1
  O  O25  1  0.14986800  0.56542700  0.37710600  1
  O  O26  1  0.88317400  0.71245800  0.11166100  1
  O  O27  1  0.64395400  0.80953800  0.86997800  1
  O  O28  1  0.39714800  0.92492300  0.62643400  1
  O  O29  1  0.16379500  0.09506800  0.38198600  1
  O  O30  1  0.87827300  0.18024200  0.11561600  1
  O  O31  1  0.64931500  0.34035000  0.86603800  1
