# generated using pymatgen
data_LiC2O5
_symmetry_space_group_name_H-M   'P 1'
_cell_length_a   3.67534900
_cell_length_b   5.95139376
_cell_length_c   6.88888897
_cell_angle_alpha   72.98924894
_cell_angle_beta   84.35254495
_cell_angle_gamma   86.33360295
_symmetry_Int_Tables_number   1
_chemical_formula_structural   LiC2O5
_chemical_formula_sum   'Li1 C2 O5'
_cell_volume   143.29404611
_cell_formula_units_Z   1
loop_
 _symmetry_equiv_pos_site_id
 _symmetry_equiv_pos_as_xyz
  1  'x, y, z'
loop_
 _atom_site_type_symbol
 _atom_site_label
 _atom_site_symmetry_multiplicity
 _atom_site_fract_x
 _atom_site_fract_y
 _atom_site_fract_z
 _atom_site_occupancy
  Li  Li0  1  0.50488600  0.34382200  0.53814700  1
  C  C1  1  0.12556800  0.90017500  0.18029400  1
  C  C2  1  0.53129500  0.49443700  0.96468100  1
  O  O3  1  0.98831300  0.98794800  0.02691600  1
  O  O4  1  0.01003600  0.30063200  0.53354500  1
  O  O5  1  0.26697900  0.80961600  0.33100000  1
  O  O6  1  0.42645600  0.56353800  0.80114100  1
  O  O7  1  0.63213700  0.42701200  0.12938500  1
