# generated using pymatgen
data_Li9Mn7O16
_symmetry_space_group_name_H-M   'P 1'
_cell_length_a   5.10653000
_cell_length_b   7.68815166
_cell_length_c   8.12708216
_cell_angle_alpha   100.13855823
_cell_angle_beta   99.55081576
_cell_angle_gamma   103.26076985
_symmetry_Int_Tables_number   1
_chemical_formula_structural   Li9Mn7O16
_chemical_formula_sum   'Li9 Mn7 O16'
_cell_volume   298.53997757
_cell_formula_units_Z   1
loop_
 _symmetry_equiv_pos_site_id
 _symmetry_equiv_pos_as_xyz
  1  'x, y, z'
loop_
 _atom_site_type_symbol
 _atom_site_label
 _atom_site_symmetry_multiplicity
 _atom_site_fract_x
 _atom_site_fract_y
 _atom_site_fract_z
 _atom_site_occupancy
  Li  Li0  1  0.51065000  0.75675700  0.75895200  1
  Li  Li1  1  0.49996900  0.62532700  0.37080900  1
  Li  Li2  1  0.50000000  0.00000000  0.50000000  1
  Li  Li3  1  0.50421700  0.88424300  0.11465200  1
  Li  Li4  1  0.48935000  0.24324300  0.24104800  1
  Li  Li5  1  0.49578300  0.11575700  0.88534800  1
  Li  Li6  1  0.50000000  0.50000000  0.00000000  1
  Li  Li7  1  0.50003100  0.37467300  0.62919100  1
  Li  Li8  1  0.00000000  0.00000000  0.00000000  1
  Mn  Mn9  1  0.00986100  0.62960200  0.87855700  1
  Mn  Mn10  1  0.99013900  0.37039800  0.12144300  1
  Mn  Mn11  1  0.00000000  0.50000000  0.50000000  1
  Mn  Mn12  1  0.00255100  0.24955200  0.75562700  1
  Mn  Mn13  1  0.99754100  0.12255100  0.36799400  1
  Mn  Mn14  1  0.00245900  0.87744900  0.63200600  1
  Mn  Mn15  1  0.99744900  0.75044800  0.24437300  1
  O  O16  1  0.78969800  0.74329900  0.02026300  1
  O  O17  1  0.76503100  0.63143400  0.61434800  1
  O  O18  1  0.76541900  0.00707000  0.73873700  1
  O  O19  1  0.77018300  0.87949300  0.36089700  1
  O  O20  1  0.79243800  0.25456000  0.51897300  1
  O  O21  1  0.75465500  0.14175000  0.12755900  1
  O  O22  1  0.76637200  0.50803400  0.24348900  1
  O  O23  1  0.76930600  0.37955600  0.85977300  1
  O  O24  1  0.20756200  0.74544000  0.48102700  1
  O  O25  1  0.23069400  0.62044400  0.14022700  1
  O  O26  1  0.23458100  0.99293000  0.26126300  1
  O  O27  1  0.24534500  0.85825000  0.87244100  1
  O  O28  1  0.21030200  0.25670100  0.97973700  1
  O  O29  1  0.22981700  0.12050700  0.63910300  1
  O  O30  1  0.23362800  0.49196600  0.75651100  1
  O  O31  1  0.23496900  0.36856600  0.38565200  1
