# generated using pymatgen
data_Li9Mn2Co5O16
_symmetry_space_group_name_H-M   'P 1'
_cell_length_a   5.09167600
_cell_length_b   7.69256927
_cell_length_c   7.80082191
_cell_angle_alpha   99.14352743
_cell_angle_beta   101.48294306
_cell_angle_gamma   102.21980867
_symmetry_Int_Tables_number   1
_chemical_formula_structural   Li9Mn2Co5O16
_chemical_formula_sum   'Li9 Mn2 Co5 O16'
_cell_volume   286.12348181
_cell_formula_units_Z   1
loop_
 _symmetry_equiv_pos_site_id
 _symmetry_equiv_pos_as_xyz
  1  'x, y, z'
loop_
 _atom_site_type_symbol
 _atom_site_label
 _atom_site_symmetry_multiplicity
 _atom_site_fract_x
 _atom_site_fract_y
 _atom_site_fract_z
 _atom_site_occupancy
  Li  Li0  1  0.49638000  0.12253800  0.86915100  1
  Li  Li1  1  0.49748600  0.99698600  0.50659500  1
  Li  Li2  1  0.49992300  0.37351800  0.62502100  1
  Li  Li3  1  0.50139300  0.25117900  0.25282200  1
  Li  Li4  1  0.50753100  0.62708400  0.38024500  1
  Li  Li5  1  0.49821500  0.49808200  0.99880400  1
  Li  Li6  1  0.49981900  0.87678700  0.12477300  1
  Li  Li7  1  0.50237900  0.75368000  0.74131700  1
  Li  Li8  1  0.00409300  0.87668900  0.62635800  1
  Mn  Mn9  1  0.99486800  0.99887100  0.99589900  1
  Mn  Mn10  1  0.99882000  0.62680700  0.87074800  1
  Co  Co11  1  0.99746100  0.75598100  0.26193900  1
  Co  Co12  1  0.00512400  0.50784700  0.50306900  1
  Co  Co13  1  0.99348900  0.37531100  0.12643100  1
  Co  Co14  1  0.00918300  0.23672300  0.74165400  1
  Co  Co15  1  0.99975300  0.12328300  0.37511500  1
  O  O16  1  0.76801500  0.12471500  0.11507300  1
  O  O17  1  0.77091700  0.00557000  0.77038000  1
  O  O18  1  0.77999000  0.38705500  0.87568400  1
  O  O19  1  0.77906900  0.24824600  0.49718400  1
  O  O20  1  0.77406400  0.61933400  0.64070800  1
  O  O21  1  0.76246500  0.50095800  0.25280000  1
  O  O22  1  0.77006800  0.88309100  0.36548300  1
  O  O23  1  0.77541800  0.75793800  0.99461100  1
  O  O24  1  0.24565800  0.13381900  0.63286400  1
  O  O25  1  0.21755300  0.00391400  0.23969800  1
  O  O26  1  0.21908000  0.35997900  0.37067700  1
  O  O27  1  0.22502900  0.23750300  0.00122000  1
  O  O28  1  0.21437400  0.62349400  0.11325500  1
  O  O29  1  0.23119500  0.50848200  0.75531900  1
  O  O30  1  0.22292300  0.86742700  0.88674200  1
  O  O31  1  0.23826500  0.73710900  0.48836100  1
