# generated using pymatgen
data_Li2Cr3SnO8
_symmetry_space_group_name_H-M   'P 1'
_cell_length_a   6.00685000
_cell_length_b   5.95377330
_cell_length_c   10.70908360
_cell_angle_alpha   89.75065234
_cell_angle_beta   106.30108373
_cell_angle_gamma   120.28630794
_symmetry_Int_Tables_number   1
_chemical_formula_structural   Li2Cr3SnO8
_chemical_formula_sum   'Li4 Cr6 Sn2 O16'
_cell_volume   313.04632678
_cell_formula_units_Z   2
loop_
 _symmetry_equiv_pos_site_id
 _symmetry_equiv_pos_as_xyz
  1  'x, y, z'
loop_
 _atom_site_type_symbol
 _atom_site_label
 _atom_site_symmetry_multiplicity
 _atom_site_fract_x
 _atom_site_fract_y
 _atom_site_fract_z
 _atom_site_occupancy
  Li  Li0  1  0.12392800  0.06553600  0.18129100  1
  Li  Li1  1  0.12296600  0.56560000  0.68125200  1
  Li  Li2  1  0.87705000  0.43442300  0.31878100  1
  Li  Li3  1  0.87611000  0.93437900  0.81874700  1
  Cr  Cr4  1  0.50007900  0.00003300  0.99995800  1
  Cr  Cr5  1  0.00008500  0.00025000  0.49999200  1
  Cr  Cr6  1  0.99999700  0.49996900  0.00001100  1
  Cr  Cr7  1  0.50006500  0.99990600  0.50006200  1
  Cr  Cr8  1  0.49984900  0.50000000  0.00003300  1
  Cr  Cr9  1  0.49988500  0.49996900  0.49987000  1
  Sn  Sn10  1  0.50432300  0.25005200  0.75001900  1
  Sn  Sn11  1  0.49572500  0.75003900  0.24997200  1
  O  O12  1  0.27647900  0.14872900  0.39970800  1
  O  O13  1  0.27182400  0.64876700  0.89966400  1
  O  O14  1  0.72811500  0.35118200  0.10032000  1
  O  O15  1  0.72354900  0.85117900  0.60027200  1
  O  O16  1  0.71782400  0.36255100  0.61402000  1
  O  O17  1  0.71356000  0.86612100  0.11295300  1
  O  O18  1  0.25694300  0.90115700  0.61545000  1
  O  O19  1  0.25971800  0.40106900  0.11549500  1
  O  O20  1  0.26553400  0.36617600  0.61295700  1
  O  O21  1  0.25876500  0.86258500  0.11401100  1
  O  O22  1  0.74130600  0.13739200  0.88599300  1
  O  O23  1  0.73453200  0.63397300  0.38702900  1
  O  O24  1  0.74018100  0.59886800  0.88458700  1
  O  O25  1  0.74302800  0.09890800  0.38454100  1
  O  O26  1  0.28645600  0.13385700  0.88706400  1
  O  O27  1  0.28212600  0.63732900  0.38595100  1
