# generated using pymatgen
data_Li9Co7O16
_symmetry_space_group_name_H-M   'P 1'
_cell_length_a   10.13151870
_cell_length_b   10.13151870
_cell_length_c   5.12058596
_cell_angle_alpha   80.23186182
_cell_angle_beta   80.23186182
_cell_angle_gamma   33.38643848
_symmetry_Int_Tables_number   1
_chemical_formula_structural   Li9Co7O16
_chemical_formula_sum   'Li9 Co7 O16'
_cell_volume   284.66435128
_cell_formula_units_Z   1
loop_
 _symmetry_equiv_pos_site_id
 _symmetry_equiv_pos_as_xyz
  1  'x, y, z'
loop_
 _atom_site_type_symbol
 _atom_site_label
 _atom_site_symmetry_multiplicity
 _atom_site_fract_x
 _atom_site_fract_y
 _atom_site_fract_z
 _atom_site_occupancy
  Li  Li0  1  0.74529300  0.25470700  0.50000000  1
  Li  Li1  1  0.37526900  0.37526900  0.75300500  1
  Li  Li2  1  0.25470700  0.74529300  0.50000000  1
  Li  Li3  1  0.87519700  0.87519700  0.75318400  1
  Li  Li4  1  0.12480300  0.12480300  0.24681600  1
  Li  Li5  1  0.62473100  0.62473100  0.24699500  1
  Li  Li6  1  0.50000000  0.00000000  0.00000000  1
  Li  Li7  1  0.00000000  0.50000000  0.00000000  1
  Li  Li8  1  0.50000000  0.50000000  0.00000000  1
  Co  Co9  1  0.00000000  0.00000000  0.00000000  1
  Co  Co10  1  0.62452700  0.13229500  0.24465800  1
  Co  Co11  1  0.24984500  0.24984500  0.49809000  1
  Co  Co12  1  0.86770500  0.37547300  0.75534200  1
  Co  Co13  1  0.13229500  0.62452700  0.24465800  1
  Co  Co14  1  0.75015500  0.75015500  0.50191000  1
  Co  Co15  1  0.37547300  0.86770500  0.75534200  1
  O  O16  1  0.05936500  0.05936500  0.65642100  1
  O  O17  1  0.71272900  0.16892400  0.89794900  1
  O  O18  1  0.56911300  0.56911300  0.62482300  1
  O  O19  1  0.16892400  0.71272900  0.89794900  1
  O  O20  1  0.43566800  0.94350500  0.39194000  1
  O  O21  1  0.94350500  0.43566800  0.39194000  1
  O  O22  1  0.81631100  0.81631100  0.14647000  1
  O  O23  1  0.31437700  0.31437700  0.13822300  1
  O  O24  1  0.43088700  0.43088700  0.37517700  1
  O  O25  1  0.05649500  0.56433200  0.60806000  1
  O  O26  1  0.94063500  0.94063500  0.34357900  1
  O  O27  1  0.56433200  0.05649500  0.60806000  1
  O  O28  1  0.83107600  0.28727100  0.10205100  1
  O  O29  1  0.28727100  0.83107600  0.10205100  1
  O  O30  1  0.18368900  0.18368900  0.85353000  1
  O  O31  1  0.68562300  0.68562300  0.86177700  1
