# generated using pymatgen
data_Na5LiFe2P2(CO7)2
_symmetry_space_group_name_H-M   'P 1'
_cell_length_a   6.69460100
_cell_length_b   8.93266348
_cell_length_c   10.38901843
_cell_angle_alpha   91.08370193
_cell_angle_beta   90.21697846
_cell_angle_gamma   90.35294932
_symmetry_Int_Tables_number   1
_chemical_formula_structural   Na5LiFe2P2(CO7)2
_chemical_formula_sum   'Na10 Li2 Fe4 P4 C4 O28'
_cell_volume   621.14207643
_cell_formula_units_Z   2
loop_
 _symmetry_equiv_pos_site_id
 _symmetry_equiv_pos_as_xyz
  1  'x, y, z'
loop_
 _atom_site_type_symbol
 _atom_site_label
 _atom_site_symmetry_multiplicity
 _atom_site_fract_x
 _atom_site_fract_y
 _atom_site_fract_z
 _atom_site_occupancy
  Na  Na0  1  0.24517900  0.91899900  0.87992500  1
  Na  Na1  1  0.25113700  0.91869000  0.38175700  1
  Na  Na2  1  0.00006600  0.73911500  0.62427800  1
  Na  Na3  1  0.50056000  0.73821500  0.62449000  1
  Na  Na4  1  0.00187100  0.73715900  0.12510800  1
  Na  Na5  1  0.49668700  0.73713700  0.12668000  1
  Na  Na6  1  0.50483600  0.26017700  0.87230500  1
  Na  Na7  1  0.50309600  0.26477300  0.38036200  1
  Na  Na8  1  0.99656900  0.26339900  0.37814100  1
  Na  Na9  1  0.75355700  0.08439000  0.11937500  1
  Li  Li10  1  0.98599600  0.27612300  0.87757800  1
  Li  Li11  1  0.75756200  0.09109100  0.62455100  1
  Fe  Fe12  1  0.74948300  0.64509300  0.88885100  1
  Fe  Fe13  1  0.75091400  0.64672100  0.39228000  1
  Fe  Fe14  1  0.24775700  0.35249400  0.61527800  1
  Fe  Fe15  1  0.24661100  0.35225700  0.10612800  1
  P  P16  1  0.24525500  0.58284800  0.84911600  1
  P  P17  1  0.24978900  0.58543200  0.35328800  1
  P  P18  1  0.75463800  0.40289500  0.65069500  1
  P  P19  1  0.74844000  0.41440500  0.14493600  1
  C  C20  1  0.75743300  0.94537200  0.85979500  1
  C  C21  1  0.75000100  0.94549500  0.36910100  1
  C  C22  1  0.24753800  0.06062200  0.63611300  1
  C  C23  1  0.24920600  0.06009900  0.13474500  1
  O  O24  1  0.25114100  0.91661200  0.64464700  1
  O  O25  1  0.25134600  0.91578000  0.14281900  1
  O  O26  1  0.75085700  0.88457300  0.97297900  1
  O  O27  1  0.75189500  0.89301700  0.48532700  1
  O  O28  1  0.74725600  0.85836000  0.75820400  1
  O  O29  1  0.75095000  0.85238700  0.27037200  1
  O  O30  1  0.06237300  0.68167000  0.88601100  1
  O  O31  1  0.43429700  0.67301300  0.89305700  1
  O  O32  1  0.06439400  0.68146600  0.39247100  1
  O  O33  1  0.43749700  0.68142500  0.39219600  1
  O  O34  1  0.25106200  0.56235700  0.69944400  1
  O  O35  1  0.75023500  0.55699900  0.58459400  1
  O  O36  1  0.24849800  0.56201200  0.20410000  1
  O  O37  1  0.74783100  0.56899100  0.08075300  1
  O  O38  1  0.23299500  0.42603000  0.90998500  1
  O  O39  1  0.77136400  0.42896100  0.80025300  1
  O  O40  1  0.25000000  0.43308800  0.42054600  1
  O  O41  1  0.75379000  0.43682700  0.29404200  1
  O  O42  1  0.56604500  0.30603700  0.61907300  1
  O  O43  1  0.93176400  0.30390500  0.60505700  1
  O  O44  1  0.56018700  0.31969700  0.10641300  1
  O  O45  1  0.93224600  0.31963200  0.10056200  1
  O  O46  1  0.24220000  0.14600000  0.73900500  1
  O  O47  1  0.24619300  0.14460800  0.23821000  1
  O  O48  1  0.24928000  0.12363500  0.52400000  1
  O  O49  1  0.24967600  0.12286800  0.02266100  1
  O  O50  1  0.77324300  0.08924800  0.84741500  1
  O  O51  1  0.74720400  0.08780100  0.35092600  1
