# generated using pymatgen
data_Li9Mn2Co5O16
_symmetry_space_group_name_H-M   'P 1'
_cell_length_a   5.10716900
_cell_length_b   5.82253220
_cell_length_c   10.08279499
_cell_angle_alpha   90.64527960
_cell_angle_beta   99.27287295
_cell_angle_gamma   105.98714920
_symmetry_Int_Tables_number   1
_chemical_formula_structural   Li9Mn2Co5O16
_chemical_formula_sum   'Li9 Mn2 Co5 O16'
_cell_volume   283.97606092
_cell_formula_units_Z   1
loop_
 _symmetry_equiv_pos_site_id
 _symmetry_equiv_pos_as_xyz
  1  'x, y, z'
loop_
 _atom_site_type_symbol
 _atom_site_label
 _atom_site_symmetry_multiplicity
 _atom_site_fract_x
 _atom_site_fract_y
 _atom_site_fract_z
 _atom_site_occupancy
  Li  Li0  1  0.50510800  0.12500000  0.87482000  1
  Li  Li1  1  0.49887900  0.62478300  0.87199100  1
  Li  Li2  1  0.49804500  0.37602000  0.62261400  1
  Li  Li3  1  0.50062500  0.87431800  0.62271900  1
  Li  Li4  1  0.50063700  0.62052600  0.37454700  1
  Li  Li5  1  0.49854200  0.13351400  0.37446900  1
  Li  Li6  1  0.49732600  0.87666500  0.12891900  1
  Li  Li7  1  0.49898900  0.36791400  0.13199800  1
  Li  Li8  1  0.00046700  0.25530100  0.24913700  1
  Mn  Mn9  1  0.99862600  0.00367100  0.00385300  1
  Mn  Mn10  1  0.00337700  0.74647400  0.24900300  1
  Co  Co11  1  0.99920700  0.49643800  0.00263900  1
  Co  Co12  1  0.99790900  0.24986800  0.74902400  1
  Co  Co13  1  0.99906300  0.74465400  0.74667100  1
  Co  Co14  1  0.00334000  0.49238600  0.49272200  1
  Co  Co15  1  0.99382400  0.00726300  0.49236800  1
  O  O16  1  0.21318800  0.80147000  0.93839000  1
  O  O17  1  0.22206300  0.30066100  0.94672900  1
  O  O18  1  0.22573100  0.06306700  0.68598900  1
  O  O19  1  0.23724600  0.55919600  0.68984100  1
  O  O20  1  0.23843500  0.31949000  0.44414300  1
  O  O21  1  0.23251800  0.81034700  0.42376200  1
  O  O22  1  0.22148200  0.57038000  0.17924400  1
  O  O23  1  0.22260700  0.04223300  0.17969000  1
  O  O24  1  0.77743400  0.43414700  0.82134100  1
  O  O25  1  0.77270200  0.93765400  0.82356400  1
  O  O26  1  0.77821300  0.69020300  0.56814300  1
  O  O27  1  0.76203200  0.19430200  0.56377500  1
  O  O28  1  0.77693300  0.93066000  0.31785900  1
  O  O29  1  0.76784300  0.46234300  0.30961700  1
  O  O30  1  0.77598000  0.19151400  0.05513900  1
  O  O31  1  0.78163200  0.69753900  0.06528000  1
