# generated using pymatgen
data_Li4Mn3V3(FeO8)2
_symmetry_space_group_name_H-M   'P 1'
_cell_length_a   5.91454000
_cell_length_b   5.91502833
_cell_length_c   9.61285066
_cell_angle_alpha   89.11781684
_cell_angle_beta   88.27540368
_cell_angle_gamma   60.24362554
_symmetry_Int_Tables_number   1
_chemical_formula_structural   Li4Mn3V3(FeO8)2
_chemical_formula_sum   'Li4 Mn3 V3 Fe2 O16'
_cell_volume   291.82650887
_cell_formula_units_Z   1
loop_
 _symmetry_equiv_pos_site_id
 _symmetry_equiv_pos_as_xyz
  1  'x, y, z'
loop_
 _atom_site_type_symbol
 _atom_site_label
 _atom_site_symmetry_multiplicity
 _atom_site_fract_x
 _atom_site_fract_y
 _atom_site_fract_z
 _atom_site_occupancy
  Li  Li0  1  0.66447400  0.67133600  0.10588500  1
  Li  Li1  1  0.99914700  0.00905900  0.00549500  1
  Li  Li2  1  0.00458100  0.98723700  0.50464000  1
  Li  Li3  1  0.33419300  0.33314600  0.60522400  1
  Mn  Mn4  1  0.83066300  0.83338000  0.78841100  1
  Mn  Mn5  1  0.66462800  0.16444300  0.28704400  1
  Mn  Mn6  1  0.16994400  0.65679000  0.28481500  1
  V  V7  1  0.82953100  0.34187100  0.78533800  1
  V  V8  1  0.33673000  0.83900900  0.78411100  1
  V  V9  1  0.17482700  0.15904400  0.28486600  1
  Fe  Fe10  1  0.66971900  0.65513800  0.50889300  1
  Fe  Fe11  1  0.32666100  0.34578700  0.01028300  1
  O  O12  1  0.86854900  0.31798700  0.40198800  1
  O  O13  1  0.51686300  0.51772800  0.66455200  1
  O  O14  1  0.66375700  0.67488700  0.89372500  1
  O  O15  1  0.99673100  0.99732300  0.69152700  1
  O  O16  1  0.99804100  0.99070800  0.19232900  1
  O  O17  1  0.32864100  0.82519200  0.39369800  1
  O  O18  1  0.96081000  0.50311300  0.66356300  1
  O  O19  1  0.50159100  0.96036800  0.65786100  1
  O  O20  1  0.16080400  0.17457400  0.89540300  1
  O  O21  1  0.84593900  0.82528700  0.40313300  1
  O  O22  1  0.45251400  0.04012800  0.15778200  1
  O  O23  1  0.03460300  0.48963800  0.16715200  1
  O  O24  1  0.33656400  0.33442000  0.38993100  1
  O  O25  1  0.67506200  0.18272300  0.90208700  1
  O  O26  1  0.47412000  0.48621300  0.16070700  1
  O  O27  1  0.18061200  0.68317400  0.90172200  1
