# generated using pymatgen
data_LiTeH5O6
_symmetry_space_group_name_H-M   'P 1'
_cell_length_a   7.61481900
_cell_length_b   7.69819100
_cell_length_c   10.88686445
_cell_angle_alpha   45.01232895
_cell_angle_beta   90.00000000
_cell_angle_gamma   90.00000000
_symmetry_Int_Tables_number   1
_chemical_formula_structural   LiTeH5O6
_chemical_formula_sum   'Li4 Te4 H20 O24'
_cell_volume   451.36670120
_cell_formula_units_Z   4
loop_
 _symmetry_equiv_pos_site_id
 _symmetry_equiv_pos_as_xyz
  1  'x, y, z'
loop_
 _atom_site_type_symbol
 _atom_site_label
 _atom_site_symmetry_multiplicity
 _atom_site_fract_x
 _atom_site_fract_y
 _atom_site_fract_z
 _atom_site_occupancy
  Li  Li0  1  0.99885700  0.50860400  0.98901100  1
  Li  Li1  1  0.00114300  0.50860400  0.48901100  1
  Li  Li2  1  0.50242400  0.01236100  0.49783600  1
  Li  Li3  1  0.49757600  0.01236100  0.99783600  1
  Te  Te4  1  0.49669100  0.49052400  0.99827600  1
  Te  Te5  1  0.50330900  0.49052400  0.49827600  1
  Te  Te6  1  0.99389200  0.98781400  0.51212100  1
  Te  Te7  1  0.00610800  0.98781400  0.01212100  1
  H  H8  1  0.26193100  0.77931100  0.93625900  1
  H  H9  1  0.25546600  0.21801600  0.56669600  1
  H  H10  1  0.76107300  0.15051800  0.28532700  1
  H  H11  1  0.75637500  0.85004600  0.21616400  1
  H  H12  1  0.74453400  0.21801600  0.06669600  1
  H  H13  1  0.73806900  0.77931100  0.43625900  1
  H  H14  1  0.24362500  0.85004600  0.71616400  1
  H  H15  1  0.23892700  0.15051800  0.78532700  1
  H  H16  1  0.28358600  0.25579200  0.24046200  1
  H  H17  1  0.28052600  0.74007300  0.26559200  1
  H  H18  1  0.77833900  0.23890300  0.50192000  1
  H  H19  1  0.78590900  0.77314400  0.99282000  1
  H  H20  1  0.71947400  0.74007300  0.76559200  1
  H  H21  1  0.71641400  0.25579200  0.74046200  1
  H  H22  1  0.21409100  0.77314400  0.49282000  1
  H  H23  1  0.22166100  0.23890300  0.00192000  1
  H  H24  1  0.56103600  0.53017100  0.20372300  1
  H  H25  1  0.06085100  0.43798400  0.26587500  1
  H  H26  1  0.43896400  0.53017100  0.70372300  1
  H  H27  1  0.93914900  0.43798400  0.76587500  1
  O  O28  1  0.41013600  0.22423700  0.23727200  1
  O  O29  1  0.40827600  0.77507800  0.26994500  1
  O  O30  1  0.90735400  0.19948200  0.53805800  1
  O  O31  1  0.91107900  0.81590700  0.95435000  1
  O  O32  1  0.59172400  0.77507800  0.76994500  1
  O  O33  1  0.58986400  0.22423700  0.73727200  1
  O  O34  1  0.08892100  0.81590700  0.45435000  1
  O  O35  1  0.09264600  0.19948200  0.03805800  1
  O  O36  1  0.26529000  0.65862600  0.92543200  1
  O  O37  1  0.26540500  0.33866400  0.57740300  1
  O  O38  1  0.76413800  0.00762700  0.41670800  1
  O  O39  1  0.76656300  0.99153300  0.08483100  1
  O  O40  1  0.73459500  0.33866400  0.07740300  1
  O  O41  1  0.73471000  0.65862600  0.42543200  1
  O  O42  1  0.23343700  0.99153300  0.58483100  1
  O  O43  1  0.23586200  0.00762700  0.91670800  1
  O  O44  1  0.56927200  0.65525500  0.07206900  1
  O  O45  1  0.57493900  0.33709500  0.42895100  1
  O  O46  1  0.06789100  0.29885000  0.27326900  1
  O  O47  1  0.07648600  0.69438400  0.23463300  1
  O  O48  1  0.42506100  0.33709500  0.92895100  1
  O  O49  1  0.43072800  0.65525500  0.57206900  1
  O  O50  1  0.92351400  0.69438400  0.73463300  1
  O  O51  1  0.93210900  0.29885000  0.77326900  1
