# generated using pymatgen
data_LiMn(PO3)5
_symmetry_space_group_name_H-M   'P 1'
_cell_length_a   13.63464900
_cell_length_b   9.01755100
_cell_length_c   10.32700345
_cell_angle_alpha   80.23933149
_cell_angle_beta   90.00000000
_cell_angle_gamma   90.00000000
_symmetry_Int_Tables_number   1
_chemical_formula_structural   LiMn(PO3)5
_chemical_formula_sum   'Li4 Mn4 P20 O60'
_cell_volume   1251.33709935
_cell_formula_units_Z   4
loop_
 _symmetry_equiv_pos_site_id
 _symmetry_equiv_pos_as_xyz
  1  'x, y, z'
loop_
 _atom_site_type_symbol
 _atom_site_label
 _atom_site_symmetry_multiplicity
 _atom_site_fract_x
 _atom_site_fract_y
 _atom_site_fract_z
 _atom_site_occupancy
  Li  Li0  1  0.61286000  0.08726800  0.22102800  1
  Li  Li1  1  0.88714000  0.08726800  0.72102800  1
  Li  Li2  1  0.38714000  0.91273200  0.77897200  1
  Li  Li3  1  0.11286000  0.91273200  0.27897200  1
  Mn  Mn4  1  0.50000000  0.50000000  0.00000000  1
  Mn  Mn5  1  0.00000000  0.50000000  0.00000000  1
  Mn  Mn6  1  0.00000000  0.50000000  0.50000000  1
  Mn  Mn7  1  0.50000000  0.50000000  0.50000000  1
  P  P8  1  0.63761200  0.52205400  0.74949800  1
  P  P9  1  0.74395000  0.99641100  0.47935700  1
  P  P10  1  0.35760500  0.47861200  0.74583600  1
  P  P11  1  0.41250600  0.19099000  0.92332100  1
  P  P12  1  0.36238800  0.47794600  0.25050200  1
  P  P13  1  0.24395000  0.00358900  0.02064300  1
  P  P14  1  0.64239500  0.52138800  0.25416400  1
  P  P15  1  0.91250600  0.80901000  0.57667900  1
  P  P16  1  0.08749400  0.19099000  0.42332100  1
  P  P17  1  0.93321000  0.80641500  0.09359300  1
  P  P18  1  0.25605000  0.00358900  0.52064300  1
  P  P19  1  0.13761200  0.47794600  0.75050200  1
  P  P20  1  0.86238800  0.52205400  0.24949800  1
  P  P21  1  0.14239500  0.47861200  0.24583600  1
  P  P22  1  0.43321000  0.19358500  0.40640700  1
  P  P23  1  0.06679000  0.19358500  0.90640700  1
  P  P24  1  0.75605000  0.99641100  0.97935700  1
  P  P25  1  0.56679000  0.80641500  0.59359300  1
  P  P26  1  0.85760500  0.52138800  0.75416400  1
  P  P27  1  0.58749400  0.80901000  0.07667900  1
  O  O28  1  0.73665700  0.07919200  0.09125900  1
  O  O29  1  0.07240400  0.55846000  0.83659400  1
  O  O30  1  0.01195900  0.29321500  0.98903900  1
  O  O31  1  0.26670300  0.90779700  0.65378700  1
  O  O32  1  0.26334300  0.92080800  0.90874100  1
  O  O33  1  0.64631000  0.69509400  0.19190800  1
  O  O34  1  0.62559100  0.50866500  0.40219700  1
  O  O35  1  0.98804100  0.70678500  0.01096100  1
  O  O36  1  0.12559100  0.49133500  0.09780300  1
  O  O37  1  0.76334300  0.07919200  0.59125900  1
  O  O38  1  0.64615900  0.89318800  0.49811500  1
  O  O39  1  0.13790700  0.30221000  0.80325400  1
  O  O40  1  0.04573100  0.06776800  0.36367700  1
  O  O41  1  0.36209300  0.30221000  0.30325400  1
  O  O42  1  0.02154200  0.28676000  0.49423200  1
  O  O43  1  0.61913200  0.49032800  0.89526900  1
  O  O44  1  0.07817500  0.57010500  0.31886700  1
  O  O45  1  0.85384100  0.89318800  0.99811500  1
  O  O46  1  0.35369000  0.30490600  0.80809200  1
  O  O47  1  0.97845800  0.71324000  0.50576800  1
  O  O48  1  0.45426900  0.06776800  0.86367700  1
  O  O49  1  0.74704200  0.46946000  0.73139400  1
  O  O50  1  0.37440900  0.49133500  0.59780300  1
  O  O51  1  0.95426900  0.93223200  0.63632300  1
  O  O52  1  0.86209300  0.69779000  0.19674600  1
  O  O53  1  0.42182500  0.57010500  0.81886700  1
  O  O54  1  0.54573100  0.93223200  0.13632300  1
  O  O55  1  0.88086800  0.49032800  0.39526900  1
  O  O56  1  0.50521000  0.90291700  0.66162700  1
  O  O57  1  0.82422000  0.86409700  0.47490600  1
  O  O58  1  0.51195900  0.70678500  0.51096100  1
  O  O59  1  0.35384100  0.10681200  0.50188500  1
  O  O60  1  0.42759600  0.55846000  0.33659400  1
  O  O61  1  0.99479000  0.90291700  0.16162700  1
  O  O62  1  0.32422000  0.13590300  0.02509400  1
  O  O63  1  0.87440900  0.50866500  0.90219700  1
  O  O64  1  0.49479000  0.09708300  0.33837300  1
  O  O65  1  0.48804100  0.29321500  0.48903900  1
  O  O66  1  0.73329700  0.09220300  0.34621300  1
  O  O67  1  0.92182500  0.42989500  0.68113300  1
  O  O68  1  0.63790700  0.69779000  0.69674600  1
  O  O69  1  0.25295800  0.53054000  0.26860600  1
  O  O70  1  0.23665700  0.92080800  0.40874100  1
  O  O71  1  0.76670300  0.09220300  0.84621300  1
  O  O72  1  0.47845800  0.28676000  0.99423200  1
  O  O73  1  0.24704200  0.53054000  0.76860600  1
  O  O74  1  0.11913200  0.50967200  0.60473100  1
  O  O75  1  0.85369000  0.69509400  0.69190800  1
  O  O76  1  0.57240400  0.44154000  0.66340600  1
  O  O77  1  0.17578000  0.13590300  0.52509400  1
  O  O78  1  0.23329700  0.90779700  0.15378700  1
  O  O79  1  0.14615900  0.10681200  0.00188500  1
  O  O80  1  0.57817500  0.42989500  0.18113300  1
  O  O81  1  0.67578000  0.86409700  0.97490600  1
  O  O82  1  0.75295800  0.46946000  0.23139400  1
  O  O83  1  0.14631000  0.30490600  0.30809200  1
  O  O84  1  0.92759600  0.44154000  0.16340600  1
  O  O85  1  0.00521000  0.09708300  0.83837300  1
  O  O86  1  0.52154200  0.71324000  0.00576800  1
  O  O87  1  0.38086800  0.50967200  0.10473100  1
