# generated using pymatgen
data_Li9Mn2Co5O16
_symmetry_space_group_name_H-M   'P 1'
_cell_length_a   5.07460000
_cell_length_b   7.72927831
_cell_length_c   7.83090157
_cell_angle_alpha   97.23550549
_cell_angle_beta   101.49636628
_cell_angle_gamma   104.26404008
_symmetry_Int_Tables_number   1
_chemical_formula_structural   Li9Mn2Co5O16
_chemical_formula_sum   'Li9 Mn2 Co5 O16'
_cell_volume   286.71165857
_cell_formula_units_Z   1
loop_
 _symmetry_equiv_pos_site_id
 _symmetry_equiv_pos_as_xyz
  1  'x, y, z'
loop_
 _atom_site_type_symbol
 _atom_site_label
 _atom_site_symmetry_multiplicity
 _atom_site_fract_x
 _atom_site_fract_y
 _atom_site_fract_z
 _atom_site_occupancy
  Li  Li0  1  0.49992900  0.74943600  0.74947500  1
  Li  Li1  1  0.99722400  0.37399000  0.11636700  1
  Li  Li2  1  0.51226100  0.00677500  0.50672900  1
  Li  Li3  1  0.00689200  0.88571000  0.62629900  1
  Li  Li4  1  0.48882400  0.49365100  0.99222500  1
  Li  Li5  1  0.99971300  0.12711600  0.38360700  1
  Li  Li6  1  0.99400100  0.61247500  0.87141700  1
  Li  Li7  1  0.50159200  0.25055100  0.25178300  1
  Li  Li8  1  0.99799700  0.25117900  0.74928300  1
  Mn  Mn9  1  0.99796300  0.00252700  0.99612500  1
  Mn  Mn10  1  0.00052600  0.49724000  0.50513200  1
  Co  Co11  1  0.50090900  0.62593000  0.37879300  1
  Co  Co12  1  0.49971700  0.87350600  0.12366600  1
  Co  Co13  1  0.49835200  0.12957400  0.87529800  1
  Co  Co14  1  0.99972500  0.74914400  0.25109500  1
  Co  Co15  1  0.49059500  0.36214900  0.63330000  1
  O  O16  1  0.76418800  0.76304800  0.00849000  1
  O  O17  1  0.24644300  0.39533200  0.38165900  1
  O  O18  1  0.75476600  0.00677700  0.77816800  1
  O  O19  1  0.25007400  0.89801800  0.88527800  1
  O  O20  1  0.77087600  0.51250000  0.26803300  1
  O  O21  1  0.26832700  0.13231000  0.61999000  1
  O  O22  1  0.26360500  0.63916500  0.12923400  1
  O  O23  1  0.75975800  0.26696700  0.49799100  1
  O  O24  1  0.23895800  0.73889200  0.49031000  1
  O  O25  1  0.72199600  0.36043900  0.87342300  1
  O  O26  1  0.22955900  0.98805900  0.22961000  1
  O  O27  1  0.73622800  0.86135700  0.36914800  1
  O  O28  1  0.24007900  0.50209700  0.72734200  1
  O  O29  1  0.76010500  0.10471700  0.12032200  1
  O  O30  1  0.75630600  0.60769300  0.61426800  1
  O  O31  1  0.25251100  0.23167400  0.99614100  1
