# generated using pymatgen
data_Li2MnV3O8
_symmetry_space_group_name_H-M   'P 1'
_cell_length_a   5.95184067
_cell_length_b   10.36554420
_cell_length_c   5.93935504
_cell_angle_alpha   106.67285092
_cell_angle_beta   60.07382084
_cell_angle_gamma   90.06650191
_symmetry_Int_Tables_number   1
_chemical_formula_structural   Li2MnV3O8
_chemical_formula_sum   'Li4 Mn2 V6 O16'
_cell_volume   299.73543912
_cell_formula_units_Z   2
loop_
 _symmetry_equiv_pos_site_id
 _symmetry_equiv_pos_as_xyz
  1  'x, y, z'
loop_
 _atom_site_type_symbol
 _atom_site_label
 _atom_site_symmetry_multiplicity
 _atom_site_fract_x
 _atom_site_fract_y
 _atom_site_fract_z
 _atom_site_occupancy
  Li  Li0  1  0.30630700  0.56371400  0.38094300  1
  Li  Li1  1  0.81395500  0.06506900  0.38099900  1
  Li  Li2  1  0.19422800  0.93601600  0.61690400  1
  Li  Li3  1  0.68584700  0.43483100  0.61938700  1
  Mn  Mn4  1  0.75066400  0.74928500  0.49947600  1
  Mn  Mn5  1  0.24886300  0.25035700  0.50113300  1
  V  V6  1  0.24955600  0.75023800  0.00104500  1
  V  V7  1  0.75132500  0.74927100  0.99941000  1
  V  V8  1  0.99390700  0.50102700  0.00117200  1
  V  V9  1  0.75017500  0.25044500  0.00107300  1
  V  V10  1  0.25023000  0.24969700  0.99978500  1
  V  V11  1  0.50698400  0.99959100  0.99656000  1
  O  O12  1  0.09182400  0.63646700  0.78933600  1
  O  O13  1  0.61653700  0.13615900  0.79124000  1
  O  O14  1  0.41101800  0.86525600  0.20754500  1
  O  O15  1  0.88232900  0.36279500  0.20995400  1
  O  O16  1  0.87015800  0.85754800  0.24914700  1
  O  O17  1  0.38495300  0.35692900  0.25070200  1
  O  O18  1  0.09577900  0.63254300  0.24704800  1
  O  O19  1  0.60171300  0.13492300  0.24543000  1
  O  O20  1  0.64382600  0.63888900  0.25217000  1
  O  O21  1  0.15378500  0.13714900  0.24707700  1
  O  O22  1  0.85507200  0.86043500  0.74653100  1
  O  O23  1  0.34511400  0.36347100  0.75569400  1
  O  O24  1  0.40829300  0.86759200  0.75190400  1
  O  O25  1  0.89342600  0.36494300  0.75710000  1
  O  O26  1  0.62958500  0.64245800  0.75093300  1
  O  O27  1  0.11454300  0.14290000  0.75030700  1
