# generated using pymatgen
data_LiCo2(PO4)2
_symmetry_space_group_name_H-M   'P 1'
_cell_length_a   5.13596500
_cell_length_b   10.32872600
_cell_length_c   13.60322300
_cell_angle_alpha   90.00000000
_cell_angle_beta   90.00000000
_cell_angle_gamma   90.00000000
_symmetry_Int_Tables_number   1
_chemical_formula_structural   LiCo2(PO4)2
_chemical_formula_sum   'Li4 Co8 P8 O32'
_cell_volume   721.62343676
_cell_formula_units_Z   4
loop_
 _symmetry_equiv_pos_site_id
 _symmetry_equiv_pos_as_xyz
  1  'x, y, z'
loop_
 _atom_site_type_symbol
 _atom_site_label
 _atom_site_symmetry_multiplicity
 _atom_site_fract_x
 _atom_site_fract_y
 _atom_site_fract_z
 _atom_site_occupancy
  Li  Li0  1  0.05610900  0.03348500  0.24706800  1
  Li  Li1  1  0.05610900  0.46651500  0.74706800  1
  Li  Li2  1  0.94389100  0.53348500  0.24706800  1
  Li  Li3  1  0.94389100  0.96651500  0.74706800  1
  Co  Co4  1  0.93053100  0.03206800  0.49766800  1
  Co  Co5  1  0.55499400  0.21787300  0.24863100  1
  Co  Co6  1  0.55499400  0.28212700  0.74863100  1
  Co  Co7  1  0.93053100  0.46793200  0.99766800  1
  Co  Co8  1  0.06946900  0.53206800  0.49766800  1
  Co  Co9  1  0.44500600  0.71787300  0.24863100  1
  Co  Co10  1  0.44500600  0.78212700  0.74863100  1
  Co  Co11  1  0.06946900  0.96793200  0.99766800  1
  P  P12  1  0.43612300  0.02956400  0.62506500  1
  P  P13  1  0.05409700  0.21822500  0.87208700  1
  P  P14  1  0.05409700  0.28177500  0.37208700  1
  P  P15  1  0.43612300  0.47043600  0.12506500  1
  P  P16  1  0.56387700  0.52956400  0.62506500  1
  P  P17  1  0.94590300  0.71822500  0.87208700  1
  P  P18  1  0.94590300  0.78177500  0.37208700  1
  P  P19  1  0.56387700  0.97043600  0.12506500  1
  O  O20  1  0.86141100  0.99408600  0.12202000  1
  O  O21  1  0.43037900  0.01250200  0.03027300  1
  O  O22  1  0.45134900  0.04497900  0.21756600  1
  O  O23  1  0.00532300  0.07056800  0.87259900  1
  O  O24  1  0.49673200  0.17580100  0.64328100  1
  O  O25  1  0.91448400  0.21940700  0.27934700  1
  O  O26  1  0.96688900  0.21660900  0.46668300  1
  O  O27  1  0.35073300  0.24658500  0.85587300  1
  O  O28  1  0.35073300  0.25341500  0.35587300  1
  O  O29  1  0.96688900  0.28339100  0.96668300  1
  O  O30  1  0.91448400  0.28059300  0.77934700  1
  O  O31  1  0.49673200  0.32419900  0.14328100  1
  O  O32  1  0.00532300  0.42943200  0.37259900  1
  O  O33  1  0.45134900  0.45502100  0.71756600  1
  O  O34  1  0.43037900  0.48749800  0.53027300  1
  O  O35  1  0.86141100  0.50591400  0.62202000  1
  O  O36  1  0.13858900  0.49408600  0.12202000  1
  O  O37  1  0.56962100  0.51250200  0.03027300  1
  O  O38  1  0.54865100  0.54497900  0.21756600  1
  O  O39  1  0.99467700  0.57056800  0.87259900  1
  O  O40  1  0.50326800  0.67580100  0.64328100  1
  O  O41  1  0.08551600  0.71940700  0.27934700  1
  O  O42  1  0.03311100  0.71660900  0.46668300  1
  O  O43  1  0.64926700  0.74658500  0.85587300  1
  O  O44  1  0.64926700  0.75341500  0.35587300  1
  O  O45  1  0.03311100  0.78339100  0.96668300  1
  O  O46  1  0.08551600  0.78059300  0.77934700  1
  O  O47  1  0.50326800  0.82419900  0.14328100  1
  O  O48  1  0.99467700  0.92943200  0.37259900  1
  O  O49  1  0.54865100  0.95502100  0.71756600  1
  O  O50  1  0.56962100  0.98749800  0.53027300  1
  O  O51  1  0.13858900  0.00591400  0.62202000  1
