# generated using pymatgen
data_Li3MnV(PO4)3
_symmetry_space_group_name_H-M   'P 1'
_cell_length_a   8.57711500
_cell_length_b   8.69378892
_cell_length_c   8.70105159
_cell_angle_alpha   119.04543114
_cell_angle_beta   118.82765989
_cell_angle_gamma   89.42556878
_symmetry_Int_Tables_number   1
_chemical_formula_structural   Li3MnV(PO4)3
_chemical_formula_sum   'Li6 Mn2 V2 P6 O24'
_cell_volume   475.18285579
_cell_formula_units_Z   2
loop_
 _symmetry_equiv_pos_site_id
 _symmetry_equiv_pos_as_xyz
  1  'x, y, z'
loop_
 _atom_site_type_symbol
 _atom_site_label
 _atom_site_symmetry_multiplicity
 _atom_site_fract_x
 _atom_site_fract_y
 _atom_site_fract_z
 _atom_site_occupancy
  Li  Li0  1  0.28693700  0.89142600  0.62886700  1
  Li  Li1  1  0.32239200  0.34399300  0.38292600  1
  Li  Li2  1  0.78001700  0.73223300  0.62606000  1
  Li  Li3  1  0.24577900  0.36631200  0.98228700  1
  Li  Li4  1  0.74730300  0.62119200  0.98242400  1
  Li  Li5  1  0.82399600  0.04104100  0.38667800  1
  Mn  Mn6  1  0.14006600  0.85394100  0.20818900  1
  Mn  Mn7  1  0.86360100  0.15417500  0.80127400  1
  V  V8  1  0.64351000  0.35946600  0.21172300  1
  V  V9  1  0.35739600  0.63921100  0.79297900  1
  P  P10  1  0.05028300  0.53307600  0.28066000  1
  P  P11  1  0.54246300  0.75261800  0.27802300  1
  P  P12  1  0.74627600  0.95061500  0.99590600  1
  P  P13  1  0.46482600  0.24927300  0.72812400  1
  P  P14  1  0.24547000  0.04646200  0.00072700  1
  P  P15  1  0.95472600  0.46902100  0.72042700  1
  O  O16  1  0.08305900  0.73083100  0.32383600  1
  O  O17  1  0.07435500  0.39106300  0.10443900  1
  O  O18  1  0.34468300  0.75505100  0.22931400  1
  O  O19  1  0.55233000  0.70733600  0.08716600  1
  O  O20  1  0.20795200  0.55169400  0.48508700  1
  O  O21  1  0.90490200  0.92549200  0.16824400  1
  O  O22  1  0.69912100  0.93065700  0.46966200  1
  O  O23  1  0.19347900  0.01521100  0.13286500  1
  O  O24  1  0.30347800  0.89036800  0.87432400  1
  O  O25  1  0.57746400  0.59813900  0.32338100  1
  O  O26  1  0.39843600  0.23670300  0.16512900  1
  O  O27  1  0.15837400  0.52108400  0.78520300  1
  O  O28  1  0.85405400  0.48051700  0.23002200  1
  O  O29  1  0.58585300  0.76820200  0.83114200  1
  O  O30  1  0.41923000  0.39549700  0.67055300  1
  O  O31  1  0.69400200  0.11258800  0.12392700  1
  O  O32  1  0.80592200  0.97925100  0.86767000  1
  O  O33  1  0.32822600  0.05863800  0.55008200  1
  O  O34  1  0.07938100  0.06324200  0.82720500  1
  O  O35  1  0.81420600  0.47229000  0.52609900  1
  O  O36  1  0.45575400  0.30293800  0.92192400  1
  O  O37  1  0.66925700  0.26420300  0.78904000  1
  O  O38  1  0.93318500  0.60697600  0.89960900  1
  O  O39  1  0.91934200  0.26897800  0.66880400  1
