# generated using pymatgen
data_LiReN2
_symmetry_space_group_name_H-M   'P 1'
_cell_length_a   5.77213375
_cell_length_b   10.51074092
_cell_length_c   13.41244790
_cell_angle_alpha   90.00000000
_cell_angle_beta   90.00000000
_cell_angle_gamma   90.00000000
_symmetry_Int_Tables_number   1
_chemical_formula_structural   LiReN2
_chemical_formula_sum   'Li16 Re16 N32'
_cell_volume   813.72519884
_cell_formula_units_Z   16
loop_
 _symmetry_equiv_pos_site_id
 _symmetry_equiv_pos_as_xyz
  1  'x, y, z'
loop_
 _atom_site_type_symbol
 _atom_site_label
 _atom_site_symmetry_multiplicity
 _atom_site_fract_x
 _atom_site_fract_y
 _atom_site_fract_z
 _atom_site_occupancy
  Li  Li0  1  0.10417741  0.02830116  0.42429821  1
  Li  Li1  1  0.60417741  0.47169884  0.57570179  1
  Li  Li2  1  0.89582259  0.52830116  0.07570179  1
  Li  Li3  1  0.39582259  0.97169884  0.92429821  1
  Li  Li4  1  0.89582259  0.97169884  0.57570179  1
  Li  Li5  1  0.39582259  0.52830116  0.42429821  1
  Li  Li6  1  0.10417741  0.47169884  0.92429821  1
  Li  Li7  1  0.60417741  0.02830116  0.07570179  1
  Li  Li8  1  0.28205574  0.25690707  0.30969336  1
  Li  Li9  1  0.78205574  0.24309293  0.69030664  1
  Li  Li10  1  0.71794426  0.75690707  0.19030664  1
  Li  Li11  1  0.21794426  0.74309293  0.80969336  1
  Li  Li12  1  0.71794426  0.74309293  0.69030664  1
  Li  Li13  1  0.21794426  0.75690707  0.30969336  1
  Li  Li14  1  0.28205574  0.24309293  0.80969336  1
  Li  Li15  1  0.78205574  0.25690707  0.19030664  1
  Re  Re16  1  0.60636658  0.99398896  0.31776040  1
  Re  Re17  1  0.10636658  0.50601104  0.68223960  1
  Re  Re18  1  0.39363342  0.49398896  0.18223960  1
  Re  Re19  1  0.89363342  0.00601104  0.81776040  1
  Re  Re20  1  0.39363342  0.00601104  0.68223960  1
  Re  Re21  1  0.89363342  0.49398896  0.31776040  1
  Re  Re22  1  0.60636658  0.50601104  0.81776040  1
  Re  Re23  1  0.10636658  0.99398896  0.18223960  1
  Re  Re24  1  0.80460220  0.28516779  0.42217502  1
  Re  Re25  1  0.30460220  0.21483221  0.57782498  1
  Re  Re26  1  0.19539780  0.78516779  0.07782498  1
  Re  Re27  1  0.69539780  0.71483221  0.92217502  1
  Re  Re28  1  0.19539780  0.71483221  0.57782498  1
  Re  Re29  1  0.69539780  0.78516779  0.42217502  1
  Re  Re30  1  0.80460220  0.21483221  0.92217502  1
  Re  Re31  1  0.30460220  0.28516779  0.07782498  1
  N  N32  1  0.08446839  0.22096826  0.45764125  1
  N  N33  1  0.58446839  0.27903174  0.54235875  1
  N  N34  1  0.91553161  0.72096826  0.04235875  1
  N  N35  1  0.41553161  0.77903174  0.95764125  1
  N  N36  1  0.91553161  0.77903174  0.54235875  1
  N  N37  1  0.41553161  0.72096826  0.45764125  1
  N  N38  1  0.08446839  0.27903174  0.95764125  1
  N  N39  1  0.58446839  0.22096826  0.04235875  1
  N  N40  1  0.73638371  0.47043428  0.43969654  1
  N  N41  1  0.23638371  0.02956572  0.56030346  1
  N  N42  1  0.26361629  0.97043428  0.06030346  1
  N  N43  1  0.76361629  0.52956572  0.93969654  1
  N  N44  1  0.26361629  0.52956572  0.56030346  1
  N  N45  1  0.76361629  0.97043428  0.43969654  1
  N  N46  1  0.73638371  0.02956572  0.93969654  1
  N  N47  1  0.23638371  0.47043428  0.06030346  1
  N  N48  1  0.63841683  0.18518281  0.33530768  1
  N  N49  1  0.13841683  0.31481719  0.66469232  1
  N  N50  1  0.36158317  0.68518281  0.16469232  1
  N  N51  1  0.86158317  0.81481719  0.83530768  1
  N  N52  1  0.36158317  0.81481719  0.66469232  1
  N  N53  1  0.86158317  0.68518281  0.33530768  1
  N  N54  1  0.63841683  0.31481719  0.83530768  1
  N  N55  1  0.13841683  0.18518281  0.16469232  1
  N  N56  1  0.71224934  0.47583378  0.20042800  1
  N  N57  1  0.21224934  0.02416622  0.79957200  1
  N  N58  1  0.28775066  0.97583378  0.29957200  1
  N  N59  1  0.78775066  0.52416622  0.70042800  1
  N  N60  1  0.28775066  0.52416622  0.79957200  1
  N  N61  1  0.78775066  0.97583378  0.20042800  1
  N  N62  1  0.71224934  0.02416622  0.70042800  1
  N  N63  1  0.21224934  0.47583378  0.29957200  1
