# generated using pymatgen
data_Li5Mn(CoO4)2
_symmetry_space_group_name_H-M   'P 1'
_cell_length_a   5.13414262
_cell_length_b   5.73762799
_cell_length_c   5.84963792
_cell_angle_alpha   119.42439489
_cell_angle_beta   108.50024350
_cell_angle_gamma   89.72582011
_symmetry_Int_Tables_number   1
_chemical_formula_structural   Li5Mn(CoO4)2
_chemical_formula_sum   'Li5 Mn1 Co2 O8'
_cell_volume   139.93127326
_cell_formula_units_Z   1
loop_
 _symmetry_equiv_pos_site_id
 _symmetry_equiv_pos_as_xyz
  1  'x, y, z'
loop_
 _atom_site_type_symbol
 _atom_site_label
 _atom_site_symmetry_multiplicity
 _atom_site_fract_x
 _atom_site_fract_y
 _atom_site_fract_z
 _atom_site_occupancy
  Li  Li0  1  0.49688165  0.24304670  0.50115801  1
  Li  Li1  1  0.50312386  0.24976845  0.99846720  1
  Li  Li2  1  0.49687614  0.75023155  0.00153280  1
  Li  Li3  1  0.50311835  0.75695330  0.49884199  1
  Li  Li4  1  -0.00000000  -0.00000000  0.50000000  1
  Mn  Mn5  1  -0.00000000  -0.00000000  -0.00000000  1
  Co  Co6  1  -0.00000000  0.50000000  0.50000000  1
  Co  Co7  1  -0.00000000  0.50000000  -0.00000000  1
  O  O8  1  0.21960037  0.38975750  0.72922962  1
  O  O9  1  0.24121408  0.35436837  0.23292415  1
  O  O10  1  0.22981419  0.86192567  0.22675428  1
  O  O11  1  0.21488657  0.86499603  0.75595455  1
  O  O12  1  0.78511343  0.13500397  0.24404545  1
  O  O13  1  0.77018581  0.13807433  0.77324572  1
  O  O14  1  0.75878592  0.64563163  0.76707585  1
  O  O15  1  0.78039963  0.61024250  0.27077038  1
