# generated using pymatgen
data_LiPd5O6
_symmetry_space_group_name_H-M   'P 1'
_cell_length_a   5.40914411
_cell_length_b   5.40914411
_cell_length_c   5.82662211
_cell_angle_alpha   77.67489361
_cell_angle_beta   77.67489361
_cell_angle_gamma   114.49153318
_symmetry_Int_Tables_number   1
_chemical_formula_structural   LiPd5O6
_chemical_formula_sum   'Li1 Pd5 O6'
_cell_volume   142.55587039
_cell_formula_units_Z   1
loop_
 _symmetry_equiv_pos_site_id
 _symmetry_equiv_pos_as_xyz
  1  'x, y, z'
loop_
 _atom_site_type_symbol
 _atom_site_label
 _atom_site_symmetry_multiplicity
 _atom_site_fract_x
 _atom_site_fract_y
 _atom_site_fract_z
 _atom_site_occupancy
  Li  Li0  1  0.00000000  0.00000000  0.50000000  1
  Pd  Pd1  1  0.50000000  0.50000000  0.00000000  1
  Pd  Pd2  1  0.66711700  0.33288300  0.50000000  1
  Pd  Pd3  1  0.33288300  0.66711700  0.50000000  1
  Pd  Pd4  1  0.82696000  0.17304000  0.00000000  1
  Pd  Pd5  1  0.17304000  0.82696000  0.00000000  1
  O  O6  1  0.77368800  0.77368800  0.19191300  1
  O  O7  1  0.22631200  0.22631200  0.80808700  1
  O  O8  1  0.47321300  0.14034500  0.27348400  1
  O  O9  1  0.52678700  0.85965500  0.72651600  1
  O  O10  1  0.85965500  0.52678700  0.72651600  1
  O  O11  1  0.14034500  0.47321300  0.27348400  1
