# generated using pymatgen
data_Li9Mn2Co5O16
_symmetry_space_group_name_H-M   'P 1'
_cell_length_a   2.90389700
_cell_length_b   9.82014052
_cell_length_c   10.13952905
_cell_angle_alpha   79.74260402
_cell_angle_beta   89.23296344
_cell_angle_gamma   88.92527724
_symmetry_Int_Tables_number   1
_chemical_formula_structural   Li9Mn2Co5O16
_chemical_formula_sum   'Li9 Mn2 Co5 O16'
_cell_volume   284.45957786
_cell_formula_units_Z   1
loop_
 _symmetry_equiv_pos_site_id
 _symmetry_equiv_pos_as_xyz
  1  'x, y, z'
loop_
 _atom_site_type_symbol
 _atom_site_label
 _atom_site_symmetry_multiplicity
 _atom_site_fract_x
 _atom_site_fract_y
 _atom_site_fract_z
 _atom_site_occupancy
  Li  Li0  1  0.00139100  0.25192500  0.87706800  1
  Li  Li1  1  0.50313000  0.75042700  0.87622400  1
  Li  Li2  1  0.49687000  0.24957300  0.12377600  1
  Li  Li3  1  0.99860900  0.74807500  0.12293200  1
  Li  Li4  1  0.00326400  0.24157700  0.38642200  1
  Li  Li5  1  0.50584600  0.75531400  0.38017400  1
  Li  Li6  1  0.49415400  0.24468600  0.61982600  1
  Li  Li7  1  0.99673600  0.75842300  0.61357800  1
  Li  Li8  1  0.50000000  0.00000000  0.50000000  1
  Mn  Mn9  1  0.00062000  0.00226200  0.74499900  1
  Mn  Mn10  1  0.99938000  0.99773800  0.25500100  1
  Co  Co11  1  0.50144600  0.50087100  0.75006200  1
  Co  Co12  1  0.50000000  0.00000000  0.00000000  1
  Co  Co13  1  0.00000000  0.50000000  0.00000000  1
  Co  Co14  1  0.49855400  0.49912900  0.24993800  1
  Co  Co15  1  0.00000000  0.50000000  0.50000000  1
  O  O16  1  0.49609900  0.10611600  0.81879600  1
  O  O17  1  0.01918100  0.61593400  0.81388500  1
  O  O18  1  0.99265100  0.10573100  0.06205300  1
  O  O19  1  0.50726900  0.61756700  0.06157500  1
  O  O20  1  0.49485500  0.11162500  0.30135000  1
  O  O21  1  0.01709000  0.61345300  0.31071100  1
  O  O22  1  0.99914000  0.11650500  0.58265100  1
  O  O23  1  0.51390300  0.61683400  0.56150300  1
  O  O24  1  0.49273100  0.38243300  0.93842500  1
  O  O25  1  0.00734900  0.89426900  0.93794700  1
  O  O26  1  0.98081900  0.38406600  0.18611500  1
  O  O27  1  0.50390100  0.89388400  0.18120400  1
  O  O28  1  0.48609700  0.38316600  0.43849700  1
  O  O29  1  0.00086000  0.88349500  0.41734900  1
  O  O30  1  0.98291000  0.38654700  0.68928900  1
  O  O31  1  0.50514500  0.88837500  0.69865000  1
