# generated using pymatgen
data_LiVN
_symmetry_space_group_name_H-M   'P 1'
_cell_length_a   6.90741722
_cell_length_b   3.26528284
_cell_length_c   4.91506155
_cell_angle_alpha   90.00000000
_cell_angle_beta   90.00000000
_cell_angle_gamma   90.00000000
_symmetry_Int_Tables_number   1
_chemical_formula_structural   LiVN
_chemical_formula_sum   'Li4 V4 N4'
_cell_volume   110.85759580
_cell_formula_units_Z   4
loop_
 _symmetry_equiv_pos_site_id
 _symmetry_equiv_pos_as_xyz
  1  'x, y, z'
loop_
 _atom_site_type_symbol
 _atom_site_label
 _atom_site_symmetry_multiplicity
 _atom_site_fract_x
 _atom_site_fract_y
 _atom_site_fract_z
 _atom_site_occupancy
  Li  Li0  1  0.58401545  0.25000000  0.93728917  1
  Li  Li1  1  0.08401545  0.25000000  0.56271083  1
  Li  Li2  1  0.41598455  0.75000000  0.06271083  1
  Li  Li3  1  0.91598455  0.75000000  0.43728917  1
  V  V4  1  0.63736352  0.25000000  0.45018730  1
  V  V5  1  0.13736352  0.25000000  0.04981270  1
  V  V6  1  0.36263648  0.75000000  0.54981270  1
  V  V7  1  0.86263648  0.75000000  0.95018730  1
  N  N8  1  0.87631465  0.25000000  0.21694425  1
  N  N9  1  0.37631465  0.25000000  0.28305575  1
  N  N10  1  0.12368535  0.75000000  0.78305575  1
  N  N11  1  0.62368535  0.75000000  0.71694425  1
