# generated using pymatgen
data_Li5Mn2Fe3O10
_symmetry_space_group_name_H-M   'P 1'
_cell_length_a   5.19066483
_cell_length_b   10.41650850
_cell_length_c   7.82675019
_cell_angle_alpha   72.10969288
_cell_angle_beta   77.56112937
_cell_angle_gamma   100.97741573
_symmetry_Int_Tables_number   1
_chemical_formula_structural   Li5Mn2Fe3O10
_chemical_formula_sum   'Li10 Mn4 Fe6 O20'
_cell_volume   377.97800919
_cell_formula_units_Z   2
loop_
 _symmetry_equiv_pos_site_id
 _symmetry_equiv_pos_as_xyz
  1  'x, y, z'
loop_
 _atom_site_type_symbol
 _atom_site_label
 _atom_site_symmetry_multiplicity
 _atom_site_fract_x
 _atom_site_fract_y
 _atom_site_fract_z
 _atom_site_occupancy
  Li  Li0  1  0.99423000  0.00062900  0.49863800  1
  Li  Li1  1  0.49426800  0.50060300  0.99867100  1
  Li  Li2  1  0.57988700  0.09039600  0.31747700  1
  Li  Li3  1  0.08003100  0.59041800  0.81751400  1
  Li  Li4  1  0.41428400  0.89941700  0.68591700  1
  Li  Li5  1  0.91434000  0.39941100  0.18599000  1
  Li  Li6  1  0.70739000  0.20341600  0.58103500  1
  Li  Li7  1  0.20725600  0.70343300  0.08108700  1
  Li  Li8  1  0.29333800  0.80825800  0.41249100  1
  Li  Li9  1  0.79335300  0.30819600  0.91259000  1
  Mn  Mn10  1  0.80189700  0.79635700  0.89627300  1
  Mn  Mn11  1  0.19583800  0.20310200  0.10655900  1
  Mn  Mn12  1  0.30182900  0.29637400  0.39628300  1
  Mn  Mn13  1  0.69579500  0.70315000  0.60655900  1
  Fe  Fe14  1  0.50060600  0.99949400  0.00299900  1
  Fe  Fe15  1  0.60667100  0.59854500  0.29201400  1
  Fe  Fe16  1  0.39680700  0.40205000  0.71563600  1
  Fe  Fe17  1  0.00048400  0.49950700  0.50307100  1
  Fe  Fe18  1  0.10680000  0.09855500  0.79192700  1
  Fe  Fe19  1  0.89681000  0.90206800  0.21552900  1
  O  O20  1  0.62646300  0.40162600  0.44176900  1
  O  O21  1  0.12639200  0.90158500  0.94182700  1
  O  O22  1  0.37939200  0.60006300  0.54960600  1
  O  O23  1  0.87938500  0.10004900  0.04954000  1
  O  O24  1  0.07867800  0.29353800  0.63722000  1
  O  O25  1  0.57861600  0.79349400  0.13721700  1
  O  O26  1  0.92884000  0.70252200  0.35717200  1
  O  O27  1  0.42887400  0.20251100  0.85715300  1
  O  O28  1  0.98318300  0.20788200  0.34523100  1
  O  O29  1  0.48321300  0.70793100  0.84512500  1
  O  O30  1  0.01309100  0.79378700  0.66548100  1
  O  O31  1  0.51298100  0.29371800  0.16550500  1
  O  O32  1  0.24608700  0.99259200  0.24026100  1
  O  O33  1  0.74612000  0.49259600  0.74034900  1
  O  O34  1  0.75639700  0.98678200  0.77155500  1
  O  O35  1  0.25625900  0.48677400  0.27161000  1
  O  O36  1  0.34384000  0.11751000  0.54401600  1
  O  O37  1  0.84376200  0.61749300  0.04408700  1
  O  O38  1  0.65327300  0.90210700  0.43846000  1
  O  O39  1  0.15324100  0.40205900  0.93855500  1
