# generated using pymatgen
data_Li9Mn7O16
_symmetry_space_group_name_H-M   'P 1'
_cell_length_a   5.09692200
_cell_length_b   6.06212496
_cell_length_c   10.12263971
_cell_angle_alpha   93.26122481
_cell_angle_beta   100.17766355
_cell_angle_gamma   103.77066239
_symmetry_Int_Tables_number   1
_chemical_formula_structural   Li9Mn7O16
_chemical_formula_sum   'Li9 Mn7 O16'
_cell_volume   297.39479205
_cell_formula_units_Z   1
loop_
 _symmetry_equiv_pos_site_id
 _symmetry_equiv_pos_as_xyz
  1  'x, y, z'
loop_
 _atom_site_type_symbol
 _atom_site_label
 _atom_site_symmetry_multiplicity
 _atom_site_fract_x
 _atom_site_fract_y
 _atom_site_fract_z
 _atom_site_occupancy
  Li  Li0  1  0.50643600  0.87714600  0.62625500  1
  Li  Li1  1  0.49725300  0.37490900  0.62422800  1
  Li  Li2  1  0.49356400  0.12285400  0.37374500  1
  Li  Li3  1  0.50274700  0.62509100  0.37577200  1
  Li  Li4  1  0.50192900  0.37360000  0.12204000  1
  Li  Li5  1  0.48798200  0.87555500  0.12045100  1
  Li  Li6  1  0.49807100  0.62640000  0.87796000  1
  Li  Li7  1  0.51201800  0.12444500  0.87954900  1
  Li  Li8  1  0.00000000  0.00000000  0.00000000  1
  Mn  Mn9  1  0.99674700  0.74900900  0.75400100  1
  Mn  Mn10  1  0.00000000  0.50000000  0.00000000  1
  Mn  Mn11  1  0.99575200  0.24142800  0.75427800  1
  Mn  Mn12  1  0.00000000  0.00000000  0.50000000  1
  Mn  Mn13  1  0.00000000  0.50000000  0.50000000  1
  Mn  Mn14  1  0.00325300  0.25099100  0.24599900  1
  Mn  Mn15  1  0.00424800  0.75857200  0.24572200  1
  O  O16  1  0.22005800  0.55702200  0.68438000  1
  O  O17  1  0.23368300  0.07277900  0.68288600  1
  O  O18  1  0.22999100  0.82180700  0.43078300  1
  O  O19  1  0.23238700  0.32455400  0.43115200  1
  O  O20  1  0.22839100  0.06066900  0.19397000  1
  O  O21  1  0.23458600  0.57639400  0.17759500  1
  O  O22  1  0.22631600  0.32096300  0.93108200  1
  O  O23  1  0.21415000  0.77630100  0.93552500  1
  O  O24  1  0.77000900  0.17819300  0.56921700  1
  O  O25  1  0.76761300  0.67544600  0.56884800  1
  O  O26  1  0.77994200  0.44297800  0.31562000  1
  O  O27  1  0.76631700  0.92722100  0.31711400  1
  O  O28  1  0.77368400  0.67903700  0.06891800  1
  O  O29  1  0.78585000  0.22369900  0.06447500  1
  O  O30  1  0.77160900  0.93933100  0.80603000  1
  O  O31  1  0.76541400  0.42360600  0.82240500  1
