# generated using pymatgen
data_Sr3Li4Nb6O20
_symmetry_space_group_name_H-M   'P 1'
_cell_length_a   13.61707307
_cell_length_b   13.61707307
_cell_length_c   5.65871500
_cell_angle_alpha   90.00000000
_cell_angle_beta   90.00000000
_cell_angle_gamma   156.01731543
_symmetry_Int_Tables_number   1
_chemical_formula_structural   Sr3Li4Nb6O20
_chemical_formula_sum   'Sr3 Li4 Nb6 O20'
_cell_volume   426.48498669
_cell_formula_units_Z   1
loop_
 _symmetry_equiv_pos_site_id
 _symmetry_equiv_pos_as_xyz
  1  'x, y, z'
loop_
 _atom_site_type_symbol
 _atom_site_label
 _atom_site_symmetry_multiplicity
 _atom_site_fract_x
 _atom_site_fract_y
 _atom_site_fract_z
 _atom_site_occupancy
  Sr  Sr0  1  0.91583300  0.08416700  0.50000000  1
  Sr  Sr1  1  0.07741600  0.92258400  0.50000000  1
  Sr  Sr2  1  0.57701500  0.42298500  0.00000000  1
  Li  Li3  1  0.50217600  0.99876600  0.25044400  1
  Li  Li4  1  0.00123400  0.49782400  0.74955600  1
  Li  Li5  1  0.00123400  0.49782400  0.25044400  1
  Li  Li6  1  0.50217600  0.99876600  0.74955600  1
  Nb  Nb7  1  0.84246200  0.15753800  0.00000000  1
  Nb  Nb8  1  0.34246200  0.65753800  0.50000000  1
  Nb  Nb9  1  0.65671100  0.34328900  0.50000000  1
  Nb  Nb10  1  0.15676900  0.84323100  0.00000000  1
  Nb  Nb11  1  0.49673800  0.50326200  0.50000000  1
  Nb  Nb12  1  0.99674200  0.00325800  0.00000000  1
  O  O13  1  0.92571800  0.07428200  0.00000000  1
  O  O14  1  0.42571700  0.57428300  0.50000000  1
  O  O15  1  0.57615300  0.42384700  0.50000000  1
  O  O16  1  0.07617100  0.92382900  0.00000000  1
  O  O17  1  0.09246100  0.39327800  0.25713200  1
  O  O18  1  0.60672200  0.90753900  0.74286800  1
  O  O19  1  0.60672200  0.90753900  0.25713200  1
  O  O20  1  0.09246100  0.39327800  0.74286800  1
  O  O21  1  0.39916900  0.10127700  0.24975700  1
  O  O22  1  0.89872300  0.60083100  0.75024300  1
  O  O23  1  0.89872300  0.60083100  0.24975700  1
  O  O24  1  0.39916900  0.10127700  0.75024300  1
  O  O25  1  0.24734500  0.24008300  0.25629000  1
  O  O26  1  0.75991700  0.75265500  0.74371000  1
  O  O27  1  0.75991700  0.75265500  0.25629000  1
  O  O28  1  0.24734500  0.24008300  0.74371000  1
  O  O29  1  0.77136300  0.22863700  0.00000000  1
  O  O30  1  0.27136100  0.72863900  0.50000000  1
  O  O31  1  0.72796800  0.27203200  0.50000000  1
  O  O32  1  0.22804700  0.77195300  0.00000000  1
