# generated using pymatgen
data_Li3V2P4(HO8)2
_symmetry_space_group_name_H-M   'P 1'
_cell_length_a   9.45768183
_cell_length_b   9.39833606
_cell_length_c   7.90360865
_cell_angle_alpha   78.64358916
_cell_angle_beta   78.66118570
_cell_angle_gamma   117.71818629
_symmetry_Int_Tables_number   1
_chemical_formula_structural   Li3V2P4(HO8)2
_chemical_formula_sum   'Li6 V4 P8 H4 O32'
_cell_volume   575.13344650
_cell_formula_units_Z   2
loop_
 _symmetry_equiv_pos_site_id
 _symmetry_equiv_pos_as_xyz
  1  'x, y, z'
loop_
 _atom_site_type_symbol
 _atom_site_label
 _atom_site_symmetry_multiplicity
 _atom_site_fract_x
 _atom_site_fract_y
 _atom_site_fract_z
 _atom_site_occupancy
  Li  Li0  1  0.45908119  0.09490086  0.34114484  1
  Li  Li1  1  0.04547657  0.41167618  0.65495413  1
  Li  Li2  1  0.33684164  0.20713971  0.84856533  1
  Li  Li3  1  0.65700504  0.78827943  0.15516136  1
  Li  Li4  1  0.95887940  0.59639752  0.34368742  1
  Li  Li5  1  0.55015408  0.91364361  0.65654634  1
  V  V6  1  0.24736226  0.25019544  0.48915715  1
  V  V7  1  0.50008723  0.99948641  0.00185852  1
  V  V8  1  0.99631259  0.49573583  0.00444639  1
  V  V9  1  0.75178205  0.75064572  0.50258931  1
  P  P10  1  0.25752486  0.60475997  0.26840141  1
  P  P11  1  0.75584846  0.10753071  0.26784295  1
  P  P12  1  0.64253597  0.49291565  0.22725103  1
  P  P13  1  0.14539132  0.99345810  0.23059389  1
  P  P14  1  0.35363475  0.50905329  0.76466772  1
  P  P15  1  0.85781397  0.00922971  0.76134625  1
  P  P16  1  0.73887299  0.39521365  0.73932806  1
  P  P17  1  0.23804140  0.89139654  0.73897322  1
  H  H18  1  0.75745847  0.26689427  0.51493146  1
  H  H19  1  0.25378559  0.76592606  0.51169398  1
  H  H20  1  0.48591440  0.49391280  0.98792491  1
  H  H21  1  0.98299071  0.99503150  0.98662094  1
  O  O22  1  0.12675759  0.06490804  0.05224756  1
  O  O23  1  0.16392016  0.11355080  0.35457748  1
  O  O24  1  0.01760240  0.18979205  0.64867861  1
  O  O25  1  0.23168070  0.05483224  0.68863633  1
  O  O26  1  0.63041328  0.08958723  0.16263500  1
  O  O27  1  0.13279918  0.58684714  0.15939738  1
  O  O28  1  0.26954790  0.44406952  0.31882318  1
  O  O29  1  0.48599033  0.31211907  0.35477582  1
  O  O30  1  0.68715422  0.12840034  0.44833005  1
  O  O31  1  0.18201906  0.62576229  0.44650584  1
  O  O32  1  0.33149815  0.38225399  0.65362573  1
  O  O33  1  0.18731370  0.51076407  0.81438418  1
  O  O34  1  0.69521064  0.01469530  0.80886820  1
  O  O35  1  0.61540772  0.56061381  0.05364314  1
  O  O36  1  0.92940217  0.27327901  0.14325680  1
  O  O37  1  0.43586811  0.76067240  0.14996993  1
  O  O38  1  0.56209740  0.23644448  0.84967902  1
  O  O39  1  0.06740153  0.72698457  0.85639978  1
  O  O40  1  0.37768727  0.43121267  0.94048713  1
  O  O41  1  0.80687601  0.48341673  0.18680812  1
  O  O42  1  0.31156309  0.99360088  0.19267370  1
  O  O43  1  0.66515895  0.61692724  0.33774824  1
  O  O44  1  0.81931405  0.37498444  0.55561237  1
  O  O45  1  0.31297657  0.87523475  0.55155014  1
  O  O46  1  0.50635538  0.68791194  0.64944121  1
  O  O47  1  0.73182053  0.55460513  0.68370962  1
  O  O48  1  0.86592653  0.40942408  0.84237548  1
  O  O49  1  0.36898702  0.91439974  0.83584745  1
  O  O50  1  0.76835117  0.94784862  0.30627212  1
  O  O51  1  0.99153037  0.81608609  0.34984546  1
  O  O52  1  0.84482449  0.89177821  0.64975164  1
  O  O53  1  0.87333935  0.94081217  0.95022265  1
