# generated using pymatgen
data_Li4V9O18
_symmetry_space_group_name_H-M   'P 1'
_cell_length_a   2.99780600
_cell_length_b   8.88684300
_cell_length_c   25.29255900
_cell_angle_alpha   90.00000000
_cell_angle_beta   90.00000000
_cell_angle_gamma   90.00000000
_symmetry_Int_Tables_number   1
_chemical_formula_structural   Li4V9O18
_chemical_formula_sum   'Li8 V18 O36'
_cell_volume   673.81985513
_cell_formula_units_Z   2
loop_
 _symmetry_equiv_pos_site_id
 _symmetry_equiv_pos_as_xyz
  1  'x, y, z'
loop_
 _atom_site_type_symbol
 _atom_site_label
 _atom_site_symmetry_multiplicity
 _atom_site_fract_x
 _atom_site_fract_y
 _atom_site_fract_z
 _atom_site_occupancy
  Li  Li0  1  0.00000000  0.18300700  0.98946800  1
  Li  Li1  1  0.00000000  0.18285300  0.20122800  1
  Li  Li2  1  0.00000000  0.31714700  0.70122800  1
  Li  Li3  1  0.00000000  0.31699300  0.48946800  1
  Li  Li4  1  0.00000000  0.68300700  0.51053200  1
  Li  Li5  1  0.00000000  0.68285300  0.29877200  1
  Li  Li6  1  0.00000000  0.81714700  0.79877200  1
  Li  Li7  1  0.00000000  0.81699300  0.01053200  1
  V  V8  1  0.00000000  0.00000000  0.50000000  1
  V  V9  1  0.00000000  0.98878300  0.10278300  1
  V  V10  1  0.00000000  0.02729400  0.31079000  1
  V  V11  1  0.50000000  0.15080800  0.58626200  1
  V  V12  1  0.50000000  0.13693800  0.80282400  1
  V  V13  1  0.50000000  0.36306200  0.30282400  1
  V  V14  1  0.50000000  0.34919200  0.08626200  1
  V  V15  1  0.00000000  0.47270600  0.81079000  1
  V  V16  1  0.00000000  0.51121700  0.60278300  1
  V  V17  1  0.00000000  0.50000000  0.00000000  1
  V  V18  1  0.00000000  0.48878300  0.39721700  1
  V  V19  1  0.00000000  0.52729400  0.18921000  1
  V  V20  1  0.50000000  0.65080800  0.91373800  1
  V  V21  1  0.50000000  0.63693800  0.69717600  1
  V  V22  1  0.50000000  0.86306200  0.19717600  1
  V  V23  1  0.50000000  0.84919200  0.41373800  1
  V  V24  1  0.00000000  0.97270600  0.68921000  1
  V  V25  1  0.00000000  0.01121700  0.89721700  1
  O  O26  1  0.00000000  0.99869800  0.42508300  1
  O  O27  1  0.00000000  0.00130200  0.57491700  1
  O  O28  1  0.50000000  0.06839500  0.94124900  1
  O  O29  1  0.50000000  0.04805800  0.15959400  1
  O  O30  1  0.50000000  0.10230400  0.66342200  1
  O  O31  1  0.00000000  0.08126800  0.75767000  1
  O  O32  1  0.50000000  0.15092600  0.50517400  1
  O  O33  1  0.50000000  0.16003200  0.28033900  1
  O  O34  1  0.00000000  0.19060100  0.85336100  1
  O  O35  1  0.00000000  0.19315900  0.08463300  1
  O  O36  1  0.00000000  0.30684100  0.58463300  1
  O  O37  1  0.00000000  0.30939900  0.35336100  1
  O  O38  1  0.50000000  0.33996800  0.78033900  1
  O  O39  1  0.50000000  0.34907400  0.00517400  1
  O  O40  1  0.00000000  0.41873200  0.25767000  1
  O  O41  1  0.50000000  0.39769600  0.16342200  1
  O  O42  1  0.50000000  0.45194200  0.65959400  1
  O  O43  1  0.50000000  0.43160500  0.44124900  1
  O  O44  1  0.00000000  0.49869800  0.07491700  1
  O  O45  1  0.00000000  0.50130200  0.92508300  1
  O  O46  1  0.50000000  0.56839500  0.55875100  1
  O  O47  1  0.50000000  0.54805800  0.34040600  1
  O  O48  1  0.50000000  0.60230400  0.83657800  1
  O  O49  1  0.00000000  0.58126800  0.74233000  1
  O  O50  1  0.50000000  0.65092600  0.99482600  1
  O  O51  1  0.50000000  0.66003200  0.21966100  1
  O  O52  1  0.00000000  0.69060100  0.64663900  1
  O  O53  1  0.00000000  0.69315900  0.41536700  1
  O  O54  1  0.00000000  0.80684100  0.91536700  1
  O  O55  1  0.00000000  0.80939900  0.14663900  1
  O  O56  1  0.50000000  0.83996800  0.71966100  1
  O  O57  1  0.50000000  0.84907400  0.49482600  1
  O  O58  1  0.00000000  0.91873200  0.24233000  1
  O  O59  1  0.50000000  0.89769600  0.33657800  1
  O  O60  1  0.50000000  0.95194200  0.84040600  1
  O  O61  1  0.50000000  0.93160500  0.05875100  1
