# generated using pymatgen
data_LiFe5(OF2)4
_symmetry_space_group_name_H-M   'P 1'
_cell_length_a   4.70806380
_cell_length_b   4.70806380
_cell_length_c   9.18205800
_cell_angle_alpha   90.00000000
_cell_angle_beta   90.00000000
_cell_angle_gamma   93.13696681
_symmetry_Int_Tables_number   1
_chemical_formula_structural   LiFe5(OF2)4
_chemical_formula_sum   'Li1 Fe5 O4 F8'
_cell_volume   203.22328320
_cell_formula_units_Z   1
loop_
 _symmetry_equiv_pos_site_id
 _symmetry_equiv_pos_as_xyz
  1  'x, y, z'
loop_
 _atom_site_type_symbol
 _atom_site_label
 _atom_site_symmetry_multiplicity
 _atom_site_fract_x
 _atom_site_fract_y
 _atom_site_fract_z
 _atom_site_occupancy
  Li  Li0  1  0.00000000  0.00000000  0.00000000  1
  Fe  Fe1  1  0.00000000  0.00000000  0.32289600  1
  Fe  Fe2  1  0.00000000  0.00000000  0.67710400  1
  Fe  Fe3  1  0.50000000  0.50000000  0.50000000  1
  Fe  Fe4  1  0.50000000  0.50000000  0.82242000  1
  Fe  Fe5  1  0.50000000  0.50000000  0.17758000  1
  O  O6  1  0.29852400  0.29852400  0.33303300  1
  O  O7  1  0.29852400  0.29852400  0.66696700  1
  O  O8  1  0.70147600  0.70147600  0.33303300  1
  O  O9  1  0.70147600  0.70147600  0.66696700  1
  F  F10  1  0.19136500  0.80863500  0.50000000  1
  F  F11  1  0.19979500  0.80020500  0.83687500  1
  F  F12  1  0.19979500  0.80020500  0.16312500  1
  F  F13  1  0.30829000  0.30829000  0.00000000  1
  F  F14  1  0.69171000  0.69171000  0.00000000  1
  F  F15  1  0.80020500  0.19979500  0.16312500  1
  F  F16  1  0.80020500  0.19979500  0.83687500  1
  F  F17  1  0.80863500  0.19136500  0.50000000  1
