# generated using pymatgen
data_Na3Li3Mn2P2(CO7)2
_symmetry_space_group_name_H-M   'P 1'
_cell_length_a   6.73975600
_cell_length_b   8.80845894
_cell_length_c   10.20378893
_cell_angle_alpha   91.17529440
_cell_angle_beta   90.21546495
_cell_angle_gamma   90.71033697
_symmetry_Int_Tables_number   1
_chemical_formula_structural   Na3Li3Mn2P2(CO7)2
_chemical_formula_sum   'Na6 Li6 Mn4 P4 C4 O28'
_cell_volume   605.58808132
_cell_formula_units_Z   2
loop_
 _symmetry_equiv_pos_site_id
 _symmetry_equiv_pos_as_xyz
  1  'x, y, z'
loop_
 _atom_site_type_symbol
 _atom_site_label
 _atom_site_symmetry_multiplicity
 _atom_site_fract_x
 _atom_site_fract_y
 _atom_site_fract_z
 _atom_site_occupancy
  Na  Na0  1  0.24523500  0.91700200  0.87839100  1
  Na  Na1  1  0.24511700  0.91524400  0.37870000  1
  Na  Na2  1  0.99780900  0.74581500  0.12319800  1
  Na  Na3  1  0.50167900  0.74527300  0.12188900  1
  Na  Na4  1  0.50179900  0.25125200  0.87549200  1
  Na  Na5  1  0.50197700  0.25334100  0.37539100  1
  Li  Li6  1  0.03119000  0.72565600  0.61354700  1
  Li  Li7  1  0.46690900  0.72683700  0.61340500  1
  Li  Li8  1  0.97254600  0.27183700  0.88917600  1
  Li  Li9  1  0.97686100  0.27274500  0.38656100  1
  Li  Li10  1  0.77066400  0.08536900  0.62896800  1
  Li  Li11  1  0.76790100  0.09604300  0.12598500  1
  Mn  Mn12  1  0.74891100  0.63979600  0.88047400  1
  Mn  Mn13  1  0.74950600  0.64026000  0.39495900  1
  Mn  Mn14  1  0.24266600  0.35077200  0.61516600  1
  Mn  Mn15  1  0.24346900  0.35920700  0.10984100  1
  P  P16  1  0.24324000  0.58745000  0.84821800  1
  P  P17  1  0.24399300  0.58333300  0.36092500  1
  P  P18  1  0.75265400  0.40803700  0.64800200  1
  P  P19  1  0.75191900  0.40643100  0.14515700  1
  C  C20  1  0.76046000  0.95645600  0.86451100  1
  C  C21  1  0.76086900  0.95552000  0.36599700  1
  C  C22  1  0.24970800  0.04656100  0.63132600  1
  C  C23  1  0.24752600  0.06085100  0.13409500  1
  O  O24  1  0.25103400  0.89843000  0.63810200  1
  O  O25  1  0.25343000  0.91462200  0.14537000  1
  O  O26  1  0.75491800  0.92101200  0.98809900  1
  O  O27  1  0.75464600  0.92057100  0.48846100  1
  O  O28  1  0.74701300  0.85154400  0.77311400  1
  O  O29  1  0.74961500  0.84702700  0.27575000  1
  O  O30  1  0.06453700  0.68331700  0.89462800  1
  O  O31  1  0.43317400  0.67299100  0.89597600  1
  O  O32  1  0.06594700  0.68076500  0.40932300  1
  O  O33  1  0.43307300  0.67015500  0.41221900  1
  O  O34  1  0.24410900  0.57988500  0.69379900  1
  O  O35  1  0.75340800  0.57549500  0.59892700  1
  O  O36  1  0.24639800  0.57576200  0.20791900  1
  O  O37  1  0.74820300  0.56674400  0.08529300  1
  O  O38  1  0.23216000  0.42214900  0.89944900  1
  O  O39  1  0.77480000  0.41720300  0.80048000  1
  O  O40  1  0.23174600  0.41879400  0.41134200  1
  O  O41  1  0.77491100  0.42464400  0.29765100  1
  O  O42  1  0.55993100  0.31923300  0.61096000  1
  O  O43  1  0.92410800  0.31165000  0.58929300  1
  O  O44  1  0.56151700  0.31183800  0.11288200  1
  O  O45  1  0.92489000  0.30860400  0.08995600  1
  O  O46  1  0.24517500  0.13098000  0.73736200  1
  O  O47  1  0.23893200  0.14876200  0.23788600  1
  O  O48  1  0.25160000  0.11262700  0.51896700  1
  O  O49  1  0.24947900  0.12123400  0.01894800  1
  O  O50  1  0.77894100  0.09755300  0.82988800  1
  O  O51  1  0.77769700  0.09532300  0.32858600  1
