# generated using pymatgen
data_Li6MnV3(PO4)6
_symmetry_space_group_name_H-M   'P 1'
_cell_length_a   8.49647300
_cell_length_b   8.63314101
_cell_length_c   14.98279131
_cell_angle_alpha   92.30470291
_cell_angle_beta   103.94145626
_cell_angle_gamma   118.21813977
_symmetry_Int_Tables_number   1
_chemical_formula_structural   Li6MnV3(PO4)6
_chemical_formula_sum   'Li12 Mn2 V6 P12 O48'
_cell_volume   924.47624305
_cell_formula_units_Z   2
loop_
 _symmetry_equiv_pos_site_id
 _symmetry_equiv_pos_as_xyz
  1  'x, y, z'
loop_
 _atom_site_type_symbol
 _atom_site_label
 _atom_site_symmetry_multiplicity
 _atom_site_fract_x
 _atom_site_fract_y
 _atom_site_fract_z
 _atom_site_occupancy
  Li  Li0  1  0.50021700  0.00072500  0.00057100  1
  Li  Li1  1  0.74523200  0.40959400  0.06396400  1
  Li  Li2  1  0.74334900  0.90585700  0.56417400  1
  Li  Li3  1  0.12724000  0.52797500  0.37468500  1
  Li  Li4  1  0.12801800  0.02848000  0.87189000  1
  Li  Li5  1  0.50161700  0.50285700  0.50177300  1
  Li  Li6  1  0.99959300  0.75036400  0.24978200  1
  Li  Li7  1  0.99544600  0.24953300  0.74956600  1
  Li  Li8  1  0.87267400  0.97259700  0.12748400  1
  Li  Li9  1  0.87049500  0.47044900  0.62788400  1
  Li  Li10  1  0.25636000  0.09173300  0.43651700  1
  Li  Li11  1  0.24995600  0.58977100  0.93591200  1
  Mn  Mn12  1  0.36070600  0.71898100  0.57162200  1
  Mn  Mn13  1  0.85761600  0.46812600  0.81905900  1
  V  V14  1  0.36478400  0.22021900  0.07219300  1
  V  V15  1  0.14483800  0.53762600  0.18262100  1
  V  V16  1  0.85501300  0.96501500  0.31799200  1
  V  V17  1  0.63479100  0.28321800  0.42750400  1
  V  V18  1  0.14565800  0.03740200  0.68161300  1
  V  V19  1  0.63676300  0.78238600  0.92726100  1
  P  P20  1  0.74888600  0.26105300  0.22421200  1
  P  P21  1  0.05284700  0.77747500  0.02690300  1
  P  P22  1  0.75085700  0.75742800  0.72428700  1
  P  P23  1  0.44762100  0.83847100  0.37560200  1
  P  P24  1  0.55174900  0.66286400  0.12529000  1
  P  P25  1  0.94636500  0.72407500  0.47388500  1
  P  P26  1  0.05000000  0.27763500  0.52502900  1
  P  P27  1  0.45310100  0.33966800  0.87422800  1
  P  P28  1  0.55117200  0.15688300  0.62485900  1
  P  P29  1  0.25037600  0.23982300  0.27537500  1
  P  P30  1  0.94966000  0.22748200  0.97468200  1
  P  P31  1  0.24965200  0.73816800  0.77466400  1
  O  O32  1  0.32057800  0.22265700  0.19330000  1
  O  O33  1  0.60325300  0.20283200  0.12650300  1
  O  O34  1  0.75853000  0.55179000  0.46877600  1
  O  O35  1  0.38680300  0.63273300  0.16000100  1
  O  O36  1  0.53963200  0.48466200  0.09276500  1
  O  O37  1  0.46110700  0.01724000  0.40741200  1
  O  O38  1  0.91056400  0.45392200  0.22685000  1
  O  O39  1  0.61256600  0.86607200  0.34185900  1
  O  O40  1  0.23782200  0.95336500  0.03349000  1
  O  O41  1  0.91461200  0.95166600  0.72907200  1
  O  O42  1  0.97561900  0.35727600  0.05810500  1
  O  O43  1  0.54756800  0.77278800  0.04445200  1
  O  O44  1  0.18487900  0.37905800  0.26887500  1
  O  O45  1  0.97781000  0.85695800  0.55771800  1
  O  O46  1  0.18617700  0.87822900  0.76807100  1
  O  O47  1  0.10663800  0.68383500  0.48351200  1
  O  O48  1  0.74679000  0.77545700  0.19862500  1
  O  O49  1  0.39591700  0.29783100  0.37325300  1
  O  O50  1  0.11534900  0.19185700  0.98734500  1
  O  O51  1  0.31426100  0.71318800  0.69138600  1
  O  O52  1  0.74838500  0.26703800  0.69433500  1
  O  O53  1  0.93239000  0.80049700  0.38132500  1
  O  O54  1  0.94092900  0.30542700  0.88215600  1
  O  O55  1  0.06383700  0.70460800  0.12081400  1
  O  O56  1  0.06454800  0.20301200  0.61802900  1
  O  O57  1  0.25260800  0.72512000  0.30278100  1
  O  O58  1  0.67906900  0.27848600  0.30662900  1
  O  O59  1  0.88506700  0.81053400  0.01147800  1
  O  O60  1  0.61073100  0.69911800  0.62594300  1
  O  O61  1  0.25760600  0.22691900  0.80116000  1
  O  O62  1  0.88346000  0.31131800  0.51179100  1
  O  O63  1  0.81404500  0.12143400  0.23084400  1
  O  O64  1  0.45143900  0.72839800  0.45725900  1
  O  O65  1  0.02480500  0.14672700  0.44208200  1
  O  O66  1  0.81544600  0.61618300  0.73163800  1
  O  O67  1  0.45630100  0.23008000  0.95546600  1
  O  O68  1  0.03313600  0.64705200  0.94666200  1
  O  O69  1  0.08866200  0.04669700  0.27286800  1
  O  O70  1  0.76360900  0.05266700  0.96719900  1
  O  O71  1  0.38836300  0.12829000  0.66096900  1
  O  O72  1  0.08588000  0.54530400  0.77421900  1
  O  O73  1  0.53556900  0.97538000  0.59289400  1
  O  O74  1  0.46590600  0.51779300  0.90716700  1
  O  O75  1  0.61778800  0.36827800  0.83948000  1
  O  O76  1  0.23530600  0.45236900  0.52959400  1
  O  O77  1  0.54066700  0.26409200  0.54310900  1
  O  O78  1  0.39633700  0.79538400  0.87194100  1
  O  O79  1  0.67898200  0.77444400  0.80571700  1
