# generated using pymatgen
data_CsNa3Li12(GeO4)4
_symmetry_space_group_name_H-M   'P 1'
_cell_length_a   8.65819094
_cell_length_b   8.65819094
_cell_length_c   8.65819094
_cell_angle_alpha   98.25477739
_cell_angle_beta   98.25477739
_cell_angle_gamma   135.46725197
_symmetry_Int_Tables_number   1
_chemical_formula_structural   CsNa3Li12(GeO4)4
_chemical_formula_sum   'Cs1 Na3 Li12 Ge4 O16'
_cell_volume   421.25043580
_cell_formula_units_Z   1
loop_
 _symmetry_equiv_pos_site_id
 _symmetry_equiv_pos_as_xyz
  1  'x, y, z'
loop_
 _atom_site_type_symbol
 _atom_site_label
 _atom_site_symmetry_multiplicity
 _atom_site_fract_x
 _atom_site_fract_y
 _atom_site_fract_z
 _atom_site_occupancy
  Cs  Cs0  1  0.00000000  0.00000000  0.00000000  1
  Na  Na1  1  0.25000000  0.75000000  0.50000000  1
  Na  Na2  1  0.75000000  0.25000000  0.50000000  1
  Na  Na3  1  0.50000000  0.50000000  0.00000000  1
  Li  Li4  1  0.28446600  0.07748800  0.36195400  1
  Li  Li5  1  0.92251200  0.28446600  0.20697800  1
  Li  Li6  1  0.07748800  0.71553400  0.79302200  1
  Li  Li7  1  0.71553400  0.92251200  0.63804600  1
  Li  Li8  1  0.97783900  0.64248600  0.13138600  1
  Li  Li9  1  0.84645400  0.97783900  0.33535300  1
  Li  Li10  1  0.64248600  0.51110100  0.66464700  1
  Li  Li11  1  0.51110100  0.84645400  0.86861400  1
  Li  Li12  1  0.35751400  0.48889900  0.33535300  1
  Li  Li13  1  0.48889900  0.15354600  0.13138600  1
  Li  Li14  1  0.02216100  0.35751400  0.86861400  1
  Li  Li15  1  0.15354600  0.02216100  0.66464700  1
  Ge  Ge16  1  0.78113200  0.58044000  0.36157200  1
  Ge  Ge17  1  0.41956000  0.78113200  0.20069300  1
  Ge  Ge18  1  0.58044000  0.21886800  0.79930700  1
  Ge  Ge19  1  0.21886800  0.41956000  0.63842800  1
  O  O20  1  0.56766100  0.83852600  0.40618700  1
  O  O21  1  0.90183800  0.67991500  0.58175300  1
  O  O22  1  0.67991500  0.09816200  0.77807700  1
  O  O23  1  0.09816200  0.32008500  0.41824700  1
  O  O24  1  0.18700500  0.46850700  0.10583600  1
  O  O25  1  0.08116900  0.18700500  0.71849800  1
  O  O26  1  0.46850700  0.36267100  0.28150200  1
  O  O27  1  0.36267100  0.08116900  0.89416400  1
  O  O28  1  0.81299500  0.53149300  0.89416400  1
  O  O29  1  0.91883100  0.81299500  0.28150200  1
  O  O30  1  0.53149300  0.63732900  0.71849800  1
  O  O31  1  0.63732900  0.91883100  0.10583600  1
  O  O32  1  0.83852600  0.43233900  0.27086500  1
  O  O33  1  0.43233900  0.16147400  0.59381300  1
  O  O34  1  0.32008500  0.90183800  0.22192300  1
  O  O35  1  0.16147400  0.56766100  0.72913500  1
