# generated using pymatgen
data_Li4ZnCd3
_symmetry_space_group_name_H-M   'P 1'
_cell_length_a   8.09883809
_cell_length_b   8.09883809
_cell_length_c   8.09883802
_cell_angle_alpha   33.59630732
_cell_angle_beta   33.59630732
_cell_angle_gamma   33.59630909
_symmetry_Int_Tables_number   1
_chemical_formula_structural   Li4ZnCd3
_chemical_formula_sum   'Li4 Zn1 Cd3'
_cell_volume   144.88377098
_cell_formula_units_Z   1
loop_
 _symmetry_equiv_pos_site_id
 _symmetry_equiv_pos_as_xyz
  1  'x, y, z'
loop_
 _atom_site_type_symbol
 _atom_site_label
 _atom_site_symmetry_multiplicity
 _atom_site_fract_x
 _atom_site_fract_y
 _atom_site_fract_z
 _atom_site_occupancy
  Li  Li0  1  0.12503900  0.12503900  0.12503900  1
  Li  Li1  1  0.62468000  0.62468000  0.62468000  1
  Li  Li2  1  0.00213900  0.00213900  0.00213900  1
  Li  Li3  1  0.49761800  0.49761800  0.49761800  1
  Zn  Zn4  1  0.37561100  0.37561100  0.37561100  1
  Cd  Cd5  1  0.87430500  0.87430500  0.87430500  1
  Cd  Cd6  1  0.74629100  0.74629100  0.74629100  1
  Cd  Cd7  1  0.25431700  0.25431700  0.25431700  1
