# generated using pymatgen
data_LiCoPO4
_symmetry_space_group_name_H-M   'P 1'
_cell_length_a   5.48488345
_cell_length_b   10.82128400
_cell_length_c   6.12791300
_cell_angle_alpha   89.99891660
_cell_angle_beta   89.99841029
_cell_angle_gamma   74.22311518
_symmetry_Int_Tables_number   1
_chemical_formula_structural   LiCoPO4
_chemical_formula_sum   'Li4 Co4 P4 O16'
_cell_volume   350.01108982
_cell_formula_units_Z   4
loop_
 _symmetry_equiv_pos_site_id
 _symmetry_equiv_pos_as_xyz
  1  'x, y, z'
loop_
 _atom_site_type_symbol
 _atom_site_label
 _atom_site_symmetry_multiplicity
 _atom_site_fract_x
 _atom_site_fract_y
 _atom_site_fract_z
 _atom_site_occupancy
  Li  Li0  1  0.27323600  0.30069500  0.52595800  1
  Li  Li1  1  0.22675600  0.19928700  0.02594500  1
  Li  Li2  1  0.77323400  0.80070100  0.97405100  1
  Li  Li3  1  0.72680000  0.69930500  0.47402900  1
  Co  Co4  1  0.12978700  0.89933900  0.66810200  1
  Co  Co5  1  0.37022400  0.60066500  0.16806700  1
  Co  Co6  1  0.62980700  0.39933300  0.83191200  1
  Co  Co7  1  0.87020600  0.10065900  0.33191100  1
  P  P8  1  0.23126500  0.64035800  0.65673800  1
  P  P9  1  0.26871300  0.85965000  0.15676300  1
  P  P10  1  0.73125500  0.14035100  0.84325200  1
  P  P11  1  0.76875400  0.35963800  0.34325200  1
  O  O12  1  0.96621900  0.74115900  0.69050400  1
  O  O13  1  0.07811400  0.77740800  0.14328000  1
  O  O14  1  0.22398800  0.55923500  0.45072400  1
  O  O15  1  0.30119500  0.54661300  0.85745500  1
  O  O16  1  0.19881800  0.95338200  0.35750000  1
  O  O17  1  0.27593700  0.94081200  0.95072900  1
  O  O18  1  0.46617300  0.24116500  0.80951400  1
  O  O19  1  0.57814800  0.27740900  0.35672200  1
  O  O20  1  0.42186400  0.72258900  0.64326800  1
  O  O21  1  0.53379700  0.75883500  0.19046400  1
  O  O22  1  0.72400200  0.05920100  0.04929300  1
  O  O23  1  0.80119100  0.04661400  0.64252000  1
  O  O24  1  0.69884400  0.45338900  0.14251700  1
  O  O25  1  0.77600300  0.44078300  0.54927100  1
  O  O26  1  0.92185300  0.22260000  0.85674200  1
  O  O27  1  0.03381800  0.25882400  0.30951700  1
