# generated using pymatgen
data_LiMn4O8
_symmetry_space_group_name_H-M   'P 1'
_cell_length_a   8.34668400
_cell_length_b   8.34668400
_cell_length_c   8.34668400
_cell_angle_alpha   90.00000000
_cell_angle_beta   90.00000000
_cell_angle_gamma   90.00000000
_symmetry_Int_Tables_number   1
_chemical_formula_structural   LiMn4O8
_chemical_formula_sum   'Li4 Mn16 O32'
_cell_volume   581.48955098
_cell_formula_units_Z   4
loop_
 _symmetry_equiv_pos_site_id
 _symmetry_equiv_pos_as_xyz
  1  'x, y, z'
loop_
 _atom_site_type_symbol
 _atom_site_label
 _atom_site_symmetry_multiplicity
 _atom_site_fract_x
 _atom_site_fract_y
 _atom_site_fract_z
 _atom_site_occupancy
  Li  Li0  1  0.49514900  0.99514900  0.50485100  1
  Li  Li1  1  0.99514900  0.50485100  0.49514900  1
  Li  Li2  1  0.50485100  0.49514900  0.99514900  1
  Li  Li3  1  0.00485100  0.00485100  0.00485100  1
  Mn  Mn4  1  0.87666700  0.37666700  0.12333300  1
  Mn  Mn5  1  0.37666700  0.12333300  0.87666700  1
  Mn  Mn6  1  0.12333300  0.87666700  0.37666700  1
  Mn  Mn7  1  0.62333300  0.62333300  0.62333300  1
  Mn  Mn8  1  0.62825400  0.87365800  0.88109200  1
  Mn  Mn9  1  0.11890800  0.12825400  0.62634200  1
  Mn  Mn10  1  0.37365800  0.61890800  0.37174600  1
  Mn  Mn11  1  0.12825400  0.62634200  0.11890800  1
  Mn  Mn12  1  0.61890800  0.37174600  0.37365800  1
  Mn  Mn13  1  0.87365800  0.88109200  0.62825400  1
  Mn  Mn14  1  0.37174600  0.37365800  0.61890800  1
  Mn  Mn15  1  0.88109200  0.62825400  0.87365800  1
  Mn  Mn16  1  0.62634200  0.11890800  0.12825400  1
  Mn  Mn17  1  0.87174600  0.12634200  0.38109200  1
  Mn  Mn18  1  0.38109200  0.87174600  0.12634200  1
  Mn  Mn19  1  0.12634200  0.38109200  0.87174600  1
  O  O20  1  0.11421200  0.61421200  0.88578800  1
  O  O21  1  0.61421200  0.88578800  0.11421200  1
  O  O22  1  0.88578800  0.11421200  0.61421200  1
  O  O23  1  0.38578800  0.38578800  0.38578800  1
  O  O24  1  0.36667700  0.85389800  0.36035900  1
  O  O25  1  0.63964100  0.86667700  0.64610200  1
  O  O26  1  0.35389800  0.13964100  0.63332300  1
  O  O27  1  0.86667700  0.64610200  0.63964100  1
  O  O28  1  0.13964100  0.63332300  0.35389800  1
  O  O29  1  0.85389800  0.36035900  0.36667700  1
  O  O30  1  0.63332300  0.35389800  0.13964100  1
  O  O31  1  0.36035900  0.36667700  0.85389800  1
  O  O32  1  0.64610200  0.63964100  0.86667700  1
  O  O33  1  0.13332300  0.14610200  0.86035900  1
  O  O34  1  0.86035900  0.13332300  0.14610200  1
  O  O35  1  0.14610200  0.86035900  0.13332300  1
  O  O36  1  0.63605700  0.13605700  0.36394300  1
  O  O37  1  0.13605700  0.36394300  0.63605700  1
  O  O38  1  0.36394300  0.63605700  0.13605700  1
  O  O39  1  0.86394300  0.86394300  0.86394300  1
  O  O40  1  0.10374000  0.89757900  0.61801200  1
  O  O41  1  0.38198800  0.60374000  0.60242100  1
  O  O42  1  0.39757900  0.88198800  0.89626000  1
  O  O43  1  0.60374000  0.60242100  0.38198800  1
  O  O44  1  0.88198800  0.89626000  0.39757900  1
  O  O45  1  0.89757900  0.61801200  0.10374000  1
  O  O46  1  0.89626000  0.39757900  0.88198800  1
  O  O47  1  0.61801200  0.10374000  0.89757900  1
  O  O48  1  0.60242100  0.38198800  0.60374000  1
  O  O49  1  0.39626000  0.10242100  0.11801200  1
  O  O50  1  0.11801200  0.39626000  0.10242100  1
  O  O51  1  0.10242100  0.11801200  0.39626000  1
