# generated using pymatgen
data_Li9Mn2Co5O16
_symmetry_space_group_name_H-M   'P 1'
_cell_length_a   5.10912300
_cell_length_b   5.90911635
_cell_length_c   10.04750348
_cell_angle_alpha   104.54126068
_cell_angle_beta   100.40605441
_cell_angle_gamma   90.92337687
_symmetry_Int_Tables_number   1
_chemical_formula_structural   Li9Mn2Co5O16
_chemical_formula_sum   'Li9 Mn2 Co5 O16'
_cell_volume   288.18949622
_cell_formula_units_Z   1
loop_
 _symmetry_equiv_pos_site_id
 _symmetry_equiv_pos_as_xyz
  1  'x, y, z'
loop_
 _atom_site_type_symbol
 _atom_site_label
 _atom_site_symmetry_multiplicity
 _atom_site_fract_x
 _atom_site_fract_y
 _atom_site_fract_z
 _atom_site_occupancy
  Li  Li0  1  0.49852600  0.75056300  0.00086900  1
  Li  Li1  1  0.26109400  0.37455600  0.74373200  1
  Li  Li2  1  0.50855900  0.24480600  0.99574200  1
  Li  Li3  1  0.24115000  0.86755000  0.74581300  1
  Li  Li4  1  0.75132200  0.12785900  0.25401900  1
  Li  Li5  1  0.74373900  0.63527500  0.25744200  1
  Li  Li6  1  0.99719800  0.49833100  0.49857600  1
  Li  Li7  1  0.99719500  0.00614500  0.50263100  1
  Li  Li8  1  0.74662600  0.62705800  0.74910800  1
  Mn  Mn9  1  0.00204700  0.99267200  0.99671000  1
  Mn  Mn10  1  0.00037900  0.49296300  0.99466600  1
  Co  Co11  1  0.50376000  0.26130800  0.50527200  1
  Co  Co12  1  0.24667300  0.87619000  0.25005100  1
  Co  Co13  1  0.75284200  0.12099900  0.74992600  1
  Co  Co14  1  0.49800000  0.75105100  0.50912600  1
  Co  Co15  1  0.25544000  0.37665600  0.25201800  1
  O  O16  1  0.34976500  0.05336900  0.12785900  1
  O  O17  1  0.11621500  0.70280600  0.89188100  1
  O  O18  1  0.35818900  0.54186400  0.12231300  1
  O  O19  1  0.10516300  0.16026600  0.87058900  1
  O  O20  1  0.61750500  0.44890500  0.38125300  1
  O  O21  1  0.58709600  0.93617000  0.37425400  1
  O  O22  1  0.84996500  0.84847400  0.63339900  1
  O  O23  1  0.84729100  0.29489400  0.62843400  1
  O  O24  1  0.65716600  0.40854700  0.86763800  1
  O  O25  1  0.40363300  0.06718600  0.63170700  1
  O  O26  1  0.65892200  0.95127700  0.87508600  1
  O  O27  1  0.37044300  0.56774000  0.61487600  1
  O  O28  1  0.89540600  0.82727300  0.12538600  1
  O  O29  1  0.89874400  0.29019000  0.11018800  1
  O  O30  1  0.14295400  0.20441000  0.37619300  1
  O  O31  1  0.13699200  0.69265000  0.36324300  1
