# generated using pymatgen
data_Li5Mn(CoO4)2
_symmetry_space_group_name_H-M   'P 1'
_cell_length_a   2.91667176
_cell_length_b   2.91667213
_cell_length_c   20.16004367
_cell_angle_alpha   85.85171021
_cell_angle_beta   90.00000000
_cell_angle_gamma   119.99999579
_symmetry_Int_Tables_number   1
_chemical_formula_structural   Li5Mn(CoO4)2
_chemical_formula_sum   'Li5 Mn1 Co2 O8'
_cell_volume   148.00518411
_cell_formula_units_Z   1
loop_
 _symmetry_equiv_pos_site_id
 _symmetry_equiv_pos_as_xyz
  1  'x, y, z'
loop_
 _atom_site_type_symbol
 _atom_site_label
 _atom_site_symmetry_multiplicity
 _atom_site_fract_x
 _atom_site_fract_y
 _atom_site_fract_z
 _atom_site_occupancy
  Li  Li0  1  0.87408197  0.74816394  0.37775408  1
  Li  Li1  1  0.12591803  0.25183606  0.62224592  1
  Li  Li2  1  0.37705367  0.75410734  0.86883899  1
  Li  Li3  1  0.62294633  0.24589266  0.13116101  1
  Li  Li4  1  0.50000000  -0.00000000  0.50000000  1
  Mn  Mn5  1  -0.00000000  -0.00000000  -0.00000000  1
  Co  Co6  1  0.25059681  0.50119362  0.24820956  1
  Co  Co7  1  0.74940319  0.49880638  0.75179044  1
  O  O8  1  0.81166785  0.62333571  0.56499644  1
  O  O9  1  0.06290846  0.12581692  0.81127463  1
  O  O10  1  0.31522503  0.63045005  0.05432492  1
  O  O11  1  0.56591119  0.13182238  0.30226643  1
  O  O12  1  0.93709154  0.87418308  0.18872537  1
  O  O13  1  0.18833215  0.37666429  0.43500356  1
  O  O14  1  0.43408881  0.86817762  0.69773357  1
  O  O15  1  0.68477497  0.36954995  0.94567508  1
