# generated using pymatgen
data_Li9Mn7O16
_symmetry_space_group_name_H-M   'P 1'
_cell_length_a   3.01312700
_cell_length_b   6.06617082
_cell_length_c   16.37281089
_cell_angle_alpha   90.00814466
_cell_angle_beta   90.87455620
_cell_angle_gamma   94.79987592
_symmetry_Int_Tables_number   1
_chemical_formula_structural   Li9Mn7O16
_chemical_formula_sum   'Li9 Mn7 O16'
_cell_volume   298.18002934
_cell_formula_units_Z   1
loop_
 _symmetry_equiv_pos_site_id
 _symmetry_equiv_pos_as_xyz
  1  'x, y, z'
loop_
 _atom_site_type_symbol
 _atom_site_label
 _atom_site_symmetry_multiplicity
 _atom_site_fract_x
 _atom_site_fract_y
 _atom_site_fract_z
 _atom_site_occupancy
  Li  Li0  1  0.99582200  0.24298200  0.88522900  1
  Li  Li1  1  0.50000000  0.50000000  0.00000000  1
  Li  Li2  1  0.00417800  0.75701800  0.11477100  1
  Li  Li3  1  0.50399400  0.99623300  0.75063000  1
  Li  Li4  1  0.99936700  0.75032500  0.62509900  1
  Li  Li5  1  0.50000000  0.50000000  0.50000000  1
  Li  Li6  1  0.00063300  0.24967500  0.37490100  1
  Li  Li7  1  0.49600600  0.00376700  0.24937000  1
  Li  Li8  1  0.50000000  0.00000000  0.00000000  1
  Mn  Mn9  1  0.99698700  0.75842400  0.88095200  1
  Mn  Mn10  1  0.00301300  0.24157600  0.11904800  1
  Mn  Mn11  1  0.50836600  0.49377300  0.24890200  1
  Mn  Mn12  1  0.00009700  0.74903000  0.37369700  1
  Mn  Mn13  1  0.50000000  0.00000000  0.50000000  1
  Mn  Mn14  1  0.99990300  0.25097000  0.62630300  1
  Mn  Mn15  1  0.49163400  0.50622700  0.75109800  1
  O  O16  1  0.46869800  0.53143400  0.87198600  1
  O  O17  1  0.00428500  0.74751400  0.99191800  1
  O  O18  1  0.47476400  0.03331900  0.12457400  1
  O  O19  1  0.03093900  0.26015000  0.74734000  1
  O  O20  1  0.53409200  0.00606800  0.62046100  1
  O  O21  1  0.03288000  0.75567300  0.49420900  1
  O  O22  1  0.53155200  0.50529100  0.36948700  1
  O  O23  1  0.03472800  0.25724300  0.24327100  1
  O  O24  1  0.52523600  0.96668100  0.87542600  1
  O  O25  1  0.99571500  0.25248600  0.00808200  1
  O  O26  1  0.53130200  0.46856600  0.12801400  1
  O  O27  1  0.96527200  0.74275700  0.75672900  1
  O  O28  1  0.46844800  0.49470900  0.63051300  1
  O  O29  1  0.96712000  0.24432700  0.50579100  1
  O  O30  1  0.46590800  0.99393200  0.37953900  1
  O  O31  1  0.96906100  0.73985000  0.25266000  1
