# generated using pymatgen
data_Li9Mn2Co5O16
_symmetry_space_group_name_H-M   'P 1'
_cell_length_a   3.01666300
_cell_length_b   6.42133243
_cell_length_c   15.49524031
_cell_angle_alpha   88.72092523
_cell_angle_beta   85.87731608
_cell_angle_gamma   76.65106055
_symmetry_Int_Tables_number   1
_chemical_formula_structural   Li9Mn2Co5O16
_chemical_formula_sum   'Li9 Mn2 Co5 O16'
_cell_volume   291.28779651
_cell_formula_units_Z   1
loop_
 _symmetry_equiv_pos_site_id
 _symmetry_equiv_pos_as_xyz
  1  'x, y, z'
loop_
 _atom_site_type_symbol
 _atom_site_label
 _atom_site_symmetry_multiplicity
 _atom_site_fract_x
 _atom_site_fract_y
 _atom_site_fract_z
 _atom_site_occupancy
  Li  Li0  1  0.92644800  0.13567600  0.81180800  1
  Li  Li1  1  0.19063700  0.62149700  0.56435800  1
  Li  Li2  1  0.43940500  0.12446300  0.31398700  1
  Li  Li3  1  0.55749300  0.87805800  0.68387800  1
  Li  Li4  1  0.82119000  0.37051600  0.43761900  1
  Li  Li5  1  0.06284800  0.87319600  0.18882100  1
  Li  Li6  1  0.69116900  0.62208900  0.06273400  1
  Li  Li7  1  0.30857200  0.37471700  0.93690300  1
  Li  Li8  1  0.87675800  0.24876200  0.62395600  1
  Mn  Mn9  1  0.00918100  0.00070800  0.00103800  1
  Mn  Mn10  1  0.62479300  0.74615600  0.87203900  1
  Co  Co11  1  0.24773500  0.48947800  0.74267900  1
  Co  Co12  1  0.50258900  0.00753600  0.50401500  1
  Co  Co13  1  0.74100100  0.50151900  0.25288100  1
  Co  Co14  1  0.12168400  0.75265500  0.37563500  1
  Co  Co15  1  0.37079900  0.25423400  0.12850600  1
  O  O16  1  0.44936300  0.04725000  0.90636000  1
  O  O17  1  0.69898000  0.55573600  0.66308300  1
  O  O18  1  0.95486800  0.04251400  0.41007400  1
  O  O19  1  0.08132000  0.78723100  0.77977600  1
  O  O20  1  0.35666100  0.28224500  0.52424100  1
  O  O21  1  0.57361200  0.79600100  0.28660700  1
  O  O22  1  0.18596300  0.54773500  0.16198800  1
  O  O23  1  0.87364300  0.29911000  0.03608100  1
  O  O24  1  0.39778500  0.21609100  0.72294700  1
  O  O25  1  0.67125900  0.71265600  0.46522400  1
  O  O26  1  0.86878200  0.20841700  0.21773900  1
  O  O27  1  0.05883500  0.94151700  0.58415900  1
  O  O28  1  0.29314200  0.45897200  0.34123700  1
  O  O29  1  0.56220100  0.95536400  0.09464500  1
  O  O30  1  0.18290300  0.69744600  0.96651700  1
  O  O31  1  0.79838500  0.45045600  0.83846500  1
