# generated using pymatgen
data_Li4V3P8O29
_symmetry_space_group_name_H-M   'P 1'
_cell_length_a   9.77549000
_cell_length_b   9.79400213
_cell_length_c   14.23553230
_cell_angle_alpha   89.63906673
_cell_angle_beta   89.76818855
_cell_angle_gamma   60.15335126
_symmetry_Int_Tables_number   1
_chemical_formula_structural   Li4V3P8O29
_chemical_formula_sum   'Li8 V6 P16 O58'
_cell_volume   1182.12457533
_cell_formula_units_Z   2
loop_
 _symmetry_equiv_pos_site_id
 _symmetry_equiv_pos_as_xyz
  1  'x, y, z'
loop_
 _atom_site_type_symbol
 _atom_site_label
 _atom_site_symmetry_multiplicity
 _atom_site_fract_x
 _atom_site_fract_y
 _atom_site_fract_z
 _atom_site_occupancy
  Li  Li0  1  0.31247600  0.91021200  0.55252700  1
  Li  Li1  1  0.08631500  0.22513200  0.43613400  1
  Li  Li2  1  0.77363500  0.90972100  0.06380900  1
  Li  Li3  1  0.22239000  0.08386200  0.94555400  1
  Li  Li4  1  0.91854000  0.77886700  0.55674400  1
  Li  Li5  1  0.09286400  0.68254100  0.95010900  1
  Li  Li6  1  0.67849100  0.09355900  0.43987200  1
  Li  Li7  1  0.69076900  0.22671700  0.94174400  1
  V  V8  1  0.56690400  0.43550600  0.74605600  1
  V  V9  1  0.43080300  0.99824200  0.75142800  1
  V  V10  1  0.99572000  0.43426200  0.24799800  1
  V  V11  1  0.00307600  0.56301100  0.75089300  1
  V  V12  1  0.56739200  0.00111100  0.24843400  1
  V  V13  1  0.43051600  0.56635100  0.25258800  1
  P  P14  1  0.31596700  0.76648600  0.84235200  1
  P  P15  1  0.32059000  0.90866600  0.33835300  1
  P  P16  1  0.77045100  0.31326200  0.33787500  1
  P  P17  1  0.66815500  0.66847700  0.63138400  1
  P  P18  1  0.66533200  0.66714900  0.13063200  1
  P  P19  1  0.91335200  0.31371700  0.83647800  1
  P  P20  1  0.08805500  0.23176900  0.65493000  1
  P  P21  1  0.76931600  0.90846700  0.84141700  1
  P  P22  1  0.22991500  0.09044800  0.16033300  1
  P  P23  1  0.91069800  0.76916500  0.34246900  1
  P  P24  1  0.08973200  0.68208600  0.16325200  1
  P  P25  1  0.33407300  0.33337300  0.86944800  1
  P  P26  1  0.33211000  0.33214700  0.37122600  1
  P  P27  1  0.22955800  0.68615000  0.65887600  1
  P  P28  1  0.67903600  0.08869600  0.66174200  1
  P  P29  1  0.68110500  0.23506700  0.15520800  1
  O  O30  1  0.23618000  0.76836600  0.57318600  1
  O  O31  1  0.33854900  0.74245300  0.33334200  1
  O  O32  1  0.20948200  0.99913500  0.24900600  1
  O  O33  1  0.23426100  0.01469500  0.06994500  1
  O  O34  1  0.47680600  0.61610600  0.82153700  1
  O  O35  1  0.33783400  0.91336300  0.83969200  1
  O  O36  1  0.52210000  0.66294100  0.17722800  1
  O  O37  1  0.61723500  0.47410900  0.32467600  1
  O  O38  1  0.74916400  0.24514600  0.06387700  1
  O  O39  1  0.74366300  0.33835600  0.83689300  1
  O  O40  1  0.51454100  0.81368100  0.66973900  1
  O  O41  1  0.66847400  0.51861500  0.67691100  1
  O  O42  1  0.48094800  0.89614100  0.32258000  1
  O  O43  1  0.67479600  0.66445900  0.52752100  1
  O  O44  1  0.67476900  0.65677000  0.02685500  1
  O  O45  1  0.62228600  0.89494900  0.82437200  1
  O  O46  1  0.81706300  0.51912700  0.17759300  1
  O  O47  1  0.67206100  0.81615900  0.16580100  1
  O  O48  1  0.91568900  0.33920000  0.33850800  1
  O  O49  1  0.98813600  0.21692600  0.74059700  1
  O  O50  1  0.00724800  0.22812700  0.91969000  1
  O  O51  1  0.01129200  0.24725800  0.56316000  1
  O  O52  1  0.90431500  0.47689700  0.82046000  1
  O  O53  1  0.81878100  0.66899300  0.67384900  1
  O  O54  1  0.74341300  0.91699500  0.33636200  1
  O  O55  1  0.08455100  0.25849700  0.17051600  1
  O  O56  1  0.90313700  0.61795300  0.32234800  1
  O  O57  1  0.23905000  0.99560900  0.42653200  1
  O  O58  1  0.75633200  0.00462600  0.57272700  1
  O  O59  1  0.09985400  0.38167700  0.68061800  1
  O  O60  1  0.92093800  0.74248300  0.83847900  1
  O  O61  1  0.79057200  0.99758200  0.75064800  1
  O  O62  1  0.25246700  0.08197900  0.66252700  1
  O  O63  1  0.18162500  0.33174000  0.33026700  1
  O  O64  1  0.09731800  0.52127100  0.17951100  1
  O  O65  1  0.00124500  0.75879200  0.07446900  1
  O  O66  1  0.98885400  0.76421300  0.43249500  1
  O  O67  1  0.00065300  0.79032000  0.25239400  1
  O  O68  1  0.08318700  0.66256700  0.66220000  1
  O  O69  1  0.32637900  0.18795300  0.83213800  1
  O  O70  1  0.38140500  0.10039300  0.17871700  1
  O  O71  1  0.18389800  0.48726600  0.82576300  1
  O  O72  1  0.32763900  0.33799200  0.47556900  1
  O  O73  1  0.32772900  0.34659300  0.97345500  1
  O  O74  1  0.51858700  0.09785500  0.67896700  1
  O  O75  1  0.33307900  0.48022900  0.32426900  1
  O  O76  1  0.48538800  0.18515100  0.33396400  1
  O  O77  1  0.25681400  0.65894500  0.16575000  1
  O  O78  1  0.20914700  0.78941300  0.75063300  1
  O  O79  1  0.23397000  0.75740800  0.92766300  1
  O  O80  1  0.38220400  0.52358200  0.67669900  1
  O  O81  1  0.48465800  0.33184400  0.82704600  1
  O  O82  1  0.66577900  0.08447800  0.16110900  1
  O  O83  1  0.52086600  0.38306200  0.17865900  1
  O  O84  1  0.76411900  0.99485700  0.92944100  1
  O  O85  1  0.65789700  0.25607500  0.66818200  1
  O  O86  1  0.76959200  0.22180900  0.42093900  1
  O  O87  1  0.79533100  0.21677300  0.24155500  1
