# generated using pymatgen
data_Li9Mn2Co5O16
_symmetry_space_group_name_H-M   'P 1'
_cell_length_a   4.98193200
_cell_length_b   5.94516654
_cell_length_c   9.81456238
_cell_angle_alpha   100.27964884
_cell_angle_beta   93.43928792
_cell_angle_gamma   91.58286014
_symmetry_Int_Tables_number   1
_chemical_formula_structural   Li9Mn2Co5O16
_chemical_formula_sum   'Li9 Mn2 Co5 O16'
_cell_volume   285.29311155
_cell_formula_units_Z   1
loop_
 _symmetry_equiv_pos_site_id
 _symmetry_equiv_pos_as_xyz
  1  'x, y, z'
loop_
 _atom_site_type_symbol
 _atom_site_label
 _atom_site_symmetry_multiplicity
 _atom_site_fract_x
 _atom_site_fract_y
 _atom_site_fract_z
 _atom_site_occupancy
  Li  Li0  1  0.88127900  0.81741500  0.25444800  1
  Li  Li1  1  0.12735700  0.68709100  0.74829600  1
  Li  Li2  1  0.37247400  0.57035800  0.25461500  1
  Li  Li3  1  0.87856400  0.30964300  0.25352700  1
  Li  Li4  1  0.12163100  0.18201300  0.74647800  1
  Li  Li5  1  0.38275000  0.05617500  0.25346100  1
  Li  Li6  1  0.61156000  0.93152200  0.74412000  1
  Li  Li7  1  0.62882200  0.44055800  0.74647700  1
  Li  Li8  1  0.25040500  0.87495900  0.49916500  1
  Mn  Mn9  1  0.00076700  0.99997900  0.99880400  1
  Mn  Mn10  1  0.24795400  0.37226100  0.50207700  1
  Co  Co11  1  0.50060800  0.74786800  0.99997100  1
  Co  Co12  1  0.74989100  0.63060000  0.49970700  1
  Co  Co13  1  0.99960200  0.50071800  0.00121800  1
  Co  Co14  1  0.50057000  0.25373100  0.00008000  1
  Co  Co15  1  0.74331200  0.11812000  0.49813900  1
  O  O16  1  0.69410300  0.03257800  0.11320400  1
  O  O17  1  0.89792500  0.90795200  0.60473100  1
  O  O18  1  0.19647000  0.75600200  0.11822700  1
  O  O19  1  0.69844900  0.53511800  0.11513900  1
  O  O20  1  0.95006700  0.37897500  0.61547500  1
  O  O21  1  0.20005700  0.26294600  0.11756100  1
  O  O22  1  0.44931000  0.17157500  0.60877400  1
  O  O23  1  0.43929300  0.63897000  0.61125600  1
  O  O24  1  0.05893900  0.57481300  0.39407600  1
  O  O25  1  0.30093900  0.46915800  0.88775200  1
  O  O26  1  0.56909600  0.34642700  0.39467600  1
  O  O27  1  0.05557400  0.11049500  0.39027300  1
  O  O28  1  0.30452300  0.96669000  0.88106100  1
  O  O29  1  0.58075400  0.87398400  0.38102700  1
  O  O30  1  0.80418100  0.73563500  0.88168700  1
  O  O31  1  0.80277700  0.24567000  0.88449800  1
