# generated using pymatgen
data_Li2Fe2Si2O9
_symmetry_space_group_name_H-M   'P 1'
_cell_length_a   14.07450426
_cell_length_b   8.62275341
_cell_length_c   5.05715014
_cell_angle_alpha   90.00356521
_cell_angle_beta   90.00397817
_cell_angle_gamma   89.99897294
_symmetry_Int_Tables_number   1
_chemical_formula_structural   Li2Fe2Si2O9
_chemical_formula_sum   'Li8 Fe8 Si8 O36'
_cell_volume   613.74069195
_cell_formula_units_Z   4
loop_
 _symmetry_equiv_pos_site_id
 _symmetry_equiv_pos_as_xyz
  1  'x, y, z'
loop_
 _atom_site_type_symbol
 _atom_site_label
 _atom_site_symmetry_multiplicity
 _atom_site_fract_x
 _atom_site_fract_y
 _atom_site_fract_z
 _atom_site_occupancy
  Li  Li0  1  0.15576506  0.03098744  0.63476285  1
  Li  Li1  1  0.15620926  0.46682331  0.14242865  1
  Li  Li2  1  0.34427549  0.53104281  0.13469044  1
  Li  Li3  1  0.34386864  0.96691843  0.64243288  1
  Li  Li4  1  0.65581814  0.03088395  0.36530925  1
  Li  Li5  1  0.65611429  0.46675278  0.85751512  1
  Li  Li6  1  0.84413088  0.53087351  0.86532278  1
  Li  Li7  1  0.84383696  0.96671947  0.35756406  1
  Fe  Fe8  1  0.16956557  0.65161949  0.63309647  1
  Fe  Fe9  1  0.16915145  0.84766422  0.13539500  1
  Fe  Fe10  1  0.33044070  0.15165519  0.13305825  1
  Fe  Fe11  1  0.33086407  0.34768800  0.63529978  1
  Fe  Fe12  1  0.66956155  0.65158908  0.36688474  1
  Fe  Fe13  1  0.66910786  0.84760780  0.86463395  1
  Fe  Fe14  1  0.83041586  0.15155075  0.86695459  1
  Fe  Fe15  1  0.83089379  0.34761319  0.36463015  1
  Si  Si16  1  0.03574383  0.16078542  0.17823293  1
  Si  Si17  1  0.03551838  0.34176356  0.67873302  1
  Si  Si18  1  0.46426407  0.66079608  0.67819994  1
  Si  Si19  1  0.46448505  0.84175592  0.17873017  1
  Si  Si20  1  0.53572681  0.16073791  0.82177609  1
  Si  Si21  1  0.53552037  0.34167780  0.32126738  1
  Si  Si22  1  0.96426565  0.66073500  0.32182274  1
  Si  Si23  1  0.96447678  0.84168056  0.82134154  1
  O  O24  1  0.07147780  0.30398609  0.37440718  1
  O  O25  1  0.07261242  0.19986581  0.87467753  1
  O  O26  1  0.08401484  0.49970336  0.78805209  1
  O  O27  1  0.08447003  0.00479123  0.28830871  1
  O  O28  1  0.08184352  0.66203443  0.31813063  1
  O  O29  1  0.08162580  0.83944317  0.81330418  1
  O  O30  1  0.23118876  0.81897248  0.47396144  1
  O  O31  1  0.23052643  0.67160229  0.95609096  1
  O  O32  1  0.25393821  0.00032904  0.97116977  1
  O  O33  1  0.24607352  0.50032233  0.47109506  1
  O  O34  1  0.26949962  0.17157911  0.45599212  1
  O  O35  1  0.26880585  0.31897808  0.97382922  1
  O  O36  1  0.41814891  0.16204513  0.81809903  1
  O  O37  1  0.41836819  0.33942769  0.31316079  1
  O  O38  1  0.41602092  0.99971631  0.28802562  1
  O  O39  1  0.41555911  0.50478563  0.78824790  1
  O  O40  1  0.42736549  0.69986531  0.37464569  1
  O  O41  1  0.42853789  0.80398503  0.87438618  1
  O  O42  1  0.57262976  0.19978841  0.12532322  1
  O  O43  1  0.57145698  0.30391186  0.62560912  1
  O  O44  1  0.58398821  0.49963868  0.21196773  1
  O  O45  1  0.58442181  0.00470176  0.71168210  1
  O  O46  1  0.58183853  0.66203347  0.68186951  1
  O  O47  1  0.58163096  0.83941090  0.18679832  1
  O  O48  1  0.73049286  0.67154657  0.04388393  1
  O  O49  1  0.73119020  0.81893695  0.52614518  1
  O  O50  1  0.75388881  0.00025207  0.02886581  1
  O  O51  1  0.74608851  0.50028741  0.52875662  1
  O  O52  1  0.76948420  0.17162921  0.54388552  1
  O  O53  1  0.76881280  0.31894171  0.02614081  1
  O  O54  1  0.91816614  0.16202103  0.18193994  1
  O  O55  1  0.91837389  0.33947578  0.68673504  1
  O  O56  1  0.91597722  0.99962863  0.71202268  1
  O  O57  1  0.91555287  0.50472395  0.21167325  1
  O  O58  1  0.92738444  0.69978941  0.62536317  1
  O  O59  1  0.92852698  0.80392500  0.12567219  1
