# generated using pymatgen
data_Li8(FeO2)5
_symmetry_space_group_name_H-M   'P 1'
_cell_length_a   6.75245906
_cell_length_b   8.02587668
_cell_length_c   10.24408740
_cell_angle_alpha   103.44007422
_cell_angle_beta   76.72213200
_cell_angle_gamma   90.23419389
_symmetry_Int_Tables_number   1
_chemical_formula_structural   Li8(FeO2)5
_chemical_formula_sum   'Li16 Fe10 O20'
_cell_volume   524.82033914
_cell_formula_units_Z   2
loop_
 _symmetry_equiv_pos_site_id
 _symmetry_equiv_pos_as_xyz
  1  'x, y, z'
loop_
 _atom_site_type_symbol
 _atom_site_label
 _atom_site_symmetry_multiplicity
 _atom_site_fract_x
 _atom_site_fract_y
 _atom_site_fract_z
 _atom_site_occupancy
  Li  Li0  1  0.89428600  0.06443300  0.44845800  1
  Li  Li1  1  0.39341800  0.06467600  0.94837300  1
  Li  Li2  1  0.80639800  0.13053600  0.24917100  1
  Li  Li3  1  0.30610900  0.13086900  0.74907700  1
  Li  Li4  1  0.80391100  0.44268300  0.35304700  1
  Li  Li5  1  0.30239400  0.44282700  0.85351500  1
  Li  Li6  1  0.89531800  0.75789800  0.34657700  1
  Li  Li7  1  0.39567500  0.75816700  0.84636400  1
  Li  Li8  1  0.57723300  0.26805700  0.13834800  1
  Li  Li9  1  0.07753200  0.26876300  0.63702800  1
  Li  Li10  1  0.62356800  0.93307400  0.06764100  1
  Li  Li11  1  0.12418500  0.93298200  0.56673500  1
  Li  Li12  1  0.71746600  0.55303300  0.15756200  1
  Li  Li13  1  0.21673300  0.55416700  0.65819800  1
  Li  Li14  1  0.48277800  0.64930000  0.03988200  1
  Li  Li15  1  0.98256900  0.64916200  0.53995300  1
  Fe  Fe16  1  0.84974500  0.59900800  0.84958400  1
  Fe  Fe17  1  0.94557600  0.19766100  0.95018600  1
  Fe  Fe18  1  0.74975300  0.00164100  0.74877000  1
  Fe  Fe19  1  0.65437600  0.40445100  0.64430500  1
  Fe  Fe20  1  0.04902000  0.79743200  0.05647000  1
  Fe  Fe21  1  0.35023100  0.59873400  0.34953800  1
  Fe  Fe22  1  0.44748600  0.19861700  0.45133400  1
  Fe  Fe23  1  0.24954400  0.00055800  0.24800000  1
  Fe  Fe24  1  0.15552300  0.40448800  0.14453300  1
  Fe  Fe25  1  0.54964100  0.79705600  0.55640600  1
  O  O26  1  0.71925100  0.26171100  0.44859900  1
  O  O27  1  0.21677000  0.26143100  0.94884000  1
  O  O28  1  0.96601800  0.93675600  0.25024100  1
  O  O29  1  0.46596300  0.93694800  0.74967100  1
  O  O30  1  0.18970900  0.10761300  0.45868000  1
  O  O31  1  0.68744200  0.10742500  0.95935700  1
  O  O32  1  0.51738600  0.10695700  0.25866900  1
  O  O33  1  0.01778400  0.10811700  0.75709600  1
  O  O34  1  0.07469800  0.55511300  0.33844400  1
  O  O35  1  0.57432600  0.55519600  0.83863000  1
  O  O36  1  0.62430600  0.63828000  0.36026900  1
  O  O37  1  0.12389200  0.63883400  0.86034100  1
  O  O38  1  0.86803900  0.32156500  0.14152900  1
  O  O39  1  0.36733100  0.32230700  0.64232400  1
  O  O40  1  0.34133000  0.87216700  0.04671200  1
  O  O41  1  0.84134300  0.87179700  0.54666800  1
  O  O42  1  0.43344100  0.48684000  0.16038500  1
  O  O43  1  0.93279000  0.48732300  0.66057700  1
  O  O44  1  0.76869400  0.71176800  0.03708500  1
  O  O45  1  0.26902000  0.71158000  0.53682700  1
