# generated using pymatgen
data_Li3Ni2(PO4)3
_symmetry_space_group_name_H-M   'P 1'
_cell_length_a   8.80684600
_cell_length_b   8.76587100
_cell_length_c   15.02864669
_cell_angle_alpha   54.90936935
_cell_angle_beta   90.00000000
_cell_angle_gamma   90.00000000
_symmetry_Int_Tables_number   1
_chemical_formula_structural   Li3Ni2(PO4)3
_chemical_formula_sum   'Li12 Ni8 P12 O48'
_cell_volume   949.33182636
_cell_formula_units_Z   4
loop_
 _symmetry_equiv_pos_site_id
 _symmetry_equiv_pos_as_xyz
  1  'x, y, z'
loop_
 _atom_site_type_symbol
 _atom_site_label
 _atom_site_symmetry_multiplicity
 _atom_site_fract_x
 _atom_site_fract_y
 _atom_site_fract_z
 _atom_site_occupancy
  Li  Li0  1  0.93460300  0.35009700  0.70965900  1
  Li  Li1  1  0.22376900  0.02989800  0.18105700  1
  Li  Li2  1  0.26903400  0.38733300  0.81558400  1
  Li  Li3  1  0.76903400  0.61266700  0.68441600  1
  Li  Li4  1  0.72376900  0.97010200  0.31894300  1
  Li  Li5  1  0.43460300  0.64990300  0.79034100  1
  Li  Li6  1  0.56539700  0.35009700  0.20965900  1
  Li  Li7  1  0.27623100  0.02989800  0.68105700  1
  Li  Li8  1  0.23096600  0.38733300  0.31558400  1
  Li  Li9  1  0.73096600  0.61266700  0.18441600  1
  Li  Li10  1  0.77623100  0.97010200  0.81894300  1
  Li  Li11  1  0.06539700  0.64990300  0.29034100  1
  Ni  Ni12  1  0.45697300  0.63181700  0.61164900  1
  Ni  Ni13  1  0.95697300  0.36818300  0.88835100  1
  Ni  Ni14  1  0.54201100  0.12466800  0.11358400  1
  Ni  Ni15  1  0.04201100  0.87533200  0.38641600  1
  Ni  Ni16  1  0.95798900  0.12466800  0.61358400  1
  Ni  Ni17  1  0.45798900  0.87533200  0.88641600  1
  Ni  Ni18  1  0.04302700  0.63181700  0.11164900  1
  Ni  Ni19  1  0.54302700  0.36818300  0.38835100  1
  P  P20  1  0.75557100  0.53897200  0.50126600  1
  P  P21  1  0.61029600  0.25596700  0.85028000  1
  P  P22  1  0.89651300  0.96190300  0.14748700  1
  P  P23  1  0.39651300  0.03809700  0.35251300  1
  P  P24  1  0.11029600  0.74403300  0.64972000  1
  P  P25  1  0.25557100  0.46102800  0.99873400  1
  P  P26  1  0.74442900  0.53897200  0.00126600  1
  P  P27  1  0.88970400  0.25596700  0.35028000  1
  P  P28  1  0.60348700  0.96190300  0.64748700  1
  P  P29  1  0.10348700  0.03809700  0.85251300  1
  P  P30  1  0.38970400  0.74403300  0.14972000  1
  P  P31  1  0.24442900  0.46102800  0.49873400  1
  O  O32  1  0.12976300  0.61729400  0.42800900  1
  O  O33  1  0.33564000  0.47984200  0.57737500  1
  O  O34  1  0.10820600  0.21248800  0.85585100  1
  O  O35  1  0.40563700  0.90039600  0.16736200  1
  O  O36  1  0.65904600  0.55768900  0.58173600  1
  O  O37  1  0.58825500  0.16689400  0.97197100  1
  O  O38  1  0.77213000  0.34123300  0.81113700  1
  O  O39  1  0.01961100  0.91408700  0.23465400  1
  O  O40  1  0.83138300  0.73616500  0.43175000  1
  O  O41  1  0.74060900  0.98647900  0.18388700  1
  O  O42  1  0.94663400  0.13583800  0.03901400  1
  O  O43  1  0.48982900  0.41367100  0.78580000  1
  O  O44  1  0.98982900  0.58632900  0.71420000  1
  O  O45  1  0.44663400  0.86416200  0.46098600  1
  O  O46  1  0.24060900  0.01352100  0.31611300  1
  O  O47  1  0.33138300  0.26383500  0.06825000  1
  O  O48  1  0.51961100  0.08591300  0.26534600  1
  O  O49  1  0.27213000  0.65876700  0.68886300  1
  O  O50  1  0.08825500  0.83310600  0.52802900  1
  O  O51  1  0.15904600  0.44231100  0.91826400  1
  O  O52  1  0.60820600  0.78751200  0.64414900  1
  O  O53  1  0.90563700  0.09960400  0.33263800  1
  O  O54  1  0.83564000  0.52015800  0.92262500  1
  O  O55  1  0.62976300  0.38270600  0.07199100  1
  O  O56  1  0.37023700  0.61729400  0.92800900  1
  O  O57  1  0.16436000  0.47984200  0.07737500  1
  O  O58  1  0.09436300  0.90039600  0.66736200  1
  O  O59  1  0.39179400  0.21248800  0.35585100  1
  O  O60  1  0.84095400  0.55768900  0.08173600  1
  O  O61  1  0.91174500  0.16689400  0.47197100  1
  O  O62  1  0.72787000  0.34123300  0.31113700  1
  O  O63  1  0.48038900  0.91408700  0.73465400  1
  O  O64  1  0.66861700  0.73616500  0.93175000  1
  O  O65  1  0.75939100  0.98647900  0.68388700  1
  O  O66  1  0.55336600  0.13583800  0.53901400  1
  O  O67  1  0.01017100  0.41367100  0.28580000  1
  O  O68  1  0.51017100  0.58632900  0.21420000  1
  O  O69  1  0.05336600  0.86416200  0.96098600  1
  O  O70  1  0.25939100  0.01352100  0.81611300  1
  O  O71  1  0.16861700  0.26383500  0.56825000  1
  O  O72  1  0.98038900  0.08591300  0.76534600  1
  O  O73  1  0.22787000  0.65876700  0.18886300  1
  O  O74  1  0.41174500  0.83310600  0.02802900  1
  O  O75  1  0.34095400  0.44231100  0.41826400  1
  O  O76  1  0.59436300  0.09960400  0.83263800  1
  O  O77  1  0.89179400  0.78751200  0.14414900  1
  O  O78  1  0.66436000  0.52015800  0.42262500  1
  O  O79  1  0.87023700  0.38270600  0.57199100  1
