# generated using pymatgen
data_Li7Mn4CoO12
_symmetry_space_group_name_H-M   'P 1'
_cell_length_a   5.73016700
_cell_length_b   6.50002730
_cell_length_c   13.34348190
_cell_angle_alpha   101.77515934
_cell_angle_beta   90.00017138
_cell_angle_gamma   63.84506340
_symmetry_Int_Tables_number   1
_chemical_formula_structural   Li7Mn4CoO12
_chemical_formula_sum   'Li14 Mn8 Co2 O24'
_cell_volume   434.42289424
_cell_formula_units_Z   2
loop_
 _symmetry_equiv_pos_site_id
 _symmetry_equiv_pos_as_xyz
  1  'x, y, z'
loop_
 _atom_site_type_symbol
 _atom_site_label
 _atom_site_symmetry_multiplicity
 _atom_site_fract_x
 _atom_site_fract_y
 _atom_site_fract_z
 _atom_site_occupancy
  Li  Li0  1  0.08321000  0.33334800  0.16665800  1
  Li  Li1  1  0.58344100  0.33334800  0.16665800  1
  Li  Li2  1  0.08337800  0.83327400  0.66665000  1
  Li  Li3  1  0.58330800  0.83341800  0.66663800  1
  Li  Li4  1  0.83331100  0.83337900  0.16674300  1
  Li  Li5  1  0.33330900  0.83337900  0.16674300  1
  Li  Li6  1  0.74968600  0.99993000  0.49310000  1
  Li  Li7  1  0.25039900  0.99993200  0.49310000  1
  Li  Li8  1  0.41625200  0.66671200  0.84010200  1
  Li  Li9  1  0.91697000  0.66671300  0.84010200  1
  Li  Li10  1  0.92481600  0.15033500  0.31094400  1
  Li  Li11  1  0.42480600  0.15035600  0.31131000  1
  Li  Li12  1  0.24186900  0.51630500  0.02195400  1
  Li  Li13  1  0.74185100  0.51634200  0.02233300  1
  Mn  Mn14  1  0.99841800  0.00310200  0.01422300  1
  Mn  Mn15  1  0.49835100  0.00326000  0.01445600  1
  Mn  Mn16  1  0.16835000  0.66334800  0.31888700  1
  Mn  Mn17  1  0.66829400  0.66346300  0.31920100  1
  Mn  Mn18  1  0.00324100  0.49374600  0.49413100  1
  Mn  Mn19  1  0.50306300  0.49374600  0.49414000  1
  Mn  Mn20  1  0.66342900  0.17291900  0.83919400  1
  Mn  Mn21  1  0.16363800  0.17291700  0.83918900  1
  Co  Co22  1  0.83332400  0.33332700  0.66666900  1
  Co  Co23  1  0.33332600  0.33332600  0.66667000  1
  O  O24  1  0.13550400  0.22879300  0.00745300  1
  O  O25  1  0.63565700  0.22879500  0.00745300  1
  O  O26  1  0.03102300  0.43786500  0.32589000  1
  O  O27  1  0.53117400  0.43786700  0.32588900  1
  O  O28  1  0.80467400  0.89129400  0.33187600  1
  O  O29  1  0.30407800  0.89129200  0.33187400  1
  O  O30  1  0.86199100  0.77539600  0.00150900  1
  O  O31  1  0.36258100  0.77539700  0.00150800  1
  O  O32  1  0.47027700  0.55976000  0.66945300  1
  O  O33  1  0.96998100  0.55976100  0.66945300  1
  O  O34  1  0.69666300  0.10690900  0.66390400  1
  O  O35  1  0.19636100  0.10691200  0.66390500  1
  O  O36  1  0.96321100  0.07352400  0.15302600  1
  O  O37  1  0.46313000  0.07368500  0.15313700  1
  O  O38  1  0.20351200  0.59299900  0.18023300  1
  O  O39  1  0.70343300  0.59315900  0.18032900  1
  O  O40  1  0.13926800  0.72149700  0.48745400  1
  O  O41  1  0.63896400  0.72210500  0.48707000  1
  O  O42  1  0.02770800  0.94456000  0.84625100  1
  O  O43  1  0.52739900  0.94517800  0.84586600  1
  O  O44  1  0.80158900  0.39680800  0.83484600  1
  O  O45  1  0.30066500  0.39864600  0.83600800  1
  O  O46  1  0.86509000  0.26987400  0.49850200  1
  O  O47  1  0.36602800  0.26799800  0.49731500  1
