# generated using pymatgen
data_Li3MnV(PO4)3
_symmetry_space_group_name_H-M   'P 1'
_cell_length_a   9.79412100
_cell_length_b   9.82637219
_cell_length_c   9.90337514
_cell_angle_alpha   85.29558654
_cell_angle_beta   85.33194877
_cell_angle_gamma   88.22759790
_symmetry_Int_Tables_number   1
_chemical_formula_structural   Li3MnV(PO4)3
_chemical_formula_sum   'Li12 Mn4 V4 P12 O48'
_cell_volume   946.46343081
_cell_formula_units_Z   4
loop_
 _symmetry_equiv_pos_site_id
 _symmetry_equiv_pos_as_xyz
  1  'x, y, z'
loop_
 _atom_site_type_symbol
 _atom_site_label
 _atom_site_symmetry_multiplicity
 _atom_site_fract_x
 _atom_site_fract_y
 _atom_site_fract_z
 _atom_site_occupancy
  Li  Li0  1  0.24957500  0.51314300  0.98078700  1
  Li  Li1  1  0.38769100  0.25915700  0.00914900  1
  Li  Li2  1  0.47511600  0.56903100  0.77068800  1
  Li  Li3  1  0.17610400  0.73186800  0.77640100  1
  Li  Li4  1  0.61215100  0.96896000  0.75341800  1
  Li  Li5  1  0.83262200  0.74651600  0.62108200  1
  Li  Li6  1  0.73369500  0.01582100  0.48945500  1
  Li  Li7  1  0.53313200  0.23329600  0.43966900  1
  Li  Li8  1  0.97544700  0.91667300  0.31279200  1
  Li  Li9  1  0.82452100  0.22581400  0.26818600  1
  Li  Li10  1  0.18310200  0.37555800  0.24620400  1
  Li  Li11  1  0.01602300  0.67187600  0.08795300  1
  Mn  Mn12  1  0.99428500  0.46857800  0.52363900  1
  Mn  Mn13  1  0.51011500  0.53311000  0.46939000  1
  Mn  Mn14  1  0.49290900  0.75644500  0.24958500  1
  Mn  Mn15  1  0.72017700  0.74130800  0.02863400  1
  V  V16  1  0.78696700  0.25056200  0.97039000  1
  V  V17  1  0.00614000  0.24996000  0.74858200  1
  V  V18  1  0.21996200  0.02678700  0.75124800  1
  V  V19  1  0.27675400  0.96712000  0.25224900  1
  P  P20  1  0.40492000  0.82351300  0.95026700  1
  P  P21  1  0.89784100  0.94708600  0.82609500  1
  P  P22  1  0.93415200  0.55088800  0.84254600  1
  P  P23  1  0.30764800  0.34324600  0.67945800  1
  P  P24  1  0.70193700  0.32708100  0.66123700  1
  P  P25  1  0.42410500  0.83849700  0.55560200  1
  P  P26  1  0.06660800  0.15001200  0.45062900  1
  P  P27  1  0.79771000  0.67802400  0.34726100  1
  P  P28  1  0.19508800  0.65015700  0.31243900  1
  P  P29  1  0.57843200  0.44710700  0.15858800  1
  P  P30  1  0.59010200  0.05450500  0.18594200  1
  P  P31  1  0.09770300  0.17271300  0.05160700  1
  O  O32  1  0.85311700  0.87495300  0.96785900  1
  O  O33  1  0.56288000  0.82702400  0.91688800  1
  O  O34  1  0.79605500  0.60842600  0.89933700  1
  O  O35  1  0.34356600  0.95905400  0.88777700  1
  O  O36  1  0.34342800  0.69605300  0.90129800  1
  O  O37  1  0.93083500  0.38938600  0.87457400  1
  O  O38  1  0.05877700  0.60203000  0.90794800  1
  O  O39  1  0.12464000  0.16169400  0.89229800  1
  O  O40  1  0.87468200  0.10607700  0.83617200  1
  O  O41  1  0.67624200  0.30593900  0.81841500  1
  O  O42  1  0.05276800  0.91007100  0.79859600  1
  O  O43  1  0.35667200  0.40818200  0.80176700  1
  O  O44  1  0.81028800  0.90814700  0.71495900  1
  O  O45  1  0.94692000  0.59009300  0.68651000  1
  O  O46  1  0.32977400  0.18559700  0.68627800  1
  O  O47  1  0.14975900  0.37914000  0.67131900  1
  O  O48  1  0.28667600  0.87485300  0.63613500  1
  O  O49  1  0.54760100  0.91438000  0.59155400  1
  O  O50  1  0.86764400  0.33353100  0.62234000  1
  O  O51  1  0.63988000  0.46805700  0.61958400  1
  O  O52  1  0.44139800  0.67889100  0.58848500  1
  O  O53  1  0.65485200  0.20741700  0.58922900  1
  O  O54  1  0.07340300  0.12070200  0.60999300  1
  O  O55  1  0.38286400  0.39282700  0.53956700  1
  O  O56  1  0.84133200  0.79748700  0.42371400  1
  O  O57  1  0.13331200  0.59174600  0.45276300  1
  O  O58  1  0.85491200  0.53831800  0.39841200  1
  O  O59  1  0.40546700  0.87335900  0.39942600  1
  O  O60  1  0.63434800  0.67093500  0.37462900  1
  O  O61  1  0.93620500  0.09031900  0.40434800  1
  O  O62  1  0.07213100  0.30623900  0.40947500  1
  O  O63  1  0.19906200  0.08122800  0.38978400  1
  O  O64  1  0.35491800  0.62818700  0.31926900  1
  O  O65  1  0.15172600  0.80443800  0.29350900  1
  O  O66  1  0.56005600  0.41646600  0.31798700  1
  O  O67  1  0.64862500  0.10963200  0.30967100  1
  O  O68  1  0.83928000  0.70365500  0.19245700  1
  O  O69  1  0.62030800  0.89463900  0.18703800  1
  O  O70  1  0.15198200  0.57308600  0.19453500  1
  O  O71  1  0.43302800  0.08714700  0.18095000  1
  O  O72  1  0.59081700  0.60903100  0.12207800  1
  O  O73  1  0.36996600  0.82954100  0.10957800  1
  O  O74  1  0.71631200  0.37637700  0.11569200  1
  O  O75  1  0.94251200  0.20557300  0.09105900  1
  O  O76  1  0.45423900  0.40551300  0.09167600  1
  O  O77  1  0.13143400  0.03360100  0.12580300  1
  O  O78  1  0.19009800  0.28732500  0.08362600  1
  O  O79  1  0.66047600  0.11202700  0.04966600  1
