# generated using pymatgen
data_Li12Mn7V(PO4)12
_symmetry_space_group_name_H-M   'P 1'
_cell_length_a   8.60848973
_cell_length_b   12.33331188
_cell_length_c   17.50080678
_cell_angle_alpha   90.00844733
_cell_angle_beta   89.92326797
_cell_angle_gamma   92.09473375
_symmetry_Int_Tables_number   1
_chemical_formula_structural   Li12Mn7V(PO4)12
_chemical_formula_sum   'Li24 Mn14 V2 P24 O96'
_cell_volume   1856.83813528
_cell_formula_units_Z   2
loop_
 _symmetry_equiv_pos_site_id
 _symmetry_equiv_pos_as_xyz
  1  'x, y, z'
loop_
 _atom_site_type_symbol
 _atom_site_label
 _atom_site_symmetry_multiplicity
 _atom_site_fract_x
 _atom_site_fract_y
 _atom_site_fract_z
 _atom_site_occupancy
  Li  Li0  1  0.07783204  0.69520811  0.04347167  1
  Li  Li1  1  0.08141923  0.69634093  0.54243547  1
  Li  Li2  1  0.07561903  0.76153374  0.84592368  1
  Li  Li3  1  0.07774871  0.75871365  0.34934089  1
  Li  Li4  1  0.20830826  0.17401140  0.39073081  1
  Li  Li5  1  0.21100058  0.17399406  0.88868496  1
  Li  Li6  1  0.28966921  0.32437059  0.13899423  1
  Li  Li7  1  0.29148284  0.32727920  0.64032519  1
  Li  Li8  1  0.42649324  0.74151471  0.09809984  1
  Li  Li9  1  0.41992442  0.73802771  0.59710266  1
  Li  Li10  1  0.42128479  0.80340984  0.29467465  1
  Li  Li11  1  0.41868862  0.80484856  0.79111103  1
  Li  Li12  1  0.58040338  0.19869576  0.20898816  1
  Li  Li13  1  0.58187169  0.19634223  0.70780089  1
  Li  Li14  1  0.57871220  0.26362116  0.40262562  1
  Li  Li15  1  0.58240940  0.26284159  0.90277795  1
  Li  Li16  1  0.70850344  0.67196355  0.35984756  1
  Li  Li17  1  0.70652439  0.67126055  0.85836977  1
  Li  Li18  1  0.79350816  0.83008943  0.10906846  1
  Li  Li19  1  0.79104796  0.82732575  0.60888765  1
  Li  Li20  1  0.91992432  0.23628374  0.15213987  1
  Li  Li21  1  0.91918964  0.23780602  0.65289964  1
  Li  Li22  1  0.91836846  0.30367006  0.45803979  1
  Li  Li23  1  0.91993967  0.30147842  0.95846256  1
  Mn  Mn24  1  0.24783756  0.60137724  0.76887833  1
  Mn  Mn25  1  0.25123571  0.89888751  0.51898886  1
  Mn  Mn26  1  0.24941310  0.10842127  0.22961887  1
  Mn  Mn27  1  0.24787954  0.11008960  0.72785750  1
  Mn  Mn28  1  0.25132983  0.39144911  0.47865964  1
  Mn  Mn29  1  0.25159097  0.38983734  0.97843334  1
  Mn  Mn30  1  0.74729935  0.60942204  0.02119440  1
  Mn  Mn31  1  0.74771363  0.60919969  0.52149369  1
  Mn  Mn32  1  0.75269059  0.89053771  0.27176166  1
  Mn  Mn33  1  0.75216812  0.89097546  0.77057938  1
  Mn  Mn34  1  0.74931134  0.10138079  0.48110736  1
  Mn  Mn35  1  0.74884386  0.10037685  0.98112308  1
  Mn  Mn36  1  0.75100865  0.39920455  0.23145101  1
  Mn  Mn37  1  0.75147288  0.39931338  0.73048948  1
  V  V38  1  0.24741875  0.60685112  0.26626017  1
  V  V39  1  0.25277317  0.89260810  0.01595109  1
  P  P40  1  0.03540942  0.49299646  0.12515474  1
  P  P41  1  0.03832499  0.49613889  0.62685944  1
  P  P42  1  0.10434974  0.85428444  0.19333483  1
  P  P43  1  0.10251033  0.86133884  0.69200847  1
  P  P44  1  0.10252556  0.15168971  0.04832718  1
  P  P45  1  0.09976084  0.15706034  0.54864957  1
  P  P46  1  0.39697605  0.34751561  0.29857745  1
  P  P47  1  0.40110057  0.34404894  0.79844937  1
  P  P48  1  0.39491525  0.64453825  0.94234078  1
  P  P49  1  0.39683287  0.64023644  0.44300082  1
  P  P50  1  0.46283441  0.00486314  0.37745894  1
  P  P51  1  0.46508232  0.00590680  0.87502807  1
  P  P52  1  0.53935714  0.99681413  0.12435273  1
  P  P53  1  0.53787342  0.99636249  0.62265889  1
  P  P54  1  0.60306513  0.36100188  0.05792900  1
  P  P55  1  0.60312132  0.36071925  0.55790231  1
  P  P56  1  0.60493326  0.65790129  0.20032491  1
  P  P57  1  0.59895075  0.65691064  0.70118686  1
  P  P58  1  0.90008985  0.84317987  0.45161138  1
  P  P59  1  0.89580056  0.84192307  0.94993552  1
  P  P60  1  0.89751959  0.13888168  0.30771403  1
  P  P61  1  0.89773420  0.13885905  0.80795058  1
  P  P62  1  0.95966050  0.50390841  0.37394650  1
  P  P63  1  0.96124028  0.50289924  0.87315413  1
  O  O64  1  0.04766115  0.43368747  0.43243153  1
  O  O65  1  0.04893400  0.43115079  0.93099450  1
  O  O66  1  0.08287944  0.84907008  0.44752491  1
  O  O67  1  0.07741019  0.84860582  0.94578924  1
  O  O68  1  0.06835876  0.59510014  0.33987466  1
  O  O69  1  0.07157180  0.59498095  0.83965326  1
  O  O70  1  0.07491401  0.16429073  0.29575992  1
  O  O71  1  0.07460534  0.16555636  0.79643908  1
  O  O72  1  0.10199833  0.57411739  0.18428836  1
  O  O73  1  0.10035377  0.57838409  0.68697840  1
  O  O74  1  0.13942366  0.82386853  0.60802229  1
  O  O75  1  0.14125977  0.81993228  0.10920942  1
  O  O76  1  0.14336214  0.97613100  0.20277854  1
  O  O77  1  0.13286852  0.98519717  0.69611773  1
  O  O78  1  0.13950406  0.24826766  0.48744102  1
  O  O79  1  0.14443687  0.24219424  0.98663774  1
  O  O80  1  0.14994091  0.19216242  0.12866976  1
  O  O81  1  0.14849864  0.19686123  0.62903722  1
  O  O82  1  0.16746969  0.43274605  0.08717129  1
  O  O83  1  0.17185880  0.43779004  0.58872346  1
  O  O84  1  0.17338533  0.04696266  0.02294716  1
  O  O85  1  0.17202055  0.05446645  0.52076768  1
  O  O86  1  0.19555378  0.78607672  0.25247164  1
  O  O87  1  0.19639611  0.80088607  0.75259734  1
  O  O88  1  0.30427266  0.71310842  0.00155415  1
  O  O89  1  0.30195126  0.70020754  0.50369063  1
  O  O90  1  0.32910513  0.44685792  0.77113998  1
  O  O91  1  0.32636804  0.45217896  0.27300047  1
  O  O92  1  0.33060877  0.06476329  0.33970986  1
  O  O93  1  0.33176544  0.06452526  0.83706298  1
  O  O94  1  0.34858521  0.30615509  0.37874696  1
  O  O95  1  0.35254717  0.30531064  0.87919953  1
  O  O96  1  0.36675985  0.51617635  0.44731974  1
  O  O97  1  0.35628598  0.52266030  0.95188428  1
  O  O98  1  0.35912712  0.67770586  0.35947366  1
  O  O99  1  0.35784471  0.67853944  0.85788721  1
  O  O100  1  0.35586479  0.25700046  0.23697300  1
  O  O101  1  0.36053961  0.25300543  0.73727391  1
  O  O102  1  0.40006231  0.92465451  0.93466462  1
  O  O103  1  0.39958140  0.92229596  0.43701896  1
  O  O104  1  0.43011243  0.90562433  0.09083107  1
  O  O105  1  0.42765965  0.90442412  0.58904763  1
  O  O106  1  0.42341252  0.65180250  0.19608806  1
  O  O107  1  0.41610170  0.65109870  0.69737410  1
  O  O108  1  0.42616044  0.33465915  0.04585930  1
  O  O109  1  0.42638196  0.33448379  0.54684472  1
  O  O110  1  0.45169821  0.06852745  0.18280843  1
  O  O111  1  0.45007914  0.06663884  0.68120629  1
  O  O112  1  0.54964539  0.93445832  0.31874210  1
  O  O113  1  0.55182104  0.93590041  0.81617867  1
  O  O114  1  0.57367758  0.66640111  0.45430812  1
  O  O115  1  0.57220326  0.66689758  0.95325579  1
  O  O116  1  0.58007276  0.35134107  0.30195465  1
  O  O117  1  0.58376546  0.34898870  0.80207571  1
  O  O118  1  0.57344508  0.09646113  0.41116217  1
  O  O119  1  0.57414310  0.09709359  0.91002459  1
  O  O120  1  0.60084945  0.07895053  0.06368192  1
  O  O121  1  0.60012181  0.07893274  0.56285840  1
  O  O122  1  0.64080225  0.74865849  0.26256629  1
  O  O123  1  0.63757530  0.74848001  0.76213939  1
  O  O124  1  0.63850324  0.32421575  0.14214680  1
  O  O125  1  0.64121860  0.32304556  0.64191801  1
  O  O126  1  0.63180515  0.48505098  0.05326886  1
  O  O127  1  0.63346333  0.48466769  0.55458548  1
  O  O128  1  0.64849660  0.69638513  0.62085585  1
  O  O129  1  0.65558204  0.69825867  0.12034265  1
  O  O130  1  0.67488089  0.94091716  0.16290458  1
  O  O131  1  0.67117948  0.93779755  0.66054251  1
  O  O132  1  0.67788894  0.55573375  0.22840964  1
  O  O133  1  0.67150692  0.55467910  0.72963939  1
  O  O134  1  0.69743270  0.30070633  0.49710116  1
  O  O135  1  0.69875560  0.30047389  0.99791928  1
  O  O136  1  0.80296041  0.19956623  0.24749654  1
  O  O137  1  0.80288035  0.19888503  0.74756291  1
  O  O138  1  0.82743765  0.94544069  0.47977885  1
  O  O139  1  0.82229201  0.94365281  0.97890190  1
  O  O140  1  0.82387639  0.55983892  0.41233687  1
  O  O141  1  0.82793487  0.56141824  0.91152883  1
  O  O142  1  0.85081613  0.80329410  0.37131691  1
  O  O143  1  0.84540310  0.80191246  0.87006946  1
  O  O144  1  0.86041414  0.75084370  0.01196847  1
  O  O145  1  0.86127688  0.75156457  0.51271745  1
  O  O146  1  0.86738442  0.01507328  0.30384586  1
  O  O147  1  0.86820049  0.01487929  0.80405096  1
  O  O148  1  0.86184677  0.17640941  0.39183288  1
  O  O149  1  0.86098057  0.17613791  0.89215313  1
  O  O150  1  0.89839053  0.42105335  0.31363051  1
  O  O151  1  0.89870615  0.42150878  0.81281943  1
  O  O152  1  0.92686568  0.83230005  0.20442805  1
  O  O153  1  0.92540123  0.83504551  0.70335142  1
  O  O154  1  0.92568529  0.40220221  0.16024641  1
  O  O155  1  0.92869584  0.40405634  0.66084281  1
  O  O156  1  0.91951762  0.14796566  0.05148967  1
  O  O157  1  0.91693902  0.15142564  0.55251516  1
  O  O158  1  0.95051364  0.56636479  0.56869311  1
  O  O159  1  0.94937265  0.56323969  0.06635146  1
