# generated using pymatgen
data_Li9Mn2Co5O16
_symmetry_space_group_name_H-M   'P 1'
_cell_length_a   2.97496200
_cell_length_b   8.08552840
_cell_length_c   11.93126650
_cell_angle_alpha   90.65130932
_cell_angle_beta   94.25762692
_cell_angle_gamma   90.99671910
_symmetry_Int_Tables_number   1
_chemical_formula_structural   Li9Mn2Co5O16
_chemical_formula_sum   'Li9 Mn2 Co5 O16'
_cell_volume   286.13796378
_cell_formula_units_Z   1
loop_
 _symmetry_equiv_pos_site_id
 _symmetry_equiv_pos_as_xyz
  1  'x, y, z'
loop_
 _atom_site_type_symbol
 _atom_site_label
 _atom_site_symmetry_multiplicity
 _atom_site_fract_x
 _atom_site_fract_y
 _atom_site_fract_z
 _atom_site_occupancy
  Li  Li0  1  0.00720700  0.99369200  0.24968600  1
  Li  Li1  1  0.50733700  0.74556000  0.61877200  1
  Li  Li2  1  0.99867100  0.50049800  0.00031300  1
  Li  Li3  1  0.49672500  0.25399700  0.37578700  1
  Li  Li4  1  0.99608600  0.99891100  0.75308600  1
  Li  Li5  1  0.49400400  0.74482900  0.12608300  1
  Li  Li6  1  0.00067800  0.51015800  0.49668400  1
  Li  Li7  1  0.50002600  0.25341400  0.87385700  1
  Li  Li8  1  0.49098700  0.74497000  0.38081400  1
  Mn  Mn9  1  0.00067400  0.00003000  0.00068200  1
  Mn  Mn10  1  0.00253600  0.99314200  0.49717400  1
  Co  Co11  1  0.00163800  0.49981200  0.74936400  1
  Co  Co12  1  0.49658900  0.25244800  0.12680500  1
  Co  Co13  1  0.50329300  0.74822800  0.87350000  1
  Co  Co14  1  0.99525500  0.51032900  0.25471900  1
  Co  Co15  1  0.51125600  0.25249800  0.62320200  1
  O  O16  1  0.47113800  0.01234000  0.12552000  1
  O  O17  1  0.99272600  0.76714600  0.50280200  1
  O  O18  1  0.47293900  0.51093500  0.86825700  1
  O  O19  1  0.97217800  0.26928000  0.24329100  1
  O  O20  1  0.52710700  0.01094600  0.61043500  1
  O  O21  1  0.97288000  0.75841700  0.99350200  1
  O  O22  1  0.47240100  0.49853100  0.36431600  1
  O  O23  1  0.97515500  0.26054500  0.74322400  1
  O  O24  1  0.47496800  0.00079700  0.39058400  1
  O  O25  1  0.02766700  0.73749500  0.75704400  1
  O  O26  1  0.52391800  0.48688700  0.13173700  1
  O  O27  1  0.03096300  0.24019700  0.50835000  1
  O  O28  1  0.52772900  0.98889700  0.87613300  1
  O  O29  1  0.00481300  0.72462100  0.24616900  1
  O  O30  1  0.52410900  0.48845800  0.63227600  1
  O  O31  1  0.02634900  0.24199200  0.00582800  1
