# generated using pymatgen
data_LiTmO2
_symmetry_space_group_name_H-M   'P 1'
_cell_length_a   6.14683100
_cell_length_b   6.08292300
_cell_length_c   6.14190565
_cell_angle_alpha   61.28533738
_cell_angle_beta   90.00000000
_cell_angle_gamma   90.00000000
_symmetry_Int_Tables_number   1
_chemical_formula_structural   LiTmO2
_chemical_formula_sum   'Li4 Tm4 O8'
_cell_volume   201.40851848
_cell_formula_units_Z   4
loop_
 _symmetry_equiv_pos_site_id
 _symmetry_equiv_pos_as_xyz
  1  'x, y, z'
loop_
 _atom_site_type_symbol
 _atom_site_label
 _atom_site_symmetry_multiplicity
 _atom_site_fract_x
 _atom_site_fract_y
 _atom_site_fract_z
 _atom_site_occupancy
  Li  Li0  1  0.15095000  0.71587200  0.55261100  1
  Li  Li1  1  0.65095000  0.28412800  0.94738900  1
  Li  Li2  1  0.34905000  0.71587200  0.05261100  1
  Li  Li3  1  0.84905000  0.28412800  0.44738900  1
  Tm  Tm4  1  0.87037900  0.76300400  0.98296500  1
  Tm  Tm5  1  0.62962100  0.76300400  0.48296500  1
  Tm  Tm6  1  0.37037900  0.23699600  0.51703500  1
  Tm  Tm7  1  0.12962100  0.23699600  0.01703500  1
  O  O8  1  0.16314400  0.99595500  0.83152500  1
  O  O9  1  0.33685600  0.99595500  0.33152500  1
  O  O10  1  0.88991200  0.54444200  0.76411900  1
  O  O11  1  0.38991200  0.45555800  0.73588100  1
  O  O12  1  0.61008800  0.54444200  0.26411900  1
  O  O13  1  0.11008800  0.45555800  0.23588100  1
  O  O14  1  0.66314400  0.00404500  0.66847500  1
  O  O15  1  0.83685600  0.00404500  0.16847500  1
