# generated using pymatgen
data_Li4V3P8O29
_symmetry_space_group_name_H-M   'P 1'
_cell_length_a   9.74315413
_cell_length_b   9.74315413
_cell_length_c   14.21503700
_cell_angle_alpha   89.94735393
_cell_angle_beta   89.94735393
_cell_angle_gamma   60.01237150
_symmetry_Int_Tables_number   1
_chemical_formula_structural   Li4V3P8O29
_chemical_formula_sum   'Li8 V6 P16 O58'
_cell_volume   1168.77699530
_cell_formula_units_Z   2
loop_
 _symmetry_equiv_pos_site_id
 _symmetry_equiv_pos_as_xyz
  1  'x, y, z'
loop_
 _atom_site_type_symbol
 _atom_site_label
 _atom_site_symmetry_multiplicity
 _atom_site_fract_x
 _atom_site_fract_y
 _atom_site_fract_z
 _atom_site_occupancy
  Li  Li0  1  0.89680300  0.34084900  0.44453800  1
  Li  Li1  1  0.34084900  0.89680300  0.94453800  1
  Li  Li2  1  0.90968700  0.76825000  0.94098600  1
  Li  Li3  1  0.76825000  0.90968700  0.44098600  1
  Li  Li4  1  0.67094600  0.09665100  0.05715400  1
  Li  Li5  1  0.09665100  0.67094600  0.55715400  1
  Li  Li6  1  0.01490000  0.04013200  0.00876800  1
  Li  Li7  1  0.04013200  0.01490000  0.50876800  1
  V  V8  1  0.43142500  0.00130500  0.74225100  1
  V  V9  1  0.56106800  0.00083000  0.25641200  1
  V  V10  1  0.00130500  0.43142500  0.24225100  1
  V  V11  1  0.00083000  0.56106800  0.75641200  1
  V  V12  1  0.56467000  0.43495800  0.75125800  1
  V  V13  1  0.43495800  0.56467000  0.25125800  1
  P  P14  1  0.77668100  0.30288100  0.15833100  1
  P  P15  1  0.91069500  0.31359100  0.65803800  1
  P  P16  1  0.30288100  0.77668100  0.65833100  1
  P  P17  1  0.65890000  0.67328200  0.86744300  1
  P  P18  1  0.67328200  0.65890000  0.36744300  1
  P  P19  1  0.31359100  0.91069500  0.15803800  1
  P  P20  1  0.21607100  0.08611500  0.33854000  1
  P  P21  1  0.90857400  0.77832100  0.15826500  1
  P  P22  1  0.08611500  0.21607100  0.83854000  1
  P  P23  1  0.77832100  0.90857400  0.65826500  1
  P  P24  1  0.68377400  0.08877100  0.83753200  1
  P  P25  1  0.33378000  0.33748600  0.63271500  1
  P  P26  1  0.33748600  0.33378000  0.13271500  1
  P  P27  1  0.69475500  0.22329500  0.34386200  1
  P  P28  1  0.08877100  0.68377400  0.33753200  1
  P  P29  1  0.22329500  0.69475500  0.84386200  1
  O  O30  1  0.79424200  0.21623500  0.42514800  1
  O  O31  1  0.73895000  0.34280000  0.67161400  1
  O  O32  1  0.00474700  0.19928900  0.92205200  1
  O  O33  1  0.91485200  0.34003900  0.16385200  1
  O  O34  1  0.61722100  0.45873600  0.16907700  1
  O  O35  1  0.66352500  0.52518500  0.82013800  1
  O  O36  1  0.45873600  0.61722100  0.66907700  1
  O  O37  1  0.21623500  0.79424200  0.92514800  1
  O  O38  1  0.34280000  0.73895000  0.17161400  1
  O  O39  1  0.81955600  0.50993700  0.32067800  1
  O  O40  1  0.91015400  0.46909100  0.67280100  1
  O  O41  1  0.52518500  0.66352500  0.32013800  1
  O  O42  1  0.63858900  0.68495800  0.97152700  1
  O  O43  1  0.68495800  0.63858900  0.47152700  1
  O  O44  1  0.50993700  0.81955600  0.82067800  1
  O  O45  1  0.90774100  0.62023400  0.17288900  1
  O  O46  1  0.81070300  0.67751000  0.83493300  1
  O  O47  1  0.34003900  0.91485200  0.66385200  1
  O  O48  1  0.19602400  0.01029900  0.24238700  1
  O  O49  1  0.19928900  0.00474700  0.42205200  1
  O  O50  1  0.23158700  0.97882300  0.06675200  1
  O  O51  1  0.46909100  0.91015400  0.17280100  1
  O  O52  1  0.67751000  0.81070300  0.33493300  1
  O  O53  1  0.26209200  0.07921700  0.83422600  1
  O  O54  1  0.62023400  0.90774100  0.67288900  1
  O  O55  1  0.92059800  0.73776000  0.66748800  1
  O  O56  1  0.01029900  0.19602400  0.74238700  1
  O  O57  1  0.97882300  0.23158700  0.56675200  1
  O  O58  1  0.00346900  0.76674100  0.42635700  1
  O  O59  1  0.07921700  0.26209200  0.33422600  1
  O  O60  1  0.37701400  0.08359800  0.32884700  1
  O  O61  1  0.73776000  0.92059800  0.16748800  1
  O  O62  1  0.33331400  0.18541300  0.67464600  1
  O  O63  1  0.52753900  0.08810400  0.82160500  1
  O  O64  1  0.76674100  0.00346900  0.92635700  1
  O  O65  1  0.78540500  0.98031700  0.56738900  1
  O  O66  1  0.79416000  0.00218500  0.74723500  1
  O  O67  1  0.66162900  0.08309900  0.34412100  1
  O  O68  1  0.18541300  0.33331400  0.17464600  1
  O  O69  1  0.08359800  0.37701400  0.82884700  1
  O  O70  1  0.48678800  0.18652800  0.17305300  1
  O  O71  1  0.33630500  0.34072900  0.02845600  1
  O  O72  1  0.34072900  0.33630500  0.52845600  1
  O  O73  1  0.48080400  0.33204300  0.68288500  1
  O  O74  1  0.08810400  0.52753900  0.32160500  1
  O  O75  1  0.18652800  0.48678800  0.67305300  1
  O  O76  1  0.65514500  0.25945300  0.83595300  1
  O  O77  1  0.79740500  0.19761400  0.24949300  1
  O  O78  1  0.79541900  0.20181100  0.07469800  1
  O  O79  1  0.53783700  0.38168600  0.32916700  1
  O  O80  1  0.33204300  0.48080400  0.18288500  1
  O  O81  1  0.38168600  0.53783700  0.82916700  1
  O  O82  1  0.08309900  0.66162900  0.84412100  1
  O  O83  1  0.98031700  0.78540500  0.06738900  1
  O  O84  1  0.00218500  0.79416000  0.24723500  1
  O  O85  1  0.25945300  0.65514500  0.33595300  1
  O  O86  1  0.20181100  0.79541900  0.57469800  1
  O  O87  1  0.19761400  0.79740500  0.74949300  1
