# generated using pymatgen
data_Li3Mn2(SiO4)2
_symmetry_space_group_name_H-M   'P 1'
_cell_length_a   6.59436337
_cell_length_b   7.67824475
_cell_length_c   7.16770991
_cell_angle_alpha   90.81645356
_cell_angle_beta   92.42225973
_cell_angle_gamma   88.51466173
_symmetry_Int_Tables_number   1
_chemical_formula_structural   Li3Mn2(SiO4)2
_chemical_formula_sum   'Li6 Mn4 Si4 O16'
_cell_volume   362.44607943
_cell_formula_units_Z   2
loop_
 _symmetry_equiv_pos_site_id
 _symmetry_equiv_pos_as_xyz
  1  'x, y, z'
loop_
 _atom_site_type_symbol
 _atom_site_label
 _atom_site_symmetry_multiplicity
 _atom_site_fract_x
 _atom_site_fract_y
 _atom_site_fract_z
 _atom_site_occupancy
  Li  Li0  1  0.99630700  0.49229700  0.81012800  1
  Li  Li1  1  0.99519400  0.99166100  0.30996400  1
  Li  Li2  1  0.75468000  0.19173000  0.00001100  1
  Li  Li3  1  0.75472600  0.69184400  0.50007200  1
  Li  Li4  1  0.24759500  0.81114200  0.00162700  1
  Li  Li5  1  0.24785400  0.31208500  0.50166400  1
  Mn  Mn6  1  0.26628500  0.68988000  0.50163900  1
  Mn  Mn7  1  0.73309300  0.82101300  0.98038200  1
  Mn  Mn8  1  0.26606600  0.18938900  0.00203300  1
  Mn  Mn9  1  0.73364800  0.32093500  0.48094300  1
  Si  Si10  1  0.00331500  0.49870400  0.17694400  1
  Si  Si11  1  0.00474200  0.99869400  0.67732700  1
  Si  Si12  1  0.49962300  0.49465300  0.83289400  1
  Si  Si13  1  0.49884300  0.99454100  0.33266300  1
  O  O14  1  0.21152600  0.49621100  0.30408700  1
  O  O15  1  0.21361700  0.99564300  0.80355700  1
  O  O16  1  0.81393500  0.49782700  0.32190000  1
  O  O17  1  0.81598600  0.99804200  0.82298100  1
  O  O18  1  0.99505700  0.33230200  0.03002700  1
  O  O19  1  0.99513300  0.83260400  0.53007700  1
  O  O20  1  0.97751700  0.67462100  0.03836900  1
  O  O21  1  0.97866000  0.17498400  0.53911600  1
  O  O22  1  0.51775400  0.32213600  0.95857600  1
  O  O23  1  0.51807000  0.82298300  0.45978800  1
  O  O24  1  0.50720000  0.67745200  0.96286500  1
  O  O25  1  0.50684300  0.17829100  0.46085200  1
  O  O26  1  0.27972300  0.50060200  0.71288200  1
  O  O27  1  0.27864800  0.99935800  0.21293500  1
  O  O28  1  0.69481700  0.49946300  0.68992300  1
  O  O29  1  0.69354200  0.99891100  0.18917000  1
