# generated using pymatgen
data_Li4Ti4Fe5O18
_symmetry_space_group_name_H-M   'P 1'
_cell_length_a   9.26965212
_cell_length_b   25.11248187
_cell_length_c   2.94053286
_cell_angle_alpha   90.13913647
_cell_angle_beta   89.66538096
_cell_angle_gamma   89.70438058
_symmetry_Int_Tables_number   1
_chemical_formula_structural   Li4Ti4Fe5O18
_chemical_formula_sum   'Li8 Ti8 Fe10 O36'
_cell_volume   684.48606215
_cell_formula_units_Z   2
loop_
 _symmetry_equiv_pos_site_id
 _symmetry_equiv_pos_as_xyz
  1  'x, y, z'
loop_
 _atom_site_type_symbol
 _atom_site_label
 _atom_site_symmetry_multiplicity
 _atom_site_fract_x
 _atom_site_fract_y
 _atom_site_fract_z
 _atom_site_occupancy
  Li  Li0  1  0.20187500  0.98305200  0.99935300  1
  Li  Li1  1  0.19482400  0.18062700  0.99945800  1
  Li  Li2  1  0.31063800  0.68219200  0.99968600  1
  Li  Li3  1  0.30002900  0.49365200  0.99661000  1
  Li  Li4  1  0.69388600  0.51002100  0.00217900  1
  Li  Li5  1  0.69149900  0.31949600  0.00093300  1
  Li  Li6  1  0.80197700  0.82039500  0.00550100  1
  Li  Li7  1  0.79807100  0.01284000  0.99954100  1
  Ti  Ti8  1  0.99577300  0.09903100  0.00093500  1
  Ti  Ti9  1  0.16243000  0.80746700  0.50271600  1
  Ti  Ti10  1  0.33228300  0.31107600  0.50130300  1
  Ti  Ti11  1  0.50813600  0.59788800  0.00049200  1
  Ti  Ti12  1  0.49097400  0.40132400  0.00055000  1
  Ti  Ti13  1  0.66934200  0.68865000  0.49960600  1
  Ti  Ti14  1  0.83892600  0.19239500  0.50120200  1
  Ti  Ti15  1  0.00431900  0.90006600  0.00366000  1
  Fe  Fe16  1  0.00052600  0.50314000  0.00016000  1
  Fe  Fe17  1  0.98829000  0.31237400  0.00028200  1
  Fe  Fe18  1  0.15850100  0.58612300  0.50008100  1
  Fe  Fe19  1  0.34705800  0.08451100  0.49560900  1
  Fe  Fe20  1  0.50686200  0.80555400  0.99755600  1
  Fe  Fe21  1  0.50014100  0.99900200  0.98583700  1
  Fe  Fe22  1  0.49400800  0.19425900  0.00147700  1
  Fe  Fe23  1  0.65529400  0.91542300  0.50685900  1
  Fe  Fe24  1  0.84007100  0.41493500  0.50088600  1
  Fe  Fe25  1  0.01186100  0.68846400  0.99993300  1
  O  O26  1  0.97420800  0.41547400  0.00399600  1
  O  O27  1  0.01257800  0.58217600  0.00179900  1
  O  O28  1  0.06784900  0.94380100  0.51055400  1
  O  O29  1  0.03941300  0.15606100  0.49724500  1
  O  O30  1  0.14948400  0.66570500  0.49901300  1
  O  O31  1  0.10622700  0.75966300  0.00360600  1
  O  O32  1  0.14718600  0.50212600  0.49905200  1
  O  O33  1  0.12827600  0.29906000  0.49948200  1
  O  O34  1  0.18871600  0.85784100  0.00566900  1
  O  O35  1  0.19434100  0.08062600  0.99755800  1
  O  O36  1  0.31007100  0.57926700  0.99944400  1
  O  O37  1  0.30891500  0.36203800  0.00211000  1
  O  O38  1  0.36634300  0.79106100  0.50019100  1
  O  O39  1  0.36049400  0.00124500  0.49002200  1
  O  O40  1  0.38349700  0.26194400  0.99987400  1
  O  O41  1  0.36651300  0.16476800  0.50128300  1
  O  O42  1  0.46621400  0.65430400  0.50176600  1
  O  O43  1  0.44009800  0.44529800  0.50175800  1
  O  O44  1  0.48961000  0.07469400  0.99310300  1
  O  O45  1  0.51276300  0.92417100  0.97135300  1
  O  O46  1  0.56951500  0.55402500  0.49824100  1
  O  O47  1  0.53531100  0.34502800  0.49750900  1
  O  O48  1  0.63151700  0.83671300  0.49686000  1
  O  O49  1  0.61734700  0.73914200  0.00057200  1
  O  O50  1  0.64080900  0.99656200  0.48863800  1
  O  O51  1  0.63266500  0.20885000  0.50084800  1
  O  O52  1  0.69321100  0.63936600  0.99810800  1
  O  O53  1  0.70043200  0.41771700  0.99623700  1
  O  O54  1  0.80391200  0.91879700  0.02669700  1
  O  O55  1  0.81115200  0.14343400  0.00056500  1
  O  O56  1  0.87257600  0.70198900  0.50094000  1
  O  O57  1  0.84698900  0.49181800  0.50167100  1
  O  O58  1  0.89196400  0.24236100  0.00014200  1
  O  O59  1  0.85191200  0.33760900  0.49987700  1
  O  O60  1  0.95991000  0.84455000  0.51244600  1
  O  O61  1  0.93038500  0.05676300  0.49937400  1
