# generated using pymatgen
data_Li2TiVO4
_symmetry_space_group_name_H-M   'P 1'
_cell_length_a   5.83971393
_cell_length_b   7.82588610
_cell_length_c   7.82791753
_cell_angle_alpha   113.14812688
_cell_angle_beta   111.94181914
_cell_angle_gamma   68.08424877
_symmetry_Int_Tables_number   1
_chemical_formula_structural   Li2TiVO4
_chemical_formula_sum   'Li8 Ti4 V4 O16'
_cell_volume   294.17309117
_cell_formula_units_Z   4
loop_
 _symmetry_equiv_pos_site_id
 _symmetry_equiv_pos_as_xyz
  1  'x, y, z'
loop_
 _atom_site_type_symbol
 _atom_site_label
 _atom_site_symmetry_multiplicity
 _atom_site_fract_x
 _atom_site_fract_y
 _atom_site_fract_z
 _atom_site_occupancy
  Li  Li0  1  0.87917000  0.12103500  0.37277600  1
  Li  Li1  1  0.12807000  0.37713000  0.12556000  1
  Li  Li2  1  0.62014600  0.87458500  0.62265200  1
  Li  Li3  1  0.37250600  0.62728800  0.87885100  1
  Li  Li4  1  0.25001600  0.75005500  0.25017600  1
  Li  Li5  1  0.49922500  0.00074900  0.99926100  1
  Li  Li6  1  0.00131600  0.49882300  0.50124500  1
  Li  Li7  1  0.74964700  0.25025000  0.74957000  1
  Ti  Ti8  1  0.37806100  0.12156800  0.36892100  1
  Ti  Ti9  1  0.63000100  0.37951600  0.13111600  1
  Ti  Ti10  1  0.12138300  0.86901200  0.62029200  1
  Ti  Ti11  1  0.86930300  0.63113500  0.87840800  1
  V  V12  1  0.25052200  0.24943200  0.75034100  1
  V  V13  1  0.50290100  0.49704400  0.50308800  1
  V  V14  1  0.99521600  0.00468400  0.99505200  1
  V  V15  1  0.75181400  0.74843700  0.25193900  1
  O  O16  1  0.37204200  0.35063500  0.60888700  1
  O  O17  1  0.62432000  0.60728200  0.35977900  1
  O  O18  1  0.12813300  0.11082400  0.85256400  1
  O  O19  1  0.87597600  0.85573100  0.10437800  1
  O  O20  1  0.37258500  0.89584800  0.14437400  1
  O  O21  1  0.61365500  0.14742000  0.88922900  1
  O  O22  1  0.12806500  0.64030800  0.39266700  1
  O  O23  1  0.88619000  0.39081900  0.64917400  1
  O  O24  1  0.24900900  0.00405500  0.50403400  1
  O  O25  1  0.50339200  0.25100900  0.25370300  1
  O  O26  1  0.99698200  0.75305900  0.75093700  1
  O  O27  1  0.74985100  0.50373400  0.00282600  1
  O  O28  1  0.00099800  0.24899200  0.24697400  1
  O  O29  1  0.25093000  0.49590900  0.99578900  1
  O  O30  1  0.74933300  0.99733300  0.49650300  1
  O  O31  1  0.49924400  0.74629700  0.74893600  1
