# generated using pymatgen
data_Li8MnFe7(BO3)8
_symmetry_space_group_name_H-M   'P 1'
_cell_length_a   5.21371700
_cell_length_b   9.06145708
_cell_length_c   11.46525405
_cell_angle_alpha   111.85051995
_cell_angle_beta   102.51106087
_cell_angle_gamma   89.87352052
_symmetry_Int_Tables_number   1
_chemical_formula_structural   Li8MnFe7(BO3)8
_chemical_formula_sum   'Li8 Mn1 Fe7 B8 O24'
_cell_volume   488.96920722
_cell_formula_units_Z   1
loop_
 _symmetry_equiv_pos_site_id
 _symmetry_equiv_pos_as_xyz
  1  'x, y, z'
loop_
 _atom_site_type_symbol
 _atom_site_label
 _atom_site_symmetry_multiplicity
 _atom_site_fract_x
 _atom_site_fract_y
 _atom_site_fract_z
 _atom_site_occupancy
  Li  Li0  1  0.03038900  0.03901600  0.41647100  1
  Li  Li1  1  0.29548500  0.28524500  0.91664800  1
  Li  Li2  1  0.48274500  0.50744700  0.66799700  1
  Li  Li3  1  0.27140800  0.24374700  0.16741700  1
  Li  Li4  1  0.52908900  0.54057800  0.41695100  1
  Li  Li5  1  0.79659900  0.78464900  0.91659100  1
  Li  Li6  1  0.98136200  0.00635300  0.66704800  1
  Li  Li7  1  0.76901900  0.74413800  0.16686400  1
  Mn  Mn8  1  0.02173300  0.35526900  0.38348500  1
  Fe  Fe9  1  0.26833200  0.94277000  0.88373400  1
  Fe  Fe10  1  0.46986800  0.15592700  0.63131100  1
  Fe  Fe11  1  0.24923400  0.56406000  0.13185500  1
  Fe  Fe12  1  0.53006400  0.85556400  0.38356200  1
  Fe  Fe13  1  0.76674100  0.44110000  0.88280900  1
  Fe  Fe14  1  0.74952700  0.06373500  0.13195600  1
  Fe  Fe15  1  0.97002700  0.65636800  0.63266500  1
  B  B16  1  0.02428500  0.68691000  0.37651700  1
  B  B17  1  0.26598900  0.60424200  0.87600400  1
  B  B18  1  0.23560600  0.89348500  0.12587300  1
  B  B19  1  0.47206800  0.81570700  0.62644400  1
  B  B20  1  0.52434000  0.18300300  0.37505800  1
  B  B21  1  0.76521800  0.10399500  0.87588000  1
  B  B22  1  0.73524400  0.39370600  0.12535000  1
  B  B23  1  0.97267700  0.31523900  0.62768700  1
  O  O24  1  0.02398500  0.10742100  0.86292900  1
  O  O25  1  0.10224300  0.71309300  0.84517200  1
  O  O26  1  0.17123900  0.49264100  0.91677700  1
  O  O27  1  0.07886500  0.17013700  0.61333500  1
  O  O28  1  0.10313800  0.42765000  0.59906400  1
  O  O29  1  0.23690800  0.84634800  0.66606700  1
  O  O30  1  0.26924500  0.65767500  0.34568100  1
  O  O31  1  0.52529900  0.60758300  0.86340900  1
  O  O32  1  0.60159800  0.21340800  0.84595900  1
  O  O33  1  0.40126100  0.08209700  0.41700500  1
  O  O34  1  0.40686200  0.31514500  0.36198400  1
  O  O35  1  0.67075600  0.99174300  0.91607900  1
  O  O36  1  0.33912000  0.01329800  0.09565600  1
  O  O37  1  0.57906900  0.67074400  0.61312300  1
  O  O38  1  0.60141200  0.92732200  0.59666100  1
  O  O39  1  0.39942300  0.79154200  0.16609500  1
  O  O40  1  0.46434300  0.37477400  0.11234700  1
  O  O41  1  0.73643200  0.34556500  0.66627400  1
  O  O42  1  0.76951100  0.15076800  0.34403100  1
  O  O43  1  0.90191100  0.58581700  0.41824200  1
  O  O44  1  0.90030100  0.81712600  0.36251200  1
  O  O45  1  0.83937700  0.51410200  0.09635300  1
  O  O46  1  0.89947600  0.29080200  0.16449700  1
  O  O47  1  0.96437900  0.87415100  0.11217600  1
