# generated using pymatgen
data_Li9Mn2Co5O16
_symmetry_space_group_name_H-M   'P 1'
_cell_length_a   5.06705900
_cell_length_b   5.13626686
_cell_length_c   11.17906717
_cell_angle_alpha   86.26395018
_cell_angle_beta   80.68177525
_cell_angle_gamma   82.31323539
_symmetry_Int_Tables_number   1
_chemical_formula_structural   Li9Mn2Co5O16
_chemical_formula_sum   'Li9 Mn2 Co5 O16'
_cell_volume   284.24304451
_cell_formula_units_Z   1
loop_
 _symmetry_equiv_pos_site_id
 _symmetry_equiv_pos_as_xyz
  1  'x, y, z'
loop_
 _atom_site_type_symbol
 _atom_site_label
 _atom_site_symmetry_multiplicity
 _atom_site_fract_x
 _atom_site_fract_y
 _atom_site_fract_z
 _atom_site_occupancy
  Li  Li0  1  0.43896400  0.23830500  0.06299500  1
  Li  Li1  1  0.55382900  0.76972100  0.93215700  1
  Li  Li2  1  0.31181000  0.75443300  0.18790200  1
  Li  Li3  1  0.18542700  0.24315600  0.31357900  1
  Li  Li4  1  0.06661600  0.75290700  0.44148200  1
  Li  Li5  1  0.93960700  0.25647900  0.56524800  1
  Li  Li6  1  0.81824100  0.74752900  0.69030200  1
  Li  Li7  1  0.67579100  0.23724400  0.80971400  1
  Li  Li8  1  0.24976700  0.00186200  0.74967100  1
  Mn  Mn9  1  0.00103000  0.00126400  0.99712300  1
  Mn  Mn10  1  0.62166000  0.49911000  0.37729400  1
  Co  Co11  1  0.13554500  0.50515500  0.86674200  1
  Co  Co12  1  0.37688200  0.49668000  0.62384200  1
  Co  Co13  1  0.49796000  0.99893200  0.50400000  1
  Co  Co14  1  0.74971700  0.99818400  0.25081600  1
  Co  Co15  1  0.87485500  0.49975300  0.12495000  1
  O  O16  1  0.67456500  0.88347000  0.09448100  1
  O  O17  1  0.81187500  0.35705300  0.97558800  1
  O  O18  1  0.55443400  0.37810600  0.21975200  1
  O  O19  1  0.41772700  0.89273700  0.34931400  1
  O  O20  1  0.29304500  0.39212000  0.47240200  1
  O  O21  1  0.20134000  0.85005700  0.59311300  1
  O  O22  1  0.05972000  0.39627700  0.71091600  1
  O  O23  1  0.90964000  0.87341500  0.85438000  1
  O  O24  1  0.18375600  0.64752400  0.03055600  1
  O  O25  1  0.31619200  0.12879400  0.91253600  1
  O  O26  1  0.07987000  0.11542600  0.15218800  1
  O  O27  1  0.94792700  0.61913600  0.27620100  1
  O  O28  1  0.82361400  0.10471700  0.40881000  1
  O  O29  1  0.69934700  0.60760500  0.53136300  1
  O  O30  1  0.56974300  0.15224400  0.64457200  1
  O  O31  1  0.45950300  0.60060500  0.77601000  1
