# generated using pymatgen
data_Li7Mn3P3(CO7)3
_symmetry_space_group_name_H-M   'P 1'
_cell_length_a   19.53757900
_cell_length_b   5.06423700
_cell_length_c   8.44386145
_cell_angle_alpha   85.34660469
_cell_angle_beta   90.00000000
_cell_angle_gamma   90.00000000
_symmetry_Int_Tables_number   1
_chemical_formula_structural   Li7Mn3P3(CO7)3
_chemical_formula_sum   'Li14 Mn6 P6 C6 O42'
_cell_volume   832.70647317
_cell_formula_units_Z   2
loop_
 _symmetry_equiv_pos_site_id
 _symmetry_equiv_pos_as_xyz
  1  'x, y, z'
loop_
 _atom_site_type_symbol
 _atom_site_label
 _atom_site_symmetry_multiplicity
 _atom_site_fract_x
 _atom_site_fract_y
 _atom_site_fract_z
 _atom_site_occupancy
  Li  Li0  1  0.75000000  0.76335000  0.09163100  1
  Li  Li1  1  0.34110000  0.24474600  0.26180900  1
  Li  Li2  1  0.67287100  0.24772200  0.26353700  1
  Li  Li3  1  0.00423700  0.23736100  0.25074200  1
  Li  Li4  1  0.82712900  0.24772200  0.26353700  1
  Li  Li5  1  0.15890000  0.24474600  0.26180900  1
  Li  Li6  1  0.49576300  0.23736100  0.25074200  1
  Li  Li7  1  0.99576300  0.76263900  0.74925800  1
  Li  Li8  1  0.65890000  0.75525400  0.73819100  1
  Li  Li9  1  0.50423700  0.76263900  0.74925800  1
  Li  Li10  1  0.32712900  0.75227800  0.73646300  1
  Li  Li11  1  0.84110000  0.75525400  0.73819100  1
  Li  Li12  1  0.17287100  0.75227800  0.73646300  1
  Li  Li13  1  0.25000000  0.23665000  0.90836900  1
  Mn  Mn14  1  0.58321200  0.77676200  0.33871400  1
  Mn  Mn15  1  0.25000000  0.78233100  0.34099300  1
  Mn  Mn16  1  0.91678800  0.77676200  0.33871400  1
  Mn  Mn17  1  0.41678800  0.22323800  0.66128600  1
  Mn  Mn18  1  0.08321200  0.22323800  0.66128600  1
  Mn  Mn19  1  0.75000000  0.21766900  0.65900700  1
  P  P20  1  0.41631500  0.72798500  0.42051000  1
  P  P21  1  0.75000000  0.71756400  0.41317400  1
  P  P22  1  0.08368500  0.72798500  0.42051000  1
  P  P23  1  0.58368500  0.27201500  0.57949000  1
  P  P24  1  0.25000000  0.28243600  0.58682600  1
  P  P25  1  0.91631500  0.27201500  0.57949000  1
  C  C26  1  0.91787900  0.70179500  0.04764100  1
  C  C27  1  0.58212100  0.70179500  0.04764100  1
  C  C28  1  0.25000000  0.70013400  0.03552900  1
  C  C29  1  0.41787900  0.29820500  0.95235900  1
  C  C30  1  0.75000000  0.29986600  0.96447100  1
  C  C31  1  0.08212100  0.29820500  0.95235900  1
  O  O32  1  0.58183200  0.93092100  0.11329900  1
  O  O33  1  0.91816800  0.93092100  0.11329900  1
  O  O34  1  0.25000000  0.94361300  0.07076400  1
  O  O35  1  0.41709200  0.30967200  0.10099900  1
  O  O36  1  0.75000000  0.36134100  0.11118800  1
  O  O37  1  0.08290800  0.30967200  0.10099900  1
  O  O38  1  0.58272700  0.49732800  0.15211300  1
  O  O39  1  0.91727300  0.49732800  0.15211300  1
  O  O40  1  0.25000000  0.50949600  0.14957000  1
  O  O41  1  0.35474800  0.83433600  0.32305400  1
  O  O42  1  0.48103000  0.82458700  0.32878200  1
  O  O43  1  0.14525200  0.83433600  0.32305400  1
  O  O44  1  0.68801300  0.82608800  0.31063800  1
  O  O45  1  0.81198700  0.82608800  0.31063800  1
  O  O46  1  0.01897000  0.82458700  0.32878200  1
  O  O47  1  0.58455800  0.17671700  0.40936400  1
  O  O48  1  0.91544200  0.17671700  0.40936400  1
  O  O49  1  0.25000000  0.18828200  0.41808900  1
  O  O50  1  0.41480400  0.41297300  0.44186500  1
  O  O51  1  0.75000000  0.40982300  0.42380200  1
  O  O52  1  0.08519600  0.41297300  0.44186500  1
  O  O53  1  0.91480400  0.58702700  0.55813500  1
  O  O54  1  0.25000000  0.59017700  0.57619800  1
  O  O55  1  0.58519600  0.58702700  0.55813500  1
  O  O56  1  0.08455800  0.82328300  0.59063600  1
  O  O57  1  0.41544200  0.82328300  0.59063600  1
  O  O58  1  0.75000000  0.81171800  0.58191100  1
  O  O59  1  0.85474800  0.16566400  0.67694600  1
  O  O60  1  0.31198700  0.17391200  0.68936200  1
  O  O61  1  0.64525200  0.16566400  0.67694600  1
  O  O62  1  0.18801300  0.17391200  0.68936200  1
  O  O63  1  0.51897000  0.17541300  0.67121800  1
  O  O64  1  0.98103000  0.17541300  0.67121800  1
  O  O65  1  0.08272700  0.50267200  0.84788700  1
  O  O66  1  0.41727300  0.50267200  0.84788700  1
  O  O67  1  0.75000000  0.49050400  0.85043000  1
  O  O68  1  0.58290800  0.69032800  0.89900100  1
  O  O69  1  0.91709200  0.69032800  0.89900100  1
  O  O70  1  0.25000000  0.63865900  0.88881200  1
  O  O71  1  0.41816800  0.06907900  0.88670100  1
  O  O72  1  0.75000000  0.05638700  0.92923600  1
  O  O73  1  0.08183200  0.06907900  0.88670100  1
