# generated using pymatgen
data_Li9Mn7O16
_symmetry_space_group_name_H-M   'P 1'
_cell_length_a   5.75789823
_cell_length_b   9.90797568
_cell_length_c   6.07152937
_cell_angle_alpha   86.06671415
_cell_angle_beta   61.69714033
_cell_angle_gamma   98.35371137
_symmetry_Int_Tables_number   1
_chemical_formula_structural   Li9Mn7O16
_chemical_formula_sum   'Li9 Mn7 O16'
_cell_volume   297.95047047
_cell_formula_units_Z   1
loop_
 _symmetry_equiv_pos_site_id
 _symmetry_equiv_pos_as_xyz
  1  'x, y, z'
loop_
 _atom_site_type_symbol
 _atom_site_label
 _atom_site_symmetry_multiplicity
 _atom_site_fract_x
 _atom_site_fract_y
 _atom_site_fract_z
 _atom_site_occupancy
  Li  Li0  1  0.74275413  0.23953956  0.13434371  1
  Li  Li1  1  0.74524233  0.74980069  0.37224356  1
  Li  Li2  1  0.74261242  0.25022322  0.62767547  1
  Li  Li3  1  0.25475767  0.25019931  0.62775644  1
  Li  Li4  1  0.25724587  0.76046044  0.86565629  1
  Li  Li5  1  0.25088571  0.24285363  0.11951373  1
  Li  Li6  1  0.74911429  0.75714637  0.88048627  1
  Li  Li7  1  0.25738758  0.74977678  0.37232453  1
  Li  Li8  1  0.50000000  0.00000000  0.50000000  1
  Mn  Mn9  1  0.00000000  -0.00000000  -0.00000000  1
  Mn  Mn10  1  -0.00000000  -0.00000000  0.50000000  1
  Mn  Mn11  1  -0.00019149  0.49811917  0.24985246  1
  Mn  Mn12  1  0.00019149  0.50188083  0.75014754  1
  Mn  Mn13  1  0.50062388  0.50297019  0.75069043  1
  Mn  Mn14  1  0.50000000  -0.00000000  -0.00000000  1
  Mn  Mn15  1  0.49937612  0.49702981  0.24930957  1
  O  O16  1  0.85959995  0.11796377  0.83980785  1
  O  O17  1  0.85865707  0.61581895  0.08944524  1
  O  O18  1  0.89401478  0.10333084  0.28615651  1
  O  O19  1  0.37144970  0.10332964  0.28618643  1
  O  O20  1  0.36220515  0.62170541  0.58618110  1
  O  O21  1  0.36290403  0.11382913  0.83108613  1
  O  O22  1  0.86280546  0.62055206  0.58499687  1
  O  O23  1  0.36001922  0.61613516  0.08917504  1
  O  O24  1  0.63779485  0.37829459  0.41381890  1
  O  O25  1  0.62855030  0.89667036  0.71381357  1
  O  O26  1  0.63998078  0.38386484  0.91082496  1
  O  O27  1  0.14134293  0.38418105  0.91055476  1
  O  O28  1  0.14040005  0.88203623  0.16019215  1
  O  O29  1  0.13719454  0.37944794  0.41500313  1
  O  O30  1  0.63709597  0.88617087  0.16891387  1
  O  O31  1  0.10598522  0.89666916  0.71384349  1
