# generated using pymatgen
data_Li6Zn3(PS4)4
_symmetry_space_group_name_H-M   'P 1'
_cell_length_a   9.33610400
_cell_length_b   11.58860170
_cell_length_c   23.14102862
_cell_angle_alpha   90.01321625
_cell_angle_beta   90.00030454
_cell_angle_gamma   90.05682312
_symmetry_Int_Tables_number   1
_chemical_formula_structural   Li6Zn3(PS4)4
_chemical_formula_sum   'Li24 Zn12 P16 S64'
_cell_volume   2503.68191078
_cell_formula_units_Z   4
loop_
 _symmetry_equiv_pos_site_id
 _symmetry_equiv_pos_as_xyz
  1  'x, y, z'
loop_
 _atom_site_type_symbol
 _atom_site_label
 _atom_site_symmetry_multiplicity
 _atom_site_fract_x
 _atom_site_fract_y
 _atom_site_fract_z
 _atom_site_occupancy
  Li  Li0  1  0.24878300  0.99855000  0.12072300  1
  Li  Li1  1  0.74470700  0.75006300  0.24826200  1
  Li  Li2  1  0.75176800  0.25148500  0.24819000  1
  Li  Li3  1  0.74922100  0.24413400  0.00110400  1
  Li  Li4  1  0.49951200  0.50017400  0.74983100  1
  Li  Li5  1  0.49652400  0.99845200  0.74903600  1
  Li  Li6  1  0.49675000  0.50205600  0.50014600  1
  Li  Li7  1  0.49975500  0.99800800  0.50083500  1
  Li  Li8  1  0.99575300  0.75187700  0.62606400  1
  Li  Li9  1  0.99818100  0.25040400  0.62495300  1
  Li  Li10  1  0.48894800  0.50104000  0.24860400  1
  Li  Li11  1  0.49108600  0.99975800  0.25275200  1
  Li  Li12  1  0.00372300  0.75246900  0.37793600  1
  Li  Li13  1  0.00729800  0.25239200  0.37765300  1
  Li  Li14  1  0.49821600  0.50387300  0.00042000  1
  Li  Li15  1  0.49861000  0.99712600  0.99885600  1
  Li  Li16  1  0.00106100  0.74494900  0.12181400  1
  Li  Li17  1  0.01137800  0.25077300  0.12464500  1
  Li  Li18  1  0.99788600  0.74953200  0.87448100  1
  Li  Li19  1  0.00111500  0.24786700  0.87294200  1
  Li  Li20  1  0.49354900  0.74878300  0.37629600  1
  Li  Li21  1  0.49429500  0.25335800  0.12486200  1
  Li  Li22  1  0.50029500  0.74879400  0.12357200  1
  Li  Li23  1  0.00060800  0.99748900  0.99809800  1
  Zn  Zn24  1  0.49376100  0.24774300  0.87382400  1
  Zn  Zn25  1  0.49972400  0.75130600  0.87576100  1
  Zn  Zn26  1  0.50145700  0.24969500  0.62520400  1
  Zn  Zn27  1  0.49990400  0.75039900  0.62475800  1
  Zn  Zn28  1  0.00122400  0.50031000  0.74985500  1
  Zn  Zn29  1  0.00013900  0.99994000  0.74988300  1
  Zn  Zn30  1  0.49545000  0.24999000  0.37674000  1
  Zn  Zn31  1  0.00147900  0.50071600  0.50129300  1
  Zn  Zn32  1  0.00227900  0.99833800  0.50047200  1
  Zn  Zn33  1  0.01261100  0.50075700  0.25029500  1
  Zn  Zn34  1  0.00597600  0.00011300  0.25012700  1
  Zn  Zn35  1  0.00883100  0.50278100  0.99956700  1
  P  P36  1  0.24956900  0.25017900  0.74957600  1
  P  P37  1  0.25017300  0.74952700  0.75005800  1
  P  P38  1  0.25030000  0.25042200  0.50062600  1
  P  P39  1  0.24902900  0.74608600  0.50139800  1
  P  P40  1  0.74953400  0.49994200  0.62497400  1
  P  P41  1  0.74986100  0.00032000  0.62494000  1
  P  P42  1  0.24856200  0.24481500  0.25071700  1
  P  P43  1  0.25304100  0.75101700  0.24944200  1
  P  P44  1  0.75068000  0.49834600  0.37206000  1
  P  P45  1  0.75109300  0.00176900  0.37632500  1
  P  P46  1  0.25311100  0.25420000  0.00137800  1
  P  P47  1  0.24757400  0.75403900  0.99711100  1
  P  P48  1  0.74953300  0.49744200  0.12572300  1
  P  P49  1  0.75204900  0.99787500  0.12648700  1
  P  P50  1  0.75257000  0.49927700  0.87571900  1
  P  P51  1  0.74596700  0.00540100  0.87418300  1
  S  S52  1  0.12747100  0.35631900  0.94805300  1
  S  S53  1  0.13077000  0.85700900  0.94510100  1
  S  S54  1  0.13459200  0.36125900  0.69758000  1
  S  S55  1  0.13562300  0.86127200  0.69813300  1
  S  S56  1  0.63477500  0.60889400  0.82443600  1
  S  S57  1  0.62864400  0.11218600  0.82088700  1
  S  S58  1  0.13845600  0.36359600  0.44869600  1
  S  S59  1  0.13741100  0.86110900  0.44922500  1
  S  S60  1  0.63575900  0.61140400  0.57289200  1
  S  S61  1  0.63564600  0.11172900  0.57281700  1
  S  S62  1  0.13810000  0.35837300  0.19831000  1
  S  S63  1  0.12594400  0.85869000  0.19595000  1
  S  S64  1  0.63143600  0.60567900  0.32078400  1
  S  S65  1  0.63316800  0.11351000  0.32273900  1
  S  S66  1  0.63908300  0.60489900  0.07420300  1
  S  S67  1  0.62909400  0.10538800  0.07571400  1
  S  S68  1  0.36472600  0.64575300  0.69425400  1
  S  S69  1  0.36399000  0.14639300  0.69377900  1
  S  S70  1  0.36002100  0.64340100  0.44682800  1
  S  S71  1  0.36264000  0.14456600  0.44471000  1
  S  S72  1  0.86328500  0.89626800  0.56890700  1
  S  S73  1  0.86260900  0.39538200  0.56888700  1
  S  S74  1  0.36191900  0.64716400  0.19473600  1
  S  S75  1  0.36711800  0.14304800  0.19635100  1
  S  S76  1  0.86915500  0.89704100  0.31938800  1
  S  S77  1  0.87590500  0.39243800  0.31859300  1
  S  S78  1  0.37070600  0.64744400  0.94525900  1
  S  S79  1  0.36530400  0.14695500  0.94543800  1
  S  S80  1  0.87404400  0.89806600  0.07485900  1
  S  S81  1  0.87669700  0.39415200  0.07189800  1
  S  S82  1  0.86338100  0.90034100  0.81979900  1
  S  S83  1  0.86519700  0.39536500  0.81969300  1
  S  S84  1  0.13734800  0.13767100  0.80168700  1
  S  S85  1  0.13564100  0.63808200  0.80219800  1
  S  S86  1  0.13474500  0.13948500  0.55233900  1
  S  S87  1  0.12704800  0.64073400  0.55433100  1
  S  S88  1  0.63558700  0.38844300  0.67723300  1
  S  S89  1  0.63635800  0.88848500  0.67707800  1
  S  S90  1  0.13093000  0.13894100  0.30419900  1
  S  S91  1  0.12728600  0.64649200  0.30203300  1
  S  S92  1  0.63582800  0.38938200  0.42505400  1
  S  S93  1  0.63458700  0.89438300  0.42571700  1
  S  S94  1  0.13226000  0.14289300  0.05155000  1
  S  S95  1  0.14108300  0.63913100  0.05133800  1
  S  S96  1  0.63364000  0.39043900  0.17875500  1
  S  S97  1  0.62651000  0.89663600  0.17941100  1
  S  S98  1  0.62997600  0.38778600  0.92717700  1
  S  S99  1  0.63593800  0.89157400  0.92654200  1
  S  S100  1  0.36199400  0.35545100  0.80552000  1
  S  S101  1  0.36519300  0.85338000  0.80560400  1
  S  S102  1  0.36642400  0.35370900  0.55591100  1
  S  S103  1  0.36226200  0.85302700  0.55688600  1
  S  S104  1  0.86343800  0.60357700  0.68115800  1
  S  S105  1  0.86494300  0.10424700  0.68056100  1
  S  S106  1  0.36557200  0.35030500  0.30497000  1
  S  S107  1  0.36209800  0.85468800  0.30434200  1
  S  S108  1  0.86734100  0.60010400  0.42770000  1
  S  S109  1  0.87314100  0.10547000  0.42876300  1
  S  S110  1  0.36971000  0.35871300  0.05317300  1
  S  S111  1  0.36642800  0.85513000  0.05302400  1
  S  S112  1  0.87628100  0.60145100  0.17985400  1
  S  S113  1  0.87397500  0.10793100  0.18096100  1
  S  S114  1  0.86388000  0.60330300  0.93194300  1
  S  S115  1  0.86538000  0.10770800  0.92852200  1
