# generated using pymatgen
data_LiMn2(BO3)2
_symmetry_space_group_name_H-M   'P 1'
_cell_length_a   5.30617500
_cell_length_b   6.07363193
_cell_length_c   11.82525512
_cell_angle_alpha   83.40268013
_cell_angle_beta   78.85306148
_cell_angle_gamma   86.96947173
_symmetry_Int_Tables_number   1
_chemical_formula_structural   LiMn2(BO3)2
_chemical_formula_sum   'Li3 Mn6 B6 O18'
_cell_volume   371.25200412
_cell_formula_units_Z   3
loop_
 _symmetry_equiv_pos_site_id
 _symmetry_equiv_pos_as_xyz
  1  'x, y, z'
loop_
 _atom_site_type_symbol
 _atom_site_label
 _atom_site_symmetry_multiplicity
 _atom_site_fract_x
 _atom_site_fract_y
 _atom_site_fract_z
 _atom_site_occupancy
  Li  Li0  1  0.85636200  0.12941900  0.46702900  1
  Li  Li1  1  0.19289200  0.45986600  0.79980500  1
  Li  Li2  1  0.80631400  0.53441300  0.19795900  1
  Mn  Mn3  1  0.01545700  0.03355700  0.78679700  1
  Mn  Mn4  1  0.64841800  0.62845800  0.88031300  1
  Mn  Mn5  1  0.31381500  0.29349400  0.54684500  1
  Mn  Mn6  1  0.68674600  0.70168600  0.45362700  1
  Mn  Mn7  1  0.35715300  0.36846500  0.11605700  1
  Mn  Mn8  1  0.98365600  0.95986100  0.21109000  1
  B  B9  1  0.74239400  0.41176200  0.66491600  1
  B  B10  1  0.07620300  0.72880000  0.99564300  1
  B  B11  1  0.41140600  0.08496100  0.33091900  1
  B  B12  1  0.58687000  0.92939500  0.67094900  1
  B  B13  1  0.92523000  0.26898300  0.00235600  1
  B  B14  1  0.25701400  0.57936900  0.33524100  1
  O  O15  1  0.68229100  0.35616500  0.98693100  1
  O  O16  1  0.10346100  0.20450200  0.91423300  1
  O  O17  1  0.99213100  0.35664600  0.68109100  1
  O  O18  1  0.55408100  0.48353100  0.75035500  1
  O  O19  1  0.67989800  0.38155000  0.55669600  1
  O  O20  1  0.01306700  0.71446000  0.88573500  1
  O  O21  1  0.65998600  0.02284900  0.34783800  1
  O  O22  1  0.64007500  0.91097500  0.78432400  1
  O  O23  1  0.22116200  0.14482500  0.42084300  1
  O  O24  1  0.76759000  0.87625900  0.57987300  1
  O  O25  1  0.34327500  0.07677600  0.22272700  1
  O  O26  1  0.34690400  0.02644800  0.65656000  1
  O  O27  1  0.97903000  0.27178900  0.11526500  1
  O  O28  1  0.31261400  0.57853600  0.44750300  1
  O  O29  1  0.44685800  0.51940100  0.24794200  1
  O  O30  1  0.01068300  0.65213900  0.31585100  1
  O  O31  1  0.89704200  0.79271000  0.08524000  1
  O  O32  1  0.32265700  0.65320300  0.00818700  1
