# generated using pymatgen
data_Li4Mn3CoO8
_symmetry_space_group_name_H-M   'P 1'
_cell_length_a   5.09449494
_cell_length_b   6.05620551
_cell_length_c   10.01529968
_cell_angle_alpha   90.00061823
_cell_angle_beta   77.65339287
_cell_angle_gamma   90.00037722
_symmetry_Int_Tables_number   1
_chemical_formula_structural   Li4Mn3CoO8
_chemical_formula_sum   'Li8 Mn6 Co2 O16'
_cell_volume   301.85844639
_cell_formula_units_Z   2
loop_
 _symmetry_equiv_pos_site_id
 _symmetry_equiv_pos_as_xyz
  1  'x, y, z'
loop_
 _atom_site_type_symbol
 _atom_site_label
 _atom_site_symmetry_multiplicity
 _atom_site_fract_x
 _atom_site_fract_y
 _atom_site_fract_z
 _atom_site_occupancy
  Li  Li0  1  0.25559600  0.00000100  0.26014900  1
  Li  Li1  1  0.75565600  0.50000100  0.76001600  1
  Li  Li2  1  0.24434300  0.50000100  0.23998400  1
  Li  Li3  1  0.74440400  0.00000100  0.73985100  1
  Li  Li4  1  0.49999800  0.26492000  0.00000000  1
  Li  Li5  1  0.00000200  0.76477000  0.50000000  1
  Li  Li6  1  0.50000100  0.73508200  0.00000000  1
  Li  Li7  1  0.99999700  0.23523200  0.50000100  1
  Mn  Mn8  1  0.00001400  0.49998300  0.99999700  1
  Mn  Mn9  1  0.50000400  0.99998800  0.49999600  1
  Mn  Mn10  1  0.74976100  0.74995800  0.25020200  1
  Mn  Mn11  1  0.25023800  0.25004200  0.74979800  1
  Mn  Mn12  1  0.74976900  0.25004100  0.25019900  1
  Mn  Mn13  1  0.25023000  0.74996000  0.74980200  1
  Co  Co14  1  0.50000000  0.50000100  0.50000000  1
  Co  Co15  1  0.00000000  0.00000100  0.00000000  1
  O  O16  1  0.85822200  0.00000300  0.38621500  1
  O  O17  1  0.35792800  0.50000200  0.88624600  1
  O  O18  1  0.64207100  0.50000100  0.11375400  1
  O  O19  1  0.14177600  0.00000000  0.61378600  1
  O  O20  1  0.85828200  0.50000300  0.35680900  1
  O  O21  1  0.35985600  0.99999700  0.85623900  1
  O  O22  1  0.64014300  0.00000400  0.14376200  1
  O  O23  1  0.14171800  0.49999900  0.64319100  1
  O  O24  1  0.09994100  0.26893100  0.11869300  1
  O  O25  1  0.59940400  0.76823200  0.61820700  1
  O  O26  1  0.09993300  0.73108200  0.11868700  1
  O  O27  1  0.59940700  0.23175400  0.61821800  1
  O  O28  1  0.40059200  0.76824800  0.38178300  1
  O  O29  1  0.90006600  0.26892000  0.88131300  1
  O  O30  1  0.40059400  0.23177100  0.38179400  1
  O  O31  1  0.90005700  0.73107100  0.88130800  1
