# generated using pymatgen
data_LiAg2Au
_symmetry_space_group_name_H-M   'P 1'
_cell_length_a   10.97597994
_cell_length_b   10.97597994
_cell_length_c   10.97597994
_cell_angle_alpha   123.01362553
_cell_angle_beta   118.94860444
_cell_angle_gamma   88.34602292
_symmetry_Int_Tables_number   1
_chemical_formula_structural   LiAg2Au
_chemical_formula_sum   'Li1 Ag2 Au1'
_cell_volume   919.22307649
_cell_formula_units_Z   1
loop_
 _symmetry_equiv_pos_site_id
 _symmetry_equiv_pos_as_xyz
  1  'x, y, z'
loop_
 _atom_site_type_symbol
 _atom_site_label
 _atom_site_symmetry_multiplicity
 _atom_site_fract_x
 _atom_site_fract_y
 _atom_site_fract_z
 _atom_site_occupancy
  Li  Li0  1  0.00000000  0.00000000  0.00000000  1
  Ag  Ag1  1  0.00000000  0.24884400  0.24884400  1
  Ag  Ag2  1  0.00000000  0.75115600  0.75115600  1
  Au  Au3  1  0.00000000  0.50000000  0.50000000  1
