# generated using pymatgen
data_Sr4Li2B12O23
_symmetry_space_group_name_H-M   'P 1'
_cell_length_a   8.62523400
_cell_length_b   6.53248400
_cell_length_c   15.50294934
_cell_angle_alpha   77.88058623
_cell_angle_beta   90.00000000
_cell_angle_gamma   90.00000000
_symmetry_Int_Tables_number   1
_chemical_formula_structural   Sr4Li2B12O23
_chemical_formula_sum   'Sr8 Li4 B24 O46'
_cell_volume   854.03286366
_cell_formula_units_Z   2
loop_
 _symmetry_equiv_pos_site_id
 _symmetry_equiv_pos_as_xyz
  1  'x, y, z'
loop_
 _atom_site_type_symbol
 _atom_site_label
 _atom_site_symmetry_multiplicity
 _atom_site_fract_x
 _atom_site_fract_y
 _atom_site_fract_z
 _atom_site_occupancy
  Sr  Sr0  1  0.82398600  0.96972000  0.22735600  1
  Sr  Sr1  1  0.32398600  0.03028000  0.27264400  1
  Sr  Sr2  1  0.17601400  0.03028000  0.77264400  1
  Sr  Sr3  1  0.67601400  0.96972000  0.72735600  1
  Sr  Sr4  1  0.98428600  0.39065200  0.38611700  1
  Sr  Sr5  1  0.48428600  0.60934800  0.11388300  1
  Sr  Sr6  1  0.01571400  0.60934800  0.61388300  1
  Sr  Sr7  1  0.51571400  0.39065200  0.88611700  1
  Li  Li8  1  0.80448000  0.34165700  0.02458900  1
  Li  Li9  1  0.30448000  0.65834300  0.47541100  1
  Li  Li10  1  0.19552000  0.65834300  0.97541100  1
  Li  Li11  1  0.69552000  0.34165700  0.52458900  1
  B  B12  1  0.65448500  0.06414500  0.42200700  1
  B  B13  1  0.15448500  0.93585500  0.07799300  1
  B  B14  1  0.34551500  0.93585500  0.57799300  1
  B  B15  1  0.84551500  0.06414500  0.92200700  1
  B  B16  1  0.83055900  0.75215000  0.03780500  1
  B  B17  1  0.33055900  0.24785000  0.46219500  1
  B  B18  1  0.16944100  0.24785000  0.96219500  1
  B  B19  1  0.66944100  0.75215000  0.53780500  1
  B  B20  1  0.88027000  0.47709800  0.18308600  1
  B  B21  1  0.38027000  0.52290200  0.31691400  1
  B  B22  1  0.11973000  0.52290200  0.81691400  1
  B  B23  1  0.61973000  0.47709800  0.68308600  1
  B  B24  1  0.60216400  0.71474600  0.38187000  1
  B  B25  1  0.10216400  0.28525400  0.11813000  1
  B  B26  1  0.39783600  0.28525400  0.61813000  1
  B  B27  1  0.89783600  0.71474600  0.88187000  1
  B  B28  1  0.66286300  0.42549600  0.30714200  1
  B  B29  1  0.16286300  0.57450400  0.19285800  1
  B  B30  1  0.33713700  0.57450400  0.69285800  1
  B  B31  1  0.83713700  0.42549600  0.80714200  1
  B  B32  1  0.03900000  0.90313200  0.42723500  1
  B  B33  1  0.53900000  0.09686800  0.07276500  1
  B  B34  1  0.96100000  0.09686800  0.57276500  1
  B  B35  1  0.46100000  0.90313200  0.92723500  1
  O  O36  1  0.93817400  0.32868100  0.13096200  1
  O  O37  1  0.43817400  0.67131900  0.36903800  1
  O  O38  1  0.06182600  0.67131900  0.86903800  1
  O  O39  1  0.56182600  0.32868100  0.63096200  1
  O  O40  1  0.52900800  0.97695100  0.15596400  1
  O  O41  1  0.02900800  0.02304900  0.34403600  1
  O  O42  1  0.47099200  0.02304900  0.84403600  1
  O  O43  1  0.97099200  0.97695100  0.65596400  1
  O  O44  1  0.67796900  0.27439800  0.40067900  1
  O  O45  1  0.17796900  0.72560200  0.09932100  1
  O  O46  1  0.32203100  0.72560200  0.59932100  1
  O  O47  1  0.82203100  0.27439800  0.90067900  1
  O  O48  1  0.83529300  0.97119800  0.01262500  1
  O  O49  1  0.33529300  0.02880200  0.48737500  1
  O  O50  1  0.16470700  0.02880200  0.98737500  1
  O  O51  1  0.66470700  0.97119800  0.51262500  1
  O  O52  1  0.70709200  0.62966300  0.32515700  1
  O  O53  1  0.20709200  0.37033700  0.17484300  1
  O  O54  1  0.29290800  0.37033700  0.67484300  1
  O  O55  1  0.79290800  0.62966300  0.82515700  1
  O  O56  1  0.08344200  0.69742400  0.44891100  1
  O  O57  1  0.58344200  0.30257600  0.05108900  1
  O  O58  1  0.91655800  0.30257600  0.55108900  1
  O  O59  1  0.41655800  0.69742400  0.94891100  1
  O  O60  1  0.85336500  0.63491500  0.97628000  1
  O  O61  1  0.35336500  0.36508500  0.52372000  1
  O  O62  1  0.14663500  0.36508500  0.02372000  1
  O  O63  1  0.64663500  0.63491500  0.47628000  1
  O  O64  1  0.77396500  0.35722900  0.24879000  1
  O  O65  1  0.27396500  0.64277100  0.25121000  1
  O  O66  1  0.22603500  0.64277100  0.75121000  1
  O  O67  1  0.72603500  0.35722900  0.74879000  1
  O  O68  1  0.00422700  0.57716600  0.22453900  1
  O  O69  1  0.50422700  0.42283400  0.27546100  1
  O  O70  1  0.99577300  0.42283400  0.77546100  1
  O  O71  1  0.49577300  0.57716600  0.72453900  1
  O  O72  1  0.00000000  0.00000000  0.50000000  1
  O  O73  1  0.50000000  0.00000000  0.00000000  1
  O  O74  1  0.79256900  0.66359200  0.12365600  1
  O  O75  1  0.29256900  0.33640800  0.37634400  1
  O  O76  1  0.20743100  0.33640800  0.87634400  1
  O  O77  1  0.70743100  0.66359200  0.62365600  1
  O  O78  1  0.62290800  0.94896300  0.35998600  1
  O  O79  1  0.12290800  0.05103700  0.14001400  1
  O  O80  1  0.37709200  0.05103700  0.64001400  1
  O  O81  1  0.87709200  0.94896300  0.85998600  1
