# generated using pymatgen
data_Li3MnFeCo(PO4)3
_symmetry_space_group_name_H-M   'P 1'
_cell_length_a   6.09037400
_cell_length_b   10.46424400
_cell_length_c   14.30145501
_cell_angle_alpha   89.94748554
_cell_angle_beta   90.00000000
_cell_angle_gamma   90.00000000
_symmetry_Int_Tables_number   1
_chemical_formula_structural   Li3MnFeCo(PO4)3
_chemical_formula_sum   'Li12 Mn4 Fe4 Co4 P12 O48'
_cell_volume   911.44792855
_cell_formula_units_Z   4
loop_
 _symmetry_equiv_pos_site_id
 _symmetry_equiv_pos_as_xyz
  1  'x, y, z'
loop_
 _atom_site_type_symbol
 _atom_site_label
 _atom_site_symmetry_multiplicity
 _atom_site_fract_x
 _atom_site_fract_y
 _atom_site_fract_z
 _atom_site_occupancy
  Li  Li0  1  0.74935400  0.00148600  0.66705800  1
  Li  Li1  1  0.25031000  0.00111200  0.99968100  1
  Li  Li2  1  0.74969000  0.00111200  0.99968100  1
  Li  Li3  1  0.25037200  0.00144800  0.33333300  1
  Li  Li4  1  0.74962800  0.00144800  0.33333300  1
  Li  Li5  1  0.25064600  0.00148600  0.66705800  1
  Li  Li6  1  0.25055600  0.49876400  0.50057900  1
  Li  Li7  1  0.74944400  0.49876400  0.50057900  1
  Li  Li8  1  0.25053200  0.49854400  0.16698900  1
  Li  Li9  1  0.74946800  0.49854400  0.16698900  1
  Li  Li10  1  0.25096000  0.49888000  0.83297400  1
  Li  Li11  1  0.74904000  0.49888000  0.83297400  1
  Mn  Mn12  1  0.50000000  0.78128900  0.16003600  1
  Mn  Mn13  1  0.00000000  0.71859000  0.66021000  1
  Mn  Mn14  1  0.00000000  0.71959500  0.99306600  1
  Mn  Mn15  1  0.00000000  0.71919300  0.32698700  1
  Fe  Fe16  1  0.50000000  0.78133100  0.49283700  1
  Fe  Fe17  1  0.50000000  0.78148500  0.82542000  1
  Fe  Fe18  1  0.50000000  0.27987600  0.00787600  1
  Fe  Fe19  1  0.50000000  0.27979400  0.34171600  1
  Co  Co20  1  0.50000000  0.27698700  0.67403100  1
  Co  Co21  1  0.00000000  0.22202400  0.84000900  1
  Co  Co22  1  0.00000000  0.21888400  0.50648200  1
  Co  Co23  1  0.00000000  0.21851900  0.17278700  1
  P  P24  1  0.00000000  0.90893900  0.80645900  1
  P  P25  1  0.00000000  0.90954700  0.13901400  1
  P  P26  1  0.00000000  0.90870100  0.47336400  1
  P  P27  1  0.50000000  0.59182400  0.30597300  1
  P  P28  1  0.50000000  0.59250000  0.63837800  1
  P  P29  1  0.50000000  0.59241900  0.97089600  1
  P  P30  1  0.00000000  0.40345500  0.36110700  1
  P  P31  1  0.00000000  0.40356700  0.02773400  1
  P  P32  1  0.00000000  0.40302400  0.69420900  1
  P  P33  1  0.50000000  0.09533100  0.86042700  1
  P  P34  1  0.50000000  0.09661400  0.19428800  1
  P  P35  1  0.50000000  0.09609200  0.52761500  1
  O  O36  1  0.50000000  0.95967600  0.23706300  1
  O  O37  1  0.50000000  0.95869700  0.56942900  1
  O  O38  1  0.50000000  0.95762200  0.90200100  1
  O  O39  1  0.00000000  0.90625300  0.58059400  1
  O  O40  1  0.00000000  0.90607800  0.91390600  1
  O  O41  1  0.00000000  0.90581900  0.24635100  1
  O  O42  1  0.20169000  0.83882800  0.09435700  1
  O  O43  1  0.79831000  0.83882800  0.09435700  1
  O  O44  1  0.20288300  0.83733900  0.42948800  1
  O  O45  1  0.79711700  0.83733900  0.42948800  1
  O  O46  1  0.20277400  0.83705200  0.76280200  1
  O  O47  1  0.79722600  0.83705200  0.76280200  1
  O  O48  1  0.70145600  0.66311500  0.59287500  1
  O  O49  1  0.29854400  0.66311500  0.59287500  1
  O  O50  1  0.70223800  0.66216600  0.26089400  1
  O  O51  1  0.29776200  0.66216600  0.26089400  1
  O  O52  1  0.70185400  0.66323300  0.92618600  1
  O  O53  1  0.29814600  0.66323300  0.92618600  1
  O  O54  1  0.50000000  0.59570200  0.41325900  1
  O  O55  1  0.50000000  0.59516500  0.07853100  1
  O  O56  1  0.50000000  0.59694600  0.74595100  1
  O  O57  1  0.00000000  0.54040200  0.40300800  1
  O  O58  1  0.00000000  0.54065100  0.06951700  1
  O  O59  1  0.00000000  0.54024600  0.73629100  1
  O  O60  1  0.50000000  0.45454900  0.26471000  1
  O  O61  1  0.50000000  0.45480000  0.93049900  1
  O  O62  1  0.50000000  0.45393600  0.59903600  1
  O  O63  1  0.00000000  0.40163600  0.25333800  1
  O  O64  1  0.00000000  0.40131700  0.92005500  1
  O  O65  1  0.00000000  0.40147000  0.58659000  1
  O  O66  1  0.20226200  0.33262000  0.07230300  1
  O  O67  1  0.20214300  0.33243800  0.40571600  1
  O  O68  1  0.20353000  0.33227400  0.73836200  1
  O  O69  1  0.79647000  0.33227400  0.73836200  1
  O  O70  1  0.79773800  0.33262000  0.07230300  1
  O  O71  1  0.79785700  0.33243800  0.40571600  1
  O  O72  1  0.70420000  0.16539700  0.90425900  1
  O  O73  1  0.29580000  0.16539700  0.90425900  1
  O  O74  1  0.70429600  0.16704800  0.23808200  1
  O  O75  1  0.70328000  0.16765100  0.57182300  1
  O  O76  1  0.29570400  0.16704800  0.23808200  1
  O  O77  1  0.29672000  0.16765100  0.57182300  1
  O  O78  1  0.50000000  0.09830800  0.75261800  1
  O  O79  1  0.50000000  0.09665700  0.42005800  1
  O  O80  1  0.50000000  0.09636300  0.08666100  1
  O  O81  1  0.00000000  0.04586600  0.76464000  1
  O  O82  1  0.00000000  0.04742200  0.09806200  1
  O  O83  1  0.00000000  0.04605300  0.43137700  1
