# generated using pymatgen
data_LiScZn2
_symmetry_space_group_name_H-M   'P 1'
_cell_length_a   11.31814789
_cell_length_b   11.31814789
_cell_length_c   11.31814789
_cell_angle_alpha   122.20998582
_cell_angle_beta   120.05809445
_cell_angle_gamma   88.05720987
_symmetry_Int_Tables_number   1
_chemical_formula_structural   LiScZn2
_chemical_formula_sum   'Li1 Sc1 Zn2'
_cell_volume   1006.54110665
_cell_formula_units_Z   1
loop_
 _symmetry_equiv_pos_site_id
 _symmetry_equiv_pos_as_xyz
  1  'x, y, z'
loop_
 _atom_site_type_symbol
 _atom_site_label
 _atom_site_symmetry_multiplicity
 _atom_site_fract_x
 _atom_site_fract_y
 _atom_site_fract_z
 _atom_site_occupancy
  Li  Li0  1  0.00000000  0.00000000  0.00000000  1
  Sc  Sc1  1  0.00000000  0.50000000  0.50000000  1
  Zn  Zn2  1  0.00000000  0.24225900  0.24225900  1
  Zn  Zn3  1  0.00000000  0.75774100  0.75774100  1
