# generated using pymatgen
data_SrLi2Al4(PO5)4
_symmetry_space_group_name_H-M   'P 1'
_cell_length_a   10.55903766
_cell_length_b   10.55903766
_cell_length_c   10.55903766
_cell_angle_alpha   138.54556351
_cell_angle_beta   112.84126190
_cell_angle_gamma   82.08743323
_symmetry_Int_Tables_number   1
_chemical_formula_structural   SrLi2Al4(PO5)4
_chemical_formula_sum   'Sr2 Li4 Al8 P8 O40'
_cell_volume   695.22560967
_cell_formula_units_Z   2
loop_
 _symmetry_equiv_pos_site_id
 _symmetry_equiv_pos_as_xyz
  1  'x, y, z'
loop_
 _atom_site_type_symbol
 _atom_site_label
 _atom_site_symmetry_multiplicity
 _atom_site_fract_x
 _atom_site_fract_y
 _atom_site_fract_z
 _atom_site_occupancy
  Sr  Sr0  1  0.25000000  0.00000000  0.25000000  1
  Sr  Sr1  1  0.75000000  0.00000000  0.75000000  1
  Li  Li2  1  0.28843700  0.56693000  0.27849300  1
  Li  Li3  1  0.71156300  0.43307000  0.72150700  1
  Li  Li4  1  0.78843700  0.00994400  0.22150700  1
  Li  Li5  1  0.21156300  0.99005600  0.77849300  1
  Al  Al6  1  0.00637800  0.51748800  0.77233000  1
  Al  Al7  1  0.25484300  0.48251200  0.48889100  1
  Al  Al8  1  0.24515700  0.23404800  0.72767000  1
  Al  Al9  1  0.49362200  0.76595200  0.01110900  1
  Al  Al10  1  0.99362200  0.48251200  0.22767000  1
  Al  Al11  1  0.74515700  0.51748800  0.51110900  1
  Al  Al12  1  0.75484300  0.76595200  0.27233000  1
  Al  Al13  1  0.50637800  0.23404800  0.98889100  1
  P  P14  1  0.04157000  0.79157000  0.25000000  1
  P  P15  1  0.45843000  0.20843000  0.25000000  1
  P  P16  1  0.95843000  0.20843000  0.75000000  1
  P  P17  1  0.54157000  0.79157000  0.75000000  1
  P  P18  1  0.95738900  0.23169800  0.27430900  1
  P  P19  1  0.04261100  0.76830200  0.72569100  1
  P  P20  1  0.45738900  0.68308100  0.22569100  1
  P  P21  1  0.54261100  0.31691900  0.77430900  1
  O  O22  1  0.91075600  0.30436300  0.68315300  1
  O  O23  1  0.37879000  0.69563700  0.60639200  1
  O  O24  1  0.12121000  0.22760300  0.81684700  1
  O  O25  1  0.58924400  0.77239700  0.89360800  1
  O  O26  1  0.08924400  0.69563700  0.31684700  1
  O  O27  1  0.62121000  0.30436300  0.39360800  1
  O  O28  1  0.87879000  0.77239700  0.18315300  1
  O  O29  1  0.41075600  0.22760300  0.10639200  1
  O  O30  1  0.07640300  0.69193400  0.06663900  1
  O  O31  1  0.37470500  0.30806600  0.38446800  1
  O  O32  1  0.12529500  0.00976300  0.43336100  1
  O  O33  1  0.42359700  0.99023700  0.11553200  1
  O  O34  1  0.92359700  0.30806600  0.93336100  1
  O  O35  1  0.62529500  0.69193400  0.61553200  1
  O  O36  1  0.87470500  0.99023700  0.56663900  1
  O  O37  1  0.57640300  0.00976300  0.88446800  1
  O  O38  1  0.89880200  0.01263300  0.11383100  1
  O  O39  1  0.10119800  0.98736700  0.88616900  1
  O  O40  1  0.39880200  0.78497100  0.38616900  1
  O  O41  1  0.60119800  0.21502900  0.61383100  1
  O  O42  1  0.90211900  0.35241800  0.45029900  1
  O  O43  1  0.09788100  0.64758200  0.54970100  1
  O  O44  1  0.40211900  0.45182000  0.04970100  1
  O  O45  1  0.59788100  0.54818000  0.95029900  1
  O  O46  1  0.09393500  0.71336300  0.83656500  1
  O  O47  1  0.12320200  0.28663700  0.38057200  1
  O  O48  1  0.37679800  0.25737000  0.66343500  1
  O  O49  1  0.40606500  0.74263000  0.11942800  1
  O  O50  1  0.90606500  0.28663700  0.16343500  1
  O  O51  1  0.87679800  0.71336300  0.61942800  1
  O  O52  1  0.62320200  0.74263000  0.33656500  1
  O  O53  1  0.59393500  0.25737000  0.88057200  1
  O  O54  1  0.83289900  0.58062500  0.74772600  1
  O  O55  1  0.16710100  0.41937500  0.25227400  1
  O  O56  1  0.33289900  0.08517300  0.75227400  1
  O  O57  1  0.66710100  0.91482700  0.24772600  1
  O  O58  1  0.15481800  0.40481800  0.75000000  1
  O  O59  1  0.34518200  0.59518200  0.75000000  1
  O  O60  1  0.84518200  0.59518200  0.25000000  1
  O  O61  1  0.65481800  0.40481800  0.25000000  1
