# generated using pymatgen
data_Li3MnCo3O8
_symmetry_space_group_name_H-M   'P 1'
_cell_length_a   5.75365096
_cell_length_b   10.25127748
_cell_length_c   5.91187752
_cell_angle_alpha   74.03676465
_cell_angle_beta   60.53456921
_cell_angle_gamma   73.13849061
_symmetry_Int_Tables_number   1
_chemical_formula_structural   Li3MnCo3O8
_chemical_formula_sum   'Li6 Mn2 Co6 O16'
_cell_volume   286.85304207
_cell_formula_units_Z   2
loop_
 _symmetry_equiv_pos_site_id
 _symmetry_equiv_pos_as_xyz
  1  'x, y, z'
loop_
 _atom_site_type_symbol
 _atom_site_label
 _atom_site_symmetry_multiplicity
 _atom_site_fract_x
 _atom_site_fract_y
 _atom_site_fract_z
 _atom_site_occupancy
  Li  Li0  1  0.75848200  0.74655100  0.74780100  1
  Li  Li1  1  0.24155700  0.25341900  0.25223700  1
  Li  Li2  1  0.25249500  0.75313200  0.25329500  1
  Li  Li3  1  0.74744100  0.24689000  0.74672100  1
  Li  Li4  1  0.75213700  0.74860700  0.25143300  1
  Li  Li5  1  0.24797100  0.25139100  0.74861300  1
  Mn  Mn6  1  0.50006600  0.49995100  0.49998400  1
  Mn  Mn7  1  0.99998200  0.00008300  0.00002800  1
  Co  Co8  1  0.00001100  0.49994200  0.50003000  1
  Co  Co9  1  0.49996100  0.49997000  0.99994700  1
  Co  Co10  1  0.00002900  0.49996400  0.99996600  1
  Co  Co11  1  0.50002500  0.00000700  0.00004200  1
  Co  Co12  1  0.99995100  0.99995900  0.50006000  1
  Co  Co13  1  0.50017900  0.99993700  0.50003600  1
  O  O14  1  0.87740500  0.88721100  0.34807700  1
  O  O15  1  0.36049200  0.39281100  0.85671200  1
  O  O16  1  0.63954300  0.60715500  0.14311400  1
  O  O17  1  0.12264500  0.11298300  0.65166400  1
  O  O18  1  0.10568400  0.59898700  0.15618100  1
  O  O19  1  0.60718800  0.10605400  0.66212400  1
  O  O20  1  0.39280200  0.89392300  0.33800700  1
  O  O21  1  0.89425900  0.40093600  0.84393300  1
  O  O22  1  0.85462200  0.89254400  0.88931000  1
  O  O23  1  0.35301500  0.39123500  0.39295900  1
  O  O24  1  0.36816200  0.89060800  0.88514000  1
  O  O25  1  0.85935800  0.38597200  0.40553600  1
  O  O26  1  0.14061200  0.61393100  0.59443800  1
  O  O27  1  0.63167900  0.10955500  0.11489800  1
  O  O28  1  0.64682500  0.60868200  0.60695900  1
  O  O29  1  0.14541800  0.10761100  0.11075300  1
