# generated using pymatgen
data_Li9Mn2Co5O16
_symmetry_space_group_name_H-M   'P 1'
_cell_length_a   5.10326000
_cell_length_b   5.88930662
_cell_length_c   9.71935312
_cell_angle_alpha   88.48444162
_cell_angle_beta   78.88794275
_cell_angle_gamma   89.40775959
_symmetry_Int_Tables_number   1
_chemical_formula_structural   Li9Mn2Co5O16
_chemical_formula_sum   'Li9 Mn2 Co5 O16'
_cell_volume   286.53104761
_cell_formula_units_Z   1
loop_
 _symmetry_equiv_pos_site_id
 _symmetry_equiv_pos_as_xyz
  1  'x, y, z'
loop_
 _atom_site_type_symbol
 _atom_site_label
 _atom_site_symmetry_multiplicity
 _atom_site_fract_x
 _atom_site_fract_y
 _atom_site_fract_z
 _atom_site_occupancy
  Li  Li0  1  0.49218800  0.26078200  0.00191900  1
  Li  Li1  1  0.24473000  0.49879100  0.24540800  1
  Li  Li2  1  0.50781200  0.73921800  0.99808100  1
  Li  Li3  1  0.24724400  0.99214900  0.24389000  1
  Li  Li4  1  0.75275600  0.00785100  0.75611000  1
  Li  Li5  1  0.75527000  0.50120900  0.75459200  1
  Li  Li6  1  0.00042600  0.75039200  0.49824400  1
  Li  Li7  1  0.99957400  0.24960800  0.50175600  1
  Li  Li8  1  0.00000000  0.50000000  0.00000000  1
  Mn  Mn9  1  0.00000000  0.00000000  0.00000000  1
  Mn  Mn10  1  0.50000000  0.50000000  0.50000000  1
  Co  Co11  1  0.75187000  0.25461800  0.24191400  1
  Co  Co12  1  0.24813000  0.74538200  0.75808600  1
  Co  Co13  1  0.75121700  0.74191600  0.24480700  1
  Co  Co14  1  0.50000000  0.00000000  0.50000000  1
  Co  Co15  1  0.24878300  0.25808400  0.75519300  1
  O  O16  1  0.35116500  0.00047900  0.87978900  1
  O  O17  1  0.10960800  0.22777000  0.12063700  1
  O  O18  1  0.37749700  0.51271300  0.86326400  1
  O  O19  1  0.09390600  0.76226000  0.12647600  1
  O  O20  1  0.61126400  0.74738100  0.60755300  1
  O  O21  1  0.60673300  0.27042200  0.62592600  1
  O  O22  1  0.84965700  0.49420400  0.37694600  1
  O  O23  1  0.83760200  0.00569600  0.37438800  1
  O  O24  1  0.62250300  0.48728700  0.13673600  1
  O  O25  1  0.39326700  0.72957800  0.37407400  1
  O  O26  1  0.64883500  0.99952100  0.12021100  1
  O  O27  1  0.38873600  0.25261900  0.39244700  1
  O  O28  1  0.90609400  0.23774000  0.87352400  1
  O  O29  1  0.89039200  0.77223000  0.87936300  1
  O  O30  1  0.16239800  0.99430400  0.62561200  1
  O  O31  1  0.15034300  0.50579600  0.62305400  1
