# generated using pymatgen
data_LiMg2
_symmetry_space_group_name_H-M   'P 1'
_cell_length_a   5.36476407
_cell_length_b   5.36476407
_cell_length_c   5.11462900
_cell_angle_alpha   90.00000000
_cell_angle_beta   90.00000000
_cell_angle_gamma   118.25626690
_symmetry_Int_Tables_number   1
_chemical_formula_structural   LiMg2
_chemical_formula_sum   'Li2 Mg4'
_cell_volume   129.66175885
_cell_formula_units_Z   2
loop_
 _symmetry_equiv_pos_site_id
 _symmetry_equiv_pos_as_xyz
  1  'x, y, z'
loop_
 _atom_site_type_symbol
 _atom_site_label
 _atom_site_symmetry_multiplicity
 _atom_site_fract_x
 _atom_site_fract_y
 _atom_site_fract_z
 _atom_site_occupancy
  Li  Li0  1  0.66549500  0.66549500  0.75000000  1
  Li  Li1  1  0.33450500  0.33450500  0.25000000  1
  Mg  Mg2  1  0.00202000  0.33330700  0.75000000  1
  Mg  Mg3  1  0.33330700  0.00202000  0.75000000  1
  Mg  Mg4  1  0.66669300  0.99798000  0.25000000  1
  Mg  Mg5  1  0.99798000  0.66669300  0.25000000  1
