# generated using pymatgen
data_Li4VCo3(PO4)4
_symmetry_space_group_name_H-M   'P 1'
_cell_length_a   6.00988200
_cell_length_b   4.75189700
_cell_length_c   10.33610827
_cell_angle_alpha   89.90479439
_cell_angle_beta   90.00000000
_cell_angle_gamma   90.00000000
_symmetry_Int_Tables_number   1
_chemical_formula_structural   Li4VCo3(PO4)4
_chemical_formula_sum   'Li4 V1 Co3 P4 O16'
_cell_volume   295.18168927
_cell_formula_units_Z   1
loop_
 _symmetry_equiv_pos_site_id
 _symmetry_equiv_pos_as_xyz
  1  'x, y, z'
loop_
 _atom_site_type_symbol
 _atom_site_label
 _atom_site_symmetry_multiplicity
 _atom_site_fract_x
 _atom_site_fract_y
 _atom_site_fract_z
 _atom_site_occupancy
  Li  Li0  1  0.24847000  0.00058700  0.00156000  1
  Li  Li1  1  0.75153000  0.00058700  0.00156000  1
  Li  Li2  1  0.74950600  0.50051300  0.49941800  1
  Li  Li3  1  0.25049400  0.50051300  0.49941800  1
  V  V4  1  0.50000000  0.98021000  0.72400600  1
  Co  Co5  1  0.00000000  0.02431200  0.28054300  1
  Co  Co6  1  0.00000000  0.47665400  0.77905600  1
  Co  Co7  1  0.50000000  0.52475800  0.21981200  1
  P  P8  1  0.50000000  0.08681700  0.40479500  1
  P  P9  1  0.50000000  0.41475100  0.90776400  1
  P  P10  1  0.00000000  0.58601900  0.09447900  1
  P  P11  1  0.00000000  0.90965900  0.59236600  1
  O  O12  1  0.50000000  0.21025600  0.54422800  1
  O  O13  1  0.29465200  0.22525800  0.33392200  1
  O  O14  1  0.70534800  0.22525800  0.33392200  1
  O  O15  1  0.00000000  0.23341700  0.59791300  1
  O  O16  1  0.00000000  0.26316500  0.09808300  1
  O  O17  1  0.29358900  0.27893900  0.83649600  1
  O  O18  1  0.70641100  0.27893900  0.83649600  1
  O  O19  1  0.50000000  0.29152100  0.04695300  1
  O  O20  1  0.00000000  0.70759800  0.95380400  1
  O  O21  1  0.79486600  0.72465900  0.16497400  1
  O  O22  1  0.20513400  0.72465900  0.16497400  1
  O  O23  1  0.50000000  0.73769300  0.90505000  1
  O  O24  1  0.50000000  0.76394300  0.40147900  1
  O  O25  1  0.79666600  0.76823300  0.66254300  1
  O  O26  1  0.20333400  0.76823300  0.66254300  1
  O  O27  1  0.00000000  0.79284600  0.45184500  1
