# generated using pymatgen
data_Li4MnCo2O7
_symmetry_space_group_name_H-M   'P 1'
_cell_length_a   5.13380100
_cell_length_b   6.49565708
_cell_length_c   7.73421544
_cell_angle_alpha   86.85863010
_cell_angle_beta   75.75282493
_cell_angle_gamma   83.98759229
_symmetry_Int_Tables_number   1
_chemical_formula_structural   Li4MnCo2O7
_chemical_formula_sum   'Li8 Mn2 Co4 O14'
_cell_volume   248.49553887
_cell_formula_units_Z   2
loop_
 _symmetry_equiv_pos_site_id
 _symmetry_equiv_pos_as_xyz
  1  'x, y, z'
loop_
 _atom_site_type_symbol
 _atom_site_label
 _atom_site_symmetry_multiplicity
 _atom_site_fract_x
 _atom_site_fract_y
 _atom_site_fract_z
 _atom_site_occupancy
  Li  Li0  1  0.91785100  0.15430500  0.63573300  1
  Li  Li1  1  0.64289300  0.70908200  0.22431000  1
  Li  Li2  1  0.50990000  0.99308000  0.49832300  1
  Li  Li3  1  0.21497700  0.56339700  0.07128100  1
  Li  Li4  1  0.06384400  0.85508600  0.36571000  1
  Li  Li5  1  0.78681100  0.42860500  0.92157600  1
  Li  Li6  1  0.36506900  0.29730800  0.77946000  1
  Li  Li7  1  0.71678600  0.56869200  0.57137400  1
  Mn  Mn8  1  0.00049200  0.00353300  0.00145500  1
  Mn  Mn9  1  0.57171500  0.85459700  0.85353200  1
  Co  Co10  1  0.42800600  0.14329600  0.14325400  1
  Co  Co11  1  0.13356600  0.70882700  0.71143700  1
  Co  Co12  1  0.85553900  0.28928300  0.28794600  1
  Co  Co13  1  0.28618400  0.43767600  0.43623100  1
  O  O14  1  0.26758700  0.98541000  0.76711300  1
  O  O15  1  0.96464800  0.54461600  0.31577100  1
  O  O16  1  0.82146500  0.85729100  0.62544600  1
  O  O17  1  0.55221900  0.40133700  0.18925000  1
  O  O18  1  0.36432800  0.70690500  0.47542400  1
  O  O19  1  0.08230000  0.27618000  0.04930300  1
  O  O20  1  0.65226800  0.13315200  0.90311700  1
  O  O21  1  0.61452300  0.28509000  0.50921700  1
  O  O22  1  0.34904400  0.86796300  0.10021400  1
  O  O23  1  0.17046100  0.16385800  0.37141600  1
  O  O24  1  0.88469300  0.73459600  0.94587300  1
  O  O25  1  0.77298300  0.01239100  0.24394100  1
  O  O26  1  0.45806300  0.59507600  0.82404500  1
  O  O27  1  0.05178700  0.42936700  0.67824900  1
