# generated using pymatgen
data_Li2V(OF)2
_symmetry_space_group_name_H-M   'P 1'
_cell_length_a   5.76225304
_cell_length_b   10.26231183
_cell_length_c   5.96555702
_cell_angle_alpha   89.41601364
_cell_angle_beta   61.06934785
_cell_angle_gamma   73.77211424
_symmetry_Int_Tables_number   1
_chemical_formula_structural   Li2V(OF)2
_chemical_formula_sum   'Li8 V4 O8 F8'
_cell_volume   293.14534239
_cell_formula_units_Z   4
loop_
 _symmetry_equiv_pos_site_id
 _symmetry_equiv_pos_as_xyz
  1  'x, y, z'
loop_
 _atom_site_type_symbol
 _atom_site_label
 _atom_site_symmetry_multiplicity
 _atom_site_fract_x
 _atom_site_fract_y
 _atom_site_fract_z
 _atom_site_occupancy
  Li  Li0  1  0.12812700  0.56054800  0.18126700  1
  Li  Li1  1  0.12995200  0.06048900  0.68135300  1
  Li  Li2  1  0.86973100  0.43947200  0.81866300  1
  Li  Li3  1  0.87194100  0.93947500  0.31852500  1
  Li  Li4  1  0.50204600  0.00002900  0.99998800  1
  Li  Li5  1  0.49779600  0.50000500  0.49981800  1
  Li  Li6  1  0.50025800  0.24988900  0.74999900  1
  Li  Li7  1  0.49998500  0.74995200  0.24990300  1
  V  V8  1  0.00010300  0.74997500  0.75008300  1
  V  V9  1  0.50028000  0.24947000  0.25090600  1
  V  V10  1  0.00028900  0.25057500  0.24956700  1
  V  V11  1  0.49982300  0.74998100  0.75010000  1
  O  O12  1  0.72933500  0.64381300  0.86381100  1
  O  O13  1  0.76218000  0.14398300  0.36393100  1
  O  O14  1  0.72985800  0.36017000  0.14800100  1
  O  O15  1  0.76287100  0.86007100  0.64781200  1
  O  O16  1  0.23824900  0.35628100  0.13605500  1
  O  O17  1  0.27066600  0.85610200  0.63593100  1
  O  O18  1  0.23714500  0.63979900  0.85199200  1
  O  O19  1  0.26971300  0.13989700  0.35212400  1
  F  F20  1  0.27590900  0.86757500  0.09955000  1
  F  F21  1  0.27447200  0.36598700  0.60144700  1
  F  F22  1  0.75825800  0.86584900  0.10116500  1
  F  F23  1  0.75671300  0.36767800  0.59970700  1
  F  F24  1  0.24309100  0.13259300  0.90020200  1
  F  F25  1  0.24172100  0.63404000  0.39868300  1
  F  F26  1  0.72537500  0.13398600  0.89917300  1
  F  F27  1  0.72411500  0.63231200  0.40024500  1
