# generated using pymatgen
data_RbLiWO5
_symmetry_space_group_name_H-M   'P 1'
_cell_length_a   7.75471000
_cell_length_b   11.17606700
_cell_length_c   13.05222400
_cell_angle_alpha   90.00000000
_cell_angle_beta   90.00000000
_cell_angle_gamma   90.00000000
_symmetry_Int_Tables_number   1
_chemical_formula_structural   RbLiWO5
_chemical_formula_sum   'Rb8 Li8 W8 O40'
_cell_volume   1131.19916652
_cell_formula_units_Z   8
loop_
 _symmetry_equiv_pos_site_id
 _symmetry_equiv_pos_as_xyz
  1  'x, y, z'
loop_
 _atom_site_type_symbol
 _atom_site_label
 _atom_site_symmetry_multiplicity
 _atom_site_fract_x
 _atom_site_fract_y
 _atom_site_fract_z
 _atom_site_occupancy
  Rb  Rb0  1  0.18797400  0.79666700  0.87409900  1
  Rb  Rb1  1  0.81202600  0.20333300  0.12590100  1
  Rb  Rb2  1  0.31202600  0.29666700  0.12590100  1
  Rb  Rb3  1  0.81202600  0.70333300  0.37409900  1
  Rb  Rb4  1  0.68797400  0.70333300  0.87409900  1
  Rb  Rb5  1  0.18797400  0.29666700  0.62590100  1
  Rb  Rb6  1  0.68797400  0.20333300  0.62590100  1
  Rb  Rb7  1  0.31202600  0.79666700  0.37409900  1
  Li  Li8  1  0.00876400  0.58545300  0.67441500  1
  Li  Li9  1  0.99123600  0.41454700  0.32558500  1
  Li  Li10  1  0.49123600  0.08545300  0.32558500  1
  Li  Li11  1  0.99123600  0.91454700  0.17441500  1
  Li  Li12  1  0.50876400  0.91454700  0.67441500  1
  Li  Li13  1  0.00876400  0.08545300  0.82558500  1
  Li  Li14  1  0.50876400  0.41454700  0.82558500  1
  Li  Li15  1  0.49123600  0.58545300  0.17441500  1
  W  W16  1  0.43887900  0.61828500  0.62388800  1
  W  W17  1  0.56112100  0.38171500  0.37611200  1
  W  W18  1  0.06112100  0.11828500  0.37611200  1
  W  W19  1  0.56112100  0.88171500  0.12388800  1
  W  W20  1  0.93887900  0.88171500  0.62388800  1
  W  W21  1  0.43887900  0.11828500  0.87611200  1
  W  W22  1  0.93887900  0.38171500  0.87611200  1
  W  W23  1  0.06112100  0.61828500  0.12388800  1
  O  O24  1  0.22207900  0.56525800  0.59820200  1
  O  O25  1  0.77792100  0.43474200  0.40179800  1
  O  O26  1  0.27792100  0.06525800  0.40179800  1
  O  O27  1  0.77792100  0.93474200  0.09820200  1
  O  O28  1  0.72207900  0.93474200  0.59820200  1
  O  O29  1  0.22207900  0.06525800  0.90179800  1
  O  O30  1  0.72207900  0.43474200  0.90179800  1
  O  O31  1  0.27792100  0.56525800  0.09820200  1
  O  O32  1  0.03924900  0.84350100  0.50459100  1
  O  O33  1  0.96075100  0.15649900  0.49540900  1
  O  O34  1  0.46075100  0.34350100  0.49540900  1
  O  O35  1  0.96075100  0.65649900  0.00459100  1
  O  O36  1  0.53924900  0.65649900  0.50459100  1
  O  O37  1  0.03924900  0.34350100  0.99540900  1
  O  O38  1  0.53924900  0.15649900  0.99540900  1
  O  O39  1  0.46075100  0.84350100  0.00459100  1
  O  O40  1  0.06518700  0.99205100  0.69845800  1
  O  O41  1  0.93481300  0.00794900  0.30154200  1
  O  O42  1  0.43481300  0.49205100  0.30154200  1
  O  O43  1  0.93481300  0.50794900  0.19845800  1
  O  O44  1  0.56518700  0.50794900  0.69845800  1
  O  O45  1  0.06518700  0.49205100  0.80154200  1
  O  O46  1  0.56518700  0.00794900  0.80154200  1
  O  O47  1  0.43481300  0.99205100  0.19845800  1
  O  O48  1  0.33222100  0.54230600  0.87934200  1
  O  O49  1  0.66777900  0.45769400  0.12065800  1
  O  O50  1  0.16777900  0.04230600  0.12065800  1
  O  O51  1  0.66777900  0.95769400  0.37934200  1
  O  O52  1  0.83222100  0.95769400  0.87934200  1
  O  O53  1  0.33222100  0.04230600  0.62065800  1
  O  O54  1  0.83222100  0.45769400  0.62065800  1
  O  O55  1  0.16777900  0.54230600  0.37934200  1
  O  O56  1  0.42570600  0.75343400  0.70187200  1
  O  O57  1  0.57429400  0.24656600  0.29812800  1
  O  O58  1  0.07429400  0.25343400  0.29812800  1
  O  O59  1  0.57429400  0.74656600  0.20187200  1
  O  O60  1  0.92570600  0.74656600  0.70187200  1
  O  O61  1  0.42570600  0.25343400  0.79812800  1
  O  O62  1  0.92570600  0.24656600  0.79812800  1
  O  O63  1  0.07429400  0.75343400  0.20187200  1
