# generated using pymatgen
data_Li3SbN2
_symmetry_space_group_name_H-M   'P 1'
_cell_length_a   9.16075678
_cell_length_b   10.57793093
_cell_length_c   10.57793072
_cell_angle_alpha   89.99999922
_cell_angle_beta   125.26438996
_cell_angle_gamma   54.73561087
_symmetry_Int_Tables_number   1
_chemical_formula_structural   Li3SbN2
_chemical_formula_sum   'Li24 Sb8 N16'
_cell_volume   591.79619387
_cell_formula_units_Z   8
loop_
 _symmetry_equiv_pos_site_id
 _symmetry_equiv_pos_as_xyz
  1  'x, y, z'
loop_
 _atom_site_type_symbol
 _atom_site_label
 _atom_site_symmetry_multiplicity
 _atom_site_fract_x
 _atom_site_fract_y
 _atom_site_fract_z
 _atom_site_occupancy
  Li  Li0  1  0.28566240  0.96854401  0.05180961  1
  Li  Li1  1  0.71433760  0.75420640  0.44819039  1
  Li  Li2  1  0.71433760  0.53145599  0.76614721  1
  Li  Li3  1  0.28566240  0.74579360  0.73385279  1
  Li  Li4  1  0.18204318  0.76614721  0.20239679  1
  Li  Li5  1  0.81795682  0.73385279  0.02035361  1
  Li  Li6  1  0.18204318  0.05180961  0.47964639  1
  Li  Li7  1  0.81795682  0.44819039  0.29760321  1
  Li  Li8  1  0.77724959  0.02035361  0.74579360  1
  Li  Li9  1  0.77724959  0.20239679  0.53145599  1
  Li  Li10  1  0.22275041  0.29760321  0.75420640  1
  Li  Li11  1  0.22275041  0.47964639  0.96854401  1
  Li  Li12  1  0.71433760  0.03145599  0.94819039  1
  Li  Li13  1  0.28566240  0.24579360  0.55180961  1
  Li  Li14  1  0.28566240  0.46854401  0.23385279  1
  Li  Li15  1  0.71433760  0.25420640  0.26614721  1
  Li  Li16  1  0.81795682  0.23385279  0.79760321  1
  Li  Li17  1  0.18204318  0.26614721  0.97964639  1
  Li  Li18  1  0.81795682  0.94819039  0.52035361  1
  Li  Li19  1  0.18204318  0.55180961  0.70239679  1
  Li  Li20  1  0.22275041  0.97964639  0.25420640  1
  Li  Li21  1  0.22275041  0.79760321  0.46854401  1
  Li  Li22  1  0.77724959  0.70239679  0.24579360  1
  Li  Li23  1  0.77724959  0.52035361  0.03145599  1
  Sb  Sb24  1  0.28880128  1.00000000  0.78880128  1
  Sb  Sb25  1  0.71119872  0.78880128  0.71119872  1
  Sb  Sb26  1  0.71119872  0.50000000  0.50000000  1
  Sb  Sb27  1  0.28880128  0.71119872  0.00000000  1
  Sb  Sb28  1  0.71119872  0.00000000  0.21119872  1
  Sb  Sb29  1  0.28880128  0.21119872  0.28880128  1
  Sb  Sb30  1  0.28880128  0.50000000  0.50000000  1
  Sb  Sb31  1  0.71119872  0.28880128  0.00000000  1
  N  N32  1  0.00000000  0.00000000  0.50000000  1
  N  N33  1  0.00000000  0.50000000  0.00000000  1
  N  N34  1  0.00000000  0.50000000  0.50000000  1
  N  N35  1  0.00000000  0.00000000  0.00000000  1
  N  N36  1  0.50000000  0.00446326  0.75000000  1
  N  N37  1  0.50000000  0.49553674  0.25000000  1
  N  N38  1  0.00000000  0.25000000  0.75446326  1
  N  N39  1  0.00000000  0.75000000  0.74553674  1
  N  N40  1  0.49107348  0.75446326  0.49553674  1
  N  N41  1  0.50892652  0.74553674  0.00446326  1
  N  N42  1  0.50000000  0.99553674  0.25000000  1
  N  N43  1  0.50000000  0.50446326  0.75000000  1
  N  N44  1  0.00000000  0.75000000  0.24553674  1
  N  N45  1  0.00000000  0.25000000  0.25446326  1
  N  N46  1  0.50892652  0.24553674  0.50446326  1
  N  N47  1  0.49107348  0.25446326  0.99553674  1
