# generated using pymatgen
data_Li4Sc3In(SiO3)8
_symmetry_space_group_name_H-M   'P 1'
_cell_length_a   6.73684400
_cell_length_b   7.48450892
_cell_length_c   9.67414768
_cell_angle_alpha   102.74871960
_cell_angle_beta   101.74726950
_cell_angle_gamma   96.27656076
_symmetry_Int_Tables_number   1
_chemical_formula_structural   Li4Sc3In(SiO3)8
_chemical_formula_sum   'Li4 Sc3 In1 Si8 O24'
_cell_volume   459.68180417
_cell_formula_units_Z   1
loop_
 _symmetry_equiv_pos_site_id
 _symmetry_equiv_pos_as_xyz
  1  'x, y, z'
loop_
 _atom_site_type_symbol
 _atom_site_label
 _atom_site_symmetry_multiplicity
 _atom_site_fract_x
 _atom_site_fract_y
 _atom_site_fract_z
 _atom_site_occupancy
  Li  Li0  1  0.74771200  0.25077500  0.49898500  1
  Li  Li1  1  0.74893600  0.75089200  0.99934600  1
  Li  Li2  1  0.25207500  0.74937300  0.50037000  1
  Li  Li3  1  0.25133600  0.24897400  0.00133600  1
  Sc  Sc4  1  0.39135300  0.42906400  0.32090400  1
  Sc  Sc5  1  0.60956200  0.07206700  0.18092100  1
  Sc  Sc6  1  0.60838800  0.56892400  0.67806500  1
  In  In7  1  0.39490900  0.92773800  0.82224600  1
  Si  Si8  1  0.88523000  0.99618700  0.78122600  1
  Si  Si9  1  0.88584700  0.49537400  0.28180000  1
  Si  Si10  1  0.28580400  0.16918100  0.55325600  1
  Si  Si11  1  0.28563400  0.66801000  0.05494700  1
  Si  Si12  1  0.11399100  0.00510000  0.21781900  1
  Si  Si13  1  0.11330900  0.50368400  0.71814800  1
  Si  Si14  1  0.71311500  0.83115800  0.44548400  1
  Si  Si15  1  0.71410000  0.33280500  0.94584900  1
  O  O16  1  0.84300000  0.70785500  0.34264200  1
  O  O17  1  0.84066200  0.20818400  0.84169600  1
  O  O18  1  0.13350700  0.05432900  0.39547400  1
  O  O19  1  0.13472500  0.55366600  0.89613800  1
  O  O20  1  0.15634300  0.29126600  0.65733900  1
  O  O21  1  0.15642500  0.79218100  0.15747000  1
  O  O22  1  0.86547900  0.94694200  0.60339000  1
  O  O23  1  0.86594000  0.44758200  0.10391600  1
  O  O24  1  0.11547400  0.99278600  0.86837500  1
  O  O25  1  0.11978400  0.48870400  0.36194600  1
  O  O26  1  0.37572200  0.01211300  0.62694300  1
  O  O27  1  0.37302300  0.51435100  0.13464100  1
  O  O28  1  0.87961100  0.01110800  0.13789600  1
  O  O29  1  0.87975100  0.51085100  0.63772600  1
  O  O30  1  0.62686400  0.98534400  0.36558800  1
  O  O31  1  0.62686800  0.48615400  0.86534700  1
  O  O32  1  0.70701100  0.84559500  0.80937600  1
  O  O33  1  0.70506600  0.34770100  0.30970500  1
  O  O34  1  0.46152500  0.32012300  0.52331900  1
  O  O35  1  0.46420400  0.81771900  0.02645600  1
  O  O36  1  0.29574100  0.15262700  0.19084200  1
  O  O37  1  0.29438800  0.64713200  0.68645800  1
  O  O38  1  0.53829200  0.68039600  0.47599900  1
  O  O39  1  0.53929300  0.18598400  0.98061300  1
