# generated using pymatgen
data_Li8MnFe7(BO3)8
_symmetry_space_group_name_H-M   'P 1'
_cell_length_a   5.99365600
_cell_length_b   8.98614684
_cell_length_c   9.73185536
_cell_angle_alpha   81.21517060
_cell_angle_beta   79.68440142
_cell_angle_gamma   77.20917552
_symmetry_Int_Tables_number   1
_chemical_formula_structural   Li8MnFe7(BO3)8
_chemical_formula_sum   'Li8 Mn1 Fe7 B8 O24'
_cell_volume   499.38226763
_cell_formula_units_Z   1
loop_
 _symmetry_equiv_pos_site_id
 _symmetry_equiv_pos_as_xyz
  1  'x, y, z'
loop_
 _atom_site_type_symbol
 _atom_site_label
 _atom_site_symmetry_multiplicity
 _atom_site_fract_x
 _atom_site_fract_y
 _atom_site_fract_z
 _atom_site_occupancy
  Li  Li0  1  0.97085900  0.96568400  0.70092300  1
  Li  Li1  1  0.72119900  0.46706300  0.95300000  1
  Li  Li2  1  0.77934800  0.53415400  0.54780700  1
  Li  Li3  1  0.47302800  0.96669100  0.20361200  1
  Li  Li4  1  0.52775200  0.03545300  0.79632800  1
  Li  Li5  1  0.22050100  0.46536500  0.45259500  1
  Li  Li6  1  0.28067300  0.53312600  0.04882600  1
  Li  Li7  1  0.02786800  0.03357400  0.29708800  1
  Mn  Mn8  1  0.78855600  0.79281000  0.97856900  1
  Fe  Fe9  1  0.96280900  0.70366200  0.27786500  1
  Fe  Fe10  1  0.71070400  0.21005700  0.52435400  1
  Fe  Fe11  1  0.46293200  0.70523300  0.77455600  1
  Fe  Fe12  1  0.53954700  0.29141800  0.22516500  1
  Fe  Fe13  1  0.28844100  0.79604300  0.47478400  1
  Fe  Fe14  1  0.03925800  0.29197800  0.72536100  1
  Fe  Fe15  1  0.21198400  0.20357500  0.02528700  1
  B  B16  1  0.98208300  0.36595900  0.27719000  1
  B  B17  1  0.73226800  0.86797400  0.52720900  1
  B  B18  1  0.76782200  0.13511400  0.97025000  1
  B  B19  1  0.47968500  0.36777300  0.77791000  1
  B  B20  1  0.51576600  0.63217200  0.22464600  1
  B  B21  1  0.23298500  0.86655900  0.02779000  1
  B  B22  1  0.26972400  0.13336600  0.47242300  1
  B  B23  1  0.01809800  0.63157400  0.72055400  1
  O  O24  1  0.90757800  0.86500200  0.41050000  1
  O  O25  1  0.84122600  0.63420200  0.83530300  1
  O  O26  1  0.88772700  0.25636300  0.93693800  1
  O  O27  1  0.93154000  0.48454600  0.36009400  1
  O  O28  1  0.68414100  0.98655600  0.60954200  1
  O  O29  1  0.81502300  0.01838700  0.88627800  1
  O  O30  1  0.86339300  0.24380900  0.31345400  1
  O  O31  1  0.61279400  0.74655800  0.56218600  1
  O  O32  1  0.65430500  0.36500800  0.66112900  1
  O  O33  1  0.40635500  0.86424700  0.91093700  1
  O  O34  1  0.63465100  0.75424900  0.19156400  1
  O  O35  1  0.43245200  0.48596100  0.86064600  1
  O  O36  1  0.56686600  0.51487800  0.14054000  1
  O  O37  1  0.36041600  0.24647800  0.81378000  1
  O  O38  1  0.59385100  0.13684700  0.08789800  1
  O  O39  1  0.33865500  0.63471500  0.33971300  1
  O  O40  1  0.38860100  0.25502300  0.43600500  1
  O  O41  1  0.13859000  0.75274100  0.68632300  1
  O  O42  1  0.18436900  0.98607300  0.11018100  1
  O  O43  1  0.31722000  0.01449300  0.38982000  1
  O  O44  1  0.06823500  0.51297200  0.63769600  1
  O  O45  1  0.11453700  0.74514400  0.06478700  1
  O  O46  1  0.15759000  0.36361200  0.16152300  1
  O  O47  1  0.09599200  0.13576000  0.58906800  1
