# generated using pymatgen
data_LiVP2O7
_symmetry_space_group_name_H-M   'P 1'
_cell_length_a   7.62399413
_cell_length_b   10.02222160
_cell_length_c   7.52114228
_cell_angle_alpha   75.14639028
_cell_angle_beta   112.21426855
_cell_angle_gamma   104.52867231
_symmetry_Int_Tables_number   1
_chemical_formula_structural   LiVP2O7
_chemical_formula_sum   'Li4 V4 P8 O28'
_cell_volume   506.58484625
_cell_formula_units_Z   4
loop_
 _symmetry_equiv_pos_site_id
 _symmetry_equiv_pos_as_xyz
  1  'x, y, z'
loop_
 _atom_site_type_symbol
 _atom_site_label
 _atom_site_symmetry_multiplicity
 _atom_site_fract_x
 _atom_site_fract_y
 _atom_site_fract_z
 _atom_site_occupancy
  Li  Li0  1  0.05271900  0.73003600  0.12045700  1
  Li  Li1  1  0.55449600  0.22968700  0.62269100  1
  Li  Li2  1  0.94763400  0.27031200  0.87816600  1
  Li  Li3  1  0.44563400  0.77089600  0.37666000  1
  V  V4  1  0.69298100  0.50091500  0.18307000  1
  V  V5  1  0.30721000  0.49903800  0.81727300  1
  V  V6  1  0.19366300  0.00131400  0.68196900  1
  V  V7  1  0.80652800  0.99862000  0.31821700  1
  P  P8  1  0.28690700  0.47386400  0.23364600  1
  P  P9  1  0.78826100  0.97337700  0.73485200  1
  P  P10  1  0.21133800  0.02658900  0.26471700  1
  P  P11  1  0.71332400  0.52618700  0.76663800  1
  P  P12  1  0.96750500  0.69707100  0.52060400  1
  P  P13  1  0.46658800  0.19689300  0.02042700  1
  P  P14  1  0.53324600  0.80302200  0.97971900  1
  P  P15  1  0.03263600  0.30288100  0.47970800  1
  O  O16  1  0.69432500  0.85311100  0.87916400  1
  O  O17  1  0.19115200  0.35324900  0.37607600  1
  O  O18  1  0.80918100  0.64700900  0.62449700  1
  O  O19  1  0.30489000  0.14705300  0.12024000  1
  O  O20  1  0.50063200  0.64084200  0.00075100  1
  O  O21  1  0.00052200  0.14071800  0.50095600  1
  O  O22  1  0.99973000  0.85927700  0.49918500  1
  O  O23  1  0.49951200  0.35908600  0.99948600  1
  O  O24  1  0.24027000  0.88532100  0.25635700  1
  O  O25  1  0.74204500  0.38495900  0.75785400  1
  O  O26  1  0.25834000  0.61519600  0.24220300  1
  O  O27  1  0.75953100  0.11478500  0.74293300  1
  O  O28  1  0.18490800  0.43134900  0.02829400  1
  O  O29  1  0.68514300  0.93023000  0.52989500  1
  O  O30  1  0.99854300  0.94787800  0.82045500  1
  O  O31  1  0.49704000  0.44798900  0.32027300  1
  O  O32  1  0.50311700  0.55184100  0.68004500  1
  O  O33  1  0.00093600  0.05180100  0.17917500  1
  O  O34  1  0.31446200  0.06961000  0.46973700  1
  O  O35  1  0.81528500  0.56862500  0.97204200  1
  O  O36  1  0.38821000  0.15700200  0.81847300  1
  O  O37  1  0.88629200  0.65699100  0.31868800  1
  O  O38  1  0.15004300  0.64059100  0.64947700  1
  O  O39  1  0.64774400  0.13968600  0.15232300  1
  O  O40  1  0.35172000  0.85995400  0.84836300  1
  O  O41  1  0.85008300  0.35932500  0.35089100  1
  O  O42  1  0.11372100  0.34285700  0.68172500  1
  O  O43  1  0.61195200  0.84296300  0.18162700  1
