# generated using pymatgen
data_Li10Zn7(PS4)8
_symmetry_space_group_name_H-M   'P 1'
_cell_length_a   11.63812700
_cell_length_b   11.64382539
_cell_length_c   18.39080387
_cell_angle_alpha   89.98369308
_cell_angle_beta   89.96163313
_cell_angle_gamma   89.98513456
_symmetry_Int_Tables_number   1
_chemical_formula_structural   Li10Zn7(PS4)8
_chemical_formula_sum   'Li20 Zn14 P16 S64'
_cell_volume   2492.17973093
_cell_formula_units_Z   2
loop_
 _symmetry_equiv_pos_site_id
 _symmetry_equiv_pos_as_xyz
  1  'x, y, z'
loop_
 _atom_site_type_symbol
 _atom_site_label
 _atom_site_symmetry_multiplicity
 _atom_site_fract_x
 _atom_site_fract_y
 _atom_site_fract_z
 _atom_site_occupancy
  Li  Li0  1  0.00811300  0.25050600  0.62611400  1
  Li  Li1  1  0.25092600  0.50107500  0.87216500  1
  Li  Li2  1  0.50145100  0.50119800  0.74708300  1
  Li  Li3  1  0.99926100  0.50225300  0.74964300  1
  Li  Li4  1  0.49591200  0.00093200  0.74949500  1
  Li  Li5  1  0.00291600  0.99563500  0.75275100  1
  Li  Li6  1  0.24979900  0.74941800  0.49945500  1
  Li  Li7  1  0.49997000  0.50032100  0.25049200  1
  Li  Li8  1  0.74970200  0.75050500  0.49967200  1
  Li  Li9  1  0.99997300  0.50003800  0.25008300  1
  Li  Li10  1  0.25306000  0.24931300  0.49607500  1
  Li  Li11  1  0.50001500  0.00004900  0.25009000  1
  Li  Li12  1  0.74667600  0.24992800  0.49687400  1
  Li  Li13  1  0.99998600  0.99985300  0.24964800  1
  Li  Li14  1  0.25071100  0.75334300  0.00142200  1
  Li  Li15  1  0.75039400  0.75011400  0.00244400  1
  Li  Li16  1  0.24952100  0.24680800  0.00184800  1
  Li  Li17  1  0.74956500  0.24978800  0.00273700  1
  Li  Li18  1  0.25356400  0.24743800  0.74953900  1
  Li  Li19  1  0.24921100  0.75417900  0.74628500  1
  Zn  Zn20  1  0.74803500  0.25127100  0.75351200  1
  Zn  Zn21  1  0.74949100  0.74891700  0.75106600  1
  Zn  Zn22  1  0.49611000  0.49755600  0.50082200  1
  Zn  Zn23  1  0.75003600  0.24976500  0.24983600  1
  Zn  Zn24  1  0.00349200  0.50473300  0.49811900  1
  Zn  Zn25  1  0.24993200  0.24996900  0.25003100  1
  Zn  Zn26  1  0.49767800  0.99806300  0.50127500  1
  Zn  Zn27  1  0.74969600  0.75030300  0.24999800  1
  Zn  Zn28  1  0.00207000  0.99964500  0.49860500  1
  Zn  Zn29  1  0.25040500  0.75003800  0.25020500  1
  Zn  Zn30  1  0.50328200  0.50030600  0.00160800  1
  Zn  Zn31  1  0.99692200  0.49978700  0.00179200  1
  Zn  Zn32  1  0.50062800  0.00098300  0.99882300  1
  Zn  Zn33  1  0.99948300  0.99877900  0.99906000  1
  P  P34  1  0.75028600  0.49857100  0.62540500  1
  P  P35  1  0.24837400  0.49828500  0.62438700  1
  P  P36  1  0.75137700  0.00045400  0.62381600  1
  P  P37  1  0.24957100  0.00144000  0.62603000  1
  P  P38  1  0.50036300  0.74979000  0.37523400  1
  P  P39  1  0.75003300  0.50007500  0.12625600  1
  P  P40  1  0.99969000  0.75039300  0.37423200  1
  P  P41  1  0.25006600  0.49995300  0.12472600  1
  P  P42  1  0.50018300  0.24977600  0.37445000  1
  P  P43  1  0.74992900  0.00007200  0.12522100  1
  P  P44  1  0.99943100  0.25020400  0.37478700  1
  P  P45  1  0.24995700  0.99991600  0.12511200  1
  P  P46  1  0.50035600  0.75378800  0.87369200  1
  P  P47  1  0.99940500  0.74448100  0.87688100  1
  P  P48  1  0.50056200  0.25550900  0.87708200  1
  P  P49  1  0.99964300  0.24660400  0.87366800  1
  S  S50  1  0.64020000  0.10381700  0.56678800  1
  S  S51  1  0.14068800  0.10754900  0.56187300  1
  S  S52  1  0.64047200  0.60014700  0.56609400  1
  S  S53  1  0.14004500  0.60510200  0.56581200  1
  S  S54  1  0.38864700  0.35353200  0.31709500  1
  S  S55  1  0.63845100  0.10366500  0.06805600  1
  S  S56  1  0.88855000  0.35403000  0.31740400  1
  S  S57  1  0.13777100  0.10252200  0.06768300  1
  S  S58  1  0.38926000  0.85333200  0.31736500  1
  S  S59  1  0.63925700  0.60471700  0.06931600  1
  S  S60  1  0.88859600  0.85425500  0.31698800  1
  S  S61  1  0.13979400  0.60333500  0.06606000  1
  S  S62  1  0.39371500  0.35722900  0.81621700  1
  S  S63  1  0.88966400  0.35446400  0.81747700  1
  S  S64  1  0.39117500  0.85442800  0.81785300  1
  S  S65  1  0.89016900  0.84899000  0.81815900  1
  S  S66  1  0.34948900  0.60329100  0.68440500  1
  S  S67  1  0.85365100  0.61016100  0.68191500  1
  S  S68  1  0.35466600  0.10966300  0.68003900  1
  S  S69  1  0.85433000  0.11126600  0.68565500  1
  S  S70  1  0.10416300  0.86054500  0.43157300  1
  S  S71  1  0.35373800  0.61086900  0.18221500  1
  S  S72  1  0.60373600  0.86141600  0.43256100  1
  S  S73  1  0.85417500  0.61124100  0.18320200  1
  S  S74  1  0.10318600  0.36031400  0.43302400  1
  S  S75  1  0.35332000  0.11134900  0.18266400  1
  S  S76  1  0.60275800  0.36224300  0.43164700  1
  S  S77  1  0.85384300  0.11120600  0.18263400  1
  S  S78  1  0.10278100  0.85809100  0.93313100  1
  S  S79  1  0.60461900  0.85755800  0.93611200  1
  S  S80  1  0.10267700  0.35981000  0.93505500  1
  S  S81  1  0.60738000  0.36182800  0.93571600  1
  S  S82  1  0.86191700  0.39617800  0.56384600  1
  S  S83  1  0.35657700  0.39251200  0.56507500  1
  S  S84  1  0.86290600  0.89713300  0.56705300  1
  S  S85  1  0.35496100  0.89671800  0.56369000  1
  S  S86  1  0.61149100  0.64626100  0.31747200  1
  S  S87  1  0.86088500  0.39519200  0.06938100  1
  S  S88  1  0.11086700  0.64616200  0.31702900  1
  S  S89  1  0.36038600  0.39651700  0.06614400  1
  S  S90  1  0.61173900  0.14625700  0.31710800  1
  S  S91  1  0.86141900  0.89641000  0.06801800  1
  S  S92  1  0.11058600  0.14638800  0.31738700  1
  S  S93  1  0.36210500  0.89749400  0.06760800  1
  S  S94  1  0.61087600  0.64598800  0.81801600  1
  S  S95  1  0.10850200  0.64491900  0.81610600  1
  S  S96  1  0.60840800  0.14909700  0.81844800  1
  S  S97  1  0.10754000  0.14643600  0.81604800  1
  S  S98  1  0.64709100  0.38651300  0.68170300  1
  S  S99  1  0.14447100  0.39072600  0.68511000  1
  S  S100  1  0.64916600  0.89174600  0.68362100  1
  S  S101  1  0.14291400  0.89436000  0.68001800  1
  S  S102  1  0.39655000  0.63878000  0.43263800  1
  S  S103  1  0.64585300  0.38896600  0.18331700  1
  S  S104  1  0.89525500  0.63928600  0.43143000  1
  S  S105  1  0.14618100  0.38902200  0.18223800  1
  S  S106  1  0.39762300  0.13777400  0.43164000  1
  S  S107  1  0.64616300  0.88892800  0.18275900  1
  S  S108  1  0.89581800  0.13936900  0.43284800  1
  S  S109  1  0.14659000  0.88844400  0.18269900  1
  S  S110  1  0.39769900  0.64004000  0.93545200  1
  S  S111  1  0.89304700  0.63757100  0.93557200  1
  S  S112  1  0.39672900  0.14231700  0.93332600  1
  S  S113  1  0.89550900  0.14241000  0.93576100  1
