# generated using pymatgen
data_Li4Nb2V3Ni3O16
_symmetry_space_group_name_H-M   'P 1'
_cell_length_a   5.95780400
_cell_length_b   5.97096096
_cell_length_c   9.74757468
_cell_angle_alpha   89.88816537
_cell_angle_beta   90.59299018
_cell_angle_gamma   119.88899979
_symmetry_Int_Tables_number   1
_chemical_formula_structural   Li4Nb2V3Ni3O16
_chemical_formula_sum   'Li4 Nb2 V3 Ni3 O16'
_cell_volume   300.61877111
_cell_formula_units_Z   1
loop_
 _symmetry_equiv_pos_site_id
 _symmetry_equiv_pos_as_xyz
  1  'x, y, z'
loop_
 _atom_site_type_symbol
 _atom_site_label
 _atom_site_symmetry_multiplicity
 _atom_site_fract_x
 _atom_site_fract_y
 _atom_site_fract_z
 _atom_site_occupancy
  Li  Li0  1  0.68652700  0.34227100  0.89768100  1
  Li  Li1  1  0.99163500  0.99865700  0.99019200  1
  Li  Li2  1  0.99220200  0.99767800  0.49388500  1
  Li  Li3  1  0.34100000  0.66804900  0.39979000  1
  Nb  Nb4  1  0.65661300  0.33179000  0.50036300  1
  Nb  Nb5  1  0.30893500  0.65516500  0.99921200  1
  V  V6  1  0.81794100  0.17069700  0.22447500  1
  V  V7  1  0.81859900  0.65287600  0.21681200  1
  V  V8  1  0.64102900  0.82276600  0.73176900  1
  Ni  Ni9  1  0.33904600  0.16952900  0.21386500  1
  Ni  Ni10  1  0.16717300  0.33850000  0.70934500  1
  Ni  Ni11  1  0.16744500  0.82919300  0.70923800  1
  O  O12  1  0.81855000  0.15712700  0.59512800  1
  O  O13  1  0.96517300  0.47157200  0.34498300  1
  O  O14  1  0.68892100  0.32870300  0.10462300  1
  O  O15  1  0.98578700  0.00344800  0.30270200  1
  O  O16  1  0.97534400  0.98775700  0.79955000  1
  O  O17  1  0.82221700  0.66277500  0.59430000  1
  O  O18  1  0.52758000  0.03670300  0.34237100  1
  O  O19  1  0.52774300  0.48620700  0.34274800  1
  O  O20  1  0.65864700  0.83425200  0.09169500  1
  O  O21  1  0.32962300  0.16418500  0.58871100  1
  O  O22  1  0.51003500  0.53812300  0.83941700  1
  O  O23  1  0.50825300  0.97293000  0.83869200  1
  O  O24  1  0.37377700  0.68646400  0.60677800  1
  O  O25  1  0.16525700  0.33319900  0.09180900  1
  O  O26  1  0.05506400  0.52809200  0.84578800  1
  O  O27  1  0.15988400  0.83098800  0.09191600  1
