# generated using pymatgen
data_Li8V3P8O29
_symmetry_space_group_name_H-M   'P 1'
_cell_length_a   9.88062874
_cell_length_b   9.88062874
_cell_length_c   13.80680183
_cell_angle_alpha   89.76414798
_cell_angle_beta   89.76414798
_cell_angle_gamma   59.91116063
_symmetry_Int_Tables_number   1
_chemical_formula_structural   Li8V3P8O29
_chemical_formula_sum   'Li16 V6 P16 O58'
_cell_volume   1166.26839074
_cell_formula_units_Z   2
loop_
 _symmetry_equiv_pos_site_id
 _symmetry_equiv_pos_as_xyz
  1  'x, y, z'
loop_
 _atom_site_type_symbol
 _atom_site_label
 _atom_site_symmetry_multiplicity
 _atom_site_fract_x
 _atom_site_fract_y
 _atom_site_fract_z
 _atom_site_occupancy
  Li  Li0  1  0.67104900  0.23410500  0.06429100  1
  Li  Li1  1  0.67161800  0.09493200  0.56289600  1
  Li  Li2  1  0.23410500  0.67104900  0.56429100  1
  Li  Li3  1  0.33789300  0.33198800  0.38183500  1
  Li  Li4  1  0.33198800  0.33789300  0.88183500  1
  Li  Li5  1  0.09493200  0.67161800  0.06289600  1
  Li  Li6  1  0.23467800  0.09508500  0.06437000  1
  Li  Li7  1  0.89883200  0.76573600  0.44004300  1
  Li  Li8  1  0.09508500  0.23467800  0.56437000  1
  Li  Li9  1  0.76573600  0.89883200  0.94004300  1
  Li  Li10  1  0.89853800  0.33618700  0.93729200  1
  Li  Li11  1  0.76386400  0.33712500  0.43814300  1
  Li  Li12  1  0.33618700  0.89853800  0.43729200  1
  Li  Li13  1  0.33712500  0.76386400  0.93814300  1
  Li  Li14  1  0.99936700  0.99787100  0.00077700  1
  Li  Li15  1  0.99787100  0.99936700  0.50077700  1
  V  V16  1  0.99640300  0.56463800  0.24982000  1
  V  V17  1  0.99891300  0.43631800  0.74843300  1
  V  V18  1  0.56463800  0.99640300  0.74982000  1
  V  V19  1  0.43631800  0.99891300  0.24843300  1
  V  V20  1  0.56411700  0.43653700  0.24843800  1
  V  V21  1  0.43653700  0.56411700  0.74843800  1
  P  P22  1  0.68539700  0.22259300  0.84350900  1
  P  P23  1  0.68553200  0.09057900  0.34405100  1
  P  P24  1  0.22259300  0.68539700  0.34350900  1
  P  P25  1  0.33077600  0.33430400  0.12575200  1
  P  P26  1  0.33430400  0.33077600  0.62575200  1
  P  P27  1  0.09057900  0.68553200  0.84405100  1
  P  P28  1  0.91277600  0.77427400  0.65686900  1
  P  P29  1  0.22464400  0.08915300  0.84348700  1
  P  P30  1  0.77427400  0.91277600  0.15686900  1
  P  P31  1  0.08915300  0.22464400  0.34348700  1
  P  P32  1  0.91486700  0.31278000  0.15611400  1
  P  P33  1  0.66744000  0.66410600  0.37433700  1
  P  P34  1  0.66410600  0.66744000  0.87433700  1
  P  P35  1  0.77376700  0.31241600  0.65563100  1
  P  P36  1  0.31278000  0.91486700  0.65611400  1
  P  P37  1  0.31241600  0.77376700  0.15563100  1
  O  O38  1  0.77527200  0.21966200  0.56688700  1
  O  O39  1  0.67301100  0.25172800  0.34445300  1
  O  O40  1  0.78051600  0.00116000  0.06747200  1
  O  O41  1  0.66958600  0.07464100  0.84378000  1
  O  O42  1  0.52133000  0.36766700  0.83467300  1
  O  O43  1  0.48306600  0.32598000  0.16353100  1
  O  O44  1  0.36766700  0.52133000  0.33467300  1
  O  O45  1  0.21966200  0.77527200  0.06688700  1
  O  O46  1  0.25172800  0.67301100  0.84445300  1
  O  O47  1  0.48683200  0.18341500  0.66850100  1
  O  O48  1  0.52157300  0.11002400  0.33354500  1
  O  O49  1  0.32598000  0.48306600  0.66353100  1
  O  O50  1  0.32542200  0.34183800  0.01649800  1
  O  O51  1  0.34183800  0.32542200  0.51649800  1
  O  O52  1  0.18341500  0.48683200  0.16850100  1
  O  O53  1  0.37265800  0.10541400  0.83050600  1
  O  O54  1  0.32044900  0.19121700  0.16335600  1
  O  O55  1  0.07464100  0.66958600  0.34378000  1
  O  O56  1  0.00111700  0.79053600  0.75062100  1
  O  O57  1  0.00116000  0.78051600  0.56747200  1
  O  O58  1  0.99566000  0.77582800  0.93261100  1
  O  O59  1  0.11002400  0.52157300  0.83354500  1
  O  O60  1  0.19121700  0.32044900  0.66335600  1
  O  O61  1  0.92114800  0.74844000  0.15877700  1
  O  O62  1  0.10541400  0.37265800  0.33050600  1
  O  O63  1  0.25204100  0.07902200  0.34552200  1
  O  O64  1  0.79053600  0.00111700  0.25062100  1
  O  O65  1  0.77582800  0.99566000  0.43261100  1
  O  O66  1  0.22394200  0.00598600  0.56645500  1
  O  O67  1  0.74844000  0.92114800  0.65877700  1
  O  O68  1  0.90645000  0.62452100  0.66597900  1
  O  O69  1  0.07902200  0.25204100  0.84552200  1
  O  O70  1  0.81928400  0.66401800  0.32848400  1
  O  O71  1  0.91087000  0.46940400  0.16859600  1
  O  O72  1  0.00598600  0.22394200  0.06645500  1
  O  O73  1  0.99567100  0.23154700  0.43289000  1
  O  O74  1  0.00225600  0.20749600  0.25038000  1
  O  O75  1  0.92107100  0.32650400  0.65622800  1
  O  O76  1  0.66401800  0.81928400  0.82848400  1
  O  O77  1  0.62452100  0.90645000  0.16597900  1
  O  O78  1  0.81053400  0.51916700  0.83469700  1
  O  O79  1  0.66521200  0.68035300  0.98203600  1
  O  O80  1  0.68035300  0.66521200  0.48203600  1
  O  O81  1  0.67489500  0.51339500  0.33501400  1
  O  O82  1  0.46940400  0.91087000  0.66859600  1
  O  O83  1  0.51916700  0.81053400  0.33469700  1
  O  O84  1  0.75215700  0.33070700  0.15513400  1
  O  O85  1  0.78961100  0.20693000  0.75040200  1
  O  O86  1  0.77652700  0.22318300  0.93229500  1
  O  O87  1  0.62389000  0.46931300  0.66653600  1
  O  O88  1  0.51339500  0.67489500  0.83501400  1
  O  O89  1  0.46931300  0.62389000  0.16653600  1
  O  O90  1  0.32650400  0.92107100  0.15622800  1
  O  O91  1  0.23154700  0.99567100  0.93289000  1
  O  O92  1  0.20749600  0.00225600  0.75038000  1
  O  O93  1  0.33070700  0.75215700  0.65513400  1
  O  O94  1  0.22318300  0.77652700  0.43229500  1
  O  O95  1  0.20693000  0.78961100  0.25040200  1
