# generated using pymatgen
data_Li9Mn2Co5O16
_symmetry_space_group_name_H-M   'P 1'
_cell_length_a   2.98881800
_cell_length_b   9.89859805
_cell_length_c   10.01460302
_cell_angle_alpha   78.23110705
_cell_angle_beta   87.67150206
_cell_angle_gamma   87.38382810
_symmetry_Int_Tables_number   1
_chemical_formula_structural   Li9Mn2Co5O16
_chemical_formula_sum   'Li9 Mn2 Co5 O16'
_cell_volume   289.60379141
_cell_formula_units_Z   1
loop_
 _symmetry_equiv_pos_site_id
 _symmetry_equiv_pos_as_xyz
  1  'x, y, z'
loop_
 _atom_site_type_symbol
 _atom_site_label
 _atom_site_symmetry_multiplicity
 _atom_site_fract_x
 _atom_site_fract_y
 _atom_site_fract_z
 _atom_site_occupancy
  Li  Li0  1  0.00123000  0.25125800  0.12393300  1
  Li  Li1  1  0.49723500  0.74719800  0.12513500  1
  Li  Li2  1  0.49294700  0.24521800  0.37384400  1
  Li  Li3  1  0.99525200  0.75049500  0.37159400  1
  Li  Li4  1  0.01690100  0.25542500  0.63226500  1
  Li  Li5  1  0.51533500  0.74567400  0.63208000  1
  Li  Li6  1  0.50442600  0.26399600  0.86546100  1
  Li  Li7  1  0.99007300  0.74764400  0.87847100  1
  Li  Li8  1  0.98334400  0.49024000  0.74970200  1
  Mn  Mn9  1  0.98869700  0.00220300  0.00111300  1
  Mn  Mn10  1  0.51052200  0.50024200  0.50452700  1
  Co  Co11  1  0.49002500  0.50012700  0.99158300  1
  Co  Co12  1  0.51114800  0.99984700  0.25196000  1
  Co  Co13  1  0.01192200  0.50325200  0.24796200  1
  Co  Co14  1  0.00897100  0.99701100  0.49921800  1
  Co  Co15  1  0.48960800  0.00025100  0.74776400  1
  O  O16  1  0.52578200  0.11607500  0.07361900  1
  O  O17  1  0.02168900  0.61124900  0.06822300  1
  O  O18  1  0.04129900  0.11645800  0.31808500  1
  O  O19  1  0.54048100  0.61316000  0.31480800  1
  O  O20  1  0.49066700  0.11278900  0.56666200  1
  O  O21  1  0.99044300  0.60912500  0.55330500  1
  O  O22  1  0.97355900  0.11476700  0.81652500  1
  O  O23  1  0.49678400  0.61468100  0.83412600  1
  O  O24  1  0.47248900  0.39277100  0.17916200  1
  O  O25  1  0.97555200  0.88581500  0.18515200  1
  O  O26  1  0.02918100  0.39600900  0.43435000  1
  O  O27  1  0.52083300  0.88603100  0.43069300  1
  O  O28  1  0.49930200  0.38200100  0.67172400  1
  O  O29  1  0.00217100  0.88051500  0.68085200  1
  O  O30  1  0.95986000  0.38494500  0.94523200  1
  O  O31  1  0.45227200  0.88353000  0.93086900  1
