# generated using pymatgen
data_K4Li5Cr2O8
_symmetry_space_group_name_H-M   'P 1'
_cell_length_a   5.62244100
_cell_length_b   8.77442316
_cell_length_c   10.88108389
_cell_angle_alpha   90.38119407
_cell_angle_beta   100.27510992
_cell_angle_gamma   90.41046416
_symmetry_Int_Tables_number   1
_chemical_formula_structural   K4Li5Cr2O8
_chemical_formula_sum   'K8 Li10 Cr4 O16'
_cell_volume   528.16423276
_cell_formula_units_Z   2
loop_
 _symmetry_equiv_pos_site_id
 _symmetry_equiv_pos_as_xyz
  1  'x, y, z'
loop_
 _atom_site_type_symbol
 _atom_site_label
 _atom_site_symmetry_multiplicity
 _atom_site_fract_x
 _atom_site_fract_y
 _atom_site_fract_z
 _atom_site_occupancy
  K  K0  1  0.15551600  0.01038100  0.86970700  1
  K  K1  1  0.16979700  0.76800000  0.36226300  1
  K  K2  1  0.34233100  0.50743900  0.63526300  1
  K  K3  1  0.36543700  0.21908500  0.13633700  1
  K  K4  1  0.61438600  0.78024800  0.89680000  1
  K  K5  1  0.70448600  0.46440400  0.34597800  1
  K  K6  1  0.86554600  0.26951400  0.61472200  1
  K  K7  1  0.83839000  0.02258900  0.16541700  1
  Li  Li8  1  0.09738600  0.75797600  0.70740300  1
  Li  Li9  1  0.09287700  0.47052800  0.20121500  1
  Li  Li10  1  0.30361300  0.48740600  0.92636500  1
  Li  Li11  1  0.18550200  0.99147300  0.57191200  1
  Li  Li12  1  0.40819900  0.26100100  0.79537600  1
  Li  Li13  1  0.60185100  0.02723600  0.69569400  1
  Li  Li14  1  0.58634500  0.73848800  0.19652100  1
  Li  Li15  1  0.68411800  0.51016600  0.06937200  1
  Li  Li16  1  0.76673500  0.01213400  0.42569000  1
  Li  Li17  1  0.90208400  0.53161400  0.80605800  1
  Cr  Cr18  1  0.16017700  0.70996400  0.05787900  1
  Cr  Cr19  1  0.68571800  0.77659200  0.56259100  1
  Cr  Cr20  1  0.82872400  0.28905900  0.93582400  1
  Cr  Cr21  1  0.29776800  0.21514900  0.43888900  1
  O  O22  1  0.09899700  0.32075400  0.84715200  1
  O  O23  1  0.13871500  0.69304200  0.87619400  1
  O  O24  1  0.08441700  0.05918100  0.40112900  1
  O  O25  1  0.19702600  0.40378100  0.39363100  1
  O  O26  1  0.36464500  0.19223200  0.61343300  1
  O  O27  1  0.35492500  0.88705600  0.09475300  1
  O  O28  1  0.41075900  0.82014700  0.62616300  1
  O  O29  1  0.36810600  0.54511000  0.12468000  1
  O  O30  1  0.61793400  0.45967300  0.88009600  1
  O  O31  1  0.57156600  0.18164500  0.38285900  1
  O  O32  1  0.67149300  0.10700400  0.86179400  1
  O  O33  1  0.66210600  0.78936200  0.39721200  1
  O  O34  1  0.83813200  0.60693900  0.62643200  1
  O  O35  1  0.88492000  0.93528500  0.63003600  1
  O  O36  1  0.85837400  0.32116800  0.10961900  1
  O  O37  1  0.89747300  0.67483000  0.14838500  1
