# generated using pymatgen
data_Li2VF6
_symmetry_space_group_name_H-M   'P 1'
_cell_length_a   8.53739400
_cell_length_b   8.58975545
_cell_length_c   10.23533822
_cell_angle_alpha   85.87784293
_cell_angle_beta   85.20575250
_cell_angle_gamma   61.40748297
_symmetry_Int_Tables_number   1
_chemical_formula_structural   Li2VF6
_chemical_formula_sum   'Li12 V6 F36'
_cell_volume   656.31848915
_cell_formula_units_Z   6
loop_
 _symmetry_equiv_pos_site_id
 _symmetry_equiv_pos_as_xyz
  1  'x, y, z'
loop_
 _atom_site_type_symbol
 _atom_site_label
 _atom_site_symmetry_multiplicity
 _atom_site_fract_x
 _atom_site_fract_y
 _atom_site_fract_z
 _atom_site_occupancy
  Li  Li0  1  0.12494500  0.54200100  0.54649600  1
  Li  Li1  1  0.52778900  0.11849100  0.04855000  1
  Li  Li2  1  0.32638400  0.63961900  0.03039500  1
  Li  Li3  1  0.37926600  0.66345400  0.47398100  1
  Li  Li4  1  0.28317900  0.00226800  0.22027700  1
  Li  Li5  1  0.69860600  0.00767000  0.77143400  1
  Li  Li6  1  0.80219300  0.19556300  0.25459500  1
  Li  Li7  1  0.67797200  0.37177800  0.96392800  1
  Li  Li8  1  0.86764300  0.45208700  0.45447200  1
  Li  Li9  1  0.64868800  0.94824100  0.43650400  1
  Li  Li10  1  0.00136400  0.28254600  0.72447300  1
  Li  Li11  1  0.95067000  0.64351200  0.93477200  1
  V  V12  1  0.00869500  0.99455300  0.50443300  1
  V  V13  1  0.33209000  0.33869700  0.29374400  1
  V  V14  1  0.99959600  0.00004000  0.00085400  1
  V  V15  1  0.33558600  0.33954200  0.79034200  1
  V  V16  1  0.66963100  0.66163100  0.20435600  1
  V  V17  1  0.65353700  0.67482800  0.70873700  1
  F  F18  1  0.06833000  0.07096900  0.33807600  1
  F  F19  1  0.06466700  0.07773800  0.84576000  1
  F  F20  1  0.10919200  0.41925100  0.39229100  1
  F  F21  1  0.11958300  0.41517800  0.88722000  1
  F  F22  1  0.27480000  0.22664500  0.16459600  1
  F  F23  1  0.22751800  0.27335200  0.66688800  1
  F  F24  1  0.09043200  0.76107500  0.44804400  1
  F  F25  1  0.41974700  0.11972900  0.38194300  1
  F  F26  1  0.25605900  0.54140700  0.19214900  1
  F  F27  1  0.08725700  0.76251800  0.94747600  1
  F  F28  1  0.43078700  0.11670100  0.88437700  1
  F  F29  1  0.25216500  0.55539300  0.69214200  1
  F  F30  1  0.39743500  0.43678700  0.42516500  1
  F  F31  1  0.22625900  0.91302800  0.07071600  1
  F  F32  1  0.56291100  0.24671300  0.19693400  1
  F  F33  1  0.42877300  0.41562100  0.92825200  1
  F  F34  1  0.23867000  0.91036700  0.55084900  1
  F  F35  1  0.55143000  0.24905900  0.69927900  1
  F  F36  1  0.44694300  0.75113900  0.30022000  1
  F  F37  1  0.78195200  0.07424400  0.42811900  1
  F  F38  1  0.57405800  0.57905600  0.07745700  1
  F  F39  1  0.45052600  0.73776200  0.80196400  1
  F  F40  1  0.76314000  0.08110100  0.93389600  1
  F  F41  1  0.59102600  0.58637000  0.56930800  1
  F  F42  1  0.75216200  0.43972800  0.29984600  1
  F  F43  1  0.57653100  0.88980800  0.12271900  1
  F  F44  1  0.89744200  0.23381700  0.06575500  1
  F  F45  1  0.75972100  0.44687700  0.80386800  1
  F  F46  1  0.60070200  0.88613800  0.61223800  1
  F  F47  1  0.93483500  0.22833000  0.56363700  1
  F  F48  1  0.75307600  0.73145300  0.34295400  1
  F  F49  1  0.75276500  0.76327500  0.82870800  1
  F  F50  1  0.87547000  0.59389900  0.10495300  1
  F  F51  1  0.88700900  0.57113900  0.61543000  1
  F  F52  1  0.91362500  0.94551700  0.15517400  1
  F  F53  1  0.91448000  0.94132800  0.65761000  1
