# generated using pymatgen
data_Li4Mn2Ni3Sn3O16
_symmetry_space_group_name_H-M   'P 1'
_cell_length_a   6.03544694
_cell_length_b   6.03544694
_cell_length_c   9.53802986
_cell_angle_alpha   89.87409019
_cell_angle_beta   89.87409019
_cell_angle_gamma   60.49918437
_symmetry_Int_Tables_number   1
_chemical_formula_structural   Li4Mn2Ni3Sn3O16
_chemical_formula_sum   'Li4 Mn2 Ni3 Sn3 O16'
_cell_volume   302.39139138
_cell_formula_units_Z   1
loop_
 _symmetry_equiv_pos_site_id
 _symmetry_equiv_pos_as_xyz
  1  'x, y, z'
loop_
 _atom_site_type_symbol
 _atom_site_label
 _atom_site_symmetry_multiplicity
 _atom_site_fract_x
 _atom_site_fract_y
 _atom_site_fract_z
 _atom_site_occupancy
  Li  Li0  1  0.32849800  0.32849800  0.10924500  1
  Li  Li1  1  0.01785800  0.01785800  0.01158400  1
  Li  Li2  1  0.01255100  0.01255100  0.50008500  1
  Li  Li3  1  0.66518800  0.66518800  0.60035700  1
  Mn  Mn4  1  0.32889700  0.32889700  0.51120900  1
  Mn  Mn5  1  0.65740600  0.65740600  0.01942600  1
  Ni  Ni6  1  0.16954100  0.16954100  0.78648200  1
  Ni  Ni7  1  0.82662000  0.34083300  0.28772700  1
  Ni  Ni8  1  0.34083300  0.82662000  0.28772700  1
  Sn  Sn9  1  0.65916500  0.16882800  0.78817400  1
  Sn  Sn10  1  0.16882800  0.65916500  0.78817400  1
  Sn  Sn11  1  0.82935200  0.82935200  0.28798500  1
  O  O12  1  0.66375900  0.16917100  0.40504100  1
  O  O13  1  0.48035000  0.48035000  0.64885700  1
  O  O14  1  0.32977100  0.32977100  0.90304500  1
  O  O15  1  0.00270900  0.00270900  0.68789500  1
  O  O16  1  0.00930200  0.00930200  0.19958000  1
  O  O17  1  0.16917100  0.66375900  0.40504100  1
  O  O18  1  0.47853400  0.04147000  0.64657600  1
  O  O19  1  0.04147000  0.47853400  0.64657600  1
  O  O20  1  0.83202900  0.83202900  0.90878200  1
  O  O21  1  0.17423100  0.17423100  0.40072100  1
  O  O22  1  0.95237400  0.51740100  0.15023100  1
  O  O23  1  0.51740100  0.95237400  0.15023100  1
  O  O24  1  0.65753200  0.65753200  0.39330300  1
  O  O25  1  0.82650100  0.33979600  0.90710100  1
  O  O26  1  0.51912800  0.51912800  0.15388600  1
  O  O27  1  0.33979600  0.82650100  0.90710100  1
