# generated using pymatgen
data_Li3B(PO4)2
_symmetry_space_group_name_H-M   'P 1'
_cell_length_a   5.24981600
_cell_length_b   7.50027909
_cell_length_c   7.83155767
_cell_angle_alpha   101.16174023
_cell_angle_beta   105.72608329
_cell_angle_gamma   90.07303032
_symmetry_Int_Tables_number   1
_chemical_formula_structural   Li3B(PO4)2
_chemical_formula_sum   'Li6 B2 P4 O16'
_cell_volume   290.73905344
_cell_formula_units_Z   2
loop_
 _symmetry_equiv_pos_site_id
 _symmetry_equiv_pos_as_xyz
  1  'x, y, z'
loop_
 _atom_site_type_symbol
 _atom_site_label
 _atom_site_symmetry_multiplicity
 _atom_site_fract_x
 _atom_site_fract_y
 _atom_site_fract_z
 _atom_site_occupancy
  Li  Li0  1  0.22143700  0.86862400  0.69149400  1
  Li  Li1  1  0.77856300  0.13137600  0.30850600  1
  Li  Li2  1  0.32822300  0.51629000  0.85430200  1
  Li  Li3  1  0.67177700  0.48371000  0.14569800  1
  Li  Li4  1  0.85886700  0.47384800  0.61113400  1
  Li  Li5  1  0.14113300  0.52615200  0.38886600  1
  B  B6  1  0.74197900  0.03802400  0.76846800  1
  B  B7  1  0.25802100  0.96197600  0.23153200  1
  P  P8  1  0.62725000  0.78520500  0.45246500  1
  P  P9  1  0.37275000  0.21479500  0.54753500  1
  P  P10  1  0.88238600  0.74932300  0.94437500  1
  P  P11  1  0.11761400  0.25067700  0.05562500  1
  O  O12  1  0.94535900  0.18483100  0.85362000  1
  O  O13  1  0.05464100  0.81516900  0.14638000  1
  O  O14  1  0.52694000  0.88836700  0.28838400  1
  O  O15  1  0.47306000  0.11163300  0.71161600  1
  O  O16  1  0.05696200  0.69317200  0.81616100  1
  O  O17  1  0.94303800  0.30682800  0.18383900  1
  O  O18  1  0.79597500  0.63073500  0.39918500  1
  O  O19  1  0.20402500  0.36926500  0.60081500  1
  O  O20  1  0.71614700  0.91684100  0.89080700  1
  O  O21  1  0.28385300  0.08315900  0.10919300  1
  O  O22  1  0.69318100  0.59659200  0.94336000  1
  O  O23  1  0.30681900  0.40340800  0.05664000  1
  O  O24  1  0.81862400  0.93554000  0.60684000  1
  O  O25  1  0.18137600  0.06446000  0.39316000  1
  O  O26  1  0.39854500  0.72505400  0.51613400  1
  O  O27  1  0.60145500  0.27494600  0.48386600  1
