# generated using pymatgen
data_Li9V8F48
_symmetry_space_group_name_H-M   'P 1'
_cell_length_a   9.91585600
_cell_length_b   10.07204584
_cell_length_c   11.27657550
_cell_angle_alpha   116.12580007
_cell_angle_beta   115.97101833
_cell_angle_gamma   90.45374975
_symmetry_Int_Tables_number   1
_chemical_formula_structural   Li9V8F48
_chemical_formula_sum   'Li9 V8 F48'
_cell_volume   880.48163334
_cell_formula_units_Z   1
loop_
 _symmetry_equiv_pos_site_id
 _symmetry_equiv_pos_as_xyz
  1  'x, y, z'
loop_
 _atom_site_type_symbol
 _atom_site_label
 _atom_site_symmetry_multiplicity
 _atom_site_fract_x
 _atom_site_fract_y
 _atom_site_fract_z
 _atom_site_occupancy
  Li  Li0  1  0.29700900  0.31554900  0.11604600  1
  Li  Li1  1  0.67690300  0.70401600  0.39092700  1
  Li  Li2  1  0.80522800  0.32104400  0.63446600  1
  Li  Li3  1  0.61985100  0.88985900  0.25068200  1
  Li  Li4  1  0.87722100  0.64205100  0.75974600  1
  Li  Li5  1  0.63689700  0.35955600  0.24001900  1
  Li  Li6  1  0.88736500  0.13220200  0.77629200  1
  Li  Li7  1  0.85221100  0.59599400  0.18104000  1
  Li  Li8  1  0.87047300  0.12065400  0.24350000  1
  V  V9  1  0.00600600  0.50333800  0.00409400  1
  V  V10  1  0.00776800  0.00296200  0.00542600  1
  V  V11  1  0.00836900  0.50357400  0.50507000  1
  V  V12  1  0.00755900  0.99828400  0.50448800  1
  V  V13  1  0.49136800  0.49364800  0.98876900  1
  V  V14  1  0.49116900  0.99043000  0.98573800  1
  V  V15  1  0.49197000  0.50166000  0.49893500  1
  V  V16  1  0.49600700  0.00416500  0.50368600  1
  F  F17  1  0.01262000  0.01231900  0.84736300  1
  F  F18  1  0.13851400  0.36486000  0.98761900  1
  F  F19  1  0.16146300  0.99108600  0.65570400  1
  F  F20  1  0.99804600  0.33316100  0.34602500  1
  F  F21  1  0.36467900  0.61452600  0.00243900  1
  F  F22  1  0.01928300  0.83267700  0.36070000  1
  F  F23  1  0.16777200  0.47820900  0.63827900  1
  F  F24  1  0.12295100  0.12926300  0.50029300  1
  F  F25  1  0.12085400  0.62656800  0.49123900  1
  F  F26  1  0.32804300  0.83790600  0.84178000  1
  F  F27  1  0.99430900  0.47448600  0.15329000  1
  F  F28  1  0.34903400  0.32280600  0.84847400  1
  F  F29  1  0.16540300  0.66453700  0.12918400  1
  F  F30  1  0.52338600  0.53281100  0.86502300  1
  F  F31  1  0.17150700  0.16942700  0.13548200  1
  F  F32  1  0.52395600  0.02957000  0.86149800  1
  F  F33  1  0.39396000  0.86393800  0.50902600  1
  F  F34  1  0.38359600  0.35496200  0.49050100  1
  F  F35  1  0.62975200  0.87734900  0.00085400  1
  F  F36  1  0.13146300  0.87600300  0.00477600  1
  F  F37  1  0.33040600  0.51714700  0.35530700  1
  F  F38  1  0.47039300  0.16009300  0.63912900  1
  F  F39  1  0.33347900  0.99593400  0.34658200  1
  F  F40  1  0.47904600  0.64921400  0.65015500  1
  F  F41  1  0.51734000  0.35481100  0.33783000  1
  F  F42  1  0.67942500  0.00330100  0.65030600  1
  F  F43  1  0.54385200  0.84370900  0.36284700  1
  F  F44  1  0.67574700  0.47888700  0.63101400  1
  F  F45  1  0.87134400  0.12058700  0.99402300  1
  F  F46  1  0.38215000  0.13719900  0.01494900  1
  F  F47  1  0.62602300  0.64134100  0.50726500  1
  F  F48  1  0.62216800  0.13544900  0.49461400  1
  F  F49  1  0.47904300  0.96957700  0.13581600  1
  F  F50  1  0.84406700  0.83309200  0.86346200  1
  F  F51  1  0.48444200  0.46167000  0.14391800  1
  F  F52  1  0.84183600  0.32234500  0.84116500  1
  F  F53  1  0.65523700  0.67661400  0.16923600  1
  F  F54  1  0.97920100  0.51428200  0.82494500  1
  F  F55  1  0.67109700  0.16210400  0.15518200  1
  F  F56  1  0.86683700  0.37484500  0.49910800  1
  F  F57  1  0.86274400  0.86759300  0.49085300  1
  F  F58  1  0.82485000  0.52773400  0.35762000  1
  F  F59  1  0.95796800  0.15351700  0.63426400  1
  F  F60  1  0.65315500  0.40492300  0.02538300  1
  F  F61  1  0.98233800  0.65954000  0.64892200  1
  F  F62  1  0.83442400  0.01200000  0.34367500  1
  F  F63  1  0.85801200  0.61703400  0.01771700  1
  F  F64  1  0.98993000  0.00316300  0.15974600  1
