# generated using pymatgen
data_Li4Mn3O7
_symmetry_space_group_name_H-M   'P 1'
_cell_length_a   9.89266974
_cell_length_b   9.89266974
_cell_length_c   9.88601380
_cell_angle_alpha   69.11819558
_cell_angle_beta   69.11819558
_cell_angle_gamma   16.73067173
_symmetry_Int_Tables_number   1
_chemical_formula_structural   Li4Mn3O7
_chemical_formula_sum   'Li8 Mn6 O14'
_cell_volume   259.81225065
_cell_formula_units_Z   2
loop_
 _symmetry_equiv_pos_site_id
 _symmetry_equiv_pos_as_xyz
  1  'x, y, z'
loop_
 _atom_site_type_symbol
 _atom_site_label
 _atom_site_symmetry_multiplicity
 _atom_site_fract_x
 _atom_site_fract_y
 _atom_site_fract_z
 _atom_site_occupancy
  Li  Li0  1  0.43245200  0.43245200  0.78972700  1
  Li  Li1  1  0.13716900  0.13716900  0.93522400  1
  Li  Li2  1  0.86283100  0.86283100  0.06477600  1
  Li  Li3  1  0.56754800  0.56754800  0.21027300  1
  Li  Li4  1  0.29168400  0.29168400  0.34645100  1
  Li  Li5  1  0.00000000  0.00000000  0.50000000  1
  Li  Li6  1  0.70831600  0.70831600  0.65354900  1
  Li  Li7  1  0.50000000  0.50000000  0.00000000  1
  Mn  Mn8  1  0.06424600  0.06424600  0.73052000  1
  Mn  Mn9  1  0.93575400  0.93575400  0.26948000  1
  Mn  Mn10  1  0.78697900  0.78697900  0.85420900  1
  Mn  Mn11  1  0.21302100  0.21302100  0.14579100  1
  Mn  Mn12  1  0.64069500  0.64069500  0.43770800  1
  Mn  Mn13  1  0.35930500  0.35930500  0.56229200  1
  O  O14  1  0.53692900  0.53692900  0.62487400  1
  O  O15  1  0.25140800  0.25140800  0.76057800  1
  O  O16  1  0.97474500  0.97474500  0.87511900  1
  O  O17  1  0.67810000  0.67810000  0.05153600  1
  O  O18  1  0.39633600  0.39633600  0.18800300  1
  O  O19  1  0.10792500  0.10792500  0.34211900  1
  O  O20  1  0.83153200  0.83153200  0.45532200  1
  O  O21  1  0.32190000  0.32190000  0.94846400  1
  O  O22  1  0.02525500  0.02525500  0.12488100  1
  O  O23  1  0.74859200  0.74859200  0.23942200  1
  O  O24  1  0.46307100  0.46307100  0.37512600  1
  O  O25  1  0.16846800  0.16846800  0.54467800  1
  O  O26  1  0.89207500  0.89207500  0.65788100  1
  O  O27  1  0.60366400  0.60366400  0.81199700  1
