# generated using pymatgen
data_LiVGaO4
_symmetry_space_group_name_H-M   'P 1'
_cell_length_a   5.91168600
_cell_length_b   5.95509714
_cell_length_c   10.28505749
_cell_angle_alpha   90.94546477
_cell_angle_beta   107.11435376
_cell_angle_gamma   60.61842388
_symmetry_Int_Tables_number   1
_chemical_formula_structural   LiVGaO4
_chemical_formula_sum   'Li4 V4 Ga4 O16'
_cell_volume   297.96079662
_cell_formula_units_Z   4
loop_
 _symmetry_equiv_pos_site_id
 _symmetry_equiv_pos_as_xyz
  1  'x, y, z'
loop_
 _atom_site_type_symbol
 _atom_site_label
 _atom_site_symmetry_multiplicity
 _atom_site_fract_x
 _atom_site_fract_y
 _atom_site_fract_z
 _atom_site_occupancy
  Li  Li0  1  0.13192200  0.92320400  0.19130000  1
  Li  Li1  1  0.13096600  0.42827500  0.69163100  1
  Li  Li2  1  0.86800700  0.07508300  0.80825900  1
  Li  Li3  1  0.86856400  0.57293700  0.30860900  1
  V  V4  1  0.50455100  0.74991100  0.74964100  1
  V  V5  1  0.49947400  0.99872000  0.00010200  1
  V  V6  1  0.49417100  0.24763100  0.24979200  1
  V  V7  1  0.50090600  0.50223200  0.49829800  1
  Ga  Ga8  1  0.99950100  0.49709500  0.99932800  1
  Ga  Ga9  1  0.00046900  0.00288200  0.50130300  1
  Ga  Ga10  1  0.49880400  0.00304900  0.50084500  1
  Ga  Ga11  1  0.50178600  0.49742300  0.00014500  1
  O  O12  1  0.73196900  0.91702200  0.37871300  1
  O  O13  1  0.72657300  0.41252700  0.87819800  1
  O  O14  1  0.26487300  0.85771900  0.39669200  1
  O  O15  1  0.26043300  0.36358000  0.89672200  1
  O  O16  1  0.73378600  0.14473700  0.60336200  1
  O  O17  1  0.74051200  0.63466300  0.10363800  1
  O  O18  1  0.26742000  0.08897700  0.62027100  1
  O  O19  1  0.27625000  0.58124900  0.12326400  1
  O  O20  1  0.71491700  0.64415100  0.62023300  1
  O  O21  1  0.71337900  0.12753400  0.11758500  1
  O  O22  1  0.27755800  0.63635500  0.62387700  1
  O  O23  1  0.26944300  0.13593300  0.12338400  1
  O  O24  1  0.72537500  0.36578400  0.37868700  1
  O  O25  1  0.72683000  0.86263700  0.87465400  1
  O  O26  1  0.28413500  0.36053200  0.37907400  1
  O  O27  1  0.28742600  0.86815700  0.88239400  1
