# generated using pymatgen
data_Li2V3CrO8
_symmetry_space_group_name_H-M   'P 1'
_cell_length_a   5.96953121
_cell_length_b   10.33479199
_cell_length_c   5.94308148
_cell_angle_alpha   73.15365347
_cell_angle_beta   119.88874412
_cell_angle_gamma   90.85921914
_symmetry_Int_Tables_number   1
_chemical_formula_structural   Li2V3CrO8
_chemical_formula_sum   'Li4 V6 Cr2 O16'
_cell_volume   300.51985562
_cell_formula_units_Z   2
loop_
 _symmetry_equiv_pos_site_id
 _symmetry_equiv_pos_as_xyz
  1  'x, y, z'
loop_
 _atom_site_type_symbol
 _atom_site_label
 _atom_site_symmetry_multiplicity
 _atom_site_fract_x
 _atom_site_fract_y
 _atom_site_fract_z
 _atom_site_occupancy
  Li  Li0  1  0.93655500  0.18712900  0.87005900  1
  Li  Li1  1  0.43606300  0.68713900  0.87878700  1
  Li  Li2  1  0.56393100  0.31286600  0.12121500  1
  Li  Li3  1  0.06343800  0.81286900  0.12996000  1
  V  V4  1  0.50001600  0.99997800  0.99999000  1
  V  V5  1  0.50002100  0.99995400  0.50009100  1
  V  V6  1  0.50016700  0.50004800  0.50003100  1
  V  V7  1  0.99994800  0.50004900  0.99979200  1
  V  V8  1  0.99991000  0.50001800  0.50004900  1
  V  V9  1  0.99999900  0.99993800  0.50006200  1
  Cr  Cr10  1  0.74948200  0.75041300  0.51437200  1
  Cr  Cr11  1  0.25049300  0.24960100  0.48555400  1
  O  O12  1  0.86342300  0.39307600  0.73704900  1
  O  O13  1  0.36356500  0.89311700  0.73430500  1
  O  O14  1  0.63642500  0.10686800  0.26573100  1
  O  O15  1  0.13657500  0.60693600  0.26294400  1
  O  O16  1  0.09103500  0.61736800  0.75336600  1
  O  O17  1  0.59239700  0.11697100  0.72079400  1
  O  O18  1  0.64342200  0.61371700  0.74874400  1
  O  O19  1  0.13348300  0.11648200  0.72174000  1
  O  O20  1  0.63472200  0.61704800  0.29568100  1
  O  O21  1  0.14464400  0.11386900  0.28080500  1
  O  O22  1  0.85534800  0.88611000  0.71922600  1
  O  O23  1  0.36528300  0.38295700  0.70431400  1
  O  O24  1  0.86651500  0.88351900  0.27826600  1
  O  O25  1  0.35657400  0.38629300  0.25124300  1
  O  O26  1  0.40760300  0.88302100  0.27921300  1
  O  O27  1  0.90896100  0.38264400  0.24661700  1
