# generated using pymatgen
data_Li3H24Ru(ClO2)6
_symmetry_space_group_name_H-M   'P 1'
_cell_length_a   12.71798116
_cell_length_b   12.71798116
_cell_length_c   12.71798069
_cell_angle_alpha   46.31020975
_cell_angle_beta   46.31020975
_cell_angle_gamma   46.31021272
_symmetry_Int_Tables_number   1
_chemical_formula_structural   Li3H24Ru(ClO2)6
_chemical_formula_sum   'Li6 H48 Ru2 Cl12 O24'
_cell_volume   981.71441457
_cell_formula_units_Z   2
loop_
 _symmetry_equiv_pos_site_id
 _symmetry_equiv_pos_as_xyz
  1  'x, y, z'
loop_
 _atom_site_type_symbol
 _atom_site_label
 _atom_site_symmetry_multiplicity
 _atom_site_fract_x
 _atom_site_fract_y
 _atom_site_fract_z
 _atom_site_occupancy
  Li  Li0  1  0.66471400  0.66471400  0.66471400  1
  Li  Li1  1  0.16471400  0.16471400  0.16471400  1
  Li  Li2  1  0.33528600  0.33528600  0.33528600  1
  Li  Li3  1  0.83528600  0.83528600  0.83528600  1
  Li  Li4  1  0.75000000  0.75000000  0.75000000  1
  Li  Li5  1  0.25000000  0.25000000  0.25000000  1
  H  H6  1  0.78795600  0.34533300  0.77442500  1
  H  H7  1  0.77442500  0.78795600  0.34533300  1
  H  H8  1  0.34533300  0.77442500  0.78795600  1
  H  H9  1  0.27442500  0.84533300  0.28795600  1
  H  H10  1  0.28795600  0.27442500  0.84533300  1
  H  H11  1  0.84533300  0.28795600  0.27442500  1
  H  H12  1  0.21204400  0.65466700  0.22557500  1
  H  H13  1  0.22557500  0.21204400  0.65466700  1
  H  H14  1  0.65466700  0.22557500  0.21204400  1
  H  H15  1  0.72557500  0.15466700  0.71204400  1
  H  H16  1  0.71204400  0.72557500  0.15466700  1
  H  H17  1  0.15466700  0.71204400  0.72557500  1
  H  H18  1  0.72441400  0.42661800  0.65397400  1
  H  H19  1  0.65397400  0.72441400  0.42661800  1
  H  H20  1  0.42661800  0.65397400  0.72441400  1
  H  H21  1  0.15397400  0.92661800  0.22441400  1
  H  H22  1  0.22441400  0.15397400  0.92661800  1
  H  H23  1  0.92661800  0.22441400  0.15397400  1
  H  H24  1  0.27558600  0.57338200  0.34602600  1
  H  H25  1  0.34602600  0.27558600  0.57338200  1
  H  H26  1  0.57338200  0.34602600  0.27558600  1
  H  H27  1  0.84602600  0.07338200  0.77558600  1
  H  H28  1  0.77558600  0.84602600  0.07338200  1
  H  H29  1  0.07338200  0.77558600  0.84602600  1
  H  H30  1  0.66248000  0.93983600  0.51120800  1
  H  H31  1  0.51120800  0.66248000  0.93983600  1
  H  H32  1  0.93983600  0.51120800  0.66248000  1
  H  H33  1  0.01120800  0.43983600  0.16248000  1
  H  H34  1  0.16248000  0.01120800  0.43983600  1
  H  H35  1  0.43983600  0.16248000  0.01120800  1
  H  H36  1  0.33752000  0.06016400  0.48879200  1
  H  H37  1  0.48879200  0.33752000  0.06016400  1
  H  H38  1  0.06016400  0.48879200  0.33752000  1
  H  H39  1  0.98879200  0.56016400  0.83752000  1
  H  H40  1  0.83752000  0.98879200  0.56016400  1
  H  H41  1  0.56016400  0.83752000  0.98879200  1
  H  H42  1  0.49652900  0.97937600  0.64815100  1
  H  H43  1  0.64815100  0.49652900  0.97937600  1
  H  H44  1  0.97937600  0.64815100  0.49652900  1
  H  H45  1  0.14815100  0.47937600  0.99652900  1
  H  H46  1  0.99652900  0.14815100  0.47937600  1
  H  H47  1  0.47937600  0.99652900  0.14815100  1
  H  H48  1  0.50347100  0.02062400  0.35184900  1
  H  H49  1  0.35184900  0.50347100  0.02062400  1
  H  H50  1  0.02062400  0.35184900  0.50347100  1
  H  H51  1  0.85184900  0.52062400  0.00347100  1
  H  H52  1  0.00347100  0.85184900  0.52062400  1
  H  H53  1  0.52062400  0.00347100  0.85184900  1
  Ru  Ru54  1  0.00000000  0.00000000  0.00000000  1
  Ru  Ru55  1  0.50000000  0.50000000  0.50000000  1
  Cl  Cl56  1  0.87707400  0.99477700  0.25380900  1
  Cl  Cl57  1  0.25380900  0.87707400  0.99477700  1
  Cl  Cl58  1  0.99477700  0.25380900  0.87707400  1
  Cl  Cl59  1  0.75380900  0.49477700  0.37707400  1
  Cl  Cl60  1  0.37707400  0.75380900  0.49477700  1
  Cl  Cl61  1  0.49477700  0.37707400  0.75380900  1
  Cl  Cl62  1  0.12292600  0.00522300  0.74619100  1
  Cl  Cl63  1  0.74619100  0.12292600  0.00522300  1
  Cl  Cl64  1  0.00522300  0.74619100  0.12292600  1
  Cl  Cl65  1  0.24619100  0.50522300  0.62292600  1
  Cl  Cl66  1  0.62292600  0.24619100  0.50522300  1
  Cl  Cl67  1  0.50522300  0.62292600  0.24619100  1
  O  O68  1  0.78541700  0.43295300  0.66951500  1
  O  O69  1  0.66951500  0.78541700  0.43295300  1
  O  O70  1  0.43295300  0.66951500  0.78541700  1
  O  O71  1  0.16951500  0.93295300  0.28541700  1
  O  O72  1  0.28541700  0.16951500  0.93295300  1
  O  O73  1  0.93295300  0.28541700  0.16951500  1
  O  O74  1  0.21458300  0.56704700  0.33048500  1
  O  O75  1  0.33048500  0.21458300  0.56704700  1
  O  O76  1  0.56704700  0.33048500  0.21458300  1
  O  O77  1  0.83048500  0.06704700  0.71458300  1
  O  O78  1  0.71458300  0.83048500  0.06704700  1
  O  O79  1  0.06704700  0.71458300  0.83048500  1
  O  O80  1  0.60365400  0.89344500  0.62663000  1
  O  O81  1  0.62663000  0.60365400  0.89344500  1
  O  O82  1  0.89344500  0.62663000  0.60365400  1
  O  O83  1  0.12663000  0.39344500  0.10365400  1
  O  O84  1  0.10365400  0.12663000  0.39344500  1
  O  O85  1  0.39344500  0.10365400  0.12663000  1
  O  O86  1  0.39634600  0.10655500  0.37337000  1
  O  O87  1  0.37337000  0.39634600  0.10655500  1
  O  O88  1  0.10655500  0.37337000  0.39634600  1
  O  O89  1  0.87337000  0.60655500  0.89634600  1
  O  O90  1  0.89634600  0.87337000  0.60655500  1
  O  O91  1  0.60655500  0.89634600  0.87337000  1
