# generated using pymatgen
data_Li3Mn3TeO8
_symmetry_space_group_name_H-M   'P 1'
_cell_length_a   6.27498049
_cell_length_b   6.27336676
_cell_length_c   10.42526788
_cell_angle_alpha   105.78518933
_cell_angle_beta   105.70519071
_cell_angle_gamma   60.99520644
_symmetry_Int_Tables_number   1
_chemical_formula_structural   Li3Mn3TeO8
_chemical_formula_sum   'Li6 Mn6 Te2 O16'
_cell_volume   340.65734881
_cell_formula_units_Z   2
loop_
 _symmetry_equiv_pos_site_id
 _symmetry_equiv_pos_as_xyz
  1  'x, y, z'
loop_
 _atom_site_type_symbol
 _atom_site_label
 _atom_site_symmetry_multiplicity
 _atom_site_fract_x
 _atom_site_fract_y
 _atom_site_fract_z
 _atom_site_occupancy
  Li  Li0  1  0.21517800  0.75822600  0.73824600  1
  Li  Li1  1  0.78530500  0.24076300  0.26182500  1
  Li  Li2  1  0.75181300  0.74654100  0.74995700  1
  Li  Li3  1  0.24823100  0.25300500  0.25010000  1
  Li  Li4  1  0.26083900  0.71621200  0.23801900  1
  Li  Li5  1  0.73970800  0.28367800  0.76196200  1
  Mn  Mn6  1  0.99908600  0.50040400  0.00006500  1
  Mn  Mn7  1  0.50049800  0.00012600  0.50028600  1
  Mn  Mn8  1  0.49947700  0.00033000  0.99980500  1
  Mn  Mn9  1  0.00064800  0.00015100  0.50040200  1
  Mn  Mn10  1  0.49936900  0.49981500  0.99976800  1
  Mn  Mn11  1  0.00026500  0.49996400  0.49995800  1
  Te  Te12  1  0.50028500  0.50000000  0.49998500  1
  Te  Te13  1  0.99973400  0.00006100  0.99990800  1
  O  O14  1  0.67226900  0.61523600  0.89635800  1
  O  O15  1  0.11495600  0.17204800  0.39658700  1
  O  O16  1  0.88575900  0.82799300  0.60355500  1
  O  O17  1  0.32676600  0.38497400  0.10358700  1
  O  O18  1  0.16360100  0.60109600  0.39251600  1
  O  O19  1  0.67371700  0.11103400  0.88720700  1
  O  O20  1  0.59589400  0.61483500  0.37908600  1
  O  O21  1  0.11354400  0.09853300  0.87973800  1
  O  O22  1  0.10178800  0.66393900  0.89130200  1
  O  O23  1  0.61086900  0.17371200  0.38708200  1
  O  O24  1  0.32578500  0.88897800  0.11249300  1
  O  O25  1  0.83688500  0.39911100  0.60757500  1
  O  O26  1  0.88581300  0.90163700  0.12003500  1
  O  O27  1  0.40459000  0.38529300  0.62095200  1
  O  O28  1  0.38988200  0.82618800  0.61309300  1
  O  O29  1  0.89743900  0.33611800  0.10853600  1
