# generated using pymatgen
data_Li6MnV3(PO4)6
_symmetry_space_group_name_H-M   'P 1'
_cell_length_a   8.45603700
_cell_length_b   8.59759606
_cell_length_c   8.64700008
_cell_angle_alpha   61.41933833
_cell_angle_beta   61.75407085
_cell_angle_gamma   62.78124664
_symmetry_Int_Tables_number   1
_chemical_formula_structural   Li6MnV3(PO4)6
_chemical_formula_sum   'Li6 Mn1 V3 P6 O24'
_cell_volume   464.12568841
_cell_formula_units_Z   1
loop_
 _symmetry_equiv_pos_site_id
 _symmetry_equiv_pos_as_xyz
  1  'x, y, z'
loop_
 _atom_site_type_symbol
 _atom_site_label
 _atom_site_symmetry_multiplicity
 _atom_site_fract_x
 _atom_site_fract_y
 _atom_site_fract_z
 _atom_site_occupancy
  Li  Li0  1  0.25522000  0.12544400  0.84182700  1
  Li  Li1  1  0.99689300  0.50110900  0.99929100  1
  Li  Li2  1  0.12756800  0.25789200  0.34051800  1
  Li  Li3  1  0.87173100  0.74149800  0.66164600  1
  Li  Li4  1  0.49931300  0.99984100  0.50064800  1
  Li  Li5  1  0.74230000  0.87359600  0.15874000  1
  Mn  Mn6  1  0.85602100  0.36245900  0.85078100  1
  V  V7  1  0.63599100  0.14541400  0.64486000  1
  V  V8  1  0.36297200  0.85476400  0.35495100  1
  V  V9  1  0.14632700  0.63642900  0.14284400  1
  P  P10  1  0.55044300  0.75278900  0.96309200  1
  P  P11  1  0.94983600  0.04883300  0.24834600  1
  P  P12  1  0.24791100  0.45010300  0.53702800  1
  P  P13  1  0.74985100  0.54888000  0.46397700  1
  P  P14  1  0.05172900  0.94876400  0.74975200  1
  P  P15  1  0.45289500  0.24989600  0.03619800  1
  O  O16  1  0.46581700  0.18765200  0.88903300  1
  O  O17  1  0.03057500  0.10892900  0.79848900  1
  O  O18  1  0.61727800  0.31966600  0.97439700  1
  O  O19  1  0.76313800  0.06249400  0.41665400  1
  O  O20  1  0.74774200  0.61233800  0.92405000  1
  O  O21  1  0.39348700  0.25563900  0.57901400  1
  O  O22  1  0.08131700  0.45396500  0.72809600  1
  O  O23  1  0.11643700  0.02136700  0.29865900  1
  O  O24  1  0.06222100  0.76206700  0.91686500  1
  O  O25  1  0.68174100  0.38575400  0.52656300  1
  O  O26  1  0.45842200  0.08616100  0.22571700  1
  O  O27  1  0.81059200  0.53801900  0.61260900  1
  O  O28  1  0.18592600  0.46428600  0.38897900  1
  O  O29  1  0.54003600  0.91726500  0.77430800  1
  O  O30  1  0.31564400  0.61212300  0.47935500  1
  O  O31  1  0.94171500  0.23409900  0.07881700  1
  O  O32  1  0.88350300  0.97887500  0.70097000  1
  O  O33  1  0.91361700  0.54436600  0.27457300  1
  O  O34  1  0.60428800  0.74422300  0.42202800  1
  O  O35  1  0.25633700  0.39513100  0.07696400  1
  O  O36  1  0.23811500  0.93502900  0.58097600  1
  O  O37  1  0.38762400  0.68127400  0.02468000  1
  O  O38  1  0.97657600  0.88418000  0.20170400  1
  O  O39  1  0.53084900  0.81738800  0.11200300  1
