# generated using pymatgen
data_Li4MnCo2O7
_symmetry_space_group_name_H-M   'P 1'
_cell_length_a   5.92285900
_cell_length_b   6.54721048
_cell_length_c   7.71223982
_cell_angle_alpha   104.31792086
_cell_angle_beta   111.83058620
_cell_angle_gamma   103.62767061
_symmetry_Int_Tables_number   1
_chemical_formula_structural   Li4MnCo2O7
_chemical_formula_sum   'Li8 Mn2 Co4 O14'
_cell_volume   250.52296877
_cell_formula_units_Z   2
loop_
 _symmetry_equiv_pos_site_id
 _symmetry_equiv_pos_as_xyz
  1  'x, y, z'
loop_
 _atom_site_type_symbol
 _atom_site_label
 _atom_site_symmetry_multiplicity
 _atom_site_fract_x
 _atom_site_fract_y
 _atom_site_fract_z
 _atom_site_occupancy
  Li  Li0  1  0.06098700  0.56127500  0.84663600  1
  Li  Li1  1  0.63579500  0.14607000  0.71963900  1
  Li  Li2  1  0.22199800  0.71353100  0.57779700  1
  Li  Li3  1  0.79456400  0.29287000  0.42804000  1
  Li  Li4  1  0.36304400  0.85570100  0.28776100  1
  Li  Li5  1  0.91655300  0.43016200  0.13081400  1
  Li  Li6  1  0.49139200  0.99116200  0.99567100  1
  Li  Li7  1  0.56497500  0.57403100  0.85689100  1
  Mn  Mn8  1  0.99038400  0.99802600  0.99708500  1
  Mn  Mn9  1  0.86246600  0.85096500  0.28615800  1
  Co  Co10  1  0.15344900  0.15716100  0.72369900  1
  Co  Co11  1  0.71549400  0.70959200  0.57688500  1
  Co  Co12  1  0.29654600  0.29766200  0.44233800  1
  Co  Co13  1  0.42688600  0.42974300  0.14035700  1
  O  O14  1  0.96691500  0.74082800  0.08170700  1
  O  O15  1  0.50283700  0.28437700  0.92839300  1
  O  O16  1  0.08891300  0.86266000  0.79831900  1
  O  O17  1  0.66410300  0.42711600  0.62301000  1
  O  O18  1  0.23267600  0.00375200  0.49518600  1
  O  O19  1  0.83677400  0.59217300  0.35839800  1
  O  O20  1  0.36160900  0.15247500  0.19703300  1
  O  O21  1  0.17447800  0.41649600  0.63156700  1
  O  O22  1  0.77540000  0.98514200  0.49767800  1
  O  O23  1  0.34713700  0.56345400  0.35258200  1
  O  O24  1  0.90185800  0.12278700  0.21207000  1
  O  O25  1  0.49842000  0.71050500  0.09558500  1
  O  O26  1  0.02127500  0.26719100  0.92584700  1
  O  O27  1  0.63306900  0.86308900  0.79285500  1
