# generated using pymatgen
data_Li5Mn2Fe3O10
_symmetry_space_group_name_H-M   'P 1'
_cell_length_a   5.23388419
_cell_length_b   14.32946569
_cell_length_c   5.13889419
_cell_angle_alpha   86.97715218
_cell_angle_beta   100.75543482
_cell_angle_gamma   92.39246063
_symmetry_Int_Tables_number   1
_chemical_formula_structural   Li5Mn2Fe3O10
_chemical_formula_sum   'Li10 Mn4 Fe6 O20'
_cell_volume   377.91326667
_cell_formula_units_Z   2
loop_
 _symmetry_equiv_pos_site_id
 _symmetry_equiv_pos_as_xyz
  1  'x, y, z'
loop_
 _atom_site_type_symbol
 _atom_site_label
 _atom_site_symmetry_multiplicity
 _atom_site_fract_x
 _atom_site_fract_y
 _atom_site_fract_z
 _atom_site_occupancy
  Li  Li0  1  0.24145700  0.25057300  0.24779800  1
  Li  Li1  1  0.75442000  0.74801000  0.75400600  1
  Li  Li2  1  0.69310500  0.20801700  0.00507200  1
  Li  Li3  1  0.19086000  0.70076200  0.51770100  1
  Li  Li4  1  0.80952500  0.30034400  0.48521500  1
  Li  Li5  1  0.30951700  0.79145300  0.99684500  1
  Li  Li6  1  0.89388400  0.38928500  0.98838400  1
  Li  Li7  1  0.41190000  0.88592200  0.49051000  1
  Li  Li8  1  0.58925900  0.11356700  0.51079700  1
  Li  Li9  1  0.10817100  0.61471700  0.00383400  1
  Mn  Mn10  1  0.34744200  0.34586300  0.75274200  1
  Mn  Mn11  1  0.86788700  0.84574000  0.24915700  1
  Mn  Mn12  1  0.13183200  0.15438900  0.75195700  1
  Mn  Mn13  1  0.65385900  0.65316100  0.24906200  1
  Fe  Fe14  1  0.00339500  0.50156100  0.50193800  1
  Fe  Fe15  1  0.44646400  0.44682500  0.24505800  1
  Fe  Fe16  1  0.55127100  0.55401500  0.75272900  1
  Fe  Fe17  1  0.49991300  0.00010600  0.00044500  1
  Fe  Fe18  1  0.95546900  0.94464900  0.74640300  1
  Fe  Fe19  1  0.04437100  0.05510000  0.25436800  1
  O  O20  1  0.68103100  0.42783200  0.60752000  1
  O  O21  1  0.15545600  0.92670200  0.12604600  1
  O  O22  1  0.84469300  0.07415300  0.87456900  1
  O  O23  1  0.30844200  0.56744700  0.36637800  1
  O  O24  1  0.22436000  0.46341900  0.86819000  1
  O  O25  1  0.75066100  0.96716500  0.37286400  1
  O  O26  1  0.24913600  0.03368600  0.62803200  1
  O  O27  1  0.75969900  0.52832800  0.15011100  1
  O  O28  1  0.01344400  0.26231000  0.86546900  1
  O  O29  1  0.57942200  0.77835400  0.35550800  1
  O  O30  1  0.42291700  0.22173200  0.64748500  1
  O  O31  1  0.98669600  0.73824000  0.13409200  1
  O  O32  1  0.34240700  0.11983000  0.10783100  1
  O  O33  1  0.87279200  0.62300700  0.60266400  1
  O  O34  1  0.14434100  0.37875300  0.39285600  1
  O  O35  1  0.65759100  0.88099400  0.89290900  1
  O  O36  1  0.55840300  0.33036700  0.10657900  1
  O  O37  1  0.07816900  0.83340100  0.60046200  1
  O  O38  1  0.92308200  0.16768300  0.39915000  1
  O  O39  1  0.44325900  0.67253900  0.89726200  1
