# generated using pymatgen
data_Li2V(OF)2
_symmetry_space_group_name_H-M   'P 1'
_cell_length_a   5.76754790
_cell_length_b   5.91919526
_cell_length_c   8.62636000
_cell_angle_alpha   89.99989361
_cell_angle_beta   90.00024455
_cell_angle_gamma   91.61956136
_symmetry_Int_Tables_number   1
_chemical_formula_structural   Li2V(OF)2
_chemical_formula_sum   'Li8 V4 O8 F8'
_cell_volume   294.37974863
_cell_formula_units_Z   4
loop_
 _symmetry_equiv_pos_site_id
 _symmetry_equiv_pos_as_xyz
  1  'x, y, z'
loop_
 _atom_site_type_symbol
 _atom_site_label
 _atom_site_symmetry_multiplicity
 _atom_site_fract_x
 _atom_site_fract_y
 _atom_site_fract_z
 _atom_site_occupancy
  Li  Li0  1  0.49999900  0.75004300  0.37112600  1
  Li  Li1  1  0.00000100  0.25003400  0.87117800  1
  Li  Li2  1  0.00000300  0.75004100  0.12879600  1
  Li  Li3  1  0.50000200  0.25002600  0.62880900  1
  Li  Li4  1  0.50009200  0.00011300  0.99994400  1
  Li  Li5  1  0.99999500  0.50004800  0.49997500  1
  Li  Li6  1  0.49997200  0.49995400  0.99996500  1
  Li  Li7  1  0.00007700  0.00002500  0.49999600  1
  V  V8  1  0.74994500  0.74983900  0.74996800  1
  V  V9  1  0.24986000  0.75008500  0.75009900  1
  V  V10  1  0.25008400  0.24989100  0.25012100  1
  V  V11  1  0.75005200  0.25001500  0.25018200  1
  O  O12  1  0.01095200  0.03411200  0.25421500  1
  O  O13  1  0.51075500  0.53407800  0.75414900  1
  O  O14  1  0.98900900  0.46582100  0.25421400  1
  O  O15  1  0.48914700  0.96575100  0.75414500  1
  O  O16  1  0.48898900  0.46578900  0.24580400  1
  O  O17  1  0.98920900  0.96588000  0.74575500  1
  O  O18  1  0.51099900  0.03415400  0.24580600  1
  O  O19  1  0.01069900  0.53396700  0.74574300  1
  F  F20  1  0.75886300  0.24536100  0.48351000  1
  F  F21  1  0.25886500  0.74530300  0.98346500  1
  F  F22  1  0.24119800  0.25473300  0.48348800  1
  F  F23  1  0.74116000  0.75475200  0.98342400  1
  F  F24  1  0.25884200  0.24534700  0.01655800  1
  F  F25  1  0.75891300  0.74530600  0.51646800  1
  F  F26  1  0.74120300  0.25474000  0.01658600  1
  F  F27  1  0.24111500  0.75478800  0.51651200  1
