# generated using pymatgen
data_LiFe(SiO3)2
_symmetry_space_group_name_H-M   'P 1'
_cell_length_a   8.80175700
_cell_length_b   5.33480500
_cell_length_c   9.37432554
_cell_angle_alpha   78.07247249
_cell_angle_beta   90.00000000
_cell_angle_gamma   90.00000000
_symmetry_Int_Tables_number   1
_chemical_formula_structural   LiFe(SiO3)2
_chemical_formula_sum   'Li4 Fe4 Si8 O24'
_cell_volume   430.67409533
_cell_formula_units_Z   4
loop_
 _symmetry_equiv_pos_site_id
 _symmetry_equiv_pos_as_xyz
  1  'x, y, z'
loop_
 _atom_site_type_symbol
 _atom_site_label
 _atom_site_symmetry_multiplicity
 _atom_site_fract_x
 _atom_site_fract_y
 _atom_site_fract_z
 _atom_site_occupancy
  Li  Li0  1  0.00261200  0.99066200  0.24767000  1
  Li  Li1  1  0.50261200  0.50933800  0.75233000  1
  Li  Li2  1  0.99738800  0.00933800  0.75233000  1
  Li  Li3  1  0.49738800  0.49066200  0.24767000  1
  Fe  Fe4  1  0.64728100  0.98754800  0.25031200  1
  Fe  Fe5  1  0.85271900  0.48754800  0.25031200  1
  Fe  Fe6  1  0.35271900  0.01245200  0.74968800  1
  Fe  Fe7  1  0.14728100  0.51245200  0.74968800  1
  Si  Si8  1  0.66135200  0.77091000  0.95218000  1
  Si  Si9  1  0.66090000  0.20912000  0.54739700  1
  Si  Si10  1  0.16090000  0.29088000  0.45260300  1
  Si  Si11  1  0.33910000  0.79088000  0.45260300  1
  Si  Si12  1  0.83910000  0.70912000  0.54739700  1
  Si  Si13  1  0.16135200  0.72909000  0.04782000  1
  Si  Si14  1  0.83864800  0.27091000  0.95218000  1
  Si  Si15  1  0.33864800  0.22909000  0.04782000  1
  O  O16  1  0.49687800  0.22919800  0.62239900  1
  O  O17  1  0.77092400  0.41873300  0.60324200  1
  O  O18  1  0.27092400  0.08126700  0.39675800  1
  O  O19  1  0.22907600  0.58126700  0.39675800  1
  O  O20  1  0.72907600  0.91873300  0.60324200  1
  O  O21  1  0.23353000  0.97373600  0.10715500  1
  O  O22  1  0.73353000  0.52626400  0.89284500  1
  O  O23  1  0.76647000  0.02626400  0.89284500  1
  O  O24  1  0.26647000  0.47373600  0.10715500  1
  O  O25  1  0.83594700  0.77231500  0.36645600  1
  O  O26  1  0.99687800  0.27080200  0.37760100  1
  O  O27  1  0.50312200  0.77080200  0.37760100  1
  O  O28  1  0.33379500  0.29440300  0.86732000  1
  O  O29  1  0.83379500  0.20559700  0.13268000  1
  O  O30  1  0.66620500  0.70559700  0.13268000  1
  O  O31  1  0.16620500  0.79440300  0.86732000  1
  O  O32  1  0.16405300  0.22768500  0.63354400  1
  O  O33  1  0.33594700  0.72768500  0.63354400  1
  O  O34  1  0.99317400  0.69778500  0.11792500  1
  O  O35  1  0.66405300  0.27231500  0.36645600  1
  O  O36  1  0.50682600  0.19778500  0.11792500  1
  O  O37  1  0.00682600  0.30221500  0.88207500  1
  O  O38  1  0.49317400  0.80221500  0.88207500  1
  O  O39  1  0.00312200  0.72919800  0.62239900  1
