# generated using pymatgen
data_LiMnPO4
_symmetry_space_group_name_H-M   'P 1'
_cell_length_a   6.35587800
_cell_length_b   5.61973300
_cell_length_c   8.50211600
_cell_angle_alpha   90.00025074
_cell_angle_beta   90.00065946
_cell_angle_gamma   89.99962749
_symmetry_Int_Tables_number   1
_chemical_formula_structural   LiMnPO4
_chemical_formula_sum   'Li4 Mn4 P4 O16'
_cell_volume   303.68144738
_cell_formula_units_Z   4
loop_
 _symmetry_equiv_pos_site_id
 _symmetry_equiv_pos_as_xyz
  1  'x, y, z'
loop_
 _atom_site_type_symbol
 _atom_site_label
 _atom_site_symmetry_multiplicity
 _atom_site_fract_x
 _atom_site_fract_y
 _atom_site_fract_z
 _atom_site_occupancy
  Li  Li0  1  0.24359600  0.25000200  0.91431600  1
  Li  Li1  1  0.25639700  0.75006000  0.41432100  1
  Li  Li2  1  0.74357600  0.24996900  0.58567700  1
  Li  Li3  1  0.75637700  0.75003100  0.08569400  1
  Mn  Mn4  1  0.99889500  0.74992400  0.74848200  1
  Mn  Mn5  1  0.50111300  0.24998500  0.24847100  1
  Mn  Mn6  1  0.49888700  0.74996100  0.75154200  1
  Mn  Mn7  1  0.00111100  0.25001300  0.25148100  1
  P  P8  1  0.24593700  0.24999100  0.60244500  1
  P  P9  1  0.25404800  0.75000800  0.10244900  1
  P  P10  1  0.74594800  0.24999100  0.89754900  1
  P  P11  1  0.75406300  0.75000500  0.39755900  1
  O  O12  1  0.04366300  0.25001500  0.50319400  1
  O  O13  1  0.05509900  0.74997900  0.99940300  1
  O  O14  1  0.25167900  0.97254400  0.21634500  1
  O  O15  1  0.25171400  0.52750500  0.21636600  1
  O  O16  1  0.24830300  0.02748200  0.71636300  1
  O  O17  1  0.24833100  0.47251500  0.71635400  1
  O  O18  1  0.44487200  0.24997200  0.49938500  1
  O  O19  1  0.45632600  0.75002200  0.00319700  1
  O  O20  1  0.54367600  0.24999800  0.99680300  1
  O  O21  1  0.55512100  0.75000600  0.50061100  1
  O  O22  1  0.75169600  0.52750000  0.28363700  1
  O  O23  1  0.75170100  0.97252600  0.28365000  1
  O  O24  1  0.74832400  0.02746700  0.78365000  1
  O  O25  1  0.74830700  0.47251500  0.78364700  1
  O  O26  1  0.94489400  0.25001100  0.00060000  1
  O  O27  1  0.95634500  0.75000200  0.49681000  1
