# generated using pymatgen
data_Li4MnCo2O7
_symmetry_space_group_name_H-M   'P 1'
_cell_length_a   2.94471100
_cell_length_b   5.10041608
_cell_length_c   17.27360480
_cell_angle_alpha   95.32903195
_cell_angle_beta   88.82123337
_cell_angle_gamma   105.12908574
_symmetry_Int_Tables_number   1
_chemical_formula_structural   Li4MnCo2O7
_chemical_formula_sum   'Li8 Mn2 Co4 O14'
_cell_volume   249.36031123
_cell_formula_units_Z   2
loop_
 _symmetry_equiv_pos_site_id
 _symmetry_equiv_pos_as_xyz
  1  'x, y, z'
loop_
 _atom_site_type_symbol
 _atom_site_label
 _atom_site_symmetry_multiplicity
 _atom_site_fract_x
 _atom_site_fract_y
 _atom_site_fract_z
 _atom_site_occupancy
  Li  Li0  1  0.36847500  0.22512600  0.21482700  1
  Li  Li1  1  0.92430500  0.35316900  0.35641100  1
  Li  Li2  1  0.50000000  0.50000000  0.50000000  1
  Li  Li3  1  0.07569500  0.64683100  0.64358900  1
  Li  Li4  1  0.63152500  0.77487400  0.78517300  1
  Li  Li5  1  0.23416800  0.93452400  0.93701200  1
  Li  Li6  1  0.76583200  0.06547600  0.06298800  1
  Li  Li7  1  0.50000000  0.50000000  0.00000000  1
  Mn  Mn8  1  0.07134500  0.64626900  0.13887300  1
  Mn  Mn9  1  0.92865500  0.35373100  0.86112700  1
  Co  Co10  1  0.62969000  0.78049600  0.28843700  1
  Co  Co11  1  0.20821800  0.92922600  0.42871900  1
  Co  Co12  1  0.79178200  0.07077400  0.57128100  1
  Co  Co13  1  0.37031000  0.21950400  0.71156300  1
  O  O14  1  0.68289800  0.89744200  0.18025400  1
  O  O15  1  0.26243700  0.05364700  0.32539500  1
  O  O16  1  0.87393100  0.19091200  0.46809400  1
  O  O17  1  0.46116400  0.34203000  0.60765500  1
  O  O18  1  0.99518300  0.48118900  0.75120300  1
  O  O19  1  0.53840600  0.60163100  0.88735900  1
  O  O20  1  0.14241400  0.78664700  0.04508300  1
  O  O21  1  0.00481700  0.51881100  0.24879700  1
  O  O22  1  0.53883600  0.65797000  0.39234500  1
  O  O23  1  0.12606900  0.80908800  0.53190600  1
  O  O24  1  0.73756300  0.94635300  0.67460500  1
  O  O25  1  0.31710200  0.10255800  0.81974600  1
  O  O26  1  0.85758600  0.21335300  0.95491700  1
  O  O27  1  0.46159400  0.39836900  0.11264100  1
