# generated using pymatgen
data_Li9Mn2Co5O16
_symmetry_space_group_name_H-M   'P 1'
_cell_length_a   2.95854100
_cell_length_b   10.09802188
_cell_length_c   10.18311578
_cell_angle_alpha   108.00540151
_cell_angle_beta   91.20818795
_cell_angle_gamma   92.33004136
_symmetry_Int_Tables_number   1
_chemical_formula_structural   Li9Mn2Co5O16
_chemical_formula_sum   'Li9 Mn2 Co5 O16'
_cell_volume   288.90554165
_cell_formula_units_Z   1
loop_
 _symmetry_equiv_pos_site_id
 _symmetry_equiv_pos_as_xyz
  1  'x, y, z'
loop_
 _atom_site_type_symbol
 _atom_site_label
 _atom_site_symmetry_multiplicity
 _atom_site_fract_x
 _atom_site_fract_y
 _atom_site_fract_z
 _atom_site_occupancy
  Li  Li0  1  0.99323000  0.25124500  0.24799400  1
  Li  Li1  1  0.51560800  0.49543900  0.75025900  1
  Li  Li2  1  0.01204500  0.74101300  0.24352900  1
  Li  Li3  1  0.50551600  0.50144600  0.24200900  1
  Li  Li4  1  0.00090100  0.75034600  0.75014500  1
  Li  Li5  1  0.48316100  0.00523500  0.25813400  1
  Li  Li6  1  0.49615400  0.00051100  0.74743700  1
  Li  Li7  1  0.99480100  0.24881300  0.75359200  1
  Li  Li8  1  0.98756500  0.50456800  0.00986300  1
  Mn  Mn9  1  0.00468800  0.00167700  0.99698200  1
  Mn  Mn10  1  0.50780900  0.74219800  0.00090000  1
  Co  Co11  1  0.50447900  0.25250800  0.49727100  1
  Co  Co12  1  0.49849100  0.74872000  0.50265000  1
  Co  Co13  1  0.00542300  0.49935500  0.50354600  1
  Co  Co14  1  0.99274200  0.00078700  0.49672400  1
  Co  Co15  1  0.48912200  0.26134200  0.99879100  1
  O  O16  1  0.47064900  0.12968000  0.11055400  1
  O  O17  1  0.01457300  0.37519200  0.61638000  1
  O  O18  1  0.49694300  0.63679100  0.11930900  1
  O  O19  1  0.96359900  0.36392300  0.11512300  1
  O  O20  1  0.46860800  0.61832800  0.61639300  1
  O  O21  1  0.02733800  0.86594700  0.10593000  1
  O  O22  1  0.98853400  0.86904300  0.61447600  1
  O  O23  1  0.48102000  0.12268200  0.61132100  1
  O  O24  1  0.54149100  0.37785900  0.38769400  1
  O  O25  1  0.98654500  0.63915600  0.89151500  1
  O  O26  1  0.50624500  0.88163400  0.38652200  1
  O  O27  1  0.00845700  0.62495300  0.39045700  1
  O  O28  1  0.53953000  0.87311600  0.88470100  1
  O  O29  1  0.98805700  0.13009800  0.38022200  1
  O  O30  1  0.02399100  0.12748200  0.88444300  1
  O  O31  1  0.50268200  0.35891200  0.88513400  1
