# generated using pymatgen
data_Li3Mn2(P2O7)2
_symmetry_space_group_name_H-M   'P 1'
_cell_length_a   9.85936500
_cell_length_b   9.87258674
_cell_length_c   11.33858164
_cell_angle_alpha   76.72189916
_cell_angle_beta   89.54639747
_cell_angle_gamma   89.56945002
_symmetry_Int_Tables_number   1
_chemical_formula_structural   Li3Mn2(P2O7)2
_chemical_formula_sum   'Li12 Mn8 P16 O56'
_cell_volume   1074.11173935
_cell_formula_units_Z   4
loop_
 _symmetry_equiv_pos_site_id
 _symmetry_equiv_pos_as_xyz
  1  'x, y, z'
loop_
 _atom_site_type_symbol
 _atom_site_label
 _atom_site_symmetry_multiplicity
 _atom_site_fract_x
 _atom_site_fract_y
 _atom_site_fract_z
 _atom_site_occupancy
  Li  Li0  1  0.71947600  0.12148100  0.54904100  1
  Li  Li1  1  0.40859700  0.18517600  0.44313800  1
  Li  Li2  1  0.10365400  0.08723100  0.97116500  1
  Li  Li3  1  0.40064700  0.14664700  0.96057900  1
  Li  Li4  1  0.60891500  0.41164800  0.02997300  1
  Li  Li5  1  0.95429300  0.37714500  0.50390000  1
  Li  Li6  1  0.05017700  0.63108200  0.48972800  1
  Li  Li7  1  0.39524500  0.58681300  0.97084600  1
  Li  Li8  1  0.09833900  0.64833100  0.96350100  1
  Li  Li9  1  0.89146900  0.91316900  0.02884100  1
  Li  Li10  1  0.59250400  0.81536200  0.55635300  1
  Li  Li11  1  0.27619600  0.88215000  0.44731900  1
  Mn  Mn12  1  0.92454000  0.20010100  0.32481700  1
  Mn  Mn13  1  0.21528000  0.25100500  0.17775500  1
  Mn  Mn14  1  0.71755000  0.24732600  0.82901800  1
  Mn  Mn15  1  0.42399600  0.29937100  0.66944300  1
  Mn  Mn16  1  0.57776700  0.70249300  0.32597000  1
  Mn  Mn17  1  0.28660800  0.74707400  0.17848900  1
  Mn  Mn18  1  0.78087000  0.74159000  0.83128400  1
  Mn  Mn19  1  0.07334900  0.80173900  0.67148100  1
  P  P20  1  0.45418100  0.01859900  0.24652600  1
  P  P21  1  0.71096900  0.12087300  0.12049800  1
  P  P22  1  0.92692700  0.06206600  0.75598400  1
  P  P23  1  0.14588100  0.12241900  0.57399900  1
  P  P24  1  0.64769100  0.38189400  0.41944400  1
  P  P25  1  0.43063700  0.43566200  0.24160900  1
  P  P26  1  0.04150100  0.51456500  0.25060500  1
  P  P27  1  0.20986800  0.38029700  0.88855300  1
  P  P28  1  0.78841100  0.62136700  0.11616600  1
  P  P29  1  0.95869000  0.48429200  0.74760000  1
  P  P30  1  0.57084000  0.56120900  0.75648800  1
  P  P31  1  0.35420600  0.62115700  0.57643900  1
  P  P32  1  0.85185900  0.88042300  0.42216800  1
  P  P33  1  0.07119300  0.93444800  0.24213300  1
  P  P34  1  0.29092600  0.88049000  0.88561800  1
  P  P35  1  0.54667900  0.97836100  0.75304300  1
  O  O36  1  0.40722800  0.02395300  0.37305500  1
  O  O37  1  0.83935800  0.03600900  0.43018300  1
  O  O38  1  0.08725200  0.07986100  0.26923500  1
  O  O39  1  0.36227600  0.09616800  0.14396000  1
  O  O40  1  0.59782500  0.09391700  0.23001600  1
  O  O41  1  0.82433500  0.19232200  0.17597600  1
  O  O42  1  0.64376700  0.22324000  0.00981800  1
  O  O43  1  0.26995500  0.02136300  0.91311200  1
  O  O44  1  0.07350800  0.12083900  0.70177200  1
  O  O45  1  0.93310000  0.06531800  0.88838800  1
  O  O46  1  0.52600900  0.13034600  0.77570500  1
  O  O47  1  0.28641800  0.18286900  0.58229500  1
  O  O48  1  0.81707600  0.16276400  0.69056000  1
  O  O49  1  0.05380300  0.20733700  0.47578900  1
  O  O50  1  0.56145100  0.28332900  0.51691800  1
  O  O51  1  0.32886900  0.32699200  0.30756000  1
  O  O52  1  0.79052500  0.31976500  0.41850600  1
  O  O53  1  0.02864400  0.36217400  0.22975800  1
  O  O54  1  0.58010100  0.37830000  0.29204300  1
  O  O55  1  0.43498600  0.43796600  0.10799800  1
  O  O56  1  0.75895000  0.48775000  0.08170900  1
  O  O57  1  0.15614000  0.26939100  0.99756500  1
  O  O58  1  0.33438200  0.31919100  0.83494600  1
  O  O59  1  0.09917500  0.40049600  0.78186500  1
  O  O60  1  0.58609900  0.41709200  0.72530200  1
  O  O61  1  0.84946400  0.40884800  0.83227300  1
  O  O62  1  0.06829000  0.51338200  0.38114000  1
  O  O63  1  0.34694900  0.46953800  0.56646000  1
  O  O64  1  0.65089600  0.53421300  0.42957700  1
  O  O65  1  0.94522000  0.49461800  0.61418400  1
  O  O66  1  0.14058300  0.59311700  0.15405800  1
  O  O67  1  0.41413000  0.57972000  0.27189100  1
  O  O68  1  0.89832200  0.59234100  0.22479300  1
  O  O69  1  0.67243600  0.69059000  0.17262100  1
  O  O70  1  0.85833000  0.72554600  0.00698000  1
  O  O71  1  0.22908400  0.52013900  0.91815300  1
  O  O72  1  0.56325100  0.55737100  0.89001700  1
  O  O73  1  0.42357100  0.62313900  0.70375500  1
  O  O74  1  0.97430100  0.63446400  0.77706100  1
  O  O75  1  0.21268200  0.68678700  0.58083300  1
  O  O76  1  0.67511200  0.67040800  0.69422400  1
  O  O77  1  0.44093500  0.71838300  0.47850200  1
  O  O78  1  0.94368600  0.79504300  0.52014000  1
  O  O79  1  0.17806000  0.83191200  0.31038000  1
  O  O80  1  0.71061800  0.82151600  0.41649200  1
  O  O81  1  0.47122700  0.86431200  0.23206500  1
  O  O82  1  0.06789700  0.93171200  0.10940100  1
  O  O83  1  0.92321000  0.87950500  0.29462100  1
  O  O84  1  0.74335000  0.98460100  0.09127800  1
  O  O85  1  0.34391900  0.77065000  0.99550300  1
  O  O86  1  0.16749600  0.81897700  0.83341400  1
  O  O87  1  0.40339600  0.89914900  0.77736900  1
  O  O88  1  0.64782100  0.90139000  0.84615600  1
  O  O89  1  0.91285100  0.91561100  0.72965400  1
  O  O90  1  0.16050500  0.96723100  0.56616300  1
  O  O91  1  0.58109500  0.98146500  0.62203200  1
