# generated using pymatgen
data_Li9Mn2Co5O16
_symmetry_space_group_name_H-M   'P 1'
_cell_length_a   5.14351400
_cell_length_b   7.69920307
_cell_length_c   7.76365769
_cell_angle_alpha   82.19889141
_cell_angle_beta   71.12150442
_cell_angle_gamma   83.39976374
_symmetry_Int_Tables_number   1
_chemical_formula_structural   Li9Mn2Co5O16
_chemical_formula_sum   'Li9 Mn2 Co5 O16'
_cell_volume   287.38902881
_cell_formula_units_Z   1
loop_
 _symmetry_equiv_pos_site_id
 _symmetry_equiv_pos_as_xyz
  1  'x, y, z'
loop_
 _atom_site_type_symbol
 _atom_site_label
 _atom_site_symmetry_multiplicity
 _atom_site_fract_x
 _atom_site_fract_y
 _atom_site_fract_z
 _atom_site_occupancy
  Li  Li0  1  0.50556300  0.81516200  0.05646600  1
  Li  Li1  1  0.49158400  0.68359200  0.44174600  1
  Li  Li2  1  0.49972900  0.44112900  0.18995600  1
  Li  Li3  1  0.49984900  0.31301700  0.55779800  1
  Li  Li4  1  0.49458900  0.06437300  0.31727400  1
  Li  Li5  1  0.50744200  0.92606200  0.68863400  1
  Li  Li6  1  0.49640700  0.56958300  0.80715700  1
  Li  Li7  1  0.50266900  0.18715200  0.93825300  1
  Li  Li8  1  0.99939700  0.74777700  0.75132000  1
  Mn  Mn9  1  0.00155200  0.99946600  0.99691600  1
  Mn  Mn10  1  0.00372700  0.37753700  0.87454200  1
  Co  Co11  1  0.99775100  0.87351900  0.38183200  1
  Co  Co12  1  0.00644700  0.62820600  0.11832800  1
  Co  Co13  1  0.99820600  0.50394300  0.50512100  1
  Co  Co14  1  0.99486000  0.25514800  0.25508600  1
  Co  Co15  1  0.99777900  0.11474700  0.62520300  1
  O  O16  1  0.77469300  0.97468100  0.85049800  1
  O  O17  1  0.77638500  0.85568600  0.20698300  1
  O  O18  1  0.77934600  0.57955300  0.97304000  1
  O  O19  1  0.76945000  0.46248900  0.33567100  1
  O  O20  1  0.77811900  0.21737400  0.07883600  1
  O  O21  1  0.76037600  0.09543500  0.46897900  1
  O  O22  1  0.76210900  0.70939500  0.57834100  1
  O  O23  1  0.78102700  0.34003100  0.72337700  1
  O  O24  1  0.22965900  0.65360300  0.28084000  1
  O  O25  1  0.23168400  0.51526400  0.66916900  1
  O  O26  1  0.22575100  0.28446000  0.41213000  1
  O  O27  1  0.22355300  0.15566800  0.79603700  1
  O  O28  1  0.22866900  0.91455800  0.52108900  1
  O  O29  1  0.23532400  0.79560000  0.91851300  1
  O  O30  1  0.23023000  0.40551400  0.02435500  1
  O  O31  1  0.21607700  0.04027600  0.15651000  1
