# generated using pymatgen
data_Li9Mn2Co5O16
_symmetry_space_group_name_H-M   'P 1'
_cell_length_a   5.05885400
_cell_length_b   7.73487416
_cell_length_c   7.80324455
_cell_angle_alpha   98.00030782
_cell_angle_beta   101.55795859
_cell_angle_gamma   102.92433740
_symmetry_Int_Tables_number   1
_chemical_formula_structural   Li9Mn2Co5O16
_chemical_formula_sum   'Li9 Mn2 Co5 O16'
_cell_volume   286.10430206
_cell_formula_units_Z   1
loop_
 _symmetry_equiv_pos_site_id
 _symmetry_equiv_pos_as_xyz
  1  'x, y, z'
loop_
 _atom_site_type_symbol
 _atom_site_label
 _atom_site_symmetry_multiplicity
 _atom_site_fract_x
 _atom_site_fract_y
 _atom_site_fract_z
 _atom_site_occupancy
  Li  Li0  1  0.48343300  0.74137400  0.74174100  1
  Li  Li1  1  0.00569800  0.37631800  0.13314000  1
  Li  Li2  1  0.50180800  0.00248900  0.50211300  1
  Li  Li3  1  0.00315700  0.86909900  0.62066500  1
  Li  Li4  1  0.50282300  0.49872600  0.99593400  1
  Li  Li5  1  0.99621900  0.13672700  0.38437800  1
  Li  Li6  1  0.99195900  0.61742500  0.86095100  1
  Li  Li7  1  0.51027300  0.25654300  0.25787700  1
  Li  Li8  1  0.99908900  0.49802400  0.50150400  1
  Mn  Mn9  1  0.00024700  0.99794400  0.00107000  1
  Mn  Mn10  1  0.50050800  0.62651700  0.38013600  1
  Co  Co11  1  0.99824600  0.25433800  0.74508100  1
  Co  Co12  1  0.50194900  0.87318200  0.12486000  1
  Co  Co13  1  0.49558400  0.13181600  0.87115100  1
  Co  Co14  1  0.99922900  0.74190700  0.25752400  1
  Co  Co15  1  0.50154600  0.37670700  0.61579900  1
  O  O16  1  0.76402600  0.76558800  0.00268600  1
  O  O17  1  0.27050800  0.39347100  0.37728900  1
  O  O18  1  0.76906500  0.01856400  0.77460700  1
  O  O19  1  0.24350300  0.88325700  0.88574200  1
  O  O20  1  0.74956100  0.52005100  0.25142100  1
  O  O21  1  0.24163500  0.13516300  0.63948100  1
  O  O22  1  0.27843800  0.63540600  0.14236200  1
  O  O23  1  0.72983400  0.24969400  0.50893900  1
  O  O24  1  0.26509200  0.74982800  0.48611400  1
  O  O25  1  0.75345400  0.36420900  0.86398000  1
  O  O26  1  0.22660900  0.98599600  0.22986200  1
  O  O27  1  0.73919300  0.86304200  0.36861000  1
  O  O28  1  0.24797300  0.47716900  0.74846500  1
  O  O29  1  0.75546600  0.10731200  0.11887000  1
  O  O30  1  0.72437300  0.62470300  0.60653300  1
  O  O31  1  0.24950300  0.22741000  0.00111500  1
