# generated using pymatgen
data_LiCr2N3
_symmetry_space_group_name_H-M   'P 1'
_cell_length_a   5.56374430
_cell_length_b   5.58915108
_cell_length_c   5.03390639
_cell_angle_alpha   90.00000000
_cell_angle_beta   90.00000000
_cell_angle_gamma   120.15117055
_symmetry_Int_Tables_number   1
_chemical_formula_structural   LiCr2N3
_chemical_formula_sum   'Li2 Cr4 N6'
_cell_volume   135.35839692
_cell_formula_units_Z   2
loop_
 _symmetry_equiv_pos_site_id
 _symmetry_equiv_pos_as_xyz
  1  'x, y, z'
loop_
 _atom_site_type_symbol
 _atom_site_label
 _atom_site_symmetry_multiplicity
 _atom_site_fract_x
 _atom_site_fract_y
 _atom_site_fract_z
 _atom_site_occupancy
  Li  Li0  1  0.00000000  0.66103880  0.48446628  1
  Li  Li1  1  1.00000000  0.33896120  0.98446628  1
  Cr  Cr2  1  0.33223467  0.33144814  0.48828547  1
  Cr  Cr3  1  0.66776533  0.99921347  0.48828547  1
  Cr  Cr4  1  0.66776533  0.66855186  0.98828547  1
  Cr  Cr5  1  0.33223467  0.00078653  0.98828547  1
  N  N6  1  0.37441909  0.33536098  0.86064397  1
  N  N7  1  0.62558091  0.96094089  0.86064397  1
  N  N8  1  0.62558091  0.66463902  0.36064397  1
  N  N9  1  0.37441909  0.03905911  0.36064397  1
  N  N10  1  0.00000000  0.70818238  0.90567486  1
  N  N11  1  1.00000000  0.29181762  0.40567486  1
