# generated using pymatgen
data_Li3FeNi2(PO4)3
_symmetry_space_group_name_H-M   'P 1'
_cell_length_a   5.97312318
_cell_length_b   13.95825666
_cell_length_c   11.27389973
_cell_angle_alpha   67.58292662
_cell_angle_beta   90.00000000
_cell_angle_gamma   90.00000000
_symmetry_Int_Tables_number   1
_chemical_formula_structural   Li3FeNi2(PO4)3
_chemical_formula_sum   'Li12 Fe4 Ni8 P12 O48'
_cell_volume   868.92440515
_cell_formula_units_Z   4
loop_
 _symmetry_equiv_pos_site_id
 _symmetry_equiv_pos_as_xyz
  1  'x, y, z'
loop_
 _atom_site_type_symbol
 _atom_site_label
 _atom_site_symmetry_multiplicity
 _atom_site_fract_x
 _atom_site_fract_y
 _atom_site_fract_z
 _atom_site_occupancy
  Li  Li0  1  0.99973524  0.66671500  0.83364719  1
  Li  Li1  1  0.99983755  0.99969453  0.50027956  1
  Li  Li2  1  0.99937910  0.33354600  0.16661350  1
  Li  Li3  1  0.50033993  0.66649267  0.33278461  1
  Li  Li4  1  0.50019669  0.99988470  0.99955224  1
  Li  Li5  1  0.50043684  0.33357206  0.66609649  1
  Li  Li6  1  0.50026476  0.66671500  0.83364719  1
  Li  Li7  1  0.50016245  0.99969453  0.50027956  1
  Li  Li8  1  0.50062090  0.33354600  0.16661350  1
  Li  Li9  1  0.99966007  0.66649267  0.33278461  1
  Li  Li10  1  0.99980331  0.99988470  0.99955224  1
  Li  Li11  1  0.99956316  0.33357206  0.66609649  1
  Fe  Fe12  1  0.75000000  0.91574447  0.30619465  1
  Fe  Fe13  1  0.75000000  0.24924721  0.97275899  1
  Fe  Fe14  1  0.75000000  0.58239637  0.63963181  1
  Fe  Fe15  1  0.75000000  0.23225350  0.48939465  1
  Ni  Ni16  1  0.75000000  0.56897862  0.15473731  1
  Ni  Ni17  1  0.75000000  0.90227113  0.82136114  1
  Ni  Ni18  1  0.25000000  0.08577951  0.68963111  1
  Ni  Ni19  1  0.25000000  0.42045422  0.35525844  1
  Ni  Ni20  1  0.25000000  0.75274125  0.02225151  1
  Ni  Ni21  1  0.25000000  0.76424494  0.51269365  1
  Ni  Ni22  1  0.25000000  0.09756025  0.17882721  1
  Ni  Ni23  1  0.25000000  0.43110263  0.84593394  1
  P  P24  1  0.75000000  0.49654610  0.91087636  1
  P  P25  1  0.75000000  0.82983058  0.57765225  1
  P  P26  1  0.75000000  0.16311417  0.24290182  1
  P  P27  1  0.75000000  0.77356452  0.13058201  1
  P  P28  1  0.75000000  0.10686861  0.79848580  1
  P  P29  1  0.75000000  0.44096978  0.46384706  1
  P  P30  1  0.25000000  0.83735034  0.75679826  1
  P  P31  1  0.25000000  0.17032891  0.42295032  1
  P  P32  1  0.25000000  0.50400943  0.09010917  1
  P  P33  1  0.25000000  0.55850916  0.53481335  1
  P  P34  1  0.25000000  0.89172091  0.20154843  1
  P  P35  1  0.25000000  0.22528246  0.86793639  1
  O  O36  1  0.75000000  0.72102674  0.68351139  1
  O  O37  1  0.75000000  0.05457228  0.35010835  1
  O  O38  1  0.75000000  0.38761096  0.01668271  1
  O  O39  1  0.75000000  0.88068029  0.01977151  1
  O  O40  1  0.75000000  0.21420168  0.68986857  1
  O  O41  1  0.75000000  0.54814100  0.35278862  1
  O  O42  1  0.25000000  0.61392496  0.98545346  1
  O  O43  1  0.25000000  0.94725629  0.65216836  1
  O  O44  1  0.25000000  0.28028445  0.31906617  1
  O  O45  1  0.25000000  0.45264621  0.64696920  1
  O  O46  1  0.25000000  0.78590301  0.31364287  1
  O  O47  1  0.25000000  0.11913550  0.98020270  1
  O  O48  1  0.75000000  0.44676125  0.59875927  1
  O  O49  1  0.75000000  0.78002406  0.26502708  1
  O  O50  1  0.75000000  0.11231008  0.93353769  1
  O  O51  1  0.75000000  0.58414250  0.96480449  1
  O  O52  1  0.75000000  0.91759523  0.63139540  1
  O  O53  1  0.75000000  0.25147437  0.29468628  1
  O  O54  1  0.25000000  0.88407848  0.06754628  1
  O  O55  1  0.25000000  0.21735060  0.73418701  1
  O  O56  1  0.25000000  0.55121435  0.40068415  1
  O  O57  1  0.25000000  0.75049804  0.70205862  1
  O  O58  1  0.25000000  0.08344058  0.36851035  1
  O  O59  1  0.25000000  0.41709164  0.03541943  1
  O  O60  1  0.95758192  0.51815964  0.81825549  1
  O  O61  1  0.95757076  0.85157914  0.48492033  1
  O  O62  1  0.95827772  0.18423587  0.15095220  1
  O  O63  1  0.54297642  0.70386461  0.12962272  1
  O  O64  1  0.54317316  0.03713997  0.79648737  1
  O  O65  1  0.54152903  0.37250723  0.46271390  1
  O  O66  1  0.45621242  0.81449619  0.85106913  1
  O  O67  1  0.45400017  0.14736425  0.51818291  1
  O  O68  1  0.45621193  0.48111470  0.18434268  1
  O  O69  1  0.04597179  0.62957648  0.53584884  1
  O  O70  1  0.04595342  0.96278102  0.20251215  1
  O  O71  1  0.04603200  0.29615913  0.86910589  1
  O  O72  1  0.04378758  0.81449619  0.85106913  1
  O  O73  1  0.04599983  0.14736425  0.51818291  1
  O  O74  1  0.04378807  0.48111470  0.18434268  1
  O  O75  1  0.45402821  0.62957648  0.53584884  1
  O  O76  1  0.45404658  0.96278102  0.20251215  1
  O  O77  1  0.45396800  0.29615913  0.86910589  1
  O  O78  1  0.54241808  0.51815964  0.81825549  1
  O  O79  1  0.54242924  0.85157914  0.48492033  1
  O  O80  1  0.54172228  0.18423587  0.15095220  1
  O  O81  1  0.95702358  0.70386461  0.12962272  1
  O  O82  1  0.95682684  0.03713997  0.79648737  1
  O  O83  1  0.95847097  0.37250723  0.46271390  1
