# generated using pymatgen
data_Li4B7ClO12
_symmetry_space_group_name_H-M   'P 1'
_cell_length_a   8.66872307
_cell_length_b   8.66872307
_cell_length_c   8.66872340
_cell_angle_alpha   60.61269913
_cell_angle_beta   60.61269913
_cell_angle_gamma   60.61270422
_symmetry_Int_Tables_number   1
_chemical_formula_structural   Li4B7ClO12
_chemical_formula_sum   'Li8 B14 Cl2 O24'
_cell_volume   467.00166843
_cell_formula_units_Z   2
loop_
 _symmetry_equiv_pos_site_id
 _symmetry_equiv_pos_as_xyz
  1  'x, y, z'
loop_
 _atom_site_type_symbol
 _atom_site_label
 _atom_site_symmetry_multiplicity
 _atom_site_fract_x
 _atom_site_fract_y
 _atom_site_fract_z
 _atom_site_occupancy
  Li  Li0  1  0.49269600  0.49280300  0.01819700  1
  Li  Li1  1  0.49280300  0.01819700  0.49269600  1
  Li  Li2  1  0.01819700  0.49269600  0.49280300  1
  Li  Li3  1  0.99269600  0.51819700  0.99280300  1
  Li  Li4  1  0.51819700  0.99280300  0.99269600  1
  Li  Li5  1  0.99280300  0.99269600  0.51819700  1
  Li  Li6  1  0.63191900  0.63191900  0.63191900  1
  Li  Li7  1  0.13191900  0.13191900  0.13191900  1
  B  B8  1  0.40007600  0.40007600  0.40007600  1
  B  B9  1  0.39989800  0.39667300  0.80393400  1
  B  B10  1  0.80393400  0.39989800  0.39667300  1
  B  B11  1  0.39667300  0.80393400  0.39989800  1
  B  B12  1  0.30393400  0.89667300  0.89989800  1
  B  B13  1  0.89667300  0.89989800  0.30393400  1
  B  B14  1  0.90007600  0.90007600  0.90007600  1
  B  B15  1  0.89989800  0.30393400  0.89667300  1
  B  B16  1  0.24770900  0.25229200  0.74876600  1
  B  B17  1  0.25229200  0.74876600  0.24770900  1
  B  B18  1  0.74876600  0.24770900  0.25229200  1
  B  B19  1  0.74770900  0.24876600  0.75229200  1
  B  B20  1  0.24876600  0.75229200  0.74770900  1
  B  B21  1  0.75229200  0.74770900  0.24876600  1
  Cl  Cl22  1  0.24321000  0.24321000  0.24321000  1
  Cl  Cl23  1  0.74321000  0.74321000  0.74321000  1
  O  O24  1  0.56278600  0.38719000  0.24792300  1
  O  O25  1  0.38719000  0.24792300  0.56278600  1
  O  O26  1  0.24792300  0.56278600  0.38719000  1
  O  O27  1  0.39591800  0.56319800  0.79558000  1
  O  O28  1  0.24240200  0.38767100  0.80989100  1
  O  O29  1  0.56071800  0.24378900  0.80396200  1
  O  O30  1  0.80989100  0.24240200  0.38767100  1
  O  O31  1  0.80396200  0.56071800  0.24378900  1
  O  O32  1  0.79558000  0.39591800  0.56319800  1
  O  O33  1  0.24378900  0.80396200  0.56071800  1
  O  O34  1  0.56319800  0.79558000  0.39591800  1
  O  O35  1  0.38767100  0.80989100  0.24240200  1
  O  O36  1  0.30989100  0.88767100  0.74240200  1
  O  O37  1  0.30396200  0.74378900  0.06071800  1
  O  O38  1  0.29558000  0.06319800  0.89591800  1
  O  O39  1  0.74378900  0.06071800  0.30396200  1
  O  O40  1  0.06319800  0.89591800  0.29558000  1
  O  O41  1  0.88767100  0.74240200  0.30989100  1
  O  O42  1  0.06278600  0.74792300  0.88719000  1
  O  O43  1  0.88719000  0.06278600  0.74792300  1
  O  O44  1  0.74792300  0.88719000  0.06278600  1
  O  O45  1  0.89591800  0.29558000  0.06319800  1
  O  O46  1  0.74240200  0.30989100  0.88767100  1
  O  O47  1  0.06071800  0.30396200  0.74378900  1
