# generated using pymatgen
data_Li9Mn2Co5O16
_symmetry_space_group_name_H-M   'P 1'
_cell_length_a   2.96024700
_cell_length_b   9.75428151
_cell_length_c   10.13164123
_cell_angle_alpha   77.62251933
_cell_angle_beta   88.95833497
_cell_angle_gamma   87.83380244
_symmetry_Int_Tables_number   1
_chemical_formula_structural   Li9Mn2Co5O16
_chemical_formula_sum   'Li9 Mn2 Co5 O16'
_cell_volume   285.53265416
_cell_formula_units_Z   1
loop_
 _symmetry_equiv_pos_site_id
 _symmetry_equiv_pos_as_xyz
  1  'x, y, z'
loop_
 _atom_site_type_symbol
 _atom_site_label
 _atom_site_symmetry_multiplicity
 _atom_site_fract_x
 _atom_site_fract_y
 _atom_site_fract_z
 _atom_site_occupancy
  Li  Li0  1  0.00199000  0.75235600  0.87022900  1
  Li  Li1  1  0.50829200  0.50877800  0.50120200  1
  Li  Li2  1  0.00530600  0.24986700  0.12360600  1
  Li  Li3  1  0.48868900  0.00087200  0.74238300  1
  Li  Li4  1  0.49834600  0.49804000  0.00250400  1
  Li  Li5  1  0.99479200  0.24660000  0.62378500  1
  Li  Li6  1  0.49711400  0.99932000  0.25416900  1
  Li  Li7  1  0.00327600  0.74847800  0.38423100  1
  Li  Li8  1  0.48589600  0.74485500  0.61814700  1
  Mn  Mn9  1  0.01068500  0.00207900  0.99890700  1
  Mn  Mn10  1  0.99709300  0.50502300  0.74523600  1
  Co  Co11  1  0.99098100  0.50065400  0.25154200  1
  Co  Co12  1  0.51732100  0.25300000  0.87662900  1
  Co  Co13  1  0.99871300  0.98939100  0.50556200  1
  Co  Co14  1  0.48898600  0.74930900  0.12431400  1
  Co  Co15  1  0.50218700  0.24839100  0.37645800  1
  O  O16  1  0.46800200  0.87346800  0.94385400  1
  O  O17  1  0.99566800  0.61344000  0.57535500  1
  O  O18  1  0.49889000  0.37187800  0.19827600  1
  O  O19  1  0.03352500  0.14133000  0.82475400  1
  O  O20  1  0.94927500  0.62463000  0.07200600  1
  O  O21  1  0.50939000  0.38264200  0.70332000  1
  O  O22  1  0.00734400  0.11940600  0.33096500  1
  O  O23  1  0.47132200  0.88544600  0.44270800  1
  O  O24  1  0.48363900  0.60692900  0.80642100  1
  O  O25  1  0.99714900  0.37452000  0.42764700  1
  O  O26  1  0.54951200  0.12720700  0.05286700  1
  O  O27  1  0.00004700  0.89250700  0.67097500  1
  O  O28  1  0.00016500  0.36584200  0.92384000  1
  O  O29  1  0.53497600  0.12604700  0.55279600  1
  O  O30  1  0.02775400  0.87146500  0.17588400  1
  O  O31  1  0.48367500  0.62623200  0.29943300  1
