# generated using pymatgen
data_Li2TiFe3O8
_symmetry_space_group_name_H-M   'P 1'
_cell_length_a   5.99266770
_cell_length_b   5.97160521
_cell_length_c   8.51043050
_cell_angle_alpha   90.05953086
_cell_angle_beta   89.79950844
_cell_angle_gamma   89.00677612
_symmetry_Int_Tables_number   1
_chemical_formula_structural   Li2TiFe3O8
_chemical_formula_sum   'Li4 Ti2 Fe6 O16'
_cell_volume   304.50514565
_cell_formula_units_Z   2
loop_
 _symmetry_equiv_pos_site_id
 _symmetry_equiv_pos_as_xyz
  1  'x, y, z'
loop_
 _atom_site_type_symbol
 _atom_site_label
 _atom_site_symmetry_multiplicity
 _atom_site_fract_x
 _atom_site_fract_y
 _atom_site_fract_z
 _atom_site_occupancy
  Li  Li0  1  0.00553400  0.24909700  0.12603000  1
  Li  Li1  1  0.50315100  0.75502200  0.62658900  1
  Li  Li2  1  0.99717800  0.74533100  0.87299800  1
  Li  Li3  1  0.49458900  0.25065400  0.37439200  1
  Ti  Ti4  1  0.00328500  0.99239700  0.51063200  1
  Ti  Ti5  1  0.49782100  0.50785900  0.98900000  1
  Fe  Fe6  1  0.75027200  0.24996000  0.74961300  1
  Fe  Fe7  1  0.74954800  0.75018200  0.25074200  1
  Fe  Fe8  1  0.25000900  0.24983200  0.74959800  1
  Fe  Fe9  1  0.00119600  0.49480700  0.49970600  1
  Fe  Fe10  1  0.49860300  0.00546800  0.00055300  1
  Fe  Fe11  1  0.24950800  0.74952600  0.24983200  1
  O  O12  1  0.00698000  0.52529400  0.26459300  1
  O  O13  1  0.50364600  0.02456000  0.76868100  1
  O  O14  1  0.99664900  0.47501100  0.73230400  1
  O  O15  1  0.49209700  0.97489000  0.23484600  1
  O  O16  1  0.22826600  0.75308700  0.48983400  1
  O  O17  1  0.72280600  0.26207400  0.99456800  1
  O  O18  1  0.77871300  0.75410400  0.48850800  1
  O  O19  1  0.27711300  0.25757300  0.99008600  1
  O  O20  1  0.01443600  0.96757300  0.26219600  1
  O  O21  1  0.49774900  0.48511800  0.76550700  1
  O  O22  1  0.00242400  0.01458900  0.73446800  1
  O  O23  1  0.48536000  0.53228900  0.23752600  1
  O  O24  1  0.22377200  0.24074800  0.51002600  1
  O  O25  1  0.72044200  0.74809200  0.01146600  1
  O  O26  1  0.77712700  0.23880100  0.50586400  1
  O  O27  1  0.27172600  0.74606400  0.00984100  1
