# generated using pymatgen
data_LiVO3
_symmetry_space_group_name_H-M   'P 1'
_cell_length_a   6.77239992
_cell_length_b   6.77239992
_cell_length_c   5.94367306
_cell_angle_alpha   73.60027283
_cell_angle_beta   73.60027283
_cell_angle_gamma   79.16420608
_symmetry_Int_Tables_number   1
_chemical_formula_structural   LiVO3
_chemical_formula_sum   'Li4 V4 O12'
_cell_volume   249.13555005
_cell_formula_units_Z   4
loop_
 _symmetry_equiv_pos_site_id
 _symmetry_equiv_pos_as_xyz
  1  'x, y, z'
loop_
 _atom_site_type_symbol
 _atom_site_label
 _atom_site_symmetry_multiplicity
 _atom_site_fract_x
 _atom_site_fract_y
 _atom_site_fract_z
 _atom_site_occupancy
  Li  Li0  1  0.08210100  0.91789900  0.75000000  1
  Li  Li1  1  0.91789900  0.08210100  0.25000000  1
  Li  Li2  1  0.72760000  0.27240000  0.75000000  1
  Li  Li3  1  0.27240000  0.72760000  0.25000000  1
  V  V4  1  0.19371300  0.38072800  0.72907600  1
  V  V5  1  0.38072800  0.19371300  0.22907600  1
  V  V6  1  0.80628700  0.61927200  0.27092400  1
  V  V7  1  0.61927200  0.80628700  0.77092400  1
  O  O8  1  0.67872700  0.61563900  0.58608400  1
  O  O9  1  0.32127300  0.38436100  0.41391600  1
  O  O10  1  0.61563900  0.67872700  0.08608400  1
  O  O11  1  0.99502300  0.77809500  0.16566000  1
  O  O12  1  0.00497700  0.22190500  0.83434000  1
  O  O13  1  0.77809500  0.99502300  0.66566000  1
  O  O14  1  0.08750700  0.62477700  0.71517000  1
  O  O15  1  0.22190500  0.00497700  0.33434000  1
  O  O16  1  0.62477700  0.08750700  0.21517000  1
  O  O17  1  0.37522300  0.91249300  0.78483000  1
  O  O18  1  0.91249300  0.37522300  0.28483000  1
  O  O19  1  0.38436100  0.32127300  0.91391600  1
