# generated using pymatgen
data_Li2TiCo3O8
_symmetry_space_group_name_H-M   'P 1'
_cell_length_a   5.76905051
_cell_length_b   5.74697139
_cell_length_c   9.36576268
_cell_angle_alpha   89.70606162
_cell_angle_beta   91.19680894
_cell_angle_gamma   60.30858724
_symmetry_Int_Tables_number   1
_chemical_formula_structural   Li2TiCo3O8
_chemical_formula_sum   'Li4 Ti2 Co6 O16'
_cell_volume   269.64695335
_cell_formula_units_Z   2
loop_
 _symmetry_equiv_pos_site_id
 _symmetry_equiv_pos_as_xyz
  1  'x, y, z'
loop_
 _atom_site_type_symbol
 _atom_site_label
 _atom_site_symmetry_multiplicity
 _atom_site_fract_x
 _atom_site_fract_y
 _atom_site_fract_z
 _atom_site_occupancy
  Li  Li0  1  0.67403100  0.66438500  0.88928700  1
  Li  Li1  1  0.32690800  0.33482100  0.39936800  1
  Li  Li2  1  0.00494300  0.99964100  0.99500000  1
  Li  Li3  1  0.99522700  0.00112100  0.49581200  1
  Ti  Ti4  1  0.64354700  0.68254700  0.50007100  1
  Ti  Ti5  1  0.33249800  0.33441100  0.99348300  1
  Co  Co6  1  0.34520000  0.82274900  0.21622000  1
  Co  Co7  1  0.16947000  0.65991100  0.71516500  1
  Co  Co8  1  0.16869500  0.17083900  0.71433100  1
  Co  Co9  1  0.84079500  0.34072700  0.21903100  1
  Co  Co10  1  0.65823600  0.17122900  0.71498500  1
  Co  Co11  1  0.82881400  0.83227700  0.21210900  1
  O  O12  1  0.32595500  0.83637300  0.60172400  1
  O  O13  1  0.18944200  0.65767400  0.09121000  1
  O  O14  1  0.50503900  0.52929200  0.33991900  1
  O  O15  1  0.48924400  0.47334600  0.83186400  1
  O  O16  1  0.64780300  0.68559000  0.10923400  1
  O  O17  1  0.33045200  0.33603900  0.61189500  1
  O  O18  1  0.02017000  0.97848800  0.30406500  1
  O  O19  1  0.00016600  0.99925800  0.80594400  1
  O  O20  1  0.82513600  0.33099400  0.59885100  1
  O  O21  1  0.67814400  0.16051800  0.09742500  1
  O  O22  1  0.50019100  0.96283700  0.34477300  1
  O  O23  1  0.04600700  0.47498700  0.83609700  1
  O  O24  1  0.95870000  0.52376200  0.34025900  1
  O  O25  1  0.48720900  0.03801700  0.83136600  1
  O  O26  1  0.18276600  0.15568500  0.09732800  1
  O  O27  1  0.82491100  0.84278100  0.60102200  1
