# generated using pymatgen
data_LiMn(PO3)3
_symmetry_space_group_name_H-M   'P 1'
_cell_length_a   6.88747169
_cell_length_b   6.72550177
_cell_length_c   7.44317303
_cell_angle_alpha   86.92980985
_cell_angle_beta   101.15676062
_cell_angle_gamma   90.89418771
_symmetry_Int_Tables_number   1
_chemical_formula_structural   LiMn(PO3)3
_chemical_formula_sum   'Li2 Mn2 P6 O18'
_cell_volume   337.77424595
_cell_formula_units_Z   2
loop_
 _symmetry_equiv_pos_site_id
 _symmetry_equiv_pos_as_xyz
  1  'x, y, z'
loop_
 _atom_site_type_symbol
 _atom_site_label
 _atom_site_symmetry_multiplicity
 _atom_site_fract_x
 _atom_site_fract_y
 _atom_site_fract_z
 _atom_site_occupancy
  Li  Li0  1  0.43857200  0.15467200  0.18082200  1
  Li  Li1  1  0.56127700  0.84537400  0.81924100  1
  Mn  Mn2  1  0.08029300  0.83468500  0.85431000  1
  Mn  Mn3  1  0.91969800  0.16530600  0.14564400  1
  P  P4  1  0.77774000  0.14000000  0.55724500  1
  P  P5  1  0.22225900  0.86003300  0.44275800  1
  P  P6  1  0.11933900  0.32626600  0.77863200  1
  P  P7  1  0.88070100  0.67369600  0.22133800  1
  P  P8  1  0.55988000  0.35118400  0.80122700  1
  P  P9  1  0.44013300  0.64885900  0.19876100  1
  O  O10  1  0.20888900  0.04600900  0.31800200  1
  O  O11  1  0.79103300  0.95403300  0.68202800  1
  O  O12  1  0.71967900  0.12174900  0.35270200  1
  O  O13  1  0.28026700  0.87824900  0.64730700  1
  O  O14  1  0.10479400  0.16322300  0.92660200  1
  O  O15  1  0.89527800  0.83670000  0.07338400  1
  O  O16  1  0.62700600  0.18752200  0.94795500  1
  O  O17  1  0.37294900  0.81247600  0.05202700  1
  O  O18  1  0.98885500  0.25355500  0.58827900  1
  O  O19  1  0.01120800  0.74633500  0.41170800  1
  O  O20  1  0.63404500  0.29984300  0.61426400  1
  O  O21  1  0.36607100  0.70027300  0.38577000  1
  O  O22  1  0.32781000  0.31720700  0.72002800  1
  O  O23  1  0.67222400  0.68278000  0.27992000  1
  O  O24  1  0.39576000  0.43744400  0.16182900  1
  O  O25  1  0.60424400  0.56258700  0.83822700  1
  O  O26  1  0.93929300  0.46886200  0.19011400  1
  O  O27  1  0.06070300  0.53108000  0.80987800  1
