# generated using pymatgen
data_Li9Mn2Co5O16
_symmetry_space_group_name_H-M   'P 1'
_cell_length_a   5.89709300
_cell_length_b   5.90428632
_cell_length_c   8.59039335
_cell_angle_alpha   88.04604625
_cell_angle_beta   70.69488094
_cell_angle_gamma   86.60233124
_symmetry_Int_Tables_number   1
_chemical_formula_structural   Li9Mn2Co5O16
_chemical_formula_sum   'Li9 Mn2 Co5 O16'
_cell_volume   281.75376885
_cell_formula_units_Z   1
loop_
 _symmetry_equiv_pos_site_id
 _symmetry_equiv_pos_as_xyz
  1  'x, y, z'
loop_
 _atom_site_type_symbol
 _atom_site_label
 _atom_site_symmetry_multiplicity
 _atom_site_fract_x
 _atom_site_fract_y
 _atom_site_fract_z
 _atom_site_occupancy
  Li  Li0  1  0.12624600  0.24934300  0.25134500  1
  Li  Li1  1  0.24887600  0.99629500  0.49628600  1
  Li  Li2  1  0.62546600  0.25121600  0.24847600  1
  Li  Li3  1  0.75862700  0.99673100  0.49131200  1
  Li  Li4  1  0.87621700  0.74961500  0.74904800  1
  Li  Li5  1  0.37247900  0.75016500  0.75166100  1
  Li  Li6  1  0.49053700  0.50504100  0.00801800  1
  Li  Li7  1  0.00237400  0.50380600  0.00386400  1
  Li  Li8  1  0.12611300  0.74813100  0.24835200  1
  Mn  Mn9  1  0.00021100  0.99599200  0.00361500  1
  Mn  Mn10  1  0.75413900  0.50515200  0.50016100  1
  Co  Co11  1  0.25313800  0.50274400  0.49511700  1
  Co  Co12  1  0.37369300  0.25024500  0.74993500  1
  Co  Co13  1  0.49348600  0.99291800  0.00262800  1
  Co  Co14  1  0.62615100  0.74997100  0.25094200  1
  Co  Co15  1  0.87466200  0.25014700  0.75011800  1
  O  O16  1  0.88399800  0.00263300  0.23339400  1
  O  O17  1  0.98847600  0.71541900  0.50184200  1
  O  O18  1  0.40307500  0.98474500  0.23440400  1
  O  O19  1  0.51849900  0.74504700  0.49375500  1
  O  O20  1  0.64090400  0.48870000  0.74210700  1
  O  O21  1  0.14729300  0.48329500  0.73394800  1
  O  O22  1  0.24062400  0.22031800  0.99214400  1
  O  O23  1  0.76820900  0.24240200  0.98502900  1
  O  O24  1  0.36837700  0.50143300  0.26672900  1
  O  O25  1  0.50731200  0.28105800  0.51156500  1
  O  O26  1  0.84950100  0.51426500  0.26482300  1
  O  O27  1  0.97884000  0.25550200  0.51104400  1
  O  O28  1  0.10571800  0.01179600  0.75765400  1
  O  O29  1  0.60031800  0.01630100  0.76696500  1
  O  O30  1  0.75861700  0.77723100  0.00632200  1
  O  O31  1  0.23782400  0.76234300  0.99739500  1
