# generated using pymatgen
data_Li2Ni3BiO8
_symmetry_space_group_name_H-M   'P 1'
_cell_length_a   5.91875042
_cell_length_b   5.91686318
_cell_length_c   10.79274968
_cell_angle_alpha   74.05703320
_cell_angle_beta   90.05188330
_cell_angle_gamma   119.97303503
_symmetry_Int_Tables_number   1
_chemical_formula_structural   Li2Ni3BiO8
_chemical_formula_sum   'Li4 Ni6 Bi2 O16'
_cell_volume   310.57876865
_cell_formula_units_Z   2
loop_
 _symmetry_equiv_pos_site_id
 _symmetry_equiv_pos_as_xyz
  1  'x, y, z'
loop_
 _atom_site_type_symbol
 _atom_site_label
 _atom_site_symmetry_multiplicity
 _atom_site_fract_x
 _atom_site_fract_y
 _atom_site_fract_z
 _atom_site_occupancy
  Li  Li0  1  0.56245100  0.12491400  0.31325200  1
  Li  Li1  1  0.06235900  0.12468100  0.81333700  1
  Li  Li2  1  0.93768000  0.87541900  0.18670100  1
  Li  Li3  1  0.43750800  0.87507800  0.68680600  1
  Ni  Ni4  1  0.99969100  0.49982100  0.50004800  1
  Ni  Ni5  1  0.00004100  0.99988700  0.50002000  1
  Ni  Ni6  1  0.50001800  0.49997300  0.49995600  1
  Ni  Ni7  1  0.50018500  0.50008200  0.99997700  1
  Ni  Ni8  1  0.50030100  0.00009400  0.99997100  1
  Ni  Ni9  1  0.00001900  0.50008500  0.99997800  1
  Bi  Bi10  1  0.25005700  0.50029500  0.24999800  1
  Bi  Bi11  1  0.74984600  0.49988500  0.74997900  1
  O  O12  1  0.86379400  0.72785100  0.40896400  1
  O  O13  1  0.36389200  0.72790500  0.90904400  1
  O  O14  1  0.63608200  0.27199900  0.09096600  1
  O  O15  1  0.13614800  0.27200900  0.59097700  1
  O  O16  1  0.38923200  0.72539900  0.38569500  1
  O  O17  1  0.88912800  0.72527500  0.88567000  1
  O  O18  1  0.33609600  0.22551900  0.38582500  1
  O  O19  1  0.83614400  0.22549800  0.88581700  1
  O  O20  1  0.88985500  0.27993100  0.38537200  1
  O  O21  1  0.38983900  0.27987600  0.88538500  1
  O  O22  1  0.61018100  0.72003200  0.11464100  1
  O  O23  1  0.11007500  0.71997900  0.61464300  1
  O  O24  1  0.16393500  0.77468600  0.11412800  1
  O  O25  1  0.66390000  0.77449900  0.61419100  1
  O  O26  1  0.11085600  0.27477300  0.11433700  1
  O  O27  1  0.61068800  0.27455600  0.61432200  1
