# generated using pymatgen
data_Li7Ta24O64
_symmetry_space_group_name_H-M   'P 1'
_cell_length_a   7.77092400
_cell_length_b   8.99884100
_cell_length_c   16.98158388
_cell_angle_alpha   89.80447661
_cell_angle_beta   90.00000000
_cell_angle_gamma   90.00000000
_symmetry_Int_Tables_number   1
_chemical_formula_structural   Li7Ta24O64
_chemical_formula_sum   'Li7 Ta24 O64'
_cell_volume   1187.50352032
_cell_formula_units_Z   1
loop_
 _symmetry_equiv_pos_site_id
 _symmetry_equiv_pos_as_xyz
  1  'x, y, z'
loop_
 _atom_site_type_symbol
 _atom_site_label
 _atom_site_symmetry_multiplicity
 _atom_site_fract_x
 _atom_site_fract_y
 _atom_site_fract_z
 _atom_site_occupancy
  Li  Li0  1  0.50000000  0.91479900  0.59249400  1
  Li  Li1  1  0.50000000  0.91116300  0.90803600  1
  Li  Li2  1  0.00000000  0.08811300  0.40810600  1
  Li  Li3  1  0.00000000  0.08895900  0.09175600  1
  Li  Li4  1  0.50000000  0.32333800  0.25064800  1
  Li  Li5  1  0.00000000  0.67986800  0.75090800  1
  Li  Li6  1  0.50000000  0.52556000  0.49338600  1
  Ta  Ta7  1  0.75584400  0.39276300  0.37006600  1
  Ta  Ta8  1  0.75276900  0.39577900  0.12679900  1
  Ta  Ta9  1  0.24415600  0.39276300  0.37006600  1
  Ta  Ta10  1  0.24723100  0.39577900  0.12679900  1
  Ta  Ta11  1  0.74816800  0.60673800  0.63005600  1
  Ta  Ta12  1  0.74726000  0.60444100  0.87325800  1
  Ta  Ta13  1  0.25183200  0.60673800  0.63005600  1
  Ta  Ta14  1  0.25274000  0.60444100  0.87325800  1
  Ta  Ta15  1  0.75118500  0.05201300  0.24953600  1
  Ta  Ta16  1  0.24881500  0.05201300  0.24953600  1
  Ta  Ta17  1  0.74848000  0.94801000  0.75020500  1
  Ta  Ta18  1  0.25152000  0.94801000  0.75020500  1
  Ta  Ta19  1  0.74799400  0.68431600  0.25107200  1
  Ta  Ta20  1  0.25200600  0.68431600  0.25107200  1
  Ta  Ta21  1  0.75167000  0.31532400  0.74955500  1
  Ta  Ta22  1  0.24833000  0.31532400  0.74955500  1
  Ta  Ta23  1  0.75152400  0.81323400  0.43987400  1
  Ta  Ta24  1  0.75095600  0.81102800  0.06111100  1
  Ta  Ta25  1  0.24847600  0.81323400  0.43987400  1
  Ta  Ta26  1  0.24904400  0.81102800  0.06111100  1
  Ta  Ta27  1  0.74909000  0.19153200  0.55992600  1
  Ta  Ta28  1  0.74905100  0.18878800  0.93905800  1
  Ta  Ta29  1  0.25091000  0.19153200  0.55992600  1
  Ta  Ta30  1  0.25094900  0.18878800  0.93905800  1
  O  O31  1  0.00000000  0.69644000  0.25081200  1
  O  O32  1  0.50000000  0.30319700  0.74952800  1
  O  O33  1  0.72595000  0.87458200  0.32518500  1
  O  O34  1  0.72664000  0.87507800  0.17651800  1
  O  O35  1  0.27405000  0.87458200  0.32518500  1
  O  O36  1  0.27336000  0.87507800  0.17651800  1
  O  O37  1  0.77348900  0.12526300  0.67430200  1
  O  O38  1  0.77368600  0.12482900  0.82374100  1
  O  O39  1  0.22651100  0.12526300  0.67430200  1
  O  O40  1  0.22631400  0.12482900  0.82374100  1
  O  O41  1  0.70655000  0.34290200  0.48030300  1
  O  O42  1  0.71743400  0.33332900  0.02042300  1
  O  O43  1  0.29345000  0.34290200  0.48030300  1
  O  O44  1  0.28256600  0.33332900  0.02042300  1
  O  O45  1  0.77739500  0.66332700  0.52075500  1
  O  O46  1  0.78245900  0.66656300  0.97989600  1
  O  O47  1  0.22260500  0.66332700  0.52075500  1
  O  O48  1  0.21754100  0.66656300  0.97989600  1
  O  O49  1  0.50000000  0.39054200  0.35822900  1
  O  O50  1  0.50000000  0.38728100  0.14394000  1
  O  O51  1  0.00000000  0.61736400  0.64303800  1
  O  O52  1  0.00000000  0.61213500  0.85640700  1
  O  O53  1  0.00000000  0.02006300  0.25036700  1
  O  O54  1  0.50000000  0.98103400  0.75030400  1
  O  O55  1  0.50000000  0.67367400  0.25015800  1
  O  O56  1  0.00000000  0.32659700  0.74982300  1
  O  O57  1  0.74574500  0.61836200  0.36944300  1
  O  O58  1  0.74631800  0.62004200  0.13222600  1
  O  O59  1  0.25425500  0.61836200  0.36944300  1
  O  O60  1  0.25368200  0.62004200  0.13222600  1
  O  O61  1  0.75562900  0.38107300  0.63127100  1
  O  O62  1  0.75378200  0.37974000  0.86819500  1
  O  O63  1  0.24437100  0.38107300  0.63127100  1
  O  O64  1  0.24621800  0.37974000  0.86819500  1
  O  O65  1  0.76080400  0.45011900  0.25080200  1
  O  O66  1  0.23919600  0.45011900  0.25080200  1
  O  O67  1  0.73827300  0.54924900  0.74955200  1
  O  O68  1  0.26172700  0.54924900  0.74955200  1
  O  O69  1  0.50000000  0.80340200  0.45602300  1
  O  O70  1  0.50000000  0.81646400  0.04567800  1
  O  O71  1  0.00000000  0.18792800  0.54096200  1
  O  O72  1  0.00000000  0.18351800  0.95460500  1
  O  O73  1  0.78711200  0.18630000  0.33886400  1
  O  O74  1  0.78681300  0.18969500  0.16300900  1
  O  O75  1  0.21288800  0.18630000  0.33886400  1
  O  O76  1  0.21318700  0.18969500  0.16300900  1
  O  O77  1  0.70888500  0.81132700  0.66253400  1
  O  O78  1  0.71399600  0.81047200  0.83709000  1
  O  O79  1  0.29111500  0.81132700  0.66253400  1
  O  O80  1  0.28600400  0.81047200  0.83709000  1
  O  O81  1  0.50000000  0.09843700  0.25057600  1
  O  O82  1  0.00000000  0.90246200  0.74886200  1
  O  O83  1  0.00000000  0.40885400  0.38985400  1
  O  O84  1  0.00000000  0.41192900  0.11360200  1
  O  O85  1  0.50000000  0.58264900  0.60656900  1
  O  O86  1  0.50000000  0.58815300  0.88673200  1
  O  O87  1  0.00000000  0.85153200  0.42787100  1
  O  O88  1  0.00000000  0.85519500  0.07391300  1
  O  O89  1  0.50000000  0.14900400  0.57267900  1
  O  O90  1  0.50000000  0.14482000  0.92620700  1
  O  O91  1  0.74706300  0.00110300  0.49924600  1
  O  O92  1  0.74998800  0.99994200  0.00009100  1
  O  O93  1  0.25293700  0.00110300  0.49924600  1
  O  O94  1  0.25001200  0.99994200  0.00009100  1
