# generated using pymatgen
data_Li6VCr3(PO4)6
_symmetry_space_group_name_H-M   'P 1'
_cell_length_a   8.59949000
_cell_length_b   8.61234957
_cell_length_c   8.62106286
_cell_angle_alpha   61.30510685
_cell_angle_beta   61.09031901
_cell_angle_gamma   61.27077750
_symmetry_Int_Tables_number   1
_chemical_formula_structural   Li6VCr3(PO4)6
_chemical_formula_sum   'Li6 V1 Cr3 P6 O24'
_cell_volume   463.88717549
_cell_formula_units_Z   1
loop_
 _symmetry_equiv_pos_site_id
 _symmetry_equiv_pos_as_xyz
  1  'x, y, z'
loop_
 _atom_site_type_symbol
 _atom_site_label
 _atom_site_symmetry_multiplicity
 _atom_site_fract_x
 _atom_site_fract_y
 _atom_site_fract_z
 _atom_site_occupancy
  Li  Li0  1  0.02990200  0.00561900  0.99740700  1
  Li  Li1  1  0.74929400  0.14801000  0.35279900  1
  Li  Li2  1  0.47019600  0.50165200  0.49569300  1
  Li  Li3  1  0.25577500  0.84545400  0.65400400  1
  Li  Li4  1  0.65054100  0.25987600  0.84215600  1
  Li  Li5  1  0.84705800  0.65485700  0.25398800  1
  V  V6  1  0.85474300  0.85316600  0.85440200  1
  Cr  Cr7  1  0.14263600  0.14546900  0.13859300  1
  Cr  Cr8  1  0.35742100  0.36134600  0.35490200  1
  Cr  Cr9  1  0.64515400  0.64680600  0.64587400  1
  P  P10  1  0.04857100  0.75182200  0.44868000  1
  P  P11  1  0.44930000  0.05036000  0.74866500  1
  P  P12  1  0.75076400  0.45154800  0.04512500  1
  P  P13  1  0.25209900  0.53994900  0.95995800  1
  P  P14  1  0.54043900  0.96237600  0.25201100  1
  P  P15  1  0.95762000  0.25162500  0.53668100  1
  O  O16  1  0.13049300  0.28742800  0.50104100  1
  O  O17  1  0.29499100  0.51331200  0.12443500  1
  O  O18  1  0.04683700  0.92503200  0.26718100  1
  O  O19  1  0.52902200  0.12404800  0.29232600  1
  O  O20  1  0.23833600  0.59277300  0.42840400  1
  O  O21  1  0.01691900  0.80523900  0.61201300  1
  O  O22  1  0.25863800  0.07281900  0.90730000  1
  O  O23  1  0.45227800  0.23202600  0.57486800  1
  O  O24  1  0.59194000  0.43131400  0.23893700  1
  O  O25  1  0.20802400  0.37565100  0.98628600  1
  O  O26  1  0.09219800  0.73366500  0.93126200  1
  O  O27  1  0.36835000  0.99887000  0.21439200  1
  O  O28  1  0.61092900  0.01618200  0.80483000  1
  O  O29  1  0.90779400  0.25757000  0.07055000  1
  O  O30  1  0.81079600  0.60997200  0.01208100  1
  O  O31  1  0.41729900  0.56243300  0.76700500  1
  O  O32  1  0.56236800  0.77048100  0.41594700  1
  O  O33  1  0.73134400  0.92929500  0.08919100  1
  O  O34  1  0.97080500  0.20793800  0.37622200  1
  O  O35  1  0.76857100  0.41824300  0.56241500  1
  O  O36  1  0.47884900  0.88662900  0.69641000  1
  O  O37  1  0.92971000  0.09150600  0.73042500  1
  O  O38  1  0.69620400  0.48052900  0.88506800  1
  O  O39  1  0.88579500  0.69610900  0.48147500  1
