# generated using pymatgen
data_Li9Mn7O16
_symmetry_space_group_name_H-M   'P 1'
_cell_length_a   11.47637200
_cell_length_b   5.27710000
_cell_length_c   5.33776258
_cell_angle_alpha   66.48224092
_cell_angle_beta   90.00000000
_cell_angle_gamma   90.00000000
_symmetry_Int_Tables_number   1
_chemical_formula_structural   Li9Mn7O16
_chemical_formula_sum   'Li9 Mn7 O16'
_cell_volume   296.41380397
_cell_formula_units_Z   1
loop_
 _symmetry_equiv_pos_site_id
 _symmetry_equiv_pos_as_xyz
  1  'x, y, z'
loop_
 _atom_site_type_symbol
 _atom_site_label
 _atom_site_symmetry_multiplicity
 _atom_site_fract_x
 _atom_site_fract_y
 _atom_site_fract_z
 _atom_site_occupancy
  Li  Li0  1  0.24820300  0.50000000  0.00000000  1
  Li  Li1  1  0.37594900  0.50000000  0.50000000  1
  Li  Li2  1  0.50000000  0.50000000  0.00000000  1
  Li  Li3  1  0.62405100  0.50000000  0.50000000  1
  Li  Li4  1  0.75179700  0.50000000  0.00000000  1
  Li  Li5  1  0.87871400  0.50000000  0.50000000  1
  Li  Li6  1  0.00000000  0.50000000  0.00000000  1
  Li  Li7  1  0.12128600  0.50000000  0.50000000  1
  Li  Li8  1  0.00000000  0.00000000  0.50000000  1
  Mn  Mn9  1  0.12339400  0.00000000  0.00000000  1
  Mn  Mn10  1  0.87660600  0.00000000  0.00000000  1
  Mn  Mn11  1  0.24695300  0.00000000  0.50000000  1
  Mn  Mn12  1  0.37378800  0.00000000  0.00000000  1
  Mn  Mn13  1  0.50000000  0.00000000  0.50000000  1
  Mn  Mn14  1  0.62621200  0.00000000  0.00000000  1
  Mn  Mn15  1  0.75304700  0.00000000  0.50000000  1
  O  O16  1  0.24725200  0.23533500  0.77437000  1
  O  O17  1  0.37480200  0.23281700  0.27584700  1
  O  O18  1  0.50000000  0.23457800  0.77865400  1
  O  O19  1  0.62519800  0.23281700  0.27584700  1
  O  O20  1  0.75274800  0.23533500  0.77437000  1
  O  O21  1  0.87023000  0.20833900  0.23537300  1
  O  O22  1  0.00000000  0.23636800  0.78030700  1
  O  O23  1  0.12977000  0.20833900  0.23537300  1
  O  O24  1  0.24725200  0.76466500  0.22563000  1
  O  O25  1  0.37480200  0.76718300  0.72415300  1
  O  O26  1  0.50000000  0.76542200  0.22134600  1
  O  O27  1  0.62519800  0.76718300  0.72415300  1
  O  O28  1  0.75274800  0.76466500  0.22563000  1
  O  O29  1  0.87023000  0.79166100  0.76462700  1
  O  O30  1  0.00000000  0.76363200  0.21969300  1
  O  O31  1  0.12977000  0.79166100  0.76462700  1
