# generated using pymatgen
data_Li2AlFeO4
_symmetry_space_group_name_H-M   'P 1'
_cell_length_a   10.54583689
_cell_length_b   5.35407457
_cell_length_c   13.18596844
_cell_angle_alpha   90.00000000
_cell_angle_beta   90.00000000
_cell_angle_gamma   90.00000000
_symmetry_Int_Tables_number   1
_chemical_formula_structural   Li2AlFeO4
_chemical_formula_sum   'Li16 Al8 Fe8 O32'
_cell_volume   744.52193514
_cell_formula_units_Z   8
loop_
 _symmetry_equiv_pos_site_id
 _symmetry_equiv_pos_as_xyz
  1  'x, y, z'
loop_
 _atom_site_type_symbol
 _atom_site_label
 _atom_site_symmetry_multiplicity
 _atom_site_fract_x
 _atom_site_fract_y
 _atom_site_fract_z
 _atom_site_occupancy
  Li  Li0  1  0.95565531  0.94478501  0.56302760  1
  Li  Li1  1  0.95976994  0.44713329  0.93612797  1
  Li  Li2  1  0.21157364  0.87350435  0.20100870  1
  Li  Li3  1  0.21187423  0.37445045  0.29970226  1
  Li  Li4  1  0.28842636  0.87350435  0.70100870  1
  Li  Li5  1  0.28812577  0.37445045  0.79970226  1
  Li  Li6  1  0.54023006  0.44713329  0.43612797  1
  Li  Li7  1  0.54434469  0.94478501  0.06302760  1
  Li  Li8  1  0.45976994  0.55286671  0.93612797  1
  Li  Li9  1  0.45565531  0.05521499  0.56302760  1
  Li  Li10  1  0.71187423  0.62554955  0.29970226  1
  Li  Li11  1  0.71157364  0.12649565  0.20100870  1
  Li  Li12  1  0.78812577  0.62554955  0.79970226  1
  Li  Li13  1  0.78842636  0.12649565  0.70100870  1
  Li  Li14  1  0.04434469  0.05521499  0.06302760  1
  Li  Li15  1  0.04023006  0.55286671  0.43612797  1
  Al  Al16  1  0.03712891  0.95629198  0.81322991  1
  Al  Al17  1  0.20793222  0.54187675  0.05784487  1
  Al  Al18  1  0.29206778  0.54187675  0.55784487  1
  Al  Al19  1  0.46287109  0.95629198  0.31322991  1
  Al  Al20  1  0.53712891  0.04370802  0.81322991  1
  Al  Al21  1  0.70793222  0.45812325  0.05784487  1
  Al  Al22  1  0.79206778  0.45812325  0.55784487  1
  Al  Al23  1  0.96287109  0.04370802  0.31322991  1
  Fe  Fe24  1  0.03840958  0.45367129  0.68662792  1
  Fe  Fe25  1  0.20827518  0.04050150  0.44278556  1
  Fe  Fe26  1  0.29172482  0.04050150  0.94278556  1
  Fe  Fe27  1  0.46159042  0.45367129  0.18662792  1
  Fe  Fe28  1  0.53840958  0.54632871  0.68662792  1
  Fe  Fe29  1  0.70827518  0.95949850  0.44278556  1
  Fe  Fe30  1  0.79172482  0.95949850  0.94278556  1
  Fe  Fe31  1  0.96159042  0.54632871  0.18662792  1
  O  O32  1  0.01374798  0.36174450  0.30325642  1
  O  O33  1  0.01883973  0.88259689  0.20332217  1
  O  O34  1  0.05013323  0.43001433  0.06932545  1
  O  O35  1  0.03943429  0.92596942  0.42445236  1
  O  O36  1  0.20402618  0.01269724  0.81667236  1
  O  O37  1  0.21690583  0.50907543  0.67841783  1
  O  O38  1  0.21008762  0.39745546  0.45718675  1
  O  O39  1  0.20701358  0.87508760  0.04747487  1
  O  O40  1  0.28991238  0.39745546  0.95718675  1
  O  O41  1  0.29298642  0.87508760  0.54747487  1
  O  O42  1  0.28309417  0.50907543  0.17841783  1
  O  O43  1  0.29597382  0.01269724  0.31667236  1
  O  O44  1  0.44986677  0.43001433  0.56932545  1
  O  O45  1  0.46056571  0.92596942  0.92445236  1
  O  O46  1  0.48625202  0.36174450  0.80325642  1
  O  O47  1  0.48116027  0.88259689  0.70332217  1
  O  O48  1  0.51883973  0.11740311  0.20332217  1
  O  O49  1  0.51374798  0.63825550  0.30325642  1
  O  O50  1  0.53943429  0.07403058  0.42445236  1
  O  O51  1  0.55013323  0.56998567  0.06932545  1
  O  O52  1  0.71690583  0.49092457  0.67841783  1
  O  O53  1  0.70402618  0.98730276  0.81667236  1
  O  O54  1  0.70701358  0.12491240  0.04747487  1
  O  O55  1  0.71008762  0.60254454  0.45718675  1
  O  O56  1  0.79298642  0.12491240  0.54747487  1
  O  O57  1  0.78991238  0.60254454  0.95718675  1
  O  O58  1  0.78309417  0.49092457  0.17841783  1
  O  O59  1  0.79597382  0.98730276  0.31667236  1
  O  O60  1  0.96056571  0.07403058  0.92445236  1
  O  O61  1  0.94986677  0.56998567  0.56932545  1
  O  O62  1  0.98116027  0.11740311  0.70332217  1
  O  O63  1  0.98625202  0.63825550  0.80325642  1
