# generated using pymatgen
data_Li4MnCo2O7
_symmetry_space_group_name_H-M   'P 1'
_cell_length_a   5.08169900
_cell_length_b   5.15517881
_cell_length_c   10.49779837
_cell_angle_alpha   84.73277044
_cell_angle_beta   77.26361535
_cell_angle_gamma   70.29248388
_symmetry_Int_Tables_number   1
_chemical_formula_structural   Li4MnCo2O7
_chemical_formula_sum   'Li8 Mn2 Co4 O14'
_cell_volume   252.48707790
_cell_formula_units_Z   2
loop_
 _symmetry_equiv_pos_site_id
 _symmetry_equiv_pos_as_xyz
  1  'x, y, z'
loop_
 _atom_site_type_symbol
 _atom_site_label
 _atom_site_symmetry_multiplicity
 _atom_site_fract_x
 _atom_site_fract_y
 _atom_site_fract_z
 _atom_site_occupancy
  Li  Li0  1  0.92959300  0.50378100  0.63491500  1
  Li  Li1  1  0.50000000  0.50000000  0.50000000  1
  Li  Li2  1  0.07040700  0.49621900  0.36508500  1
  Li  Li3  1  0.63704800  0.50123300  0.21833500  1
  Li  Li4  1  0.20877600  0.50069500  0.07301600  1
  Li  Li5  1  0.79122400  0.49930500  0.92698400  1
  Li  Li6  1  0.36295200  0.49876700  0.78166500  1
  Li  Li7  1  0.00000000  0.00000000  0.50000000  1
  Mn  Mn8  1  0.86084800  0.99753500  0.78084700  1
  Mn  Mn9  1  0.13915200  0.00246500  0.21915300  1
  Co  Co10  1  0.42121900  0.00723100  0.63629500  1
  Co  Co11  1  0.57878100  0.99276900  0.36370500  1
  Co  Co12  1  0.71490300  0.00102500  0.07161400  1
  Co  Co13  1  0.28509700  0.99897500  0.92838600  1
  O  O14  1  0.61440800  0.78024200  0.78354000  1
  O  O15  1  0.16184100  0.77336800  0.65703200  1
  O  O16  1  0.72510800  0.75939100  0.49476100  1
  O  O17  1  0.31572400  0.76815400  0.34479600  1
  O  O18  1  0.89774500  0.77954000  0.20792900  1
  O  O19  1  0.44307900  0.77751600  0.07239300  1
  O  O20  1  0.02698300  0.76892200  0.92681500  1
  O  O21  1  0.27489200  0.24060900  0.50523900  1
  O  O22  1  0.83815900  0.22663200  0.34296800  1
  O  O23  1  0.38559200  0.21975800  0.21646000  1
  O  O24  1  0.97301700  0.23107800  0.07318500  1
  O  O25  1  0.55692100  0.22248400  0.92760700  1
  O  O26  1  0.10225500  0.22046000  0.79207100  1
  O  O27  1  0.68427600  0.23184600  0.65520400  1
