# generated using pymatgen
data_Li2VP2O7
_symmetry_space_group_name_H-M   'P 1'
_cell_length_a   6.73986488
_cell_length_b   8.89825046
_cell_length_c   10.72605955
_cell_angle_alpha   98.00676369
_cell_angle_beta   106.78500260
_cell_angle_gamma   110.40162749
_symmetry_Int_Tables_number   1
_chemical_formula_structural   Li2VP2O7
_chemical_formula_sum   'Li8 V4 P8 O28'
_cell_volume   556.21386859
_cell_formula_units_Z   4
loop_
 _symmetry_equiv_pos_site_id
 _symmetry_equiv_pos_as_xyz
  1  'x, y, z'
loop_
 _atom_site_type_symbol
 _atom_site_label
 _atom_site_symmetry_multiplicity
 _atom_site_fract_x
 _atom_site_fract_y
 _atom_site_fract_z
 _atom_site_occupancy
  Li  Li0  1  0.80793900  0.98309600  0.10884800  1
  Li  Li1  1  0.80816400  0.98298300  0.60890100  1
  Li  Li2  1  0.19207500  0.01691100  0.39112600  1
  Li  Li3  1  0.19186100  0.01700700  0.89107500  1
  Li  Li4  1  0.22318900  0.74684100  0.16399200  1
  Li  Li5  1  0.22320400  0.74684800  0.66407300  1
  Li  Li6  1  0.77683700  0.25317300  0.33601400  1
  Li  Li7  1  0.77682800  0.25317300  0.83593500  1
  V  V8  1  0.59466300  0.36694500  0.54465500  1
  V  V9  1  0.40535300  0.63301700  0.95540800  1
  V  V10  1  0.59481000  0.36675800  0.04454600  1
  V  V11  1  0.40520700  0.63328300  0.45541600  1
  P  P12  1  0.13866400  0.38341100  0.11284000  1
  P  P13  1  0.13867200  0.38351100  0.61283800  1
  P  P14  1  0.86128000  0.61657400  0.38716400  1
  P  P15  1  0.86131300  0.61649500  0.88717300  1
  P  P16  1  0.70424600  0.88023000  0.30833400  1
  P  P17  1  0.70421500  0.88016600  0.80835000  1
  P  P18  1  0.29576500  0.11977000  0.19166700  1
  P  P19  1  0.29579100  0.11983800  0.69164000  1
  O  O20  1  0.89089400  0.33869700  0.02984600  1
  O  O21  1  0.89087700  0.33878900  0.52988100  1
  O  O22  1  0.10906700  0.66131500  0.47018600  1
  O  O23  1  0.10911300  0.66122100  0.97014200  1
  O  O24  1  0.28812800  0.40792000  0.02553200  1
  O  O25  1  0.28805300  0.40809100  0.52549800  1
  O  O26  1  0.71179000  0.59207000  0.47445700  1
  O  O27  1  0.71191600  0.59189200  0.97449900  1
  O  O28  1  0.54209900  0.79489300  0.16201000  1
  O  O29  1  0.54211300  0.79497100  0.66201600  1
  O  O30  1  0.45790800  0.20512400  0.33798700  1
  O  O31  1  0.45788700  0.20503800  0.83797700  1
  O  O32  1  0.41368100  0.13130500  0.08833600  1
  O  O33  1  0.41371900  0.13145400  0.58834300  1
  O  O34  1  0.58632400  0.86867700  0.41164900  1
  O  O35  1  0.58629500  0.86854300  0.91165100  1
  O  O36  1  0.13531800  0.94342500  0.18101200  1
  O  O37  1  0.13525000  0.94348100  0.68091800  1
  O  O38  1  0.86470400  0.05657400  0.31898400  1
  O  O39  1  0.86477000  0.05652100  0.81906900  1
  O  O40  1  0.76401300  0.47466900  0.26029300  1
  O  O41  1  0.76398100  0.47464600  0.76026900  1
  O  O42  1  0.23600200  0.52532000  0.23971900  1
  O  O43  1  0.23604500  0.52535500  0.73975200  1
  O  O44  1  0.88086400  0.79105400  0.34613700  1
  O  O45  1  0.88077900  0.79093500  0.84612300  1
  O  O46  1  0.11911700  0.20893600  0.15384800  1
  O  O47  1  0.11921900  0.20905200  0.65387000  1
