# generated using pymatgen
data_Li4Mn3Sn3(SbO8)2
_symmetry_space_group_name_H-M   'P 1'
_cell_length_a   6.29159306
_cell_length_b   6.29159306
_cell_length_c   9.95406416
_cell_angle_alpha   88.98681144
_cell_angle_beta   88.98681144
_cell_angle_gamma   59.56833182
_symmetry_Int_Tables_number   1
_chemical_formula_structural   Li4Mn3Sn3(SbO8)2
_chemical_formula_sum   'Li4 Mn3 Sn3 Sb2 O16'
_cell_volume   339.66953466
_cell_formula_units_Z   1
loop_
 _symmetry_equiv_pos_site_id
 _symmetry_equiv_pos_as_xyz
  1  'x, y, z'
loop_
 _atom_site_type_symbol
 _atom_site_label
 _atom_site_symmetry_multiplicity
 _atom_site_fract_x
 _atom_site_fract_y
 _atom_site_fract_z
 _atom_site_occupancy
  Li  Li0  1  0.66198200  0.66198200  0.10165600  1
  Li  Li1  1  0.99271400  0.99271400  0.01979900  1
  Li  Li2  1  0.99396700  0.99396700  0.50541700  1
  Li  Li3  1  0.32654900  0.32654900  0.59131700  1
  Mn  Mn4  1  0.83061500  0.83061500  0.78768700  1
  Mn  Mn5  1  0.17383200  0.66180500  0.29041200  1
  Mn  Mn6  1  0.66180500  0.17383200  0.29041200  1
  Sn  Sn7  1  0.33975200  0.83182500  0.78696000  1
  Sn  Sn8  1  0.83182500  0.33975200  0.78696000  1
  Sn  Sn9  1  0.17333400  0.17333400  0.28620600  1
  Sb  Sb10  1  0.67260600  0.67260600  0.50908500  1
  Sb  Sb11  1  0.34293800  0.34293800  0.01938500  1
  O  O12  1  0.34602200  0.83363800  0.41055900  1
  O  O13  1  0.51899900  0.51899900  0.65373600  1
  O  O14  1  0.65885800  0.65885800  0.89787700  1
  O  O15  1  0.00555600  0.00555600  0.69174900  1
  O  O16  1  0.00888000  0.00888000  0.20137800  1
  O  O17  1  0.83363800  0.34602200  0.41055900  1
  O  O18  1  0.51151100  0.95605300  0.65079600  1
  O  O19  1  0.95605300  0.51151100  0.65079600  1
  O  O20  1  0.16731800  0.16731800  0.90122500  1
  O  O21  1  0.83177400  0.83177400  0.41414800  1
  O  O22  1  0.03920800  0.47424500  0.14144900  1
  O  O23  1  0.47424500  0.03920800  0.14144900  1
  O  O24  1  0.32567500  0.32567500  0.39652200  1
  O  O25  1  0.17477600  0.66441700  0.90514200  1
  O  O26  1  0.48094600  0.48094600  0.14430300  1
  O  O27  1  0.66441700  0.17477600  0.90514200  1
