# generated using pymatgen
data_Li7Mn4CoO12
_symmetry_space_group_name_H-M   'P 1'
_cell_length_a   7.91949066
_cell_length_b   7.92606144
_cell_length_c   8.71694555
_cell_angle_alpha   108.68627626
_cell_angle_beta   102.20880965
_cell_angle_gamma   114.39913727
_symmetry_Int_Tables_number   1
_chemical_formula_structural   Li7Mn4CoO12
_chemical_formula_sum   'Li14 Mn8 Co2 O24'
_cell_volume   432.92209025
_cell_formula_units_Z   2
loop_
 _symmetry_equiv_pos_site_id
 _symmetry_equiv_pos_as_xyz
  1  'x, y, z'
loop_
 _atom_site_type_symbol
 _atom_site_label
 _atom_site_symmetry_multiplicity
 _atom_site_fract_x
 _atom_site_fract_y
 _atom_site_fract_z
 _atom_site_occupancy
  Li  Li0  1  0.58390300  0.83374100  0.75102700  1
  Li  Li1  1  0.08276300  0.83292400  0.24896800  1
  Li  Li2  1  0.21003700  0.07010000  0.61528000  1
  Li  Li3  1  0.70603600  0.07372100  0.11441000  1
  Li  Li4  1  0.96062500  0.59294300  0.88558200  1
  Li  Li5  1  0.45662700  0.59656300  0.38471600  1
  Li  Li6  1  0.11599700  0.25245800  0.37401400  1
  Li  Li7  1  0.61765300  0.25031200  0.87536600  1
  Li  Li8  1  0.29257300  0.92574300  0.87529000  1
  Li  Li9  1  0.78924400  0.92574400  0.37392300  1
  Li  Li10  1  0.55066400  0.41421200  0.62598500  1
  Li  Li11  1  0.04902000  0.41635500  0.12463100  1
  Li  Li12  1  0.37408900  0.74091600  0.12470900  1
  Li  Li13  1  0.87741400  0.74092200  0.62607400  1
  Mn  Mn14  1  0.00047500  0.00038600  0.99975400  1
  Mn  Mn15  1  0.50047700  0.00038800  0.50001000  1
  Mn  Mn16  1  0.16618500  0.66628200  0.49998400  1
  Mn  Mn17  1  0.66619100  0.66627800  0.00024500  1
  Mn  Mn18  1  0.91086000  0.16645100  0.74980700  1
  Mn  Mn19  1  0.41681400  0.16111100  0.25041200  1
  Mn  Mn20  1  0.24984500  0.50557700  0.74958300  1
  Mn  Mn21  1  0.75578800  0.50022100  0.25019500  1
  Co  Co22  1  0.33333300  0.33333100  0.99999900  1
  Co  Co23  1  0.83333600  0.33333100  0.50000000  1
  O  O24  1  0.38545400  0.94830300  0.66763000  1
  O  O25  1  0.88543900  0.94772500  0.16656500  1
  O  O26  1  0.78122600  0.71894300  0.83343400  1
  O  O27  1  0.28121900  0.71836200  0.33237500  1
  O  O28  1  0.13750800  0.45024000  0.92159600  1
  O  O29  1  0.65761600  0.43894200  0.43017700  1
  O  O30  1  0.00905400  0.22772300  0.56982800  1
  O  O31  1  0.52916700  0.21642300  0.07840300  1
  O  O32  1  0.05320900  0.61717300  0.66844200  1
  O  O33  1  0.55239400  0.61225500  0.16922600  1
  O  O34  1  0.71706100  0.28121300  0.66843800  1
  O  O35  1  0.22348400  0.28306000  0.16810900  1
  O  O36  1  0.44318900  0.38360500  0.83189800  1
  O  O37  1  0.94960900  0.38545500  0.33156500  1
  O  O38  1  0.11428300  0.05440800  0.83078100  1
  O  O39  1  0.61345600  0.04949500  0.33155900  1
  O  O40  1  0.33392700  0.11560800  0.43474900  1
  O  O41  1  0.83629000  0.11660000  0.93672700  1
  O  O42  1  0.48624300  0.76649100  0.93661500  1
  O  O43  1  0.98552900  0.76692300  0.43471800  1
  O  O44  1  0.33274400  0.55106000  0.56524800  1
  O  O45  1  0.83037800  0.55006500  0.06327900  1
  O  O46  1  0.18042900  0.90018100  0.06339100  1
  O  O47  1  0.68114000  0.89973900  0.56528100  1
