# generated using pymatgen
data_NaLi2FePCO7
_symmetry_space_group_name_H-M   'P 1'
_cell_length_a   5.06386561
_cell_length_b   11.22482499
_cell_length_c   10.67264263
_cell_angle_alpha   104.46992554
_cell_angle_beta   92.92329034
_cell_angle_gamma   86.98603132
_symmetry_Int_Tables_number   1
_chemical_formula_structural   NaLi2FePCO7
_chemical_formula_sum   'Na4 Li8 Fe4 P4 C4 O28'
_cell_volume   586.13799181
_cell_formula_units_Z   4
loop_
 _symmetry_equiv_pos_site_id
 _symmetry_equiv_pos_as_xyz
  1  'x, y, z'
loop_
 _atom_site_type_symbol
 _atom_site_label
 _atom_site_symmetry_multiplicity
 _atom_site_fract_x
 _atom_site_fract_y
 _atom_site_fract_z
 _atom_site_occupancy
  Na  Na0  1  0.25840036  0.37770826  0.12163674  1
  Na  Na1  1  0.25836210  0.87863021  0.62272336  1
  Na  Na2  1  0.74003486  0.62051962  0.87723947  1
  Na  Na3  1  0.73950036  0.12233124  0.37796085  1
  Li  Li4  1  0.76250705  0.15255331  0.05679298  1
  Li  Li5  1  0.76737701  0.64781553  0.55717343  1
  Li  Li6  1  0.23891565  0.85218416  0.94451587  1
  Li  Li7  1  0.23603065  0.34818103  0.44401525  1
  Li  Li8  1  0.23965496  0.16365819  0.87665051  1
  Li  Li9  1  0.24411804  0.66108240  0.37558166  1
  Li  Li10  1  0.75582711  0.83836856  0.12339433  1
  Li  Li11  1  0.74684651  0.34337397  0.62740713  1
  Fe  Fe12  1  0.78328674  0.05583736  0.71041210  1
  Fe  Fe13  1  0.21344056  0.44724767  0.78871153  1
  Fe  Fe14  1  0.78451876  0.55465601  0.20996998  1
  Fe  Fe15  1  0.21316297  0.94478708  0.29022042  1
  P  P16  1  0.71631723  0.32940759  0.91744714  1
  P  P17  1  0.71982313  0.82972906  0.41710392  1
  P  P18  1  0.28042387  0.66864277  0.08153779  1
  P  P19  1  0.27940465  0.17201996  0.58418861  1
  C  C20  1  0.71073741  0.40418850  0.36330488  1
  C  C21  1  0.71137060  0.90332492  0.86228017  1
  C  C22  1  0.29990337  0.59530615  0.63571631  1
  C  C23  1  0.28754134  0.09502399  0.13735554  1
  O  O24  1  0.36756248  0.16327335  0.06645642  1
  O  O25  1  0.37014225  0.66541744  0.56434424  1
  O  O26  1  0.63200863  0.83512935  0.93368110  1
  O  O27  1  0.63110404  0.33579326  0.43429021  1
  O  O28  1  0.95903315  0.41421686  0.34532709  1
  O  O29  1  0.95931319  0.91316859  0.84381645  1
  O  O30  1  0.05324415  0.58303748  0.65630028  1
  O  O31  1  0.03925697  0.08512695  0.15548248  1
  O  O32  1  0.53538803  0.46644783  0.30793043  1
  O  O33  1  0.53542173  0.96540170  0.80711731  1
  O  O34  1  0.48173627  0.53433848  0.68853334  1
  O  O35  1  0.46257998  0.03238079  0.19268386  1
  O  O36  1  0.83519221  0.19389212  0.89026881  1
  O  O37  1  0.83871796  0.69461625  0.39038554  1
  O  O38  1  0.15997202  0.80323631  0.10693353  1
  O  O39  1  0.16334439  0.30831606  0.61353189  1
  O  O40  1  0.78939663  0.38662708  0.06189114  1
  O  O41  1  0.79236716  0.88921482  0.56052357  1
  O  O42  1  0.21142706  0.60758859  0.93738313  1
  O  O43  1  0.20456139  0.11570764  0.44002536  1
  O  O44  1  0.40873330  0.32751032  0.89559072  1
  O  O45  1  0.41254935  0.82755270  0.39392964  1
  O  O46  1  0.58715366  0.67205602  0.10436861  1
  O  O47  1  0.58664940  0.17383674  0.60571388  1
  O  O48  1  0.16856246  0.59813916  0.17394084  1
  O  O49  1  0.16807010  0.10006879  0.67536516  1
  O  O50  1  0.82727494  0.40077476  0.82627057  1
  O  O51  1  0.83173177  0.90055300  0.32457445  1
