# generated using pymatgen
data_Li6MnV3(PO4)6
_symmetry_space_group_name_H-M   'P 1'
_cell_length_a   8.67895900
_cell_length_b   8.72320325
_cell_length_c   8.78065151
_cell_angle_alpha   91.26029336
_cell_angle_beta   119.60906302
_cell_angle_gamma   118.68041152
_symmetry_Int_Tables_number   1
_chemical_formula_structural   Li6MnV3(PO4)6
_chemical_formula_sum   'Li6 Mn1 V3 P6 O24'
_cell_volume   476.89637280
_cell_formula_units_Z   1
loop_
 _symmetry_equiv_pos_site_id
 _symmetry_equiv_pos_as_xyz
  1  'x, y, z'
loop_
 _atom_site_type_symbol
 _atom_site_label
 _atom_site_symmetry_multiplicity
 _atom_site_fract_x
 _atom_site_fract_y
 _atom_site_fract_z
 _atom_site_occupancy
  Li  Li0  1  0.40144100  0.73845900  0.11031200  1
  Li  Li1  1  0.97367000  0.03900900  0.65017700  1
  Li  Li2  1  0.05518000  0.89072100  0.26208500  1
  Li  Li3  1  0.89211900  0.62178600  0.64007200  1
  Li  Li4  1  0.13069700  0.36224800  0.38069500  1
  Li  Li5  1  0.78598600  0.34769200  0.96258300  1
  Mn  Mn6  1  0.71217600  0.15381300  0.35062800  1
  V  V7  1  0.28861000  0.35684800  0.14675000  1
  V  V8  1  0.28304600  0.85284300  0.64382800  1
  V  V9  1  0.70544400  0.64291300  0.84733700  1
  P  P10  1  0.51605300  0.75286600  0.47109800  1
  P  P11  1  0.79370400  0.53094100  0.24919700  1
  P  P12  1  0.79152600  0.04730700  0.04823500  1
  P  P13  1  0.21071600  0.47213200  0.75176900  1
  P  P14  1  0.19761200  0.94913900  0.95261300  1
  P  P15  1  0.48671400  0.24789300  0.52475300  1
  O  O16  1  0.35760500  0.59846600  0.27711200  1
  O  O17  1  0.67524500  0.71342200  0.61979000  1
  O  O18  1  0.59970400  0.48165800  0.24729900  1
  O  O19  1  0.84516800  0.38157100  0.28342600  1
  O  O20  1  0.65920100  0.93447000  0.45300600  1
  O  O21  1  0.97173600  0.24171100  0.07508400  1
  O  O22  1  0.77107200  0.54844800  0.06427000  1
  O  O23  1  0.18388500  0.11360900  0.99126400  1
  O  O24  1  0.40684500  0.97225500  0.10290400  1
  O  O25  1  0.98426500  0.72493500  0.40107200  1
  O  O26  1  0.15700800  0.92742400  0.75493500  1
  O  O27  1  0.64177900  0.26177600  0.47725300  1
  O  O28  1  0.37352700  0.75729600  0.52221900  1
  O  O29  1  0.81096900  0.06072200  0.23699600  1
  O  O30  1  0.02691200  0.27461600  0.60909200  1
  O  O31  1  0.57997700  0.01114200  0.88516600  1
  O  O32  1  0.82572400  0.89281600  0.02346900  1
  O  O33  1  0.26417000  0.47992700  0.94889900  1
  O  O34  1  0.01547800  0.76409400  0.93476800  1
  O  O35  1  0.33824000  0.05415100  0.51848300  1
  O  O36  1  0.15291200  0.61629100  0.70628100  1
  O  O37  1  0.40100100  0.52468600  0.74006700  1
  O  O38  1  0.33284300  0.29483400  0.38058100  1
  O  O39  1  0.64012800  0.39407000  0.72343400  1
