# generated using pymatgen
data_Li9Mn2Co5O16
_symmetry_space_group_name_H-M   'P 1'
_cell_length_a   5.90973280
_cell_length_b   10.11772509
_cell_length_c   5.91015080
_cell_angle_alpha   89.33241487
_cell_angle_beta   120.43903125
_cell_angle_gamma   106.98878844
_symmetry_Int_Tables_number   1
_chemical_formula_structural   Li9Mn2Co5O16
_chemical_formula_sum   'Li9 Mn2 Co5 O16'
_cell_volume   287.36966379
_cell_formula_units_Z   1
loop_
 _symmetry_equiv_pos_site_id
 _symmetry_equiv_pos_as_xyz
  1  'x, y, z'
loop_
 _atom_site_type_symbol
 _atom_site_label
 _atom_site_symmetry_multiplicity
 _atom_site_fract_x
 _atom_site_fract_y
 _atom_site_fract_z
 _atom_site_occupancy
  Li  Li0  1  0.00228035  0.00445885  0.50640881  1
  Li  Li1  1  0.00000000  0.25000000  0.25000000  1
  Li  Li2  1  0.99771965  0.49554115  0.99359119  1
  Li  Li3  1  0.49961520  0.00212912  0.00210987  1
  Li  Li4  1  0.50000000  0.25000000  0.75000000  1
  Li  Li5  1  0.50038480  0.49787088  0.49789013  1
  Li  Li6  1  0.50000000  0.75000000  0.25000000  1
  Li  Li7  1  0.00000000  0.75000000  0.75000000  1
  Li  Li8  1  0.00000000  0.25000000  0.75000000  1
  Mn  Mn9  1  0.99785978  0.00452485  0.00299780  1
  Mn  Mn10  1  0.00214022  0.49547515  0.49700220  1
  Co  Co11  1  0.00000000  0.75000000  0.25000000  1
  Co  Co12  1  0.51038687  0.00912056  0.50551491  1
  Co  Co13  1  0.50000000  0.25000000  0.25000000  1
  Co  Co14  1  0.48961313  0.49087944  0.99448509  1
  Co  Co15  1  0.50000000  0.75000000  0.75000000  1
  O  O16  1  0.76111303  0.87725883  0.11518727  1
  O  O17  1  0.75798267  0.11490007  0.87908103  1
  O  O18  1  0.75705640  0.37815251  0.59322904  1
  O  O19  1  0.26941341  0.87080534  0.62233586  1
  O  O20  1  0.22934442  0.11480851  0.35711624  1
  O  O21  1  0.28829160  0.37542163  0.12682670  1
  O  O22  1  0.23624689  0.61422943  0.84868411  1
  O  O23  1  0.77494147  0.62381867  0.37030266  1
  O  O24  1  0.24294360  0.12184749  0.90677096  1
  O  O25  1  0.24201733  0.38509993  0.62091897  1
  O  O26  1  0.23888697  0.62274117  0.38481273  1
  O  O27  1  0.71170840  0.12457837  0.37317330  1
  O  O28  1  0.77065558  0.38519149  0.14288376  1
  O  O29  1  0.73058659  0.62919466  0.87766414  1
  O  O30  1  0.76375311  0.88577057  0.65131589  1
  O  O31  1  0.22505853  0.87618133  0.12969734  1
