# generated using pymatgen
data_Li4MnCo2O7
_symmetry_space_group_name_H-M   'P 1'
_cell_length_a   7.86677792
_cell_length_b   7.86677792
_cell_length_c   12.85176452
_cell_angle_alpha   62.29520438
_cell_angle_beta   62.29520438
_cell_angle_gamma   21.47867707
_symmetry_Int_Tables_number   1
_chemical_formula_structural   Li4MnCo2O7
_chemical_formula_sum   'Li8 Mn2 Co4 O14'
_cell_volume   256.55119583
_cell_formula_units_Z   2
loop_
 _symmetry_equiv_pos_site_id
 _symmetry_equiv_pos_as_xyz
  1  'x, y, z'
loop_
 _atom_site_type_symbol
 _atom_site_label
 _atom_site_symmetry_multiplicity
 _atom_site_fract_x
 _atom_site_fract_y
 _atom_site_fract_z
 _atom_site_occupancy
  Li  Li0  1  0.86763700  0.86763700  0.69442100  1
  Li  Li1  1  0.13236300  0.13236300  0.30557900  1
  Li  Li2  1  0.44179700  0.44179700  0.84430900  1
  Li  Li3  1  0.28908600  0.28908600  0.56339800  1
  Li  Li4  1  0.55820300  0.55820300  0.15569100  1
  Li  Li5  1  0.71091400  0.71091400  0.43660200  1
  Li  Li6  1  0.00000000  0.00000000  0.00000000  1
  Li  Li7  1  0.50000000  0.50000000  0.50000000  1
  Mn  Mn8  1  0.21425500  0.21425500  0.92658200  1
  Mn  Mn9  1  0.78574500  0.78574500  0.07341800  1
  Co  Co10  1  0.06609700  0.06609700  0.62956200  1
  Co  Co11  1  0.35909700  0.35909700  0.22526200  1
  Co  Co12  1  0.64090300  0.64090300  0.77473800  1
  Co  Co13  1  0.93390300  0.93390300  0.37043800  1
  O  O14  1  0.80684600  0.80684600  0.90624700  1
  O  O15  1  0.10933700  0.10933700  0.47316900  1
  O  O16  1  0.37843900  0.37843900  0.03869700  1
  O  O17  1  0.24089000  0.24089000  0.76872300  1
  O  O18  1  0.53178200  0.53178200  0.31986600  1
  O  O19  1  0.67396000  0.67396000  0.61877700  1
  O  O20  1  0.95854800  0.95854800  0.17495300  1
  O  O21  1  0.89066300  0.89066300  0.52683100  1
  O  O22  1  0.19315400  0.19315400  0.09375300  1
  O  O23  1  0.46821800  0.46821800  0.68013400  1
  O  O24  1  0.32604000  0.32604000  0.38122300  1
  O  O25  1  0.62156100  0.62156100  0.96130300  1
  O  O26  1  0.75911000  0.75911000  0.23127700  1
  O  O27  1  0.04145200  0.04145200  0.82504700  1
