# generated using pymatgen
data_Li17La12Zr8O48
_symmetry_space_group_name_H-M   'P 1'
_cell_length_a   11.35238556
_cell_length_b   11.35238556
_cell_length_c   11.35238556
_cell_angle_alpha   108.37175958
_cell_angle_beta   108.37175958
_cell_angle_gamma   111.69325546
_symmetry_Int_Tables_number   1
_chemical_formula_structural   Li17La12Zr8O48
_chemical_formula_sum   'Li17 La12 Zr8 O48'
_cell_volume   1124.98628161
_cell_formula_units_Z   1
loop_
 _symmetry_equiv_pos_site_id
 _symmetry_equiv_pos_as_xyz
  1  'x, y, z'
loop_
 _atom_site_type_symbol
 _atom_site_label
 _atom_site_symmetry_multiplicity
 _atom_site_fract_x
 _atom_site_fract_y
 _atom_site_fract_z
 _atom_site_occupancy
  Li  Li0  1  0.50000000  0.50000000  0.00000000  1
  Li  Li1  1  0.66279400  0.40222200  0.91204600  1
  Li  Li2  1  0.15091900  0.23426600  0.24478900  1
  Li  Li3  1  0.65756100  0.39899900  0.41821200  1
  Li  Li4  1  0.15607700  0.74006600  0.25433200  1
  Li  Li5  1  0.09825500  0.84392300  0.58398800  1
  Li  Li6  1  0.60100100  0.01921200  0.25856200  1
  Li  Li7  1  0.09387100  0.84908100  0.08334800  1
  Li  Li8  1  0.59777800  0.50982400  0.26057200  1
  Li  Li9  1  0.98947700  0.90612900  0.75521100  1
  Li  Li10  1  0.49017600  0.75074800  0.08795400  1
  Li  Li11  1  0.48573300  0.90174500  0.74566800  1
  Li  Li12  1  0.98078800  0.23935000  0.58178800  1
  Li  Li13  1  0.76065000  0.34243900  0.74143800  1
  Li  Li14  1  0.25993400  0.51426700  0.41601200  1
  Li  Li15  1  0.24925200  0.33720600  0.73942800  1
  Li  Li16  1  0.76573400  0.01052300  0.91665200  1
  La  La17  1  0.24701000  0.24701000  0.00000000  1
  La  La18  1  0.75299000  0.75299000  0.00000000  1
  La  La19  1  0.49983900  0.99983900  0.50000000  1
  La  La20  1  0.00016100  0.50016100  0.50000000  1
  La  La21  1  0.26379700  0.87594000  0.88915000  1
  La  La22  1  0.76311900  0.87387100  0.38757300  1
  La  La23  1  0.12406000  0.01321000  0.38785700  1
  La  La24  1  0.62445400  0.23688100  0.11075200  1
  La  La25  1  0.48629800  0.37554600  0.61242700  1
  La  La26  1  0.98679000  0.37464700  0.11085000  1
  La  La27  1  0.12612900  0.51370200  0.88924800  1
  La  La28  1  0.62535300  0.73620300  0.61214300  1
  Zr  Zr29  1  0.37668100  0.12914400  0.75678500  1
  Zr  Zr30  1  0.87445100  0.12361000  0.24996400  1
  Zr  Zr31  1  0.37551400  0.12554900  0.24915900  1
  Zr  Zr32  1  0.87085600  0.62764200  0.24753700  1
  Zr  Zr33  1  0.87364500  0.62448600  0.75003600  1
  Zr  Zr34  1  0.37235800  0.61989500  0.24321500  1
  Zr  Zr35  1  0.38010500  0.62331900  0.75246300  1
  Zr  Zr36  1  0.87639000  0.12635500  0.75084100  1
  O  O37  1  0.19466100  0.02657500  0.78279400  1
  O  O38  1  0.69326400  0.91287700  0.16890500  1
  O  O39  1  0.27726300  0.94500900  0.28194500  1
  O  O40  1  0.77675000  0.49497600  0.33294700  1
  O  O41  1  0.55619700  0.22325000  0.71822500  1
  O  O42  1  0.05499100  0.33693600  0.33225400  1
  O  O43  1  0.47564100  0.30673600  0.21961300  1
  O  O44  1  0.97342500  0.75621900  0.16808600  1
  O  O45  1  0.74397200  0.52435900  0.83109500  1
  O  O46  1  0.24378100  0.41186600  0.21720600  1
  O  O47  1  0.16202800  0.44380300  0.66705300  1
  O  O48  1  0.66306400  0.99531800  0.71805500  1
  O  O49  1  0.00468200  0.72273700  0.66774600  1
  O  O50  1  0.50502400  0.83797200  0.28177500  1
  O  O51  1  0.58813400  0.80533900  0.83191400  1
  O  O52  1  0.08712300  0.25602800  0.78038700  1
  O  O53  1  0.89671900  0.44591200  0.66077900  1
  O  O54  1  0.39857900  0.73909900  0.45033700  1
  O  O55  1  0.69176800  0.64316900  0.15783400  1
  O  O56  1  0.19764500  0.03639700  0.04970800  1
  O  O57  1  0.85206400  0.80235500  0.83875300  1
  O  O58  1  0.35683100  0.51466500  0.04859900  1
  O  O59  1  0.05175800  0.60142100  0.34052000  1
  O  O60  1  0.55408800  0.21486800  0.45080700  1
  O  O61  1  0.28876200  0.94824200  0.54966300  1
  O  O62  1  0.78513200  0.23594000  0.33922100  1
  O  O63  1  0.98668900  0.14793600  0.95029200  1
  O  O64  1  0.48533500  0.53393400  0.84216600  1
  O  O65  1  0.46606600  0.30823200  0.95140100  1
  O  O66  1  0.96360300  0.01331100  0.16124700  1
  O  O67  1  0.76406000  0.10328100  0.54919300  1
  O  O68  1  0.26090100  0.71123800  0.65948000  1
  O  O69  1  0.07927600  0.70951500  0.92230100  1
  O  O70  1  0.57843300  0.65829200  0.37158200  1
  O  O71  1  0.96004900  0.82968300  0.42373500  1
  O  O72  1  0.46027000  0.03621700  0.13032200  1
  O  O73  1  0.67005200  0.53973000  0.57594700  1
  O  O74  1  0.17031700  0.59405200  0.13036600  1
  O  O75  1  0.79314900  0.42156700  0.07985900  1
  O  O76  1  0.29048500  0.21278600  0.36976100  1
  O  O77  1  0.28671000  0.20685100  0.62841800  1
  O  O78  1  0.78721400  0.15697500  0.07769900  1
  O  O79  1  0.90589500  0.32994800  0.86967800  1
  O  O80  1  0.40594800  0.53631400  0.57626500  1
  O  O81  1  0.46368600  0.03995100  0.86963400  1
  O  O82  1  0.96378300  0.09410500  0.42405300  1
  O  O83  1  0.84302500  0.92072400  0.63023900  1
  O  O84  1  0.34170800  0.71329000  0.92014100  1
