# generated using pymatgen
data_Li6V3P8O29
_symmetry_space_group_name_H-M   'P 1'
_cell_length_a   9.83702651
_cell_length_b   9.83702651
_cell_length_c   14.09450100
_cell_angle_alpha   90.00000000
_cell_angle_beta   90.00000000
_cell_angle_gamma   120.00000341
_symmetry_Int_Tables_number   1
_chemical_formula_structural   Li6V3P8O29
_chemical_formula_sum   'Li12 V6 P16 O58'
_cell_volume   1181.15802475
_cell_formula_units_Z   2
loop_
 _symmetry_equiv_pos_site_id
 _symmetry_equiv_pos_as_xyz
  1  'x, y, z'
loop_
 _atom_site_type_symbol
 _atom_site_label
 _atom_site_symmetry_multiplicity
 _atom_site_fract_x
 _atom_site_fract_y
 _atom_site_fract_z
 _atom_site_occupancy
  Li  Li0  1  0.24634900  0.34609000  0.06206500  1
  Li  Li1  1  0.09974000  0.34609000  0.56206500  1
  Li  Li2  1  0.24634900  0.90026000  0.56206500  1
  Li  Li3  1  0.00000000  0.00000000  0.38785500  1
  Li  Li4  1  0.00000000  0.00000000  0.88785500  1
  Li  Li5  1  0.09974000  0.75365100  0.06206500  1
  Li  Li6  1  0.65391000  0.90026000  0.06206500  1
  Li  Li7  1  0.65391000  0.75365100  0.56206500  1
  Li  Li8  1  0.66666700  0.33333300  0.60626700  1
  Li  Li9  1  0.66666700  0.33333300  0.10626700  1
  Li  Li10  1  0.33333300  0.66666700  0.99240100  1
  Li  Li11  1  0.33333300  0.66666700  0.49240100  1
  V  V12  1  0.89462000  0.66563100  0.25070700  1
  V  V13  1  0.77101100  0.66563100  0.75070700  1
  V  V14  1  0.89462000  0.22898900  0.75070700  1
  V  V15  1  0.77101100  0.10538000  0.25070700  1
  V  V16  1  0.33436900  0.22898900  0.25070700  1
  V  V17  1  0.33436900  0.10538000  0.75070700  1
  P  P18  1  0.24225400  0.35083000  0.84429900  1
  P  P19  1  0.10857700  0.35083000  0.34429900  1
  P  P20  1  0.24225400  0.89142300  0.34429900  1
  P  P21  1  0.00000000  0.00000000  0.12687500  1
  P  P22  1  0.00000000  0.00000000  0.62687500  1
  P  P23  1  0.10857700  0.75774600  0.84429900  1
  P  P24  1  0.02435900  0.57951900  0.66052600  1
  P  P25  1  0.64917000  0.89142300  0.84429900  1
  P  P26  1  0.02435900  0.44484000  0.16052600  1
  P  P27  1  0.64917000  0.75774600  0.34429900  1
  P  P28  1  0.55516000  0.57951900  0.16052600  1
  P  P29  1  0.66666700  0.33333300  0.36878900  1
  P  P30  1  0.66666700  0.33333300  0.86878900  1
  P  P31  1  0.42048100  0.44484000  0.66052600  1
  P  P32  1  0.55516000  0.97564100  0.66052600  1
  P  P33  1  0.42048100  0.97564100  0.16052600  1
  O  O34  1  0.32224100  0.45163800  0.58166500  1
  O  O35  1  0.24984700  0.32734400  0.33106000  1
  O  O36  1  0.12939700  0.45163800  0.08166500  1
  O  O37  1  0.07749700  0.32734400  0.83106000  1
  O  O38  1  0.22609100  0.18507800  0.82986400  1
  O  O39  1  0.15167100  0.14692600  0.16580700  1
  O  O40  1  0.22609100  0.04101300  0.32986400  1
  O  O41  1  0.32224100  0.87060300  0.08166500  1
  O  O42  1  0.24984700  0.92250300  0.83106000  1
  O  O43  1  0.99525400  0.14692600  0.66580700  1
  O  O44  1  0.95898700  0.18507800  0.32986400  1
  O  O45  1  0.15167100  0.00474600  0.66580700  1
  O  O46  1  0.00000000  0.00000000  0.02009100  1
  O  O47  1  0.00000000  0.00000000  0.52009100  1
  O  O48  1  0.99525400  0.84832900  0.16580700  1
  O  O49  1  0.81492200  0.04101300  0.82986400  1
  O  O50  1  0.85307400  0.00474600  0.16580700  1
  O  O51  1  0.07749700  0.75015300  0.33106000  1
  O  O52  1  0.11138600  0.64981800  0.76019000  1
  O  O53  1  0.12939700  0.67775900  0.58166500  1
  O  O54  1  0.11254800  0.68300100  0.93597300  1
  O  O55  1  0.95898700  0.77390900  0.82986400  1
  O  O56  1  0.85307400  0.84832900  0.66580700  1
  O  O57  1  0.99452900  0.58488200  0.15802100  1
  O  O58  1  0.81492200  0.77390900  0.32986400  1
  O  O59  1  0.67265600  0.92250300  0.33106000  1
  O  O60  1  0.11138600  0.46156800  0.26019000  1
  O  O61  1  0.11254800  0.42954600  0.43597300  1
  O  O62  1  0.54836200  0.87060300  0.58166500  1
  O  O63  1  0.99452900  0.40964700  0.65802100  1
  O  O64  1  0.86083300  0.56826400  0.66652100  1
  O  O65  1  0.67265600  0.75015300  0.83106000  1
  O  O66  1  0.80662400  0.48550700  0.32503300  1
  O  O67  1  0.70743100  0.56826400  0.16652100  1
  O  O68  1  0.54836200  0.67775900  0.08166500  1
  O  O69  1  0.57045400  0.68300100  0.43597300  1
  O  O70  1  0.53843200  0.64981800  0.26019000  1
  O  O71  1  0.59035300  0.58488200  0.65802100  1
  O  O72  1  0.80662400  0.32111700  0.82503300  1
  O  O73  1  0.86083300  0.29256900  0.16652100  1
  O  O74  1  0.67888300  0.48550700  0.82503300  1
  O  O75  1  0.66666700  0.33333300  0.97415800  1
  O  O76  1  0.66666700  0.33333300  0.47415800  1
  O  O77  1  0.51449300  0.32111700  0.32503300  1
  O  O78  1  0.70743100  0.13916700  0.66652100  1
  O  O79  1  0.67888300  0.19337600  0.32503300  1
  O  O80  1  0.41511800  0.40964700  0.15802100  1
  O  O81  1  0.35018200  0.46156800  0.76019000  1
  O  O82  1  0.31699900  0.42954600  0.93597300  1
  O  O83  1  0.43173600  0.29256900  0.66652100  1
  O  O84  1  0.51449300  0.19337600  0.82503300  1
  O  O85  1  0.43173600  0.13916700  0.16652100  1
  O  O86  1  0.59035300  0.00547100  0.15802100  1
  O  O87  1  0.57045400  0.88745200  0.93597300  1
  O  O88  1  0.53843200  0.88861400  0.76019000  1
  O  O89  1  0.41511800  0.00547100  0.65802100  1
  O  O90  1  0.31699900  0.88745200  0.43597300  1
  O  O91  1  0.35018200  0.88861400  0.26019000  1
