# generated using pymatgen
data_Li7Mn5O12
_symmetry_space_group_name_H-M   'P 1'
_cell_length_a   5.09300163
_cell_length_b   7.79478009
_cell_length_c   11.90292187
_cell_angle_alpha   72.57284088
_cell_angle_beta   79.41423728
_cell_angle_gamma   82.71049585
_symmetry_Int_Tables_number   1
_chemical_formula_structural   Li7Mn5O12
_chemical_formula_sum   'Li14 Mn10 O24'
_cell_volume   441.86629590
_cell_formula_units_Z   2
loop_
 _symmetry_equiv_pos_site_id
 _symmetry_equiv_pos_as_xyz
  1  'x, y, z'
loop_
 _atom_site_type_symbol
 _atom_site_label
 _atom_site_symmetry_multiplicity
 _atom_site_fract_x
 _atom_site_fract_y
 _atom_site_fract_z
 _atom_site_occupancy
  Li  Li0  1  0.74474800  0.00077100  0.24724700  1
  Li  Li1  1  0.25527900  0.99918300  0.75278200  1
  Li  Li2  1  0.45370300  0.16511700  0.04484600  1
  Li  Li3  1  0.95371100  0.15957300  0.53586300  1
  Li  Li4  1  0.04628300  0.84033500  0.46419900  1
  Li  Li5  1  0.54629900  0.83502600  0.95511700  1
  Li  Li6  1  0.22743300  0.15951700  0.29019100  1
  Li  Li7  1  0.72277600  0.16022300  0.79282000  1
  Li  Li8  1  0.27737200  0.83991500  0.20714700  1
  Li  Li9  1  0.77242000  0.84034200  0.70987200  1
  Li  Li10  1  0.38301800  0.49926200  0.13337100  1
  Li  Li11  1  0.88442000  0.50189400  0.62341900  1
  Li  Li12  1  0.11557100  0.49816700  0.37648800  1
  Li  Li13  1  0.61709900  0.50069500  0.86663700  1
  Mn  Mn14  1  0.49994800  0.99988500  0.50004500  1
  Mn  Mn15  1  0.99981800  0.00010200  0.00010900  1
  Mn  Mn16  1  0.90967000  0.32753500  0.08368300  1
  Mn  Mn17  1  0.41594100  0.33078000  0.58323100  1
  Mn  Mn18  1  0.58392300  0.66905300  0.41679800  1
  Mn  Mn19  1  0.09052000  0.67253800  0.91623200  1
  Mn  Mn20  1  0.66678600  0.32606700  0.32893900  1
  Mn  Mn21  1  0.16466700  0.33118600  0.82960400  1
  Mn  Mn22  1  0.83537200  0.66897200  0.17035500  1
  Mn  Mn23  1  0.33314300  0.67394100  0.67107300  1
  O  O24  1  0.82782100  0.08834100  0.39789000  1
  O  O25  1  0.32582600  0.09525200  0.89873400  1
  O  O26  1  0.67410300  0.90474000  0.10133900  1
  O  O27  1  0.17209800  0.91160400  0.60210400  1
  O  O28  1  0.08497300  0.08538400  0.12747800  1
  O  O29  1  0.59002500  0.08719200  0.62783700  1
  O  O30  1  0.40992000  0.91270000  0.37221700  1
  O  O31  1  0.91497200  0.91473100  0.87254400  1
  O  O32  1  0.74858900  0.42542800  0.48321100  1
  O  O33  1  0.23559300  0.41463600  0.96632500  1
  O  O34  1  0.76435100  0.58551700  0.03360400  1
  O  O35  1  0.25148600  0.57449700  0.51677200  1
  O  O36  1  0.00372700  0.42465200  0.23102000  1
  O  O37  1  0.49334700  0.42437300  0.73537100  1
  O  O38  1  0.50669200  0.57556300  0.26461600  1
  O  O39  1  0.99639700  0.57532300  0.76892800  1
  O  O40  1  0.16493400  0.76183700  0.07100700  1
  O  O41  1  0.66871000  0.76384700  0.56756800  1
  O  O42  1  0.33130200  0.23604500  0.43244100  1
  O  O43  1  0.83509600  0.23827200  0.92898000  1
  O  O44  1  0.91174100  0.73697700  0.30298500  1
  O  O45  1  0.42458100  0.74495600  0.82356700  1
  O  O46  1  0.57552100  0.25509200  0.17640000  1
  O  O47  1  0.08827400  0.26296300  0.69699500  1
