# generated using pymatgen
data_Li2Mn3SbO8
_symmetry_space_group_name_H-M   'P 1'
_cell_length_a   6.00880412
_cell_length_b   10.83342542
_cell_length_c   6.00879746
_cell_angle_alpha   73.89997528
_cell_angle_beta   59.99326572
_cell_angle_gamma   73.89993770
_symmetry_Int_Tables_number   1
_chemical_formula_structural   Li2Mn3SbO8
_chemical_formula_sum   'Li4 Mn6 Sb2 O16'
_cell_volume   320.88704283
_cell_formula_units_Z   2
loop_
 _symmetry_equiv_pos_site_id
 _symmetry_equiv_pos_as_xyz
  1  'x, y, z'
loop_
 _atom_site_type_symbol
 _atom_site_label
 _atom_site_symmetry_multiplicity
 _atom_site_fract_x
 _atom_site_fract_y
 _atom_site_fract_z
 _atom_site_occupancy
  Li  Li0  1  0.43557800  0.69333200  0.43557000  1
  Li  Li1  1  0.93559200  0.19329500  0.93558300  1
  Li  Li2  1  0.06441100  0.80671500  0.06440100  1
  Li  Li3  1  0.56442200  0.30667600  0.56441500  1
  Mn  Mn4  1  0.50001300  0.99997400  0.49991800  1
  Mn  Mn5  1  0.49991300  0.00001200  0.00012000  1
  Mn  Mn6  1  0.00014000  0.99995900  0.49994800  1
  Mn  Mn7  1  0.99999900  0.49998100  0.99997500  1
  Mn  Mn8  1  0.99997800  0.50000000  0.50004200  1
  Mn  Mn9  1  0.49997800  0.50001600  0.00000700  1
  Sb  Sb10  1  0.25001900  0.24998100  0.25001700  1
  Sb  Sb11  1  0.75001000  0.75002900  0.75000600  1
  O  O12  1  0.36292700  0.91125500  0.36289700  1
  O  O13  1  0.86285600  0.41125500  0.86294400  1
  O  O14  1  0.13703800  0.58873500  0.13712500  1
  O  O15  1  0.63711000  0.08874500  0.63707900  1
  O  O16  1  0.59618900  0.12817300  0.13783800  1
  O  O17  1  0.09616800  0.62814900  0.63786200  1
  O  O18  1  0.13785300  0.12817300  0.59617000  1
  O  O19  1  0.63785400  0.62815700  0.09616800  1
  O  O20  1  0.13786200  0.12815500  0.13784000  1
  O  O21  1  0.63785100  0.62814200  0.63786700  1
  O  O22  1  0.36212500  0.37187500  0.36214100  1
  O  O23  1  0.86215800  0.87185500  0.86214600  1
  O  O24  1  0.36213900  0.37185100  0.90382000  1
  O  O25  1  0.86217500  0.87183300  0.40380200  1
  O  O26  1  0.90381800  0.37184300  0.36214900  1
  O  O27  1  0.40382100  0.87183400  0.86214900  1
