# generated using pymatgen
data_Li4Mn3O7
_symmetry_space_group_name_H-M   'P 1'
_cell_length_a   2.99786400
_cell_length_b   9.77679660
_cell_length_c   9.95167051
_cell_angle_alpha   115.73998040
_cell_angle_beta   94.31499673
_cell_angle_gamma   96.10159007
_symmetry_Int_Tables_number   1
_chemical_formula_structural   Li4Mn3O7
_chemical_formula_sum   'Li8 Mn6 O14'
_cell_volume   258.83721619
_cell_formula_units_Z   2
loop_
 _symmetry_equiv_pos_site_id
 _symmetry_equiv_pos_as_xyz
  1  'x, y, z'
loop_
 _atom_site_type_symbol
 _atom_site_label
 _atom_site_symmetry_multiplicity
 _atom_site_fract_x
 _atom_site_fract_y
 _atom_site_fract_z
 _atom_site_occupancy
  Li  Li0  1  0.85452600  0.72774400  0.94000300  1
  Li  Li1  1  0.14547400  0.27225600  0.05999700  1
  Li  Li2  1  0.44236900  0.86115500  0.20570300  1
  Li  Li3  1  0.70936600  0.42611500  0.35743000  1
  Li  Li4  1  0.00000000  0.00000000  0.50000000  1
  Li  Li5  1  0.29063400  0.57388500  0.64257000  1
  Li  Li6  1  0.55763100  0.13884500  0.79429700  1
  Li  Li7  1  0.50000000  0.00000000  0.00000000  1
  Mn  Mn8  1  0.92577900  0.86414100  0.72518300  1
  Mn  Mn9  1  0.07422100  0.13585900  0.27481700  1
  Mn  Mn10  1  0.21535600  0.42814700  0.85596300  1
  Mn  Mn11  1  0.78464400  0.57185300  0.14403700  1
  Mn  Mn12  1  0.34806900  0.71201700  0.43128100  1
  Mn  Mn13  1  0.65193100  0.28798300  0.56871900  1
  O  O14  1  0.42197400  0.79708800  0.80704200  1
  O  O15  1  0.64808900  0.36693500  0.96934100  1
  O  O16  1  0.96354500  0.94170300  0.12183300  1
  O  O17  1  0.21760300  0.50889400  0.25391000  1
  O  O18  1  0.57214400  0.08595100  0.38546300  1
  O  O19  1  0.79165500  0.65591700  0.54222300  1
  O  O20  1  0.08282900  0.22355700  0.67732400  1
  O  O21  1  0.35191100  0.63306500  0.03065900  1
  O  O22  1  0.57802600  0.20291200  0.19295800  1
  O  O23  1  0.91717100  0.77644300  0.32267600  1
  O  O24  1  0.20834500  0.34408300  0.45777700  1
  O  O25  1  0.42785600  0.91404900  0.61453700  1
  O  O26  1  0.78239700  0.49110600  0.74609000  1
  O  O27  1  0.03645500  0.05829700  0.87816700  1
