# generated using pymatgen
data_Li7V3P8O29
_symmetry_space_group_name_H-M   'P 1'
_cell_length_a   9.86948848
_cell_length_b   9.86948848
_cell_length_c   13.94552852
_cell_angle_alpha   89.65281305
_cell_angle_beta   89.65281305
_cell_angle_gamma   60.04498190
_symmetry_Int_Tables_number   1
_chemical_formula_structural   Li7V3P8O29
_chemical_formula_sum   'Li14 V6 P16 O58'
_cell_volume   1176.90372228
_cell_formula_units_Z   2
loop_
 _symmetry_equiv_pos_site_id
 _symmetry_equiv_pos_as_xyz
  1  'x, y, z'
loop_
 _atom_site_type_symbol
 _atom_site_label
 _atom_site_symmetry_multiplicity
 _atom_site_fract_x
 _atom_site_fract_y
 _atom_site_fract_z
 _atom_site_occupancy
  Li  Li0  1  0.33628600  0.90516100  0.93700800  1
  Li  Li1  1  0.32425300  0.76932500  0.43709600  1
  Li  Li2  1  0.76790700  0.91206300  0.43798800  1
  Li  Li3  1  0.67106500  0.66150400  0.61517600  1
  Li  Li4  1  0.66150400  0.67106500  0.11517600  1
  Li  Li5  1  0.91206300  0.76790700  0.93798800  1
  Li  Li6  1  0.76932500  0.32425300  0.93709600  1
  Li  Li7  1  0.09323500  0.67824200  0.56433100  1
  Li  Li8  1  0.90516100  0.33628600  0.43700800  1
  Li  Li9  1  0.34217900  0.31431700  0.38870100  1
  Li  Li10  1  0.31431700  0.34217900  0.88870100  1
  Li  Li11  1  0.67824200  0.09323500  0.06433100  1
  Li  Li12  1  0.05374500  0.98456700  0.00314000  1
  Li  Li13  1  0.98456700  0.05374500  0.50314000  1
  V  V14  1  0.99907100  0.56289600  0.75309100  1
  V  V15  1  0.00255000  0.43194100  0.24475600  1
  V  V16  1  0.43266600  0.56675000  0.25167600  1
  V  V17  1  0.56675000  0.43266600  0.75167600  1
  V  V18  1  0.43194100  0.00255000  0.74475600  1
  V  V19  1  0.56289600  0.99907100  0.25309100  1
  P  P20  1  0.31908500  0.90777700  0.15596600  1
  P  P21  1  0.31896600  0.77032800  0.65526600  1
  P  P22  1  0.77410300  0.91018100  0.65526100  1
  P  P23  1  0.66166000  0.67089200  0.87436900  1
  P  P24  1  0.67089200  0.66166000  0.37436900  1
  P  P25  1  0.91018100  0.77410300  0.15526100  1
  P  P26  1  0.08871000  0.68023300  0.34164600  1
  P  P27  1  0.77032800  0.31896600  0.15526600  1
  P  P28  1  0.22488200  0.69054200  0.84213300  1
  P  P29  1  0.90777700  0.31908500  0.65596600  1
  P  P30  1  0.08874800  0.21813200  0.84048600  1
  P  P31  1  0.33658100  0.33429500  0.62805000  1
  P  P32  1  0.33429500  0.33658100  0.12805000  1
  P  P33  1  0.21813200  0.08874800  0.34048600  1
  P  P34  1  0.69054200  0.22488200  0.34213300  1
  P  P35  1  0.68023300  0.08871000  0.84164600  1
  O  O36  1  0.20564900  0.99252800  0.42036000  1
  O  O37  1  0.33847500  0.91422800  0.65989100  1
  O  O38  1  0.22143600  0.79465600  0.92086500  1
  O  O39  1  0.33908900  0.74266100  0.17244800  1
  O  O40  1  0.48263300  0.88915400  0.16715900  1
  O  O41  1  0.51605000  0.81955400  0.82966800  1
  O  O42  1  0.62766400  0.89023600  0.66874300  1
  O  O43  1  0.76764200  0.99851700  0.93003900  1
  O  O44  1  0.74780100  0.92117600  0.16149300  1
  O  O45  1  0.51964200  0.66640000  0.33594700  1
  O  O46  1  0.48198700  0.62334100  0.67039100  1
  O  O47  1  0.67200700  0.81192700  0.34186000  1
  O  O48  1  0.64339100  0.67787400  0.98183300  1
  O  O49  1  0.67787400  0.64339100  0.48183300  1
  O  O50  1  0.81192700  0.67200700  0.84186000  1
  O  O51  1  0.62334100  0.48198700  0.17039100  1
  O  O52  1  0.66640000  0.51964200  0.83594700  1
  O  O53  1  0.92117600  0.74780100  0.66149300  1
  O  O54  1  0.00483000  0.78242100  0.24790800  1
  O  O55  1  0.99851700  0.76764200  0.43003900  1
  O  O56  1  0.99391900  0.77415200  0.06541600  1
  O  O57  1  0.89023600  0.62766400  0.16874300  1
  O  O58  1  0.81955400  0.51605000  0.32966800  1
  O  O59  1  0.08611400  0.66139200  0.84616500  1
  O  O60  1  0.88915400  0.48263300  0.66715900  1
  O  O61  1  0.74266100  0.33908900  0.67244800  1
  O  O62  1  0.20599500  0.78039700  0.74144000  1
  O  O63  1  0.23807300  0.76453700  0.56478600  1
  O  O64  1  0.79465600  0.22143600  0.42086500  1
  O  O65  1  0.25482000  0.66108700  0.34355500  1
  O  O66  1  0.10554200  0.51676400  0.33125800  1
  O  O67  1  0.91422800  0.33847500  0.15989100  1
  O  O68  1  0.18411200  0.47991300  0.66239900  1
  O  O69  1  0.10318700  0.36711100  0.83605100  1
  O  O70  1  0.99252800  0.20564900  0.92036000  1
  O  O71  1  0.97759000  0.23758800  0.56308300  1
  O  O72  1  0.01452100  0.20636800  0.73998200  1
  O  O73  1  0.07543600  0.25573500  0.33987000  1
  O  O74  1  0.33827100  0.47578300  0.17676500  1
  O  O75  1  0.37725600  0.52849300  0.83300200  1
  O  O76  1  0.18238500  0.34255000  0.17305600  1
  O  O77  1  0.32419200  0.34755100  0.02128600  1
  O  O78  1  0.34755100  0.32419200  0.52128600  1
  O  O79  1  0.34255000  0.18238500  0.67305600  1
  O  O80  1  0.52849300  0.37725600  0.33300200  1
  O  O81  1  0.47578300  0.33827100  0.67676500  1
  O  O82  1  0.25573500  0.07543600  0.83987000  1
  O  O83  1  0.20636800  0.01452100  0.23998200  1
  O  O84  1  0.23758800  0.97759000  0.06308300  1
  O  O85  1  0.36711100  0.10318700  0.33605100  1
  O  O86  1  0.47991300  0.18411200  0.16239900  1
  O  O87  1  0.51676400  0.10554200  0.83125800  1
  O  O88  1  0.66108700  0.25482000  0.84355500  1
  O  O89  1  0.76453700  0.23807300  0.06478600  1
  O  O90  1  0.78039700  0.20599500  0.24144000  1
  O  O91  1  0.66139200  0.08611400  0.34616500  1
  O  O92  1  0.77415200  0.99391900  0.56541600  1
  O  O93  1  0.78242100  0.00483000  0.74790800  1
