# generated using pymatgen
data_Li2Cu3Ge
_symmetry_space_group_name_H-M   'P 1'
_cell_length_a   4.88070746
_cell_length_b   4.88070746
_cell_length_c   4.88070683
_cell_angle_alpha   61.17943679
_cell_angle_beta   61.17943679
_cell_angle_gamma   61.17942774
_symmetry_Int_Tables_number   1
_chemical_formula_structural   Li2Cu3Ge
_chemical_formula_sum   'Li2 Cu3 Ge1'
_cell_volume   84.39304977
_cell_formula_units_Z   1
loop_
 _symmetry_equiv_pos_site_id
 _symmetry_equiv_pos_as_xyz
  1  'x, y, z'
loop_
 _atom_site_type_symbol
 _atom_site_label
 _atom_site_symmetry_multiplicity
 _atom_site_fract_x
 _atom_site_fract_y
 _atom_site_fract_z
 _atom_site_occupancy
  Li  Li0  1  0.62640300  0.62640300  0.62640300  1
  Li  Li1  1  0.37359700  0.37359700  0.37359700  1
  Cu  Cu2  1  0.00000000  0.50000000  0.00000000  1
  Cu  Cu3  1  0.50000000  0.00000000  0.00000000  1
  Cu  Cu4  1  0.00000000  0.00000000  0.50000000  1
  Ge  Ge5  1  0.00000000  0.00000000  0.00000000  1
