# generated using pymatgen
data_Li7Mn2(CoO4)3
_symmetry_space_group_name_H-M   'P 1'
_cell_length_a   5.90715000
_cell_length_b   12.59612773
_cell_length_c   6.56479131
_cell_angle_alpha   78.43590966
_cell_angle_beta   115.93389180
_cell_angle_gamma   89.87184101
_symmetry_Int_Tables_number   1
_chemical_formula_structural   Li7Mn2(CoO4)3
_chemical_formula_sum   'Li14 Mn4 Co6 O24'
_cell_volume   428.11528303
_cell_formula_units_Z   2
loop_
 _symmetry_equiv_pos_site_id
 _symmetry_equiv_pos_as_xyz
  1  'x, y, z'
loop_
 _atom_site_type_symbol
 _atom_site_label
 _atom_site_symmetry_multiplicity
 _atom_site_fract_x
 _atom_site_fract_y
 _atom_site_fract_z
 _atom_site_occupancy
  Li  Li0  1  0.16667300  0.33333300  0.33332700  1
  Li  Li1  1  0.16667100  0.83333500  0.83332700  1
  Li  Li2  1  0.41190200  0.33121700  0.83181800  1
  Li  Li3  1  0.40949300  0.83143700  0.33247200  1
  Li  Li4  1  0.92143400  0.33544900  0.83485000  1
  Li  Li5  1  0.92384000  0.83523000  0.33419700  1
  Li  Li6  1  0.09356000  0.17020800  0.66435300  1
  Li  Li7  1  0.09208000  0.67023700  0.16350300  1
  Li  Li8  1  0.23976700  0.49645900  0.00232200  1
  Li  Li9  1  0.24124900  0.99642800  0.50317200  1
  Li  Li10  1  0.76477100  0.49659200  0.00971400  1
  Li  Li11  1  0.76400200  0.99697000  0.51062800  1
  Li  Li12  1  0.56855800  0.17007700  0.65694700  1
  Li  Li13  1  0.56932600  0.66969800  0.15603200  1
  Mn  Mn14  1  0.00218600  0.49865100  0.49618500  1
  Mn  Mn15  1  0.00084000  0.99899000  0.99538300  1
  Mn  Mn16  1  0.33115200  0.16801400  0.17050000  1
  Mn  Mn17  1  0.33248700  0.66767800  0.67128300  1
  Co  Co18  1  0.66667600  0.83333400  0.83333600  1
  Co  Co19  1  0.66667200  0.33333000  0.33333300  1
  Co  Co20  1  0.49497800  0.49599000  0.49490100  1
  Co  Co21  1  0.49478800  0.99574100  0.99626200  1
  Co  Co22  1  0.83835000  0.17067500  0.17176000  1
  Co  Co23  1  0.83854800  0.67092800  0.67040300  1
  O  O24  1  0.02935600  0.34511200  0.57046800  1
  O  O25  1  0.02861500  0.84439600  0.06981500  1
  O  O26  1  0.30397200  0.32155200  0.09617700  1
  O  O27  1  0.30471600  0.82227500  0.59683300  1
  O  O28  1  0.67964700  0.16636900  0.39553100  1
  O  O29  1  0.68007800  0.66524100  0.89758500  1
  O  O30  1  0.65324600  0.00143500  0.76905600  1
  O  O31  1  0.65368500  0.50030100  0.27112600  1
  O  O32  1  0.34858000  0.00539700  0.22709300  1
  O  O33  1  0.35014100  0.50583900  0.72702200  1
  O  O34  1  0.98319800  0.16082600  0.93967000  1
  O  O35  1  0.98475200  0.66126600  0.43959200  1
  O  O36  1  0.55146200  0.34156800  0.57084700  1
  O  O37  1  0.55252200  0.84322900  0.06715900  1
  O  O38  1  0.78187000  0.32509900  0.09581400  1
  O  O39  1  0.78082900  0.82343800  0.59952000  1
  O  O40  1  0.20700600  0.16426600  0.39603400  1
  O  O41  1  0.20786900  0.66454400  0.89590500  1
  O  O42  1  0.12545600  0.00212500  0.77074400  1
  O  O43  1  0.12631500  0.50239400  0.27062400  1
  O  O44  1  0.87277300  0.00740900  0.22688900  1
  O  O45  1  0.87406900  0.50781800  0.72655300  1
  O  O46  1  0.45927200  0.15884700  0.94013100  1
  O  O47  1  0.46057100  0.65925400  0.43979800  1
