# generated using pymatgen
data_Li3AuN2
_symmetry_space_group_name_H-M   'P 1'
_cell_length_a   8.88798300
_cell_length_b   10.26295897
_cell_length_c   10.26295920
_cell_angle_alpha   89.99999651
_cell_angle_beta   125.26438791
_cell_angle_gamma   54.73561118
_symmetry_Int_Tables_number   1
_chemical_formula_structural   Li3AuN2
_chemical_formula_sum   'Li24 Au8 N16'
_cell_volume   540.49015154
_cell_formula_units_Z   8
loop_
 _symmetry_equiv_pos_site_id
 _symmetry_equiv_pos_as_xyz
  1  'x, y, z'
loop_
 _atom_site_type_symbol
 _atom_site_label
 _atom_site_symmetry_multiplicity
 _atom_site_fract_x
 _atom_site_fract_y
 _atom_site_fract_z
 _atom_site_occupancy
  Li  Li0  1  0.29569400  0.94472100  0.05591300  1
  Li  Li1  1  0.70430600  0.74041500  0.44408700  1
  Li  Li2  1  0.70430600  0.55527900  0.76021900  1
  Li  Li3  1  0.29569400  0.75958500  0.73978100  1
  Li  Li4  1  0.18386800  0.76021900  0.18450200  1
  Li  Li5  1  0.81613200  0.73978100  0.00063400  1
  Li  Li6  1  0.18386800  0.05591300  0.49936600  1
  Li  Li7  1  0.81613200  0.44408700  0.31549800  1
  Li  Li8  1  0.81486400  0.00063400  0.75958500  1
  Li  Li9  1  0.81486400  0.18450200  0.55527900  1
  Li  Li10  1  0.18513600  0.31549800  0.74041500  1
  Li  Li11  1  0.18513600  0.49936600  0.94472100  1
  Li  Li12  1  0.70430600  0.05527900  0.94408700  1
  Li  Li13  1  0.29569400  0.25958500  0.55591300  1
  Li  Li14  1  0.29569400  0.44472100  0.23978100  1
  Li  Li15  1  0.70430600  0.24041500  0.26021900  1
  Li  Li16  1  0.81613200  0.23978100  0.81549800  1
  Li  Li17  1  0.18386800  0.26021900  0.99936600  1
  Li  Li18  1  0.81613200  0.94408700  0.50063400  1
  Li  Li19  1  0.18386800  0.55591300  0.68450200  1
  Li  Li20  1  0.18513600  0.99936600  0.24041500  1
  Li  Li21  1  0.18513600  0.81549800  0.44472100  1
  Li  Li22  1  0.81486400  0.68450200  0.25958500  1
  Li  Li23  1  0.81486400  0.50063400  0.05527900  1
  Au  Au24  1  0.32030800  0.00000000  0.82030800  1
  Au  Au25  1  0.67969200  0.82030800  0.67969200  1
  Au  Au26  1  0.67969200  0.50000000  0.50000000  1
  Au  Au27  1  0.32030800  0.67969200  0.00000000  1
  Au  Au28  1  0.67969200  0.00000000  0.17969200  1
  Au  Au29  1  0.32030800  0.17969200  0.32030800  1
  Au  Au30  1  0.32030800  0.50000000  0.50000000  1
  Au  Au31  1  0.67969200  0.32030800  0.00000000  1
  N  N32  1  0.00000000  0.00000000  0.50000000  1
  N  N33  1  0.00000000  0.50000000  0.00000000  1
  N  N34  1  0.00000000  0.50000000  0.50000000  1
  N  N35  1  0.00000000  0.00000000  0.00000000  1
  N  N36  1  0.50000000  0.00622400  0.75000000  1
  N  N37  1  0.50000000  0.49377600  0.25000000  1
  N  N38  1  0.00000000  0.25000000  0.75622400  1
  N  N39  1  0.00000000  0.75000000  0.74377600  1
  N  N40  1  0.48755300  0.75622400  0.49377600  1
  N  N41  1  0.51244700  0.74377600  0.00622400  1
  N  N42  1  0.50000000  0.99377600  0.25000000  1
  N  N43  1  0.50000000  0.50622400  0.75000000  1
  N  N44  1  0.00000000  0.75000000  0.24377600  1
  N  N45  1  0.00000000  0.25000000  0.25622400  1
  N  N46  1  0.51244700  0.24377600  0.50622400  1
  N  N47  1  0.48755300  0.25622400  0.99377600  1
