# generated using pymatgen
data_Li9Mn7O16
_symmetry_space_group_name_H-M   'P 1'
_cell_length_a   6.47606100
_cell_length_b   6.53306613
_cell_length_c   8.05343354
_cell_angle_alpha   87.42641163
_cell_angle_beta   112.84789517
_cell_angle_gamma   107.69903251
_symmetry_Int_Tables_number   1
_chemical_formula_structural   Li9Mn7O16
_chemical_formula_sum   'Li9 Mn7 O16'
_cell_volume   298.09257172
_cell_formula_units_Z   1
loop_
 _symmetry_equiv_pos_site_id
 _symmetry_equiv_pos_as_xyz
  1  'x, y, z'
loop_
 _atom_site_type_symbol
 _atom_site_label
 _atom_site_symmetry_multiplicity
 _atom_site_fract_x
 _atom_site_fract_y
 _atom_site_fract_z
 _atom_site_occupancy
  Li  Li0  1  0.62467700  0.18843100  0.43832200  1
  Li  Li1  1  0.64203500  0.68488400  0.94331300  1
  Li  Li2  1  0.88730800  0.07358200  0.83286600  1
  Li  Li3  1  0.88039600  0.56714400  0.31344700  1
  Li  Li4  1  0.11269200  0.92641800  0.16713400  1
  Li  Li5  1  0.11960400  0.43285600  0.68655300  1
  Li  Li6  1  0.37532300  0.81156900  0.56167800  1
  Li  Li7  1  0.35796500  0.31511600  0.05668700  1
  Li  Li8  1  0.00000000  0.50000000  0.00000000  1
  Mn  Mn9  1  0.75337300  0.12497400  0.12260900  1
  Mn  Mn10  1  0.24662700  0.87502600  0.87739100  1
  Mn  Mn11  1  0.75426400  0.62435100  0.63133600  1
  Mn  Mn12  1  0.00000000  0.00000000  0.50000000  1
  Mn  Mn13  1  0.24573600  0.37564900  0.36866400  1
  Mn  Mn14  1  0.49457000  0.74724000  0.24318500  1
  Mn  Mn15  1  0.50543000  0.25276000  0.75681500  1
  O  O16  1  0.46062400  0.02398300  0.17081600  1
  O  O17  1  0.46052300  0.52483000  0.66949100  1
  O  O18  1  0.68153900  0.88095700  0.50422600  1
  O  O19  1  0.66799200  0.37285200  0.00483400  1
  O  O20  1  0.95088200  0.78907900  0.89899800  1
  O  O21  1  0.95648300  0.27736900  0.41547000  1
  O  O22  1  0.20924800  0.65595400  0.28993600  1
  O  O23  1  0.20578500  0.15614500  0.78703100  1
  O  O24  1  0.79075200  0.34404600  0.71006400  1
  O  O25  1  0.79421500  0.84385500  0.21296900  1
  O  O26  1  0.04911800  0.21092100  0.10100200  1
  O  O27  1  0.04351700  0.72263100  0.58453000  1
  O  O28  1  0.31846100  0.11904300  0.49577400  1
  O  O29  1  0.33200800  0.62714800  0.99516600  1
  O  O30  1  0.53937600  0.97601700  0.82918400  1
  O  O31  1  0.53947700  0.47517000  0.33050900  1
