# generated using pymatgen
data_LiV(SO4)2
_symmetry_space_group_name_H-M   'P 1'
_cell_length_a   9.10878000
_cell_length_b   9.27118793
_cell_length_c   13.85924019
_cell_angle_alpha   89.62270041
_cell_angle_beta   89.85357753
_cell_angle_gamma   89.86190198
_symmetry_Int_Tables_number   1
_chemical_formula_structural   LiV(SO4)2
_chemical_formula_sum   'Li8 V8 S16 O64'
_cell_volume   1170.36935118
_cell_formula_units_Z   8
loop_
 _symmetry_equiv_pos_site_id
 _symmetry_equiv_pos_as_xyz
  1  'x, y, z'
loop_
 _atom_site_type_symbol
 _atom_site_label
 _atom_site_symmetry_multiplicity
 _atom_site_fract_x
 _atom_site_fract_y
 _atom_site_fract_z
 _atom_site_occupancy
  Li  Li0  1  0.29235600  0.94531300  0.87804400  1
  Li  Li1  1  0.96480800  0.77242700  0.37208300  1
  Li  Li2  1  0.45406300  0.71954000  0.37668700  1
  Li  Li3  1  0.78514200  0.55702200  0.87231400  1
  Li  Li4  1  0.44565900  0.23297800  0.12578400  1
  Li  Li5  1  0.05227300  0.23398600  0.62436600  1
  Li  Li6  1  0.77146500  0.04795500  0.62718900  1
  Li  Li7  1  0.72684500  0.04391500  0.12544100  1
  V  V8  1  0.10405800  0.85545600  0.12641800  1
  V  V9  1  0.39429900  0.85875500  0.62398200  1
  V  V10  1  0.60607700  0.64078500  0.12630500  1
  V  V11  1  0.89308300  0.63724100  0.62427400  1
  V  V12  1  0.10450700  0.35807000  0.37361100  1
  V  V13  1  0.39253300  0.36358600  0.87287600  1
  V  V14  1  0.60266700  0.14534200  0.37625400  1
  V  V15  1  0.89479700  0.13877900  0.87551400  1
  S  S16  1  0.06377900  0.92231700  0.72347000  1
  S  S17  1  0.43505800  0.92709300  0.22420900  1
  S  S18  1  0.68853700  0.84521600  0.48897700  1
  S  S19  1  0.81608700  0.83970000  0.99025800  1
  S  S20  1  0.18792800  0.65163000  0.49137900  1
  S  S21  1  0.31670500  0.65826900  0.99099600  1
  S  S22  1  0.93422800  0.57240000  0.22054100  1
  S  S23  1  0.56716200  0.57780800  0.72008400  1
  S  S24  1  0.43141600  0.42585800  0.27624000  1
  S  S25  1  0.06296800  0.42336100  0.77847100  1
  S  S26  1  0.68318700  0.34122200  0.01038200  1
  S  S27  1  0.81331700  0.34141700  0.51211300  1
  S  S28  1  0.18353900  0.15473600  0.00818700  1
  S  S29  1  0.31263100  0.15472500  0.50886200  1
  S  S30  1  0.56385000  0.07888500  0.77789300  1
  S  S31  1  0.93036300  0.07638500  0.27704300  1
  O  O32  1  0.69687800  0.00674200  0.47666900  1
  O  O33  1  0.80451400  0.00154900  0.97351900  1
  O  O34  1  0.98123800  0.98048100  0.35276100  1
  O  O35  1  0.50450200  0.98523700  0.85220600  1
  O  O36  1  0.47106100  0.97651100  0.32368000  1
  O  O37  1  0.03052800  0.97156200  0.82359600  1
  O  O38  1  0.22965200  0.91757800  0.71960300  1
  O  O39  1  0.27278900  0.92112400  0.21574000  1
  O  O40  1  0.72202800  0.81953600  0.07872800  1
  O  O41  1  0.77387000  0.81844800  0.57958900  1
  O  O42  1  0.96937000  0.80089700  0.01706100  1
  O  O43  1  0.53142000  0.80232800  0.50740900  1
  O  O44  1  0.00545400  0.77395400  0.71152800  1
  O  O45  1  0.49604500  0.77517000  0.22025700  1
  O  O46  1  0.74269600  0.76785300  0.40561100  1
  O  O47  1  0.76915400  0.75883700  0.90764300  1
  O  O48  1  0.23560300  0.73317900  0.40638300  1
  O  O49  1  0.27661400  0.74366100  0.90730300  1
  O  O50  1  0.99537300  0.72821800  0.22091300  1
  O  O51  1  0.50933300  0.73083900  0.71267700  1
  O  O52  1  0.02816900  0.69223300  0.51069800  1
  O  O53  1  0.47305100  0.69256400  0.01909700  1
  O  O54  1  0.22481400  0.68678800  0.07771500  1
  O  O55  1  0.27290700  0.68513500  0.57937500  1
  O  O56  1  0.76901700  0.58767600  0.21858700  1
  O  O57  1  0.73662300  0.59041100  0.72267500  1
  O  O58  1  0.53486300  0.52630200  0.82127400  1
  O  O59  1  0.97005600  0.52262700  0.32177300  1
  O  O60  1  0.49022700  0.51757600  0.35053900  1
  O  O61  1  0.99595800  0.51271900  0.85122500  1
  O  O62  1  0.19506600  0.49298700  0.47519600  1
  O  O63  1  0.30658700  0.49994100  0.97100800  1
  O  O64  1  0.69864400  0.49997800  0.02725500  1
  O  O65  1  0.80030400  0.49954700  0.53122000  1
  O  O66  1  0.51647400  0.48543400  0.64508300  1
  O  O67  1  0.99193900  0.48513600  0.14485200  1
  O  O68  1  0.46914900  0.47417700  0.17574200  1
  O  O69  1  0.02726200  0.46846600  0.67696100  1
  O  O70  1  0.26831100  0.41383700  0.28027300  1
  O  O71  1  0.22620000  0.41933600  0.78476800  1
  O  O72  1  0.72390700  0.31317600  0.42550600  1
  O  O73  1  0.77269500  0.31482000  0.92197100  1
  O  O74  1  0.52499400  0.30653200  0.98707600  1
  O  O75  1  0.97185400  0.30516000  0.48792700  1
  O  O76  1  0.49435800  0.27353700  0.28068400  1
  O  O77  1  0.00860100  0.26719900  0.78289900  1
  O  O78  1  0.72186100  0.25380000  0.09381800  1
  O  O79  1  0.77678100  0.25486500  0.59681500  1
  O  O80  1  0.23631000  0.23206800  0.09136700  1
  O  O81  1  0.26243100  0.23144500  0.59350200  1
  O  O82  1  0.50779700  0.23039700  0.78522700  1
  O  O83  1  0.99395100  0.22373400  0.28390500  1
  O  O84  1  0.46864300  0.19407300  0.48477200  1
  O  O85  1  0.02875100  0.19552900  0.98469600  1
  O  O86  1  0.22305800  0.18514400  0.42129300  1
  O  O87  1  0.27525200  0.17954300  0.91911600  1
  O  O88  1  0.73140000  0.08420700  0.78080800  1
  O  O89  1  0.76288100  0.08993600  0.27723000  1
  O  O90  1  0.53429800  0.02599600  0.67746800  1
  O  O91  1  0.96120100  0.01982000  0.17733300  1
  O  O92  1  0.00267200  0.02150900  0.65059800  1
  O  O93  1  0.50043500  0.02060900  0.14972400  1
  O  O94  1  0.19090400  0.99279600  0.02278500  1
  O  O95  1  0.30779000  0.99356100  0.52504300  1
