# generated using pymatgen
data_Li6MnV3(PO4)6
_symmetry_space_group_name_H-M   'P 1'
_cell_length_a   9.81421800
_cell_length_b   9.87398196
_cell_length_c   9.88939374
_cell_angle_alpha   86.23928978
_cell_angle_beta   87.52781429
_cell_angle_gamma   87.42075615
_symmetry_Int_Tables_number   1
_chemical_formula_structural   Li6MnV3(PO4)6
_chemical_formula_sum   'Li12 Mn2 V6 P12 O48'
_cell_volume   954.52693986
_cell_formula_units_Z   2
loop_
 _symmetry_equiv_pos_site_id
 _symmetry_equiv_pos_as_xyz
  1  'x, y, z'
loop_
 _atom_site_type_symbol
 _atom_site_label
 _atom_site_symmetry_multiplicity
 _atom_site_fract_x
 _atom_site_fract_y
 _atom_site_fract_z
 _atom_site_occupancy
  Li  Li0  1  0.95039800  0.00097100  0.01833100  1
  Li  Li1  1  0.26565800  0.94654500  0.85789700  1
  Li  Li2  1  0.92972000  0.86752600  0.26758000  1
  Li  Li3  1  0.44495800  0.77247700  0.35449400  1
  Li  Li4  1  0.14951800  0.72870700  0.05274700  1
  Li  Li5  1  0.22956100  0.63100600  0.57076900  1
  Li  Li6  1  0.63774800  0.55620500  0.23880100  1
  Li  Li7  1  0.48208500  0.50141400  0.54921100  1
  Li  Li8  1  0.76983600  0.35629100  0.45325000  1
  Li  Li9  1  0.53004800  0.22484900  0.66695600  1
  Li  Li10  1  0.83932500  0.26889400  0.96424500  1
  Li  Li11  1  0.05193500  0.14592000  0.73285700  1
  Mn  Mn12  1  0.47060300  0.24324600  0.02898200  1
  Mn  Mn13  1  0.24559400  0.02949400  0.46974800  1
  V  V14  1  0.74381000  0.96763200  0.52227200  1
  V  V15  1  0.75059400  0.74865600  0.74746200  1
  V  V16  1  0.53352400  0.74922800  0.96434200  1
  V  V17  1  0.97625100  0.53186500  0.75807900  1
  V  V18  1  0.03634400  0.46747600  0.25212000  1
  V  V19  1  0.25411500  0.25062100  0.24957700  1
  P  P20  1  0.33225000  0.94946400  0.14190500  1
  P  P21  1  0.04828400  0.85414900  0.66677000  1
  P  P22  1  0.44702200  0.82501300  0.64502800  1
  P  P23  1  0.85370600  0.67505900  0.04976600  1
  P  P24  1  0.83393500  0.64561300  0.45253200  1
  P  P25  1  0.35339400  0.55189300  0.17397900  1
  P  P26  1  0.65294000  0.44902800  0.82446700  1
  P  P27  1  0.17732700  0.35422800  0.55053800  1
  P  P28  1  0.15179000  0.32524000  0.95218300  1
  P  P29  1  0.55002200  0.17334000  0.34770600  1
  P  P30  1  0.95371800  0.14764000  0.32512700  1
  P  P31  1  0.67568400  0.04692600  0.84019100  1
  O  O32  1  0.38119400  0.96541500  0.59678400  1
  O  O33  1  0.09467400  0.94398400  0.77434900  1
  O  O34  1  0.67103300  0.88539700  0.87389300  1
  O  O35  1  0.88771300  0.87764300  0.66163000  1
  O  O36  1  0.30975200  0.91128900  0.29415500  1
  O  O37  1  0.11288500  0.89260900  0.52404500  1
  O  O38  1  0.21814700  0.90939100  0.05278500  1
  O  O39  1  0.47130800  0.88556900  0.09475700  1
  O  O40  1  0.60726800  0.82856800  0.61875800  1
  O  O41  1  0.41029000  0.80921100  0.79956300  1
  O  O42  1  0.80687800  0.80105700  0.41676800  1
  O  O43  1  0.93718900  0.79219200  0.09252600  1
  O  O44  1  0.87995400  0.67280400  0.89014900  1
  O  O45  1  0.40270700  0.71189200  0.55988600  1
  O  O46  1  0.08491300  0.69979600  0.69432600  1
  O  O47  1  0.69813300  0.68636100  0.08697000  1
  O  O48  1  0.83698900  0.62116700  0.61361600  1
  O  O49  1  0.62111600  0.60941200  0.83032200  1
  O  O50  1  0.97388600  0.60708100  0.38769300  1
  O  O51  1  0.39254700  0.62177700  0.03360200  1
  O  O52  1  0.44282400  0.59882700  0.28350900  1
  O  O53  1  0.72139200  0.55706600  0.40875300  1
  O  O54  1  0.19722900  0.58795300  0.19728800  1
  O  O55  1  0.90782500  0.53752600  0.11420100  1
  O  O56  1  0.10509600  0.46988400  0.89373600  1
  O  O57  1  0.81101000  0.42071000  0.81745900  1
  O  O58  1  0.58513600  0.40452600  0.70083200  1
  O  O59  1  0.29494300  0.43983500  0.58462500  1
  O  O60  1  0.60675900  0.37778100  0.96253700  1
  O  O61  1  0.03936000  0.40460300  0.61479200  1
  O  O62  1  0.37742400  0.39425000  0.17149900  1
  O  O63  1  0.16748300  0.37523700  0.38793200  1
  O  O64  1  0.91940300  0.30436600  0.31029600  1
  O  O65  1  0.30498800  0.30142700  0.91719000  1
  O  O66  1  0.59693900  0.28150000  0.43665600  1
  O  O67  1  0.12321100  0.32742500  0.11305800  1
  O  O68  1  0.05890600  0.21752800  0.90692600  1
  O  O69  1  0.58314300  0.19979500  0.19455000  1
  O  O70  1  0.19355900  0.20047800  0.59094800  1
  O  O71  1  0.38782500  0.16804300  0.37892200  1
  O  O72  1  0.53679400  0.11428800  0.87906400  1
  O  O73  1  0.79800400  0.09226500  0.91208800  1
  O  O74  1  0.88567500  0.10000900  0.46175600  1
  O  O75  1  0.68871500  0.07633100  0.68280100  1
  O  O76  1  0.11622100  0.12093500  0.33730300  1
  O  O77  1  0.91695700  0.06649100  0.20765100  1
  O  O78  1  0.33791300  0.11272300  0.12088500  1
  O  O79  1  0.60825200  0.02896500  0.39299100  1
