# generated using pymatgen
data_LiCo(CO3)2
_symmetry_space_group_name_H-M   'P 1'
_cell_length_a   6.43665496
_cell_length_b   10.42299272
_cell_length_c   9.14280662
_cell_angle_alpha   62.42638857
_cell_angle_beta   76.01604918
_cell_angle_gamma   97.22251832
_symmetry_Int_Tables_number   1
_chemical_formula_structural   LiCo(CO3)2
_chemical_formula_sum   'Li4 Co4 C8 O24'
_cell_volume   507.07495034
_cell_formula_units_Z   4
loop_
 _symmetry_equiv_pos_site_id
 _symmetry_equiv_pos_as_xyz
  1  'x, y, z'
loop_
 _atom_site_type_symbol
 _atom_site_label
 _atom_site_symmetry_multiplicity
 _atom_site_fract_x
 _atom_site_fract_y
 _atom_site_fract_z
 _atom_site_occupancy
  Li  Li0  1  0.14697000  0.05077400  0.33817400  1
  Li  Li1  1  0.65047100  0.55227700  0.33374000  1
  Li  Li2  1  0.12995500  0.72886600  0.83022100  1
  Li  Li3  1  0.63703500  0.22718800  0.82903300  1
  Co  Co4  1  0.94875500  0.99505600  0.00453300  1
  Co  Co5  1  0.64365500  0.10512300  0.50096800  1
  Co  Co6  1  0.44870900  0.49362400  0.00452800  1
  Co  Co7  1  0.13919200  0.59316400  0.50421000  1
  C  C8  1  0.62887700  0.06147200  0.22319300  1
  C  C9  1  0.12696900  0.56128900  0.21673600  1
  C  C10  1  0.90024400  0.97100500  0.71595500  1
  C  C11  1  0.40861600  0.46940900  0.71612600  1
  C  C12  1  0.41675900  0.30465000  0.29813800  1
  C  C13  1  0.91640300  0.80545600  0.29783800  1
  C  C14  1  0.38060500  0.99515700  0.79376300  1
  C  C15  1  0.88373300  0.49519400  0.79783100  1
  O  O16  1  0.73103700  0.08728500  0.06093400  1
  O  O17  1  0.22659000  0.58364600  0.05592300  1
  O  O18  1  0.88602900  0.03399900  0.55363000  1
  O  O19  1  0.38875400  0.53050000  0.55570800  1
  O  O20  1  0.01542600  0.94381500  0.23639900  1
  O  O21  1  0.51470400  0.44346000  0.23635400  1
  O  O22  1  0.55063800  0.11535300  0.71134300  1
  O  O23  1  0.04658000  0.61524800  0.72232300  1
  O  O24  1  0.30899900  0.27830200  0.20583800  1
  O  O25  1  0.81009300  0.77983400  0.20388300  1
  O  O26  1  0.37603800  0.91575100  0.72088000  1
  O  O27  1  0.88829900  0.41836000  0.71775100  1
  O  O28  1  0.43165100  0.98454900  0.30715400  1
  O  O29  1  0.92941800  0.48361900  0.30222300  1
  O  O30  1  0.89339800  0.83503100  0.79755300  1
  O  O31  1  0.39946500  0.33306500  0.79872900  1
  O  O32  1  0.75432100  0.12454100  0.27886000  1
  O  O33  1  0.24954200  0.62675400  0.27109500  1
  O  O34  1  0.92981900  0.06217300  0.77560100  1
  O  O35  1  0.43939900  0.56202400  0.77260700  1
  O  O36  1  0.41454000  0.19555700  0.44389800  1
  O  O37  1  0.91556700  0.69628400  0.44219400  1
  O  O38  1  0.23741500  0.96398800  0.93869600  1
  O  O39  1  0.73023500  0.45205700  0.94284700  1
