# generated using pymatgen
data_Li3Fe2(SiO4)2
_symmetry_space_group_name_H-M   'P 1'
_cell_length_a   6.44731574
_cell_length_b   7.35517112
_cell_length_c   7.61588823
_cell_angle_alpha   90.02139486
_cell_angle_beta   90.86068248
_cell_angle_gamma   89.97929588
_symmetry_Int_Tables_number   1
_chemical_formula_structural   Li3Fe2(SiO4)2
_chemical_formula_sum   'Li6 Fe4 Si4 O16'
_cell_volume   361.11308273
_cell_formula_units_Z   2
loop_
 _symmetry_equiv_pos_site_id
 _symmetry_equiv_pos_as_xyz
  1  'x, y, z'
loop_
 _atom_site_type_symbol
 _atom_site_label
 _atom_site_symmetry_multiplicity
 _atom_site_fract_x
 _atom_site_fract_y
 _atom_site_fract_z
 _atom_site_occupancy
  Li  Li0  1  0.24904600  0.82053300  0.99534700  1
  Li  Li1  1  0.25125100  0.32071400  0.50443200  1
  Li  Li2  1  0.49943000  0.50078300  0.18980400  1
  Li  Li3  1  0.49951300  0.99813500  0.69620000  1
  Li  Li4  1  0.00049400  0.49849200  0.80369000  1
  Li  Li5  1  0.00049900  0.00062700  0.31039000  1
  Fe  Fe6  1  0.98649700  0.99601500  0.68024100  1
  Fe  Fe7  1  0.50716400  0.99713600  0.31845200  1
  Fe  Fe8  1  0.99288800  0.49737400  0.18140600  1
  Fe  Fe9  1  0.51367700  0.49556600  0.82000600  1
  Si  Si10  1  0.25944300  0.18445800  0.00378200  1
  Si  Si11  1  0.24023900  0.68453400  0.49635300  1
  Si  Si12  1  0.73898200  0.82407500  0.00464000  1
  Si  Si13  1  0.76119200  0.32412600  0.49527000  1
  O  O14  1  0.75753900  0.45136600  0.31597200  1
  O  O15  1  0.74558500  0.94101400  0.82528300  1
  O  O16  1  0.75443700  0.44141600  0.67455900  1
  O  O17  1  0.74244800  0.95150400  0.18388600  1
  O  O18  1  0.23712400  0.53936100  0.32429900  1
  O  O19  1  0.24498500  0.04652000  0.83305800  1
  O  O20  1  0.25510400  0.54666800  0.66697300  1
  O  O21  1  0.26277000  0.03940900  0.17575000  1
  O  O22  1  0.46337700  0.31177200  0.01128900  1
  O  O23  1  0.44795100  0.81601500  0.48693200  1
  O  O24  1  0.05153000  0.31583500  0.01300300  1
  O  O25  1  0.03607800  0.81170600  0.48885200  1
  O  O26  1  0.52562200  0.69975500  0.00945600  1
  O  O27  1  0.54540100  0.19441400  0.48465700  1
  O  O28  1  0.95497800  0.69450900  0.01541300  1
  O  O29  1  0.97475700  0.19991000  0.49060400  1
