# generated using pymatgen
data_Li3MgNi3O8
_symmetry_space_group_name_H-M   'P 1'
_cell_length_a   4.90162756
_cell_length_b   7.66831844
_cell_length_c   7.75033008
_cell_angle_alpha   97.19023835
_cell_angle_beta   101.01013375
_cell_angle_gamma   101.97983100
_symmetry_Int_Tables_number   1
_chemical_formula_structural   Li3MgNi3O8
_chemical_formula_sum   'Li6 Mg2 Ni6 O16'
_cell_volume   275.57272488
_cell_formula_units_Z   2
loop_
 _symmetry_equiv_pos_site_id
 _symmetry_equiv_pos_as_xyz
  1  'x, y, z'
loop_
 _atom_site_type_symbol
 _atom_site_label
 _atom_site_symmetry_multiplicity
 _atom_site_fract_x
 _atom_site_fract_y
 _atom_site_fract_z
 _atom_site_occupancy
  Li  Li0  1  0.99544400  0.88356900  0.61918900  1
  Li  Li1  1  0.99543400  0.38355500  0.11919200  1
  Li  Li2  1  0.50203700  0.50579700  0.99878400  1
  Li  Li3  1  0.50201500  0.00580300  0.49878000  1
  Li  Li4  1  0.50239400  0.73755400  0.76860200  1
  Li  Li5  1  0.50230200  0.23754800  0.26857600  1
  Mg  Mg6  1  0.49885000  0.12610700  0.87498300  1
  Mg  Mg7  1  0.49881700  0.62610300  0.37498800  1
  Ni  Ni8  1  0.99828400  0.75367300  0.24874300  1
  Ni  Ni9  1  0.99829800  0.25369600  0.74875400  1
  Ni  Ni10  1  0.49971000  0.87702400  0.12930900  1
  Ni  Ni11  1  0.49975600  0.37702500  0.62931400  1
  Ni  Ni12  1  0.99777000  0.00218400  0.00310600  1
  Ni  Ni13  1  0.99778100  0.50219900  0.50310200  1
  O  O14  1  0.20792900  0.24403000  0.97929900  1
  O  O15  1  0.20779300  0.74400600  0.47925700  1
  O  O16  1  0.77353100  0.52045300  0.24731200  1
  O  O17  1  0.77362400  0.02041900  0.74735300  1
  O  O18  1  0.25797400  0.15406500  0.64248800  1
  O  O19  1  0.25785600  0.65404800  0.14244900  1
  O  O20  1  0.74165500  0.86399500  0.34780100  1
  O  O21  1  0.74165500  0.36400500  0.84781500  1
  O  O22  1  0.75924500  0.77180400  0.02685900  1
  O  O23  1  0.75922300  0.27181500  0.52685000  1
  O  O24  1  0.25371000  0.47802700  0.74284500  1
  O  O25  1  0.25367100  0.97797700  0.24270600  1
  O  O26  1  0.26279600  0.38966600  0.40767100  1
  O  O27  1  0.26282100  0.88967400  0.90767700  1
  O  O28  1  0.73430300  0.10245800  0.11161600  1
  O  O29  1  0.73424200  0.60257400  0.61161600  1
