# generated using pymatgen
data_Li6Zn3(PS4)4
_symmetry_space_group_name_H-M   'P 1'
_cell_length_a   9.28960200
_cell_length_b   11.59157600
_cell_length_c   11.59637537
_cell_angle_alpha   89.92715725
_cell_angle_beta   90.00000000
_cell_angle_gamma   90.00000000
_symmetry_Int_Tables_number   1
_chemical_formula_structural   Li6Zn3(PS4)4
_chemical_formula_sum   'Li12 Zn6 P8 S32'
_cell_volume   1248.70976686
_cell_formula_units_Z   2
loop_
 _symmetry_equiv_pos_site_id
 _symmetry_equiv_pos_as_xyz
  1  'x, y, z'
loop_
 _atom_site_type_symbol
 _atom_site_label
 _atom_site_symmetry_multiplicity
 _atom_site_fract_x
 _atom_site_fract_y
 _atom_site_fract_z
 _atom_site_occupancy
  Li  Li0  1  0.75142500  0.37774800  0.88012800  1
  Li  Li1  1  0.25142500  0.62225200  0.11987200  1
  Li  Li2  1  0.50046200  0.12341700  0.87566300  1
  Li  Li3  1  0.49841700  0.12614000  0.37343900  1
  Li  Li4  1  0.49862800  0.62664400  0.87341600  1
  Li  Li5  1  0.50257500  0.62315700  0.37719800  1
  Li  Li6  1  0.99841700  0.87386000  0.62656100  1
  Li  Li7  1  0.00046200  0.87658300  0.12433700  1
  Li  Li8  1  0.00257500  0.37684300  0.62280200  1
  Li  Li9  1  0.99862800  0.37335600  0.12658400  1
  Li  Li10  1  0.00031800  0.62659600  0.87278400  1
  Li  Li11  1  0.50031800  0.37340400  0.12721600  1
  Zn  Zn12  1  0.00657900  0.12345500  0.87771600  1
  Zn  Zn13  1  0.00002100  0.12649100  0.37404300  1
  Zn  Zn14  1  0.99394800  0.62540700  0.37644200  1
  Zn  Zn15  1  0.50002100  0.87350900  0.62595700  1
  Zn  Zn16  1  0.50657900  0.87654500  0.12228400  1
  Zn  Zn17  1  0.49394800  0.37459300  0.62355800  1
  P  P18  1  0.74736600  0.12575600  0.62482800  1
  P  P19  1  0.75332800  0.12444400  0.12036100  1
  P  P20  1  0.75239200  0.62893200  0.62506800  1
  P  P21  1  0.74672400  0.62116800  0.12906200  1
  P  P22  1  0.25332800  0.87555600  0.87963900  1
  P  P23  1  0.24736600  0.87424400  0.37517200  1
  P  P24  1  0.24672400  0.37883200  0.87093800  1
  P  P25  1  0.25239200  0.37106800  0.37493200  1
  S  S26  1  0.86231700  0.73073700  0.73387900  1
  S  S27  1  0.87094800  0.72871100  0.23220300  1
  S  S28  1  0.87004400  0.22877100  0.73624200  1
  S  S29  1  0.86473800  0.22858200  0.23408500  1
  S  S30  1  0.86585900  0.02308100  0.51566400  1
  S  S31  1  0.86904300  0.01802600  0.01255700  1
  S  S32  1  0.86139100  0.52048700  0.51369900  1
  S  S33  1  0.86954500  0.52091300  0.01906900  1
  S  S34  1  0.13718500  0.98442900  0.77326900  1
  S  S35  1  0.13451900  0.98563800  0.27076000  1
  S  S36  1  0.12854900  0.48222100  0.76795200  1
  S  S37  1  0.13092500  0.48584100  0.27200000  1
  S  S38  1  0.13510900  0.76232200  0.47933700  1
  S  S39  1  0.13338300  0.76722400  0.98138900  1
  S  S40  1  0.12905700  0.26619600  0.47952200  1
  S  S41  1  0.13520700  0.26618800  0.97890300  1
  S  S42  1  0.36585900  0.97691900  0.48433600  1
  S  S43  1  0.36904300  0.98197400  0.98744300  1
  S  S44  1  0.36139100  0.47951300  0.48630100  1
  S  S45  1  0.36954500  0.47908700  0.98093100  1
  S  S46  1  0.36473800  0.77141800  0.76591500  1
  S  S47  1  0.37004400  0.77122900  0.26375800  1
  S  S48  1  0.37094800  0.27128900  0.76779700  1
  S  S49  1  0.36231700  0.26926300  0.26612100  1
  S  S50  1  0.62905700  0.73380400  0.52047800  1
  S  S51  1  0.63520700  0.73381200  0.02109700  1
  S  S52  1  0.63510900  0.23767800  0.52066300  1
  S  S53  1  0.63338300  0.23277600  0.01861100  1
  S  S54  1  0.63451900  0.01436200  0.72924000  1
  S  S55  1  0.63718500  0.01557100  0.22673100  1
  S  S56  1  0.63092500  0.51415900  0.72800000  1
  S  S57  1  0.62854900  0.51777900  0.23204800  1
