# generated using pymatgen
data_Li3RuN2
_symmetry_space_group_name_H-M   'P 1'
_cell_length_a   8.78638414
_cell_length_b   6.21717351
_cell_length_c   15.21498401
_cell_angle_alpha   90.00000145
_cell_angle_beta   149.97730683
_cell_angle_gamma   110.71966624
_symmetry_Int_Tables_number   1
_chemical_formula_structural   Li3RuN2
_chemical_formula_sum   'Li12 Ru4 N8'
_cell_volume   294.05424340
_cell_formula_units_Z   4
loop_
 _symmetry_equiv_pos_site_id
 _symmetry_equiv_pos_as_xyz
  1  'x, y, z'
loop_
 _atom_site_type_symbol
 _atom_site_label
 _atom_site_symmetry_multiplicity
 _atom_site_fract_x
 _atom_site_fract_y
 _atom_site_fract_z
 _atom_site_occupancy
  Li  Li0  1  0.00000000  0.50000000  0.35674506  1
  Li  Li1  1  1.00000000  1.00000000  0.89325494  1
  Li  Li2  1  1.00000000  0.50000000  0.14325494  1
  Li  Li3  1  0.00000000  0.00000000  0.10674506  1
  Li  Li4  1  0.59385696  0.50000000  0.54692848  1
  Li  Li5  1  0.40614304  0.50000000  0.95307152  1
  Li  Li6  1  0.59385696  -0.00000000  0.29692848  1
  Li  Li7  1  0.40614304  0.00000000  0.70307152  1
  Li  Li8  1  0.40614304  0.90614304  0.95307152  1
  Li  Li9  1  0.59385696  0.09385696  0.54692848  1
  Li  Li10  1  0.40614304  0.40614304  0.70307152  1
  Li  Li11  1  0.59385696  0.59385696  0.29692848  1
  Ru  Ru12  1  1.00000000  0.50000000  0.89043365  1
  Ru  Ru13  1  0.00000000  0.00000000  0.35956635  1
  Ru  Ru14  1  0.00000000  0.50000000  0.60956635  1
  Ru  Ru15  1  1.00000000  1.00000000  0.64043365  1
  N  N16  1  0.21251232  0.60625566  0.59056179  1
  N  N17  1  0.78748768  0.39374434  0.37805047  1
  N  N18  1  0.21251232  0.10625566  0.87194953  1
  N  N19  1  0.78748768  0.89374434  0.65943821  1
  N  N20  1  0.00000000  0.39374434  0.01569387  1
  N  N21  1  0.00000000  0.60625566  0.01569387  1
  N  N22  1  1.00000000  0.89374434  0.23430613  1
  N  N23  1  1.00000000  0.10625566  0.23430613  1
