# generated using pymatgen
data_Li4TiCo5O12
_symmetry_space_group_name_H-M   'P 1'
_cell_length_a   4.97350534
_cell_length_b   10.87360907
_cell_length_c   8.56676547
_cell_angle_alpha   113.11026435
_cell_angle_beta   89.98583742
_cell_angle_gamma   84.15746033
_symmetry_Int_Tables_number   1
_chemical_formula_structural   Li4TiCo5O12
_chemical_formula_sum   'Li8 Ti2 Co10 O24'
_cell_volume   423.48893295
_cell_formula_units_Z   2
loop_
 _symmetry_equiv_pos_site_id
 _symmetry_equiv_pos_as_xyz
  1  'x, y, z'
loop_
 _atom_site_type_symbol
 _atom_site_label
 _atom_site_symmetry_multiplicity
 _atom_site_fract_x
 _atom_site_fract_y
 _atom_site_fract_z
 _atom_site_occupancy
  Li  Li0  1  0.00442100  0.74052300  0.18743800  1
  Li  Li1  1  0.55512700  0.74877400  0.70096300  1
  Li  Li2  1  0.44285500  0.25152200  0.95395600  1
  Li  Li3  1  0.99581300  0.25902100  0.45158200  1
  Li  Li4  1  0.50465700  0.74004200  0.04543100  1
  Li  Li5  1  0.05563700  0.74799100  0.54179700  1
  Li  Li6  1  0.94233800  0.25223100  0.79485600  1
  Li  Li7  1  0.49571500  0.25925100  0.30480000  1
  Ti  Ti8  1  0.00244400  0.00054400  0.00056600  1
  Ti  Ti9  1  0.50293600  0.00039800  0.49986300  1
  Co  Co10  1  0.74335600  0.49418000  0.08170100  1
  Co  Co11  1  0.25227600  0.50554400  0.58734700  1
  Co  Co12  1  0.00258500  0.00028800  0.66834100  1
  Co  Co13  1  0.50209400  0.99985200  0.16606300  1
  Co  Co14  1  0.00217900  0.99978100  0.33450800  1
  Co  Co15  1  0.24787600  0.50049700  0.25180900  1
  Co  Co16  1  0.74758200  0.49911100  0.75101300  1
  Co  Co17  1  0.24356100  0.49273900  0.91336600  1
  Co  Co18  1  0.75218200  0.50690700  0.42049600  1
  Co  Co19  1  0.50245900  0.00022800  0.83274400  1
  O  O20  1  0.39976400  0.59779300  0.80778300  1
  O  O21  1  0.90000300  0.59874800  0.29583700  1
  O  O22  1  0.59586500  0.40184400  0.21004900  1
  O  O23  1  0.09564000  0.40080200  0.69723800  1
  O  O24  1  0.82469300  0.10525900  0.55377500  1
  O  O25  1  0.32454900  0.10525000  0.05186900  1
  O  O26  1  0.18010000  0.89574200  0.44945600  1
  O  O27  1  0.67985800  0.89544200  0.94738900  1
  O  O28  1  0.30648900  0.10545500  0.72295600  1
  O  O29  1  0.83754000  0.11240000  0.22784400  1
  O  O30  1  0.16718100  0.88745100  0.11528800  1
  O  O31  1  0.69842200  0.89497100  0.61807500  1
  O  O32  1  0.80622900  0.10582200  0.88301600  1
  O  O33  1  0.33751000  0.11275700  0.38501100  1
  O  O34  1  0.66730100  0.88718600  0.27278600  1
  O  O35  1  0.19854800  0.89471400  0.77767500  1
  O  O36  1  0.09292800  0.38951500  0.01255100  1
  O  O37  1  0.61279900  0.40307600  0.52736000  1
  O  O38  1  0.58765600  0.38903500  0.87632100  1
  O  O39  1  0.10841200  0.40387100  0.37528100  1
  O  O40  1  0.38264400  0.59662600  0.12371300  1
  O  O41  1  0.90274200  0.61022500  0.62254700  1
  O  O42  1  0.88699500  0.59587300  0.97074200  1
  O  O43  1  0.40804200  0.61072000  0.48679500  1
