# generated using pymatgen
data_Li9Mn2Co5O16
_symmetry_space_group_name_H-M   'P 1'
_cell_length_a   5.88566700
_cell_length_b   6.65755353
_cell_length_c   7.69522873
_cell_angle_alpha   90.65028282
_cell_angle_beta   101.37104415
_cell_angle_gamma   103.25336092
_symmetry_Int_Tables_number   1
_chemical_formula_structural   Li9Mn2Co5O16
_chemical_formula_sum   'Li9 Mn2 Co5 O16'
_cell_volume   287.23309411
_cell_formula_units_Z   1
loop_
 _symmetry_equiv_pos_site_id
 _symmetry_equiv_pos_as_xyz
  1  'x, y, z'
loop_
 _atom_site_type_symbol
 _atom_site_label
 _atom_site_symmetry_multiplicity
 _atom_site_fract_x
 _atom_site_fract_y
 _atom_site_fract_z
 _atom_site_occupancy
  Li  Li0  1  0.87051600  0.37697400  0.12390700  1
  Li  Li1  1  0.49958400  0.99383600  0.00045300  1
  Li  Li2  1  0.25077900  0.74954800  0.24805200  1
  Li  Li3  1  0.62223800  0.12533000  0.37466200  1
  Li  Li4  1  0.00051100  0.50560400  0.49774800  1
  Li  Li5  1  0.37569600  0.86872000  0.62708100  1
  Li  Li6  1  0.74618200  0.25149100  0.75171600  1
  Li  Li7  1  0.13063400  0.62631600  0.87561700  1
  Li  Li8  1  0.62464600  0.62706300  0.87535700  1
  Mn  Mn9  1  0.99901600  0.99571400  0.00001500  1
  Mn  Mn10  1  0.87303000  0.87081500  0.62717400  1
  Co  Co11  1  0.26334100  0.25975300  0.75630400  1
  Co  Co12  1  0.50024400  0.50466700  0.50748000  1
  Co  Co13  1  0.13071900  0.12568700  0.37763300  1
  Co  Co14  1  0.73625800  0.74499200  0.23505300  1
  Co  Co15  1  0.37364000  0.37463300  0.12418400  1
  O  O16  1  0.83358200  0.05724000  0.18053300  1
  O  O17  1  0.45135000  0.69257400  0.07252000  1
  O  O18  1  0.20288300  0.42439000  0.30223500  1
  O  O19  1  0.58168100  0.81243700  0.45223400  1
  O  O20  1  0.95252300  0.16630100  0.57138000  1
  O  O21  1  0.31437000  0.54625400  0.67580300  1
  O  O22  1  0.71920000  0.94306500  0.81234600  1
  O  O23  1  0.07540100  0.29560800  0.94930600  1
  O  O24  1  0.94313300  0.71557200  0.06242600  1
  O  O25  1  0.53475300  0.30943800  0.94039400  1
  O  O26  1  0.28826600  0.05884600  0.18048000  1
  O  O27  1  0.66346700  0.44150400  0.30606500  1
  O  O28  1  0.03829100  0.81991900  0.44223900  1
  O  O29  1  0.42846900  0.19386800  0.55858900  1
  O  O30  1  0.81375900  0.58445300  0.67722100  1
  O  O31  1  0.16183400  0.93739600  0.81378600  1
