# generated using pymatgen
data_Li4Co3O7
_symmetry_space_group_name_H-M   'P 1'
_cell_length_a   2.89909461
_cell_length_b   34.64665740
_cell_length_c   2.92414650
_cell_angle_alpha   85.60973720
_cell_angle_beta   119.71699654
_cell_angle_gamma   89.99999946
_symmetry_Int_Tables_number   1
_chemical_formula_structural   Li4Co3O7
_chemical_formula_sum   'Li8 Co6 O14'
_cell_volume   254.09220260
_cell_formula_units_Z   2
loop_
 _symmetry_equiv_pos_site_id
 _symmetry_equiv_pos_as_xyz
  1  'x, y, z'
loop_
 _atom_site_type_symbol
 _atom_site_label
 _atom_site_symmetry_multiplicity
 _atom_site_fract_x
 _atom_site_fract_y
 _atom_site_fract_z
 _atom_site_occupancy
  Li  Li0  1  0.28718033  0.07264236  0.57436165  1
  Li  Li1  1  0.85567667  0.21307264  0.71135335  1
  Li  Li2  1  0.42889605  0.35724492  0.85779310  1
  Li  Li3  1  0.00003414  0.49996975  0.00006828  1
  Li  Li4  1  0.57142900  0.64285700  0.14285700  1
  Li  Li5  1  0.14282286  0.78574425  0.28564572  1
  Li  Li6  1  0.71396095  0.92846908  0.42792090  1
  Li  Li7  1  0.57142900  0.14285700  0.14285700  1
  Co  Co8  1  0.00080888  0.99952112  0.00161775  1
  Co  Co9  1  0.14204812  0.28619288  0.28409625  1
  Co  Co10  1  0.71423100  0.42860337  0.42846099  1
  Co  Co11  1  0.28569950  0.57142628  0.57140000  1
  Co  Co12  1  0.85715750  0.71428872  0.71431500  1
  Co  Co13  1  0.42862600  0.85711063  0.85725301  1
  O  O14  1  0.64674995  0.03122891  0.29349890  1
  O  O15  1  0.21132648  0.17936335  0.42265396  1
  O  O16  1  0.78710423  0.31937846  0.57420845  1
  O  O17  1  0.35614412  0.46142754  0.71228924  1
  O  O18  1  0.93264624  0.60418530  0.86529248  1
  O  O19  1  0.50430386  0.74705388  0.00860671  1
  O  O20  1  0.07059010  0.88979385  0.14118020  1
  O  O21  1  0.93153052  0.10635165  0.86306104  1
  O  O22  1  0.49610705  0.25448509  0.99221510  1
  O  O23  1  0.07226690  0.39592015  0.14453380  1
  O  O24  1  0.63855414  0.53866012  0.27710729  1
  O  O25  1  0.21021076  0.68152870  0.42042152  1
  O  O26  1  0.78671288  0.82428646  0.57342476  1
  O  O27  1  0.35575277  0.96633654  0.71150655  1
