# generated using pymatgen
data_Li5Fe4(Si3O10)2
_symmetry_space_group_name_H-M   'P 1'
_cell_length_a   5.43148300
_cell_length_b   5.44587638
_cell_length_c   16.92860704
_cell_angle_alpha   90.20326968
_cell_angle_beta   94.82951821
_cell_angle_gamma   119.44582550
_symmetry_Int_Tables_number   1
_chemical_formula_structural   Li5Fe4(Si3O10)2
_chemical_formula_sum   'Li5 Fe4 Si6 O20'
_cell_volume   433.91882780
_cell_formula_units_Z   1
loop_
 _symmetry_equiv_pos_site_id
 _symmetry_equiv_pos_as_xyz
  1  'x, y, z'
loop_
 _atom_site_type_symbol
 _atom_site_label
 _atom_site_symmetry_multiplicity
 _atom_site_fract_x
 _atom_site_fract_y
 _atom_site_fract_z
 _atom_site_occupancy
  Li  Li0  1  0.61663800  0.43401400  0.76955400  1
  Li  Li1  1  0.49982800  0.33285200  0.44255900  1
  Li  Li2  1  0.49123200  0.66671800  0.55292300  1
  Li  Li3  1  0.39113700  0.57935100  0.24710400  1
  Li  Li4  1  0.50170100  0.84662400  0.04752100  1
  Fe  Fe5  1  0.18038900  0.00326700  0.57956800  1
  Fe  Fe6  1  0.19238100  0.17831500  0.08149300  1
  Fe  Fe7  1  0.81466000  0.81182000  0.91242200  1
  Fe  Fe8  1  0.79743100  0.00096000  0.41036100  1
  Si  Si9  1  0.00458800  0.13663300  0.74920500  1
  Si  Si10  1  0.84800000  0.33143300  0.60227800  1
  Si  Si11  1  0.15693900  0.46315600  0.90180700  1
  Si  Si12  1  0.85669900  0.51826400  0.09731600  1
  Si  Si13  1  0.14683000  0.68041200  0.40476400  1
  Si  Si14  1  0.99758700  0.86316800  0.24901400  1
  O  O15  1  0.20923900  0.10215300  0.69132800  1
  O  O16  1  0.18771200  0.13470500  0.19696600  1
  O  O17  1  0.82286300  0.27181200  0.69905900  1
  O  O18  1  0.88120800  0.50767300  0.89092900  1
  O  O19  1  0.84727000  0.05654800  0.55963600  1
  O  O20  1  0.08656400  0.18784600  0.95575900  1
  O  O21  1  0.55937400  0.33827300  0.56742700  1
  O  O22  1  0.56523000  0.22723100  0.06617400  1
  O  O23  1  0.84973800  0.38996700  0.40918700  1
  O  O24  1  0.23269700  0.38621200  0.81548700  1
  O  O25  1  0.81819800  0.57669900  0.18895500  1
  O  O26  1  0.13625500  0.62892400  0.59000000  1
  O  O27  1  0.44860200  0.73857200  0.93827500  1
  O  O28  1  0.42280900  0.64730700  0.43585900  1
  O  O29  1  0.87928800  0.79275400  0.04930300  1
  O  O30  1  0.14852600  0.94714200  0.45461700  1
  O  O31  1  0.15789500  0.51659500  0.09251100  1
  O  O32  1  0.20044900  0.78192700  0.31093300  1
  O  O33  1  0.79595400  0.86504200  0.79664900  1
  O  O34  1  0.76097800  0.88371000  0.29481300  1
