# generated using pymatgen
data_Li6MnV3(PO4)6
_symmetry_space_group_name_H-M   'P 1'
_cell_length_a   8.74650600
_cell_length_b   8.54965200
_cell_length_c   14.73718875
_cell_angle_alpha   55.54756090
_cell_angle_beta   90.00000000
_cell_angle_gamma   90.00000000
_symmetry_Int_Tables_number   1
_chemical_formula_structural   Li6MnV3(PO4)6
_chemical_formula_sum   'Li12 Mn2 V6 P12 O48'
_cell_volume   908.73853648
_cell_formula_units_Z   2
loop_
 _symmetry_equiv_pos_site_id
 _symmetry_equiv_pos_as_xyz
  1  'x, y, z'
loop_
 _atom_site_type_symbol
 _atom_site_label
 _atom_site_symmetry_multiplicity
 _atom_site_fract_x
 _atom_site_fract_y
 _atom_site_fract_z
 _atom_site_occupancy
  Li  Li0  1  0.73567500  0.71849000  0.34670300  1
  Li  Li1  1  0.16398400  0.38863300  0.69163800  1
  Li  Li2  1  0.47069300  0.00328400  0.17805400  1
  Li  Li3  1  0.97001100  0.99703000  0.32230100  1
  Li  Li4  1  0.66428800  0.61094800  0.80876600  1
  Li  Li5  1  0.23788500  0.28067600  0.15408300  1
  Li  Li6  1  0.26432500  0.71849000  0.84670300  1
  Li  Li7  1  0.83601600  0.38863300  0.19163800  1
  Li  Li8  1  0.52930700  0.00328400  0.67805400  1
  Li  Li9  1  0.02998900  0.99703000  0.82230100  1
  Li  Li10  1  0.33571200  0.61094800  0.30876600  1
  Li  Li11  1  0.76211500  0.28067600  0.65408300  1
  Mn  Mn12  1  0.72088600  0.64728300  0.60586800  1
  Mn  Mn13  1  0.27911400  0.64728300  0.10586800  1
  V  V14  1  0.22287100  0.34763900  0.89567700  1
  V  V15  1  0.78560400  0.13620500  0.10883600  1
  V  V16  1  0.28553800  0.86519900  0.39070800  1
  V  V17  1  0.21439600  0.13620500  0.60883600  1
  V  V18  1  0.77712900  0.34763900  0.39567700  1
  V  V19  1  0.71446200  0.86519900  0.89070800  1
  P  P20  1  0.99966500  0.55104400  0.49012900  1
  P  P21  1  0.86765500  0.26414800  0.84969700  1
  P  P22  1  0.13960100  0.96886500  0.14673200  1
  P  P23  1  0.36797000  0.73356900  0.65163000  1
  P  P24  1  0.64065900  0.03222900  0.35179200  1
  P  P25  1  0.50179500  0.45052000  0.00868900  1
  P  P26  1  0.00033500  0.55104400  0.99012900  1
  P  P27  1  0.86039900  0.96886500  0.64673200  1
  P  P28  1  0.13234500  0.26414800  0.34969700  1
  P  P29  1  0.35934100  0.03222900  0.85179200  1
  P  P30  1  0.63203000  0.73356900  0.15163000  1
  P  P31  1  0.49820500  0.45052000  0.50868900  1
  O  O32  1  0.35834700  0.15584800  0.89599500  1
  O  O33  1  0.37754300  0.60620700  0.44430000  1
  O  O34  1  0.58203100  0.45275900  0.60047100  1
  O  O35  1  0.67047500  0.86969300  0.18840100  1
  O  O36  1  0.88785600  0.51827300  0.58306300  1
  O  O37  1  0.04483300  0.29216400  0.83159400  1
  O  O38  1  0.83029700  0.16656400  0.97160700  1
  O  O39  1  0.25627100  0.88470700  0.24557100  1
  O  O40  1  0.98070600  0.98751600  0.18714100  1
  O  O41  1  0.07315500  0.75042400  0.43371100  1
  O  O42  1  0.77858100  0.45068500  0.77909300  1
  O  O43  1  0.20041700  0.17450800  0.06188100  1
  O  O44  1  0.70201000  0.82829100  0.43412000  1
  O  O45  1  0.27952300  0.54601500  0.72483300  1
  O  O46  1  0.57442100  0.24950300  0.06483900  1
  O  O47  1  0.47991200  0.01673100  0.31236300  1
  O  O48  1  0.32892600  0.82852500  0.53056200  1
  O  O49  1  0.75573600  0.12128600  0.25170200  1
  O  O50  1  0.54699200  0.70982300  0.66766500  1
  O  O51  1  0.38978100  0.48246200  0.91789000  1
  O  O52  1  0.08579200  0.54378400  0.90111600  1
  O  O53  1  0.17076600  0.12872900  0.31245100  1
  O  O54  1  0.86194700  0.84580900  0.60236100  1
  O  O55  1  0.88081500  0.39393000  0.05596600  1
  O  O56  1  0.62245700  0.60620700  0.94430000  1
  O  O57  1  0.64165300  0.15584800  0.39599500  1
  O  O58  1  0.32952500  0.86969300  0.68840100  1
  O  O59  1  0.41796900  0.45275900  0.10047100  1
  O  O60  1  0.11214400  0.51827300  0.08306300  1
  O  O61  1  0.95516700  0.29216400  0.33159400  1
  O  O62  1  0.74372900  0.88470700  0.74557100  1
  O  O63  1  0.16970300  0.16656400  0.47160700  1
  O  O64  1  0.01929400  0.98751600  0.68714100  1
  O  O65  1  0.92684500  0.75042400  0.93371100  1
  O  O66  1  0.22141900  0.45068500  0.27909300  1
  O  O67  1  0.79958300  0.17450800  0.56188100  1
  O  O68  1  0.29799000  0.82829100  0.93412000  1
  O  O69  1  0.72047700  0.54601500  0.22483300  1
  O  O70  1  0.42557900  0.24950300  0.56483900  1
  O  O71  1  0.52008800  0.01673100  0.81236300  1
  O  O72  1  0.24426400  0.12128600  0.75170200  1
  O  O73  1  0.67107400  0.82852500  0.03056200  1
  O  O74  1  0.45300800  0.70982300  0.16766500  1
  O  O75  1  0.61021900  0.48246200  0.41789000  1
  O  O76  1  0.82923400  0.12872900  0.81245100  1
  O  O77  1  0.91420800  0.54378400  0.40111700  1
  O  O78  1  0.11918500  0.39393000  0.55596600  1
  O  O79  1  0.13805300  0.84580900  0.10236100  1
