# generated using pymatgen
data_Li2GaBi
_symmetry_space_group_name_H-M   'P 1'
_cell_length_a   11.66063360
_cell_length_b   11.66063360
_cell_length_c   11.66063360
_cell_angle_alpha   122.51240573
_cell_angle_beta   119.18606858
_cell_angle_gamma   88.56002828
_symmetry_Int_Tables_number   1
_chemical_formula_structural   Li2GaBi
_chemical_formula_sum   'Li2 Ga1 Bi1'
_cell_volume   1105.14567707
_cell_formula_units_Z   1
loop_
 _symmetry_equiv_pos_site_id
 _symmetry_equiv_pos_as_xyz
  1  'x, y, z'
loop_
 _atom_site_type_symbol
 _atom_site_label
 _atom_site_symmetry_multiplicity
 _atom_site_fract_x
 _atom_site_fract_y
 _atom_site_fract_z
 _atom_site_occupancy
  Li  Li0  1  0.00000000  0.24897400  0.24897400  1
  Li  Li1  1  0.00000000  0.75102600  0.75102600  1
  Ga  Ga2  1  0.00000000  0.00000000  0.00000000  1
  Bi  Bi3  1  0.00000000  0.50000000  0.50000000  1
