# generated using pymatgen
data_Li9Mn2Co5O16
_symmetry_space_group_name_H-M   'P 1'
_cell_length_a   5.90034900
_cell_length_b   6.44838843
_cell_length_c   8.58689040
_cell_angle_alpha   83.10949225
_cell_angle_beta   109.27688438
_cell_angle_gamma   113.79551529
_symmetry_Int_Tables_number   1
_chemical_formula_structural   Li9Mn2Co5O16
_chemical_formula_sum   'Li9 Mn2 Co5 O16'
_cell_volume   282.14511874
_cell_formula_units_Z   1
loop_
 _symmetry_equiv_pos_site_id
 _symmetry_equiv_pos_as_xyz
  1  'x, y, z'
loop_
 _atom_site_type_symbol
 _atom_site_label
 _atom_site_symmetry_multiplicity
 _atom_site_fract_x
 _atom_site_fract_y
 _atom_site_fract_z
 _atom_site_occupancy
  Li  Li0  1  0.74272400  0.74767100  0.24830900  1
  Li  Li1  1  0.26414300  0.00511700  0.49589800  1
  Li  Li2  1  0.25945400  0.75417600  0.25185900  1
  Li  Li3  1  0.73361900  0.00531200  0.49017000  1
  Li  Li4  1  0.74739800  0.25071400  0.74898900  1
  Li  Li5  1  0.25098100  0.24905800  0.75082000  1
  Li  Li6  1  0.25201600  0.49605000  0.00972300  1
  Li  Li7  1  0.75322700  0.49675900  0.00443300  1
  Li  Li8  1  0.50053600  0.24851100  0.25159300  1
  Mn  Mn9  1  0.00803200  0.00503900  0.00074800  1
  Mn  Mn10  1  0.49751300  0.49601200  0.49596100  1
  Co  Co11  1  0.99105300  0.49297600  0.49788300  1
  Co  Co12  1  0.50138100  0.75164300  0.74981700  1
  Co  Co13  1  0.50301600  0.00265700  0.00373600  1
  Co  Co14  1  0.00116700  0.24933700  0.24929700  1
  Co  Co15  1  0.99632600  0.74843300  0.74986300  1
  O  O16  1  0.10498500  0.01053400  0.23637700  1
  O  O17  1  0.61983300  0.26416900  0.50332500  1
  O  O18  1  0.62153000  0.00591900  0.23190400  1
  O  O19  1  0.14669300  0.27569400  0.49298700  1
  O  O20  1  0.10991900  0.51595000  0.73512100  1
  O  O21  1  0.60736800  0.51181400  0.74052400  1
  O  O22  1  0.64582400  0.77856000  0.98864000  1
  O  O23  1  0.10896600  0.75782000  0.98893900  1
  O  O24  1  0.38565600  0.50138300  0.26562900  1
  O  O25  1  0.85252000  0.72082200  0.50950700  1
  O  O26  1  0.89693500  0.48537600  0.26683900  1
  O  O27  1  0.38523700  0.74078400  0.51292900  1
  O  O28  1  0.38480000  0.98315900  0.76439500  1
  O  O29  1  0.88975000  0.98847900  0.75916700  1
  O  O30  1  0.89051000  0.24281200  0.00599600  1
  O  O31  1  0.34688400  0.21726000  0.99862200  1
