# generated using pymatgen
data_Li3Nd2(N3O10)3
_symmetry_space_group_name_H-M   'P 1'
_cell_length_a   13.29426943
_cell_length_b   13.29426943
_cell_length_c   13.29426943
_cell_angle_alpha   90.00000000
_cell_angle_beta   90.00000000
_cell_angle_gamma   90.00000000
_symmetry_Int_Tables_number   1
_chemical_formula_structural   Li3Nd2(N3O10)3
_chemical_formula_sum   'Li12 Nd8 N36 O120'
_cell_volume   2349.59726852
_cell_formula_units_Z   4
loop_
 _symmetry_equiv_pos_site_id
 _symmetry_equiv_pos_as_xyz
  1  'x, y, z'
loop_
 _atom_site_type_symbol
 _atom_site_label
 _atom_site_symmetry_multiplicity
 _atom_site_fract_x
 _atom_site_fract_y
 _atom_site_fract_z
 _atom_site_occupancy
  Li  Li0  1  0.20122004  0.54906072  0.47227838  1
  Li  Li1  1  0.29877996  0.45093928  0.97227838  1
  Li  Li2  1  0.79877996  0.04906072  0.02772162  1
  Li  Li3  1  0.47227838  0.20122004  0.54906072  1
  Li  Li4  1  0.70122004  0.95093928  0.52772162  1
  Li  Li5  1  0.97227838  0.29877996  0.45093928  1
  Li  Li6  1  0.02772162  0.79877996  0.04906072  1
  Li  Li7  1  0.52772162  0.70122004  0.95093928  1
  Li  Li8  1  0.54906072  0.47227838  0.20122004  1
  Li  Li9  1  0.04906072  0.02772162  0.79877996  1
  Li  Li10  1  0.95093928  0.52772162  0.70122004  1
  Li  Li11  1  0.45093928  0.97227838  0.29877996  1
  Nd  Nd12  1  0.21578871  0.21578871  0.21578871  1
  Nd  Nd13  1  0.28421129  0.78421129  0.71578871  1
  Nd  Nd14  1  0.78421129  0.71578871  0.28421129  1
  Nd  Nd15  1  0.71578871  0.28421129  0.78421129  1
  Nd  Nd16  1  0.52853394  0.52853394  0.52853394  1
  Nd  Nd17  1  0.97146606  0.47146606  0.02853394  1
  Nd  Nd18  1  0.47146606  0.02853394  0.97146606  1
  Nd  Nd19  1  0.02853394  0.97146606  0.47146606  1
  N  N20  1  0.10419192  0.17228472  0.54245490  1
  N  N21  1  0.39580808  0.82771528  0.04245490  1
  N  N22  1  0.89580808  0.67228472  0.95754510  1
  N  N23  1  0.54245490  0.10419192  0.17228472  1
  N  N24  1  0.60419192  0.32771528  0.45754510  1
  N  N25  1  0.04245490  0.39580808  0.82771528  1
  N  N26  1  0.95754510  0.89580808  0.67228472  1
  N  N27  1  0.45754510  0.60419192  0.32771528  1
  N  N28  1  0.17228472  0.54245490  0.10419192  1
  N  N29  1  0.67228472  0.95754510  0.89580808  1
  N  N30  1  0.32771528  0.45754510  0.60419192  1
  N  N31  1  0.82771528  0.04245490  0.39580808  1
  N  N32  1  0.00990694  0.25935708  0.12369646  1
  N  N33  1  0.49009306  0.74064292  0.62369646  1
  N  N34  1  0.99009306  0.75935708  0.37630354  1
  N  N35  1  0.12369646  0.00990694  0.25935708  1
  N  N36  1  0.50990694  0.24064292  0.87630354  1
  N  N37  1  0.62369646  0.49009306  0.74064292  1
  N  N38  1  0.37630354  0.99009306  0.75935708  1
  N  N39  1  0.87630354  0.50990694  0.24064292  1
  N  N40  1  0.25935708  0.12369646  0.00990694  1
  N  N41  1  0.75935708  0.37630354  0.99009306  1
  N  N42  1  0.24064292  0.87630354  0.50990694  1
  N  N43  1  0.74064292  0.62369646  0.49009306  1
  N  N44  1  0.13703354  0.37958469  0.35612140  1
  N  N45  1  0.36296646  0.62041531  0.85612140  1
  N  N46  1  0.86296646  0.87958469  0.14387860  1
  N  N47  1  0.35612140  0.13703354  0.37958469  1
  N  N48  1  0.63703354  0.12041531  0.64387860  1
  N  N49  1  0.85612140  0.36296646  0.62041531  1
  N  N50  1  0.14387860  0.86296646  0.87958469  1
  N  N51  1  0.64387860  0.63703354  0.12041531  1
  N  N52  1  0.37958469  0.35612140  0.13703354  1
  N  N53  1  0.87958469  0.14387860  0.86296646  1
  N  N54  1  0.12041531  0.64387860  0.63703354  1
  N  N55  1  0.62041531  0.85612140  0.36296646  1
  O  O56  1  0.09146559  0.55411942  0.15449134  1
  O  O57  1  0.40853441  0.44588058  0.65449134  1
  O  O58  1  0.90853441  0.05411942  0.34550866  1
  O  O59  1  0.15449134  0.09146559  0.55411942  1
  O  O60  1  0.59146559  0.94588058  0.84550866  1
  O  O61  1  0.65449134  0.40853441  0.44588058  1
  O  O62  1  0.34550866  0.90853441  0.05411942  1
  O  O63  1  0.84550866  0.59146559  0.94588058  1
  O  O64  1  0.55411942  0.15449134  0.09146559  1
  O  O65  1  0.05411942  0.34550866  0.90853441  1
  O  O66  1  0.94588058  0.84550866  0.59146559  1
  O  O67  1  0.44588058  0.65449134  0.40853441  1
  O  O68  1  0.13725745  0.25646662  0.56135018  1
  O  O69  1  0.36274255  0.74353338  0.06135018  1
  O  O70  1  0.86274255  0.75646662  0.93864982  1
  O  O71  1  0.56135018  0.13725745  0.25646662  1
  O  O72  1  0.63725745  0.24353338  0.43864982  1
  O  O73  1  0.06135018  0.36274255  0.74353338  1
  O  O74  1  0.93864982  0.86274255  0.75646662  1
  O  O75  1  0.43864982  0.63725745  0.24353338  1
  O  O76  1  0.25646662  0.56135018  0.13725745  1
  O  O77  1  0.75646662  0.93864982  0.86274255  1
  O  O78  1  0.24353338  0.43864982  0.63725745  1
  O  O79  1  0.74353338  0.06135018  0.36274255  1
  O  O80  1  0.08906655  0.29599632  0.34453282  1
  O  O81  1  0.41093345  0.70400368  0.84453282  1
  O  O82  1  0.91093345  0.79599632  0.15546718  1
  O  O83  1  0.34453282  0.08906655  0.29599632  1
  O  O84  1  0.58906655  0.20400368  0.65546718  1
  O  O85  1  0.84453282  0.41093345  0.70400368  1
  O  O86  1  0.15546718  0.91093345  0.79599632  1
  O  O87  1  0.65546718  0.58906655  0.20400368  1
  O  O88  1  0.29599632  0.34453282  0.08906655  1
  O  O89  1  0.79599632  0.15546718  0.91093345  1
  O  O90  1  0.20400368  0.65546718  0.58906655  1
  O  O91  1  0.70400368  0.84453282  0.41093345  1
  O  O92  1  0.01303482  0.16099652  0.50696646  1
  O  O93  1  0.48696518  0.83900348  0.00696646  1
  O  O94  1  0.98696518  0.66099652  0.99303354  1
  O  O95  1  0.50696646  0.01303482  0.16099652  1
  O  O96  1  0.51303482  0.33900348  0.49303354  1
  O  O97  1  0.00696646  0.48696518  0.83900348  1
  O  O98  1  0.99303354  0.98696518  0.66099652  1
  O  O99  1  0.49303354  0.51303482  0.33900348  1
  O  O100  1  0.16099652  0.50696646  0.01303482  1
  O  O101  1  0.66099652  0.99303354  0.98696518  1
  O  O102  1  0.33900348  0.49303354  0.51303482  1
  O  O103  1  0.83900348  0.00696646  0.48696518  1
  O  O104  1  0.20993303  0.64296925  0.34217293  1
  O  O105  1  0.29006697  0.35703075  0.84217293  1
  O  O106  1  0.79006697  0.14296925  0.15782707  1
  O  O107  1  0.34217293  0.20993303  0.64296925  1
  O  O108  1  0.70993303  0.85703075  0.65782707  1
  O  O109  1  0.84217293  0.29006697  0.35703075  1
  O  O110  1  0.15782707  0.79006697  0.14296925  1
  O  O111  1  0.65782707  0.70993303  0.85703075  1
  O  O112  1  0.64296925  0.34217293  0.20993303  1
  O  O113  1  0.14296925  0.15782707  0.79006697  1
  O  O114  1  0.85703075  0.65782707  0.70993303  1
  O  O115  1  0.35703075  0.84217293  0.29006697  1
  O  O116  1  0.07000399  0.77631270  0.42316356  1
  O  O117  1  0.42999601  0.22368730  0.92316356  1
  O  O118  1  0.92999601  0.27631270  0.07683644  1
  O  O119  1  0.42316356  0.07000399  0.77631270  1
  O  O120  1  0.57000399  0.72368730  0.57683644  1
  O  O121  1  0.92316356  0.42999601  0.22368730  1
  O  O122  1  0.07683644  0.92999601  0.27631270  1
  O  O123  1  0.57683644  0.57000399  0.72368730  1
  O  O124  1  0.77631270  0.42316356  0.07000399  1
  O  O125  1  0.27631270  0.07683644  0.92999601  1
  O  O126  1  0.72368730  0.57683644  0.57000399  1
  O  O127  1  0.22368730  0.92316356  0.42999601  1
  O  O128  1  0.02659508  0.17885744  0.16955414  1
  O  O129  1  0.47340492  0.82114256  0.66955414  1
  O  O130  1  0.97340492  0.67885744  0.33044586  1
  O  O131  1  0.16955414  0.02659508  0.17885744  1
  O  O132  1  0.52659508  0.32114256  0.83044586  1
  O  O133  1  0.66955414  0.47340492  0.82114256  1
  O  O134  1  0.33044586  0.97340492  0.67885744  1
  O  O135  1  0.83044586  0.52659508  0.32114256  1
  O  O136  1  0.17885744  0.16955414  0.02659508  1
  O  O137  1  0.67885744  0.33044586  0.97340492  1
  O  O138  1  0.32114256  0.83044586  0.52659508  1
  O  O139  1  0.82114256  0.66955414  0.47340492  1
  O  O140  1  0.21520153  0.39293295  0.30375471  1
  O  O141  1  0.28479847  0.60706705  0.80375471  1
  O  O142  1  0.78479847  0.89293295  0.19624529  1
  O  O143  1  0.30375471  0.21520153  0.39293295  1
  O  O144  1  0.71520153  0.10706705  0.69624529  1
  O  O145  1  0.80375471  0.28479847  0.60706705  1
  O  O146  1  0.19624529  0.78479847  0.89293295  1
  O  O147  1  0.69624529  0.71520153  0.10706705  1
  O  O148  1  0.39293295  0.30375471  0.21520153  1
  O  O149  1  0.89293295  0.19624529  0.78479847  1
  O  O150  1  0.10706705  0.69624529  0.71520153  1
  O  O151  1  0.60706705  0.80375471  0.28479847  1
  O  O152  1  0.07868734  0.32835278  0.12467739  1
  O  O153  1  0.42131266  0.67164722  0.62467739  1
  O  O154  1  0.92131266  0.82835278  0.37532261  1
  O  O155  1  0.12467739  0.07868734  0.32835278  1
  O  O156  1  0.57868734  0.17164722  0.87532261  1
  O  O157  1  0.62467739  0.42131266  0.67164722  1
  O  O158  1  0.37532261  0.92131266  0.82835278  1
  O  O159  1  0.87532261  0.57868734  0.17164722  1
  O  O160  1  0.32835278  0.12467739  0.07868734  1
  O  O161  1  0.82835278  0.37532261  0.92131266  1
  O  O162  1  0.17164722  0.87532261  0.57868734  1
  O  O163  1  0.67164722  0.62467739  0.42131266  1
  O  O164  1  0.10524969  0.44266223  0.41802548  1
  O  O165  1  0.39475031  0.55733777  0.91802548  1
  O  O166  1  0.89475031  0.94266223  0.08197452  1
  O  O167  1  0.41802548  0.10524969  0.44266223  1
  O  O168  1  0.60524969  0.05733777  0.58197452  1
  O  O169  1  0.91802548  0.39475031  0.55733777  1
  O  O170  1  0.08197452  0.89475031  0.94266223  1
  O  O171  1  0.58197452  0.60524969  0.05733777  1
  O  O172  1  0.44266223  0.41802548  0.10524969  1
  O  O173  1  0.94266223  0.08197452  0.89475031  1
  O  O174  1  0.05733777  0.58197452  0.60524969  1
  O  O175  1  0.55733777  0.91802548  0.39475031  1
