# generated using pymatgen
data_Li4MnCo2O7
_symmetry_space_group_name_H-M   'P 1'
_cell_length_a   9.96175949
_cell_length_b   9.96175949
_cell_length_c   9.85175859
_cell_angle_alpha   65.17971300
_cell_angle_beta   65.17971300
_cell_angle_gamma   16.75885004
_symmetry_Int_Tables_number   1
_chemical_formula_structural   Li4MnCo2O7
_chemical_formula_sum   'Li8 Mn2 Co4 O14'
_cell_volume   255.26731939
_cell_formula_units_Z   2
loop_
 _symmetry_equiv_pos_site_id
 _symmetry_equiv_pos_as_xyz
  1  'x, y, z'
loop_
 _atom_site_type_symbol
 _atom_site_label
 _atom_site_symmetry_multiplicity
 _atom_site_fract_x
 _atom_site_fract_y
 _atom_site_fract_z
 _atom_site_occupancy
  Li  Li0  1  0.62726100  0.62726100  0.93117200  1
  Li  Li1  1  0.37273900  0.37273900  0.06882800  1
  Li  Li2  1  0.06374800  0.06374800  0.22106900  1
  Li  Li3  1  0.79117900  0.79117900  0.36299600  1
  Li  Li4  1  0.50000000  0.50000000  0.50000000  1
  Li  Li5  1  0.20882100  0.20882100  0.63700400  1
  Li  Li6  1  0.93625200  0.93625200  0.77893100  1
  Li  Li7  1  0.00000000  0.00000000  0.00000000  1
  Mn  Mn8  1  0.28543700  0.28543700  0.85553900  1
  Mn  Mn9  1  0.71456300  0.71456300  0.14446100  1
  Co  Co10  1  0.43721400  0.43721400  0.26688700  1
  Co  Co11  1  0.14196700  0.14196700  0.43799400  1
  Co  Co12  1  0.85803300  0.85803300  0.56200600  1
  Co  Co13  1  0.56278600  0.56278600  0.73311300  1
  O  O14  1  0.75257700  0.75257700  0.76899300  1
  O  O15  1  0.46854300  0.46854300  0.88060900  1
  O  O16  1  0.18743400  0.18743400  0.03996700  1
  O  O17  1  0.89433600  0.89433600  0.18808200  1
  O  O18  1  0.61902100  0.61902100  0.31162500  1
  O  O19  1  0.32316500  0.32316500  0.47007200  1
  O  O20  1  0.04095200  0.04095200  0.60345000  1
  O  O21  1  0.53145700  0.53145700  0.11939100  1
  O  O22  1  0.24742300  0.24742300  0.23100700  1
  O  O23  1  0.95904800  0.95904800  0.39655000  1
  O  O24  1  0.67683500  0.67683500  0.52992800  1
  O  O25  1  0.38097900  0.38097900  0.68837500  1
  O  O26  1  0.10566400  0.10566400  0.81191800  1
  O  O27  1  0.81256600  0.81256600  0.96003300  1
