# generated using pymatgen
data_Li14Nd5Si11N19O7F2
_symmetry_space_group_name_H-M   'P 1'
_cell_length_a   7.70817900
_cell_length_b   10.08144300
_cell_length_c   17.20127900
_cell_angle_alpha   90.00000000
_cell_angle_beta   90.00000000
_cell_angle_gamma   90.00000000
_symmetry_Int_Tables_number   1
_chemical_formula_structural   Li14Nd5Si11N19O7F2
_chemical_formula_sum   'Li28 Nd10 Si22 N38 O14 F4'
_cell_volume   1336.70394676
_cell_formula_units_Z   2
loop_
 _symmetry_equiv_pos_site_id
 _symmetry_equiv_pos_as_xyz
  1  'x, y, z'
loop_
 _atom_site_type_symbol
 _atom_site_label
 _atom_site_symmetry_multiplicity
 _atom_site_fract_x
 _atom_site_fract_y
 _atom_site_fract_z
 _atom_site_occupancy
  Li  Li0  1  0.24812700  0.37656500  0.88394800  1
  Li  Li1  1  0.24712400  0.37596800  0.61559800  1
  Li  Li2  1  0.75187300  0.37656500  0.88394800  1
  Li  Li3  1  0.75287600  0.37596800  0.61559800  1
  Li  Li4  1  0.25287600  0.62403200  0.11559800  1
  Li  Li5  1  0.25187300  0.62343500  0.38394800  1
  Li  Li6  1  0.74712400  0.62403200  0.11559800  1
  Li  Li7  1  0.74812700  0.62343500  0.38394800  1
  Li  Li8  1  0.50000000  0.45758200  0.01245700  1
  Li  Li9  1  0.50000000  0.45560900  0.48756800  1
  Li  Li10  1  0.00000000  0.54439100  0.98756800  1
  Li  Li11  1  0.00000000  0.54241800  0.51245700  1
  Li  Li12  1  0.50000000  0.52830000  0.85088800  1
  Li  Li13  1  0.50000000  0.52770800  0.64901400  1
  Li  Li14  1  0.00000000  0.47229200  0.14901400  1
  Li  Li15  1  0.00000000  0.47170000  0.35088800  1
  Li  Li16  1  0.50000000  0.75556200  0.06620900  1
  Li  Li17  1  0.50000000  0.75034300  0.43545000  1
  Li  Li18  1  0.00000000  0.24965700  0.93545000  1
  Li  Li19  1  0.00000000  0.24443800  0.56620900  1
  Li  Li20  1  0.16156300  0.00981200  0.82751100  1
  Li  Li21  1  0.15241900  0.01256700  0.67123100  1
  Li  Li22  1  0.83843700  0.00981200  0.82751100  1
  Li  Li23  1  0.84758100  0.01256700  0.67123100  1
  Li  Li24  1  0.34758100  0.98743300  0.17123100  1
  Li  Li25  1  0.33843700  0.99018800  0.32751100  1
  Li  Li26  1  0.65241900  0.98743300  0.17123100  1
  Li  Li27  1  0.66156300  0.99018800  0.32751100  1
  Nd  Nd28  1  0.26123400  0.99758900  0.00477600  1
  Nd  Nd29  1  0.23876600  0.00241100  0.50477600  1
  Nd  Nd30  1  0.73876600  0.99758900  0.00477600  1
  Nd  Nd31  1  0.76123400  0.00241100  0.50477600  1
  Nd  Nd32  1  0.00000000  0.81761200  0.24993200  1
  Nd  Nd33  1  0.50000000  0.18238800  0.74993200  1
  Nd  Nd34  1  0.24138100  0.27229100  0.25000200  1
  Nd  Nd35  1  0.75861900  0.27229100  0.25000200  1
  Nd  Nd36  1  0.25861900  0.72770900  0.75000200  1
  Nd  Nd37  1  0.74138100  0.72770900  0.75000200  1
  Si  Si38  1  0.20530100  0.30291800  0.06391700  1
  Si  Si39  1  0.20527000  0.30281300  0.43588800  1
  Si  Si40  1  0.79469900  0.30291800  0.06391700  1
  Si  Si41  1  0.79473000  0.30281300  0.43588800  1
  Si  Si42  1  0.29473000  0.69718700  0.93588800  1
  Si  Si43  1  0.29469900  0.69708200  0.56391700  1
  Si  Si44  1  0.70527000  0.69718700  0.93588800  1
  Si  Si45  1  0.70530100  0.69708200  0.56391700  1
  Si  Si46  1  0.50000000  0.74129800  0.25016500  1
  Si  Si47  1  0.00000000  0.25870200  0.75016500  1
  Si  Si48  1  0.50000000  0.47844500  0.15770300  1
  Si  Si49  1  0.50000000  0.47832100  0.34221400  1
  Si  Si50  1  0.00000000  0.52167900  0.84221400  1
  Si  Si51  1  0.00000000  0.52155500  0.65770300  1
  Si  Si52  1  0.00000000  0.77106000  0.06712300  1
  Si  Si53  1  0.00000000  0.77134600  0.43253300  1
  Si  Si54  1  0.50000000  0.22865400  0.93253300  1
  Si  Si55  1  0.50000000  0.22894000  0.56712300  1
  Si  Si56  1  0.00000000  0.08206000  0.14849200  1
  Si  Si57  1  0.00000000  0.08206300  0.35177400  1
  Si  Si58  1  0.50000000  0.91793700  0.85177400  1
  Si  Si59  1  0.50000000  0.91794000  0.64849200  1
  N  N60  1  0.30730800  0.84338300  0.87838200  1
  N  N61  1  0.30815700  0.84252200  0.62197700  1
  N  N62  1  0.69269200  0.84338300  0.87838200  1
  N  N63  1  0.69184300  0.84252200  0.62197700  1
  N  N64  1  0.19184300  0.15747800  0.12197700  1
  N  N65  1  0.19269200  0.15661700  0.37838200  1
  N  N66  1  0.80815700  0.15747800  0.12197700  1
  N  N67  1  0.80730800  0.15661700  0.37838200  1
  N  N68  1  0.31059800  0.42402000  0.11732900  1
  N  N69  1  0.31032000  0.42374900  0.38212100  1
  N  N70  1  0.68940200  0.42402000  0.11732900  1
  N  N71  1  0.68968000  0.42374900  0.38212100  1
  N  N72  1  0.18968000  0.57625100  0.88212100  1
  N  N73  1  0.18940200  0.57598000  0.61732900  1
  N  N74  1  0.81032000  0.57625100  0.88212100  1
  N  N75  1  0.81059800  0.57598000  0.61732900  1
  N  N76  1  0.30634300  0.25407900  0.97867900  1
  N  N77  1  0.30782000  0.25580100  0.52092200  1
  N  N78  1  0.69365700  0.25407900  0.97867900  1
  N  N79  1  0.69218000  0.25580100  0.52092200  1
  N  N80  1  0.19218000  0.74419900  0.02092200  1
  N  N81  1  0.19365700  0.74592100  0.47867900  1
  N  N82  1  0.80782000  0.74419900  0.02092200  1
  N  N83  1  0.80634300  0.74592100  0.47867900  1
  N  N84  1  0.00000000  0.36066900  0.04077900  1
  N  N85  1  0.00000000  0.36053700  0.45871300  1
  N  N86  1  0.50000000  0.63946300  0.95871300  1
  N  N87  1  0.50000000  0.63933100  0.54077900  1
  N  N88  1  0.50000000  0.93369100  0.75008700  1
  N  N89  1  0.00000000  0.06630900  0.25008700  1
  N  N90  1  0.00000000  0.92878600  0.10463500  1
  N  N91  1  0.00000000  0.92821000  0.39462400  1
  N  N92  1  0.50000000  0.07179000  0.89462400  1
  N  N93  1  0.50000000  0.07121400  0.60463500  1
  N  N94  1  0.50000000  0.64704700  0.16625900  1
  N  N95  1  0.50000000  0.64721600  0.33424500  1
  N  N96  1  0.00000000  0.35278400  0.83424500  1
  N  N97  1  0.00000000  0.35295300  0.66625900  1
  O  O98  1  0.32314400  0.84350900  0.25047500  1
  O  O99  1  0.67685600  0.84350900  0.25047500  1
  O  O100  1  0.17685600  0.15649100  0.75047500  1
  O  O101  1  0.82314400  0.15649100  0.75047500  1
  O  O102  1  0.50000000  0.33396600  0.85531700  1
  O  O103  1  0.50000000  0.33346600  0.64475800  1
  O  O104  1  0.00000000  0.66653400  0.14475800  1
  O  O105  1  0.00000000  0.66603400  0.35531700  1
  O  O106  1  0.00000000  0.59147700  0.74989800  1
  O  O107  1  0.50000000  0.40852300  0.24989800  1
  O  O108  1  0.50000000  0.61130900  0.74989900  1
  O  O109  1  0.00000000  0.38869100  0.24989900  1
  O  O110  1  0.50000000  0.95169600  0.07814000  1
  O  O111  1  0.00000000  0.04830400  0.57814000  1
  F  F112  1  0.50000000  0.09355000  0.25114000  1
  F  F113  1  0.00000000  0.90645000  0.75114000  1
  F  F114  1  0.50000000  0.94764300  0.41446600  1
  F  F115  1  0.00000000  0.05235700  0.91446600  1
