# generated using pymatgen
data_Li4MnCo2O7
_symmetry_space_group_name_H-M   'P 1'
_cell_length_a   5.11233042
_cell_length_b   5.11233042
_cell_length_c   18.13743494
_cell_angle_alpha   83.23783354
_cell_angle_beta   83.23783354
_cell_angle_gamma   32.72839591
_symmetry_Int_Tables_number   1
_chemical_formula_structural   Li4MnCo2O7
_chemical_formula_sum   'Li8 Mn2 Co4 O14'
_cell_volume   254.35521218
_cell_formula_units_Z   2
loop_
 _symmetry_equiv_pos_site_id
 _symmetry_equiv_pos_as_xyz
  1  'x, y, z'
loop_
 _atom_site_type_symbol
 _atom_site_label
 _atom_site_symmetry_multiplicity
 _atom_site_fract_x
 _atom_site_fract_y
 _atom_site_fract_z
 _atom_site_occupancy
  Li  Li0  1  0.28397000  0.28397000  0.92560200  1
  Li  Li1  1  0.85748900  0.85748900  0.77551000  1
  Li  Li2  1  0.41628500  0.41628500  0.63096200  1
  Li  Li3  1  0.00939800  0.00939800  0.50746000  1
  Li  Li4  1  0.57019700  0.57019700  0.36311900  1
  Li  Li5  1  0.14965500  0.14965500  0.21675900  1
  Li  Li6  1  0.71372900  0.71372900  0.08309500  1
  Li  Li7  1  0.71431900  0.71431900  0.56826600  1
  Mn  Mn8  1  0.99889500  0.99889500  0.00336100  1
  Mn  Mn9  1  0.56847900  0.56847900  0.85278500  1
  Co  Co10  1  0.13718300  0.13718300  0.69713900  1
  Co  Co11  1  0.29049300  0.29049300  0.43943400  1
  Co  Co12  1  0.85680000  0.85680000  0.28812600  1
  Co  Co13  1  0.43525900  0.43525900  0.14883000  1
  O  O14  1  0.36850100  0.36850100  0.03616800  1
  O  O15  1  0.93920900  0.93920900  0.88539300  1
  O  O16  1  0.51435700  0.51435700  0.75645900  1
  O  O17  1  0.06745900  0.06745900  0.61159800  1
  O  O18  1  0.65592500  0.65592500  0.45792300  1
  O  O19  1  0.23438200  0.23438200  0.31755000  1
  O  O20  1  0.79837600  0.79837600  0.18853700  1
  O  O21  1  0.19666400  0.19666400  0.82800700  1
  O  O22  1  0.77255700  0.77255700  0.68112700  1
  O  O23  1  0.36002900  0.36002900  0.52558600  1
  O  O24  1  0.91296000  0.91296000  0.38288000  1
  O  O25  1  0.48247100  0.48247100  0.25676900  1
  O  O26  1  0.07192700  0.07192700  0.11179000  1
  O  O27  1  0.62303300  0.62303300  0.95976600  1
