# generated using pymatgen
data_Li9Mn2Co5O16
_symmetry_space_group_name_H-M   'P 1'
_cell_length_a   5.81586511
_cell_length_b   5.81586511
_cell_length_c   9.75497347
_cell_angle_alpha   81.28321714
_cell_angle_beta   81.28321714
_cell_angle_gamma   60.21979653
_symmetry_Int_Tables_number   1
_chemical_formula_structural   Li9Mn2Co5O16
_chemical_formula_sum   'Li9 Mn2 Co5 O16'
_cell_volume   281.95125687
_cell_formula_units_Z   1
loop_
 _symmetry_equiv_pos_site_id
 _symmetry_equiv_pos_as_xyz
  1  'x, y, z'
loop_
 _atom_site_type_symbol
 _atom_site_label
 _atom_site_symmetry_multiplicity
 _atom_site_fract_x
 _atom_site_fract_y
 _atom_site_fract_z
 _atom_site_occupancy
  Li  Li0  1  0.13283800  0.62502100  0.24694800  1
  Li  Li1  1  0.86839600  0.37567400  0.75267500  1
  Li  Li2  1  0.62432600  0.13160400  0.24732500  1
  Li  Li3  1  0.12650000  0.12538500  0.24449700  1
  Li  Li4  1  0.87461500  0.87350000  0.75550300  1
  Li  Li5  1  0.62178900  0.62290400  0.24175400  1
  Li  Li6  1  0.37709600  0.37821100  0.75824600  1
  Li  Li7  1  0.37497900  0.86716200  0.75305200  1
  Li  Li8  1  0.50021700  0.49978300  0.00000000  1
  Mn  Mn9  1  0.00026900  0.99973100  0.00000000  1
  Mn  Mn10  1  0.75073700  0.24926300  0.50000000  1
  Co  Co11  1  0.74978500  0.75087100  0.49933700  1
  Co  Co12  1  0.24912900  0.25021500  0.50066300  1
  Co  Co13  1  0.00043100  0.49977300  0.99954500  1
  Co  Co14  1  0.50022700  0.99956900  0.00045500  1
  Co  Co15  1  0.24993400  0.75006600  0.50000000  1
  O  O16  1  0.30595000  0.83315500  0.10989200  1
  O  O17  1  0.05524900  0.55522800  0.61615300  1
  O  O18  1  0.83503900  0.30608100  0.10790200  1
  O  O19  1  0.30243300  0.30341600  0.10325800  1
  O  O20  1  0.04500800  0.07607500  0.61571000  1
  O  O21  1  0.82453100  0.82172000  0.11658100  1
  O  O22  1  0.57411100  0.54694400  0.61835300  1
  O  O23  1  0.57076200  0.07173200  0.61575900  1
  O  O24  1  0.92826800  0.42923800  0.38424100  1
  O  O25  1  0.69391900  0.16496100  0.89209800  1
  O  O26  1  0.44477200  0.94475100  0.38384700  1
  O  O27  1  0.92392500  0.95499200  0.38429000  1
  O  O28  1  0.69658400  0.69756700  0.89674200  1
  O  O29  1  0.45305600  0.42588900  0.38164700  1
  O  O30  1  0.17828000  0.17546900  0.88341900  1
  O  O31  1  0.16684500  0.69405000  0.89010800  1
