# generated using pymatgen
data_LiVGaO4
_symmetry_space_group_name_H-M   'P 1'
_cell_length_a   5.88362439
_cell_length_b   10.28913408
_cell_length_c   6.00272493
_cell_angle_alpha   74.34268189
_cell_angle_beta   119.73598693
_cell_angle_gamma   107.29324864
_symmetry_Int_Tables_number   1
_chemical_formula_structural   LiVGaO4
_chemical_formula_sum   'Li4 V4 Ga4 O16'
_cell_volume   297.97107699
_cell_formula_units_Z   4
loop_
 _symmetry_equiv_pos_site_id
 _symmetry_equiv_pos_as_xyz
  1  'x, y, z'
loop_
 _atom_site_type_symbol
 _atom_site_label
 _atom_site_symmetry_multiplicity
 _atom_site_fract_x
 _atom_site_fract_y
 _atom_site_fract_z
 _atom_site_occupancy
  Li  Li0  1  0.68266800  0.56724300  0.29882300  1
  Li  Li1  1  0.18300500  0.06728900  0.79867800  1
  Li  Li2  1  0.81732200  0.93275200  0.20115700  1
  Li  Li3  1  0.31700900  0.43271800  0.70133500  1
  V  V4  1  0.25013900  0.75001700  0.74995300  1
  V  V5  1  0.25014700  0.24998100  0.25004800  1
  V  V6  1  0.74987700  0.24998300  0.25004000  1
  V  V7  1  0.74980600  0.75002000  0.74994500  1
  Ga  Ga8  1  0.99942400  0.50004000  0.99910800  1
  Ga  Ga9  1  0.50059200  0.99996000  0.50093900  1
  Ga  Ga10  1  0.25002700  0.74999800  0.25006000  1
  Ga  Ga11  1  0.74997300  0.24999300  0.74995400  1
  O  O12  1  0.15514500  0.86230500  0.39761500  1
  O  O13  1  0.65453300  0.36226900  0.89704500  1
  O  O14  1  0.88700200  0.63002800  0.09427600  1
  O  O15  1  0.38714600  0.12986700  0.59492100  1
  O  O16  1  0.61301800  0.86996500  0.40571000  1
  O  O17  1  0.11284600  0.37014500  0.90507600  1
  O  O18  1  0.34483900  0.63769000  0.10238800  1
  O  O19  1  0.84548500  0.13773900  0.60295000  1
  O  O20  1  0.10521300  0.85745000  0.86981500  1
  O  O21  1  0.60535300  0.35748200  0.37019500  1
  O  O22  1  0.90077500  0.63611900  0.64906800  1
  O  O23  1  0.40153600  0.13619400  0.14949600  1
  O  O24  1  0.59917300  0.86385100  0.85089300  1
  O  O25  1  0.09849600  0.36382300  0.35051900  1
  O  O26  1  0.39481500  0.64256300  0.63019300  1
  O  O27  1  0.89463700  0.14251500  0.12980000  1
