# generated using pymatgen
data_Li9Mn2Co5O16
_symmetry_space_group_name_H-M   'P 1'
_cell_length_a   6.59041200
_cell_length_b   6.67152401
_cell_length_c   7.69208159
_cell_angle_alpha   65.11507924
_cell_angle_beta   75.06465994
_cell_angle_gamma   72.19058809
_symmetry_Int_Tables_number   1
_chemical_formula_structural   Li9Mn2Co5O16
_chemical_formula_sum   'Li9 Mn2 Co5 O16'
_cell_volume   288.82499984
_cell_formula_units_Z   1
loop_
 _symmetry_equiv_pos_site_id
 _symmetry_equiv_pos_as_xyz
  1  'x, y, z'
loop_
 _atom_site_type_symbol
 _atom_site_label
 _atom_site_symmetry_multiplicity
 _atom_site_fract_x
 _atom_site_fract_y
 _atom_site_fract_z
 _atom_site_occupancy
  Li  Li0  1  0.69164300  0.30865600  0.55876000  1
  Li  Li1  1  0.93250200  0.05940300  0.31768500  1
  Li  Li2  1  0.30835700  0.69134400  0.44124000  1
  Li  Li3  1  0.56550100  0.42382400  0.19490500  1
  Li  Li4  1  0.18294100  0.81685300  0.06396500  1
  Li  Li5  1  0.81705900  0.18314700  0.93603500  1
  Li  Li6  1  0.43449900  0.57617600  0.80509500  1
  Li  Li7  1  0.06749800  0.94059700  0.68231500  1
  Li  Li8  1  0.50000000  0.00000000  0.50000000  1
  Mn  Mn9  1  0.62277700  0.87742400  0.87197200  1
  Mn  Mn10  1  0.37722300  0.12257600  0.12802800  1
  Co  Co11  1  0.86858700  0.63186800  0.62234400  1
  Co  Co12  1  0.13141300  0.36813200  0.37765600  1
  Co  Co13  1  0.74866100  0.75628800  0.25770000  1
  Co  Co14  1  0.00000000  0.50000000  0.00000000  1
  Co  Co15  1  0.25133900  0.24371200  0.74230000  1
  O  O16  1  0.77424700  0.95573600  0.61400100  1
  O  O17  1  0.02618700  0.70860100  0.34590200  1
  O  O18  1  0.38319400  0.34939800  0.47705200  1
  O  O19  1  0.64110900  0.08910000  0.21079200  1
  O  O20  1  0.28589400  0.43979700  0.09597000  1
  O  O21  1  0.88549400  0.83471300  0.97667800  1
  O  O22  1  0.52668000  0.19274200  0.85647600  1
  O  O23  1  0.13896100  0.58671600  0.72974100  1
  O  O24  1  0.61680600  0.65060200  0.52294800  1
  O  O25  1  0.86103900  0.41328400  0.27025900  1
  O  O26  1  0.22575300  0.04426400  0.38599900  1
  O  O27  1  0.47332000  0.80725800  0.14352400  1
  O  O28  1  0.11450600  0.16528700  0.02332200  1
  O  O29  1  0.71410600  0.56020300  0.90403000  1
  O  O30  1  0.35889100  0.91090000  0.78920800  1
  O  O31  1  0.97381300  0.29139900  0.65409800  1
