# generated using pymatgen
data_KNa2LiTi2MnFe(SiO3)8
_symmetry_space_group_name_H-M   'P 1'
_cell_length_a   10.48244861
_cell_length_b   10.48244861
_cell_length_c   10.14416545
_cell_angle_alpha   69.93350207
_cell_angle_beta   69.93350207
_cell_angle_gamma   74.98875115
_symmetry_Int_Tables_number   1
_chemical_formula_structural   KNa2LiTi2MnFe(SiO3)8
_chemical_formula_sum   'K2 Na4 Li2 Ti4 Mn2 Fe2 Si16 O48'
_cell_volume   970.74421578
_cell_formula_units_Z   2
loop_
 _symmetry_equiv_pos_site_id
 _symmetry_equiv_pos_as_xyz
  1  'x, y, z'
loop_
 _atom_site_type_symbol
 _atom_site_label
 _atom_site_symmetry_multiplicity
 _atom_site_fract_x
 _atom_site_fract_y
 _atom_site_fract_z
 _atom_site_occupancy
  K  K0  1  0.41831100  0.58056500  0.75027100  1
  K  K1  1  0.58056500  0.41831100  0.25027100  1
  Na  Na2  1  0.93681800  0.53759200  0.80239400  1
  Na  Na3  1  0.46380800  0.06505600  0.69116500  1
  Na  Na4  1  0.06505600  0.46380800  0.19116500  1
  Na  Na5  1  0.53759200  0.93681800  0.30239400  1
  Li  Li6  1  0.93591900  0.06815400  0.74549900  1
  Li  Li7  1  0.06815400  0.93591900  0.24549900  1
  Ti  Ti8  1  0.14196700  0.03589800  0.88153900  1
  Ti  Ti9  1  0.03589800  0.14196700  0.38153900  1
  Ti  Ti10  1  0.66428100  0.01946400  0.89625200  1
  Ti  Ti11  1  0.01946400  0.66428100  0.39625200  1
  Mn  Mn12  1  0.96651500  0.85327400  0.61576700  1
  Mn  Mn13  1  0.85327400  0.96651500  0.11576700  1
  Fe  Fe14  1  0.97764900  0.34355400  0.59893200  1
  Fe  Fe15  1  0.34355400  0.97764900  0.09893200  1
  Si  Si16  1  0.26058400  0.44963100  0.55852900  1
  Si  Si17  1  0.55284800  0.73872400  0.94037400  1
  Si  Si18  1  0.73872400  0.55284800  0.44037400  1
  Si  Si19  1  0.44963100  0.26058400  0.05852900  1
  Si  Si20  1  0.25256800  0.95967900  0.57954200  1
  Si  Si21  1  0.04513900  0.74415200  0.91882400  1
  Si  Si22  1  0.74415200  0.04513900  0.41882400  1
  Si  Si23  1  0.95967900  0.25256800  0.07954200  1
  Si  Si24  1  0.70532500  0.75250200  0.60954200  1
  Si  Si25  1  0.24421900  0.29577400  0.88874100  1
  Si  Si26  1  0.29577400  0.24421900  0.38874100  1
  Si  Si27  1  0.75250200  0.70532500  0.10954200  1
  Si  Si28  1  0.70855400  0.24759000  0.58367400  1
  Si  Si29  1  0.74948000  0.29553800  0.91611600  1
  Si  Si30  1  0.29553800  0.74948000  0.41611600  1
  Si  Si31  1  0.24759000  0.70855400  0.08367400  1
  O  O32  1  0.81242400  0.39295000  0.75781200  1
  O  O33  1  0.61059400  0.18167500  0.74728800  1
  O  O34  1  0.18167500  0.61059400  0.24728800  1
  O  O35  1  0.39295000  0.81242400  0.25781200  1
  O  O36  1  0.09488500  0.00725200  0.56672400  1
  O  O37  1  0.01156900  0.90640200  0.92168600  1
  O  O38  1  0.90640200  0.01156900  0.42168600  1
  O  O39  1  0.00725200  0.09488500  0.06672400  1
  O  O40  1  0.87314900  0.21218400  0.56432500  1
  O  O41  1  0.77637400  0.12991600  0.92815000  1
  O  O42  1  0.12991600  0.77637400  0.42815000  1
  O  O43  1  0.21218400  0.87314900  0.06432500  1
  O  O44  1  0.29055000  0.38886200  0.71989500  1
  O  O45  1  0.61063400  0.70953000  0.77921300  1
  O  O46  1  0.70953000  0.61063400  0.27921300  1
  O  O47  1  0.38886200  0.29055000  0.21989500  1
  O  O48  1  0.06139300  0.71548700  0.76930400  1
  O  O49  1  0.27425300  0.94430900  0.73673400  1
  O  O50  1  0.94430900  0.27425300  0.23673400  1
  O  O51  1  0.71548700  0.06139300  0.26930400  1
  O  O52  1  0.10001600  0.48912300  0.56602600  1
  O  O53  1  0.52330600  0.90316800  0.92419100  1
  O  O54  1  0.90316800  0.52330600  0.42419100  1
  O  O55  1  0.48912300  0.10001600  0.06602600  1
  O  O56  1  0.32295200  0.81640000  0.53132600  1
  O  O57  1  0.18415300  0.66725800  0.97636000  1
  O  O58  1  0.66725800  0.18415300  0.47636000  1
  O  O59  1  0.81640000  0.32295200  0.03132600  1
  O  O60  1  0.66128600  0.41701000  0.52521500  1
  O  O61  1  0.58063300  0.34497200  0.97752800  1
  O  O62  1  0.34497200  0.58063300  0.47752800  1
  O  O63  1  0.41701000  0.66128600  0.02521500  1
  O  O64  1  0.65977000  0.91976300  0.54716700  1
  O  O65  1  0.07903300  0.34775400  0.95813400  1
  O  O66  1  0.34775400  0.07903300  0.45813400  1
  O  O67  1  0.91976300  0.65977000  0.04716700  1
  O  O68  1  0.65505000  0.67209100  0.52595400  1
  O  O69  1  0.32816300  0.33866200  0.97399600  1
  O  O70  1  0.33866200  0.32816300  0.47399600  1
  O  O71  1  0.67209100  0.65505000  0.02595400  1
  O  O72  1  0.86910900  0.70892800  0.58999900  1
  O  O73  1  0.27870800  0.13170600  0.90150200  1
  O  O74  1  0.13170600  0.27870800  0.40150200  1
  O  O75  1  0.70892800  0.86910900  0.08999900  1
  O  O76  1  0.07375600  0.17238100  0.75698100  1
  O  O77  1  0.79814000  0.94118600  0.77733000  1
  O  O78  1  0.94118600  0.79814000  0.27733000  1
  O  O79  1  0.17238100  0.07375600  0.25698100  1
