# generated using pymatgen
data_Li4MnCo2O7
_symmetry_space_group_name_H-M   'P 1'
_cell_length_a   7.78503578
_cell_length_b   7.78503578
_cell_length_c   12.82866875
_cell_angle_alpha   61.75082636
_cell_angle_beta   61.75082636
_cell_angle_gamma   21.68063552
_symmetry_Int_Tables_number   1
_chemical_formula_structural   Li4MnCo2O7
_chemical_formula_sum   'Li8 Mn2 Co4 O14'
_cell_volume   251.68227901
_cell_formula_units_Z   2
loop_
 _symmetry_equiv_pos_site_id
 _symmetry_equiv_pos_as_xyz
  1  'x, y, z'
loop_
 _atom_site_type_symbol
 _atom_site_label
 _atom_site_symmetry_multiplicity
 _atom_site_fract_x
 _atom_site_fract_y
 _atom_site_fract_z
 _atom_site_occupancy
  Li  Li0  1  0.07147500  0.07147500  0.64465700  1
  Li  Li1  1  0.35975500  0.35975500  0.20608000  1
  Li  Li2  1  0.64024500  0.64024500  0.79392000  1
  Li  Li3  1  0.50000000  0.50000000  0.50000000  1
  Li  Li4  1  0.79230700  0.79230700  0.06801700  1
  Li  Li5  1  0.92852500  0.92852500  0.35534300  1
  Li  Li6  1  0.20769300  0.20769300  0.93198300  1
  Li  Li7  1  0.00000000  0.00000000  0.00000000  1
  Mn  Mn8  1  0.42998700  0.42998700  0.86354000  1
  Mn  Mn9  1  0.57001300  0.57001300  0.13646000  1
  Co  Co10  1  0.71416100  0.71416100  0.42824700  1
  Co  Co11  1  0.28583900  0.28583900  0.57175300  1
  Co  Co12  1  0.85745200  0.85745200  0.71513300  1
  Co  Co13  1  0.14254800  0.14254800  0.28486700  1
  O  O14  1  0.02446200  0.02446200  0.82391200  1
  O  O15  1  0.31339800  0.31339800  0.39761100  1
  O  O16  1  0.60574900  0.60574900  0.97900400  1
  O  O17  1  0.45531400  0.45531400  0.69067400  1
  O  O18  1  0.74278900  0.74278900  0.25385300  1
  O  O19  1  0.88656100  0.88656100  0.54104700  1
  O  O20  1  0.16447500  0.16447500  0.11448000  1
  O  O21  1  0.11343900  0.11343900  0.45895300  1
  O  O22  1  0.39425100  0.39425100  0.02099600  1
  O  O23  1  0.68660200  0.68660200  0.60238900  1
  O  O24  1  0.54468600  0.54468600  0.30932600  1
  O  O25  1  0.83552500  0.83552500  0.88552000  1
  O  O26  1  0.97553800  0.97553800  0.17608800  1
  O  O27  1  0.25721100  0.25721100  0.74614700  1
