# generated using pymatgen
data_Li9Mn2Co5O16
_symmetry_space_group_name_H-M   'P 1'
_cell_length_a   5.88478700
_cell_length_b   5.90228470
_cell_length_c   8.60551561
_cell_angle_alpha   88.08068010
_cell_angle_beta   70.69459453
_cell_angle_gamma   86.81417941
_symmetry_Int_Tables_number   1
_chemical_formula_structural   Li9Mn2Co5O16
_chemical_formula_sum   'Li9 Mn2 Co5 O16'
_cell_volume   281.62178758
_cell_formula_units_Z   1
loop_
 _symmetry_equiv_pos_site_id
 _symmetry_equiv_pos_as_xyz
  1  'x, y, z'
loop_
 _atom_site_type_symbol
 _atom_site_label
 _atom_site_symmetry_multiplicity
 _atom_site_fract_x
 _atom_site_fract_y
 _atom_site_fract_z
 _atom_site_occupancy
  Li  Li0  1  0.00000000  0.00000000  0.00000000  1
  Li  Li1  1  0.12213300  0.74553200  0.24632600  1
  Li  Li2  1  0.50000000  0.00000000  0.00000000  1
  Li  Li3  1  0.63514500  0.74594600  0.24144000  1
  Li  Li4  1  0.75107100  0.50119600  0.49750800  1
  Li  Li5  1  0.24892900  0.49880400  0.50249200  1
  Li  Li6  1  0.36485500  0.25405400  0.75856000  1
  Li  Li7  1  0.87786700  0.25446800  0.75367400  1
  Li  Li8  1  0.00000000  0.50000000  0.00000000  1
  Mn  Mn9  1  0.87495900  0.74576400  0.75496300  1
  Mn  Mn10  1  0.12504100  0.25423600  0.24503700  1
  Co  Co11  1  0.24803100  0.99788800  0.49930800  1
  Co  Co12  1  0.37124800  0.74306600  0.75089800  1
  Co  Co13  1  0.50000000  0.50000000  0.00000000  1
  Co  Co14  1  0.62875200  0.25693400  0.24910200  1
  Co  Co15  1  0.75196900  0.00211200  0.50069200  1
  O  O16  1  0.75702600  0.75253400  0.98608200  1
  O  O17  1  0.88731700  0.48743600  0.25234500  1
  O  O18  1  0.27999800  0.73320700  0.98111900  1
  O  O19  1  0.36367600  0.47325600  0.24500200  1
  O  O20  1  0.52101900  0.23545600  0.48646500  1
  O  O21  1  0.02265100  0.23649500  0.48809600  1
  O  O22  1  0.11825900  0.97150200  0.74209000  1
  O  O23  1  0.64122000  0.99258400  0.73598000  1
  O  O24  1  0.24297400  0.24746600  0.01391800  1
  O  O25  1  0.35878000  0.00741600  0.26402000  1
  O  O26  1  0.72000200  0.26679300  0.01888100  1
  O  O27  1  0.88174100  0.02849800  0.25791000  1
  O  O28  1  0.97734900  0.76350500  0.51190400  1
  O  O29  1  0.47898100  0.76454400  0.51353500  1
  O  O30  1  0.63632400  0.52674400  0.75499800  1
  O  O31  1  0.11268300  0.51256400  0.74765500  1
