# generated using pymatgen
data_LiFe(GeO3)2
_symmetry_space_group_name_H-M   'P 1'
_cell_length_a   6.72971491
_cell_length_b   6.72971491
_cell_length_c   5.60433104
_cell_angle_alpha   74.88718433
_cell_angle_beta   74.88718433
_cell_angle_gamma   81.15766682
_symmetry_Int_Tables_number   1
_chemical_formula_structural   LiFe(GeO3)2
_chemical_formula_sum   'Li2 Fe2 Ge4 O12'
_cell_volume   235.55866469
_cell_formula_units_Z   2
loop_
 _symmetry_equiv_pos_site_id
 _symmetry_equiv_pos_as_xyz
  1  'x, y, z'
loop_
 _atom_site_type_symbol
 _atom_site_label
 _atom_site_symmetry_multiplicity
 _atom_site_fract_x
 _atom_site_fract_y
 _atom_site_fract_z
 _atom_site_occupancy
  Li  Li0  1  0.28016900  0.71983100  0.75000000  1
  Li  Li1  1  0.71983100  0.28016900  0.25000000  1
  Fe  Fe2  1  0.90632700  0.09367300  0.75000000  1
  Fe  Fe3  1  0.09367300  0.90632700  0.25000000  1
  Ge  Ge4  1  0.80393700  0.61723900  0.74816800  1
  Ge  Ge5  1  0.38276100  0.19606300  0.75183200  1
  Ge  Ge6  1  0.19606300  0.38276100  0.25183200  1
  Ge  Ge7  1  0.61723900  0.80393700  0.24816800  1
  O  O8  1  0.98615300  0.80471600  0.64341200  1
  O  O9  1  0.19528400  0.01384700  0.85658800  1
  O  O10  1  0.01384700  0.19528400  0.35658800  1
  O  O11  1  0.80471600  0.98615300  0.14341200  1
  O  O12  1  0.91809300  0.36513700  0.79499000  1
  O  O13  1  0.63486300  0.08190700  0.70501000  1
  O  O14  1  0.08190700  0.63486300  0.20501000  1
  O  O15  1  0.36513700  0.91809300  0.29499000  1
  O  O16  1  0.61420800  0.65914200  0.56636800  1
  O  O17  1  0.34085800  0.38579200  0.93363200  1
  O  O18  1  0.38579200  0.34085800  0.43363200  1
  O  O19  1  0.65914200  0.61420800  0.06636800  1
