# generated using pymatgen
data_LiCoPO4
_symmetry_space_group_name_H-M   'P 1'
_cell_length_a   4.82148361
_cell_length_b   8.38882148
_cell_length_c   8.49128671
_cell_angle_alpha   99.72020632
_cell_angle_beta   89.86099170
_cell_angle_gamma   73.14874769
_symmetry_Int_Tables_number   1
_chemical_formula_structural   LiCoPO4
_chemical_formula_sum   'Li4 Co4 P4 O16'
_cell_volume   323.49661710
_cell_formula_units_Z   4
loop_
 _symmetry_equiv_pos_site_id
 _symmetry_equiv_pos_as_xyz
  1  'x, y, z'
loop_
 _atom_site_type_symbol
 _atom_site_label
 _atom_site_symmetry_multiplicity
 _atom_site_fract_x
 _atom_site_fract_y
 _atom_site_fract_z
 _atom_site_occupancy
  Li  Li0  1  0.99384200  0.01531000  0.00203700  1
  Li  Li1  1  0.49145700  0.01375200  0.50173500  1
  Li  Li2  1  0.14304200  0.71124500  0.28569000  1
  Li  Li3  1  0.64527800  0.71268600  0.78611600  1
  Co  Co4  1  0.31088600  0.37736200  0.57462000  1
  Co  Co5  1  0.82580600  0.34923300  0.71315800  1
  Co  Co6  1  0.80894100  0.38377400  0.06081400  1
  Co  Co7  1  0.32777800  0.34273900  0.22692600  1
  P  P8  1  0.70504600  0.58916200  0.43046100  1
  P  P9  1  0.20636000  0.59148200  0.93405900  1
  P  P10  1  0.93025400  0.13510400  0.35375600  1
  P  P11  1  0.43183700  0.13732900  0.85733200  1
  O  O12  1  0.02700100  0.94544400  0.32180400  1
  O  O13  1  0.52764300  0.94749500  0.82589600  1
  O  O14  1  0.60894400  0.77896500  0.46163800  1
  O  O15  1  0.10944200  0.78108000  0.96586300  1
  O  O16  1  0.90745700  0.52137100  0.27205900  1
  O  O17  1  0.41204000  0.52537600  0.77589800  1
  O  O18  1  0.19957000  0.20508100  0.37979300  1
  O  O19  1  0.70038000  0.20833700  0.87387400  1
  O  O20  1  0.22939700  0.20505600  0.01568100  1
  O  O21  1  0.72473000  0.20115700  0.51183300  1
  O  O22  1  0.37681700  0.52318400  0.07933100  1
  O  O23  1  0.88280100  0.52341100  0.57570800  1
  O  O24  1  0.43663300  0.51802500  0.41396400  1
  O  O25  1  0.93718600  0.52136100  0.90798700  1
  O  O26  1  0.75985200  0.20344000  0.20848100  1
  O  O27  1  0.25399300  0.20321600  0.71201800  1
