# generated using pymatgen
data_Li4Co5SnO12
_symmetry_space_group_name_H-M   'P 1'
_cell_length_a   5.07252516
_cell_length_b   5.03807126
_cell_length_c   19.82383601
_cell_angle_alpha   91.98006383
_cell_angle_beta   85.19405963
_cell_angle_gamma   120.10979550
_symmetry_Int_Tables_number   1
_chemical_formula_structural   Li4Co5SnO12
_chemical_formula_sum   'Li8 Co10 Sn2 O24'
_cell_volume   436.69614235
_cell_formula_units_Z   2
loop_
 _symmetry_equiv_pos_site_id
 _symmetry_equiv_pos_as_xyz
  1  'x, y, z'
loop_
 _atom_site_type_symbol
 _atom_site_label
 _atom_site_symmetry_multiplicity
 _atom_site_fract_x
 _atom_site_fract_y
 _atom_site_fract_z
 _atom_site_occupancy
  Li  Li0  1  0.20438400  0.32396300  0.37037300  1
  Li  Li1  1  0.70714000  0.33177000  0.87156900  1
  Li  Li2  1  0.61689100  0.32699000  0.12699200  1
  Li  Li3  1  0.12502300  0.33943000  0.63144200  1
  Li  Li4  1  0.87218600  0.65976600  0.37130500  1
  Li  Li5  1  0.37332000  0.66634900  0.87138800  1
  Li  Li6  1  0.28712400  0.66131300  0.12566400  1
  Li  Li7  1  0.79851400  0.66831300  0.63146400  1
  Co  Co8  1  0.25132200  0.00399100  0.24900400  1
  Co  Co9  1  0.08438200  0.66931400  0.75104200  1
  Co  Co10  1  0.41481400  0.33032800  0.75108600  1
  Co  Co11  1  0.33408600  0.66691500  0.99904300  1
  Co  Co12  1  0.66731000  0.33322100  0.99918200  1
  Co  Co13  1  0.75039900  0.00130000  0.75105900  1
  Co  Co14  1  0.58789500  0.67072200  0.24940600  1
  Co  Co15  1  0.92745900  0.33558900  0.24768700  1
  Co  Co16  1  0.83724200  0.67037400  0.50112500  1
  Co  Co17  1  0.16953500  0.33783300  0.50084400  1
  Sn  Sn18  1  0.00068200  0.00009800  0.99921600  1
  Sn  Sn19  1  0.49614100  0.99671400  0.50084300  1
  O  O20  1  0.91965400  0.01418300  0.29999800  1
  O  O21  1  0.40718500  0.00286500  0.80024000  1
  O  O22  1  0.59609700  0.00915900  0.19953300  1
  O  O23  1  0.09652000  0.00661100  0.70189300  1
  O  O24  1  0.33849700  0.99818000  0.05278400  1
  O  O25  1  0.83096800  0.00401800  0.55739300  1
  O  O26  1  0.16680600  0.99440800  0.44311600  1
  O  O27  1  0.66288800  0.00159900  0.94543100  1
  O  O28  1  0.62543700  0.64267300  0.05294400  1
  O  O29  1  0.13414700  0.65342900  0.56041300  1
  O  O30  1  0.51257900  0.64893200  0.44293000  1
  O  O31  1  0.01940500  0.64493900  0.94538400  1
  O  O32  1  0.98154000  0.35497400  0.05279800  1
  O  O33  1  0.48515800  0.34979700  0.55723800  1
  O  O34  1  0.86242100  0.34532700  0.44433300  1
  O  O35  1  0.37587800  0.35771300  0.94546900  1
  O  O36  1  0.27489900  0.32963900  0.19408100  1
  O  O37  1  0.77033300  0.34236500  0.70199700  1
  O  O38  1  0.95667500  0.66134900  0.19665100  1
  O  O39  1  0.43290900  0.65727300  0.70196900  1
  O  O40  1  0.54971600  0.33679600  0.30161400  1
  O  O41  1  0.06989900  0.33902600  0.80017000  1
  O  O42  1  0.20175500  0.65614900  0.30172000  1
  O  O43  1  0.72278500  0.65430700  0.80016700  1
