# generated using pymatgen
data_Li3MnV(PO4)3
_symmetry_space_group_name_H-M   'P 1'
_cell_length_a   8.84991700
_cell_length_b   8.61769000
_cell_length_c   12.28656009
_cell_angle_alpha   86.89441725
_cell_angle_beta   90.00000000
_cell_angle_gamma   90.00000000
_symmetry_Int_Tables_number   1
_chemical_formula_structural   Li3MnV(PO4)3
_chemical_formula_sum   'Li12 Mn4 V4 P12 O48'
_cell_volume   935.66869340
_cell_formula_units_Z   4
loop_
 _symmetry_equiv_pos_site_id
 _symmetry_equiv_pos_as_xyz
  1  'x, y, z'
loop_
 _atom_site_type_symbol
 _atom_site_label
 _atom_site_symmetry_multiplicity
 _atom_site_fract_x
 _atom_site_fract_y
 _atom_site_fract_z
 _atom_site_occupancy
  Li  Li0  1  0.00818500  0.00305200  0.00652000  1
  Li  Li1  1  0.10770800  0.97993900  0.24383900  1
  Li  Li2  1  0.99181500  0.00305200  0.50652000  1
  Li  Li3  1  0.89229200  0.97993900  0.74383900  1
  Li  Li4  1  0.80460200  0.27558700  0.06134700  1
  Li  Li5  1  0.19539800  0.27558700  0.56134700  1
  Li  Li6  1  0.50606100  0.50932900  0.99884800  1
  Li  Li7  1  0.40659700  0.50752500  0.26279500  1
  Li  Li8  1  0.49393900  0.50932900  0.49884800  1
  Li  Li9  1  0.59340300  0.50752500  0.76279500  1
  Li  Li10  1  0.80046700  0.71801800  0.44258700  1
  Li  Li11  1  0.19953300  0.71801800  0.94258700  1
  Mn  Mn12  1  0.00234600  0.71218000  0.14234900  1
  Mn  Mn13  1  0.99765400  0.71218000  0.64234900  1
  Mn  Mn14  1  0.49893000  0.79506200  0.35449800  1
  Mn  Mn15  1  0.50107000  0.79506200  0.85449800  1
  V  V16  1  0.50034600  0.21146600  0.14486800  1
  V  V17  1  0.49965400  0.21146600  0.64486800  1
  V  V18  1  0.99706200  0.28640100  0.35433800  1
  V  V19  1  0.00293800  0.28640100  0.85433800  1
  P  P20  1  0.80511600  0.00415500  0.24907900  1
  P  P21  1  0.19488400  0.00415500  0.74907900  1
  P  P22  1  0.35247900  0.16332700  0.39471200  1
  P  P23  1  0.64752100  0.16332700  0.89471200  1
  P  P24  1  0.15131500  0.35080200  0.09831700  1
  P  P25  1  0.84868500  0.35080200  0.59831700  1
  P  P26  1  0.70962100  0.49688000  0.25012900  1
  P  P27  1  0.29037900  0.49688000  0.75012900  1
  P  P28  1  0.14248700  0.64788400  0.39674700  1
  P  P29  1  0.85751300  0.64788400  0.89674700  1
  P  P30  1  0.35913100  0.83941900  0.10673500  1
  P  P31  1  0.64086900  0.83941900  0.60673500  1
  O  O32  1  0.42421300  0.00288000  0.11194700  1
  O  O33  1  0.57578700  0.00288000  0.61194700  1
  O  O34  1  0.91504500  0.07672000  0.33557600  1
  O  O35  1  0.08495500  0.07672000  0.83557600  1
  O  O36  1  0.70385600  0.13057200  0.19283800  1
  O  O37  1  0.29614400  0.13057200  0.69283800  1
  O  O38  1  0.17376600  0.16635900  0.41015500  1
  O  O39  1  0.82623400  0.16635900  0.91015500  1
  O  O40  1  0.40165500  0.25825800  0.29093700  1
  O  O41  1  0.06081700  0.25319000  0.01534700  1
  O  O42  1  0.40704500  0.25400000  0.49323500  1
  O  O43  1  0.59834500  0.25825800  0.79093700  1
  O  O44  1  0.93918300  0.25319000  0.51534700  1
  O  O45  1  0.09500800  0.27924500  0.21109700  1
  O  O46  1  0.59295500  0.25400000  0.99323500  1
  O  O47  1  0.90499200  0.27924500  0.71109700  1
  O  O48  1  0.32316700  0.32934100  0.08318200  1
  O  O49  1  0.67683300  0.32934100  0.58318200  1
  O  O50  1  0.81270900  0.36753000  0.30714600  1
  O  O51  1  0.18729100  0.36753000  0.80714600  1
  O  O52  1  0.60388800  0.42721600  0.16379800  1
  O  O53  1  0.39611200  0.42721600  0.66379800  1
  O  O54  1  0.08232700  0.47759200  0.39831600  1
  O  O55  1  0.91767300  0.47759200  0.89831600  1
  O  O56  1  0.12054300  0.52429400  0.08403400  1
  O  O57  1  0.87945700  0.52429400  0.58403400  1
  O  O58  1  0.61173000  0.55944700  0.34175300  1
  O  O59  1  0.38827000  0.55944700  0.84175300  1
  O  O60  1  0.81075100  0.61526800  0.19038400  1
  O  O61  1  0.18924900  0.61526800  0.69038400  1
  O  O62  1  0.31398100  0.63157600  0.41173400  1
  O  O63  1  0.68601900  0.63157600  0.91173400  1
  O  O64  1  0.09377900  0.73786900  0.28944300  1
  O  O65  1  0.41039500  0.74568600  0.00911700  1
  O  O66  1  0.90622100  0.73786900  0.78944300  1
  O  O67  1  0.05969000  0.74267000  0.48359700  1
  O  O68  1  0.40053400  0.73835800  0.20942100  1
  O  O69  1  0.58960500  0.74568600  0.50911700  1
  O  O70  1  0.94031000  0.74267000  0.98359700  1
  O  O71  1  0.59946600  0.73835800  0.70942100  1
  O  O72  1  0.18241300  0.86190000  0.09266400  1
  O  O73  1  0.81758700  0.86190000  0.59266400  1
  O  O74  1  0.72086700  0.87550300  0.31349300  1
  O  O75  1  0.27913300  0.87550300  0.81349300  1
  O  O76  1  0.91346300  0.94931300  0.15975400  1
  O  O77  1  0.08653700  0.94931300  0.65975400  1
  O  O78  1  0.39486300  0.99418700  0.39332900  1
  O  O79  1  0.60513700  0.99418700  0.89332900  1
