# generated using pymatgen
data_Li2MnCoO4
_symmetry_space_group_name_H-M   'P 1'
_cell_length_a   5.16364470
_cell_length_b   5.16364470
_cell_length_c   5.16364470
_cell_angle_alpha   132.13761507
_cell_angle_beta   132.13761507
_cell_angle_gamma   70.01176550
_symmetry_Int_Tables_number   1
_chemical_formula_structural   Li2MnCoO4
_chemical_formula_sum   'Li2 Mn1 Co1 O4'
_cell_volume   74.22364832
_cell_formula_units_Z   1
loop_
 _symmetry_equiv_pos_site_id
 _symmetry_equiv_pos_as_xyz
  1  'x, y, z'
loop_
 _atom_site_type_symbol
 _atom_site_label
 _atom_site_symmetry_multiplicity
 _atom_site_fract_x
 _atom_site_fract_y
 _atom_site_fract_z
 _atom_site_occupancy
  Li  Li0  1  0.25000000  0.75000000  0.50000000  1
  Li  Li1  1  0.50000000  0.50000000  0.00000000  1
  Mn  Mn2  1  0.00000000  0.00000000  0.00000000  1
  Co  Co3  1  0.75000000  0.25000000  0.50000000  1
  O  O4  1  0.52031500  0.02031500  0.50000000  1
  O  O5  1  0.22805200  0.22805200  0.00000000  1
  O  O6  1  0.97968500  0.47968500  0.50000000  1
  O  O7  1  0.77194800  0.77194800  0.00000000  1
