# generated using pymatgen
data_Li4NbCo3O8
_symmetry_space_group_name_H-M   'P 1'
_cell_length_a   6.03729816
_cell_length_b   10.44978358
_cell_length_c   6.04178720
_cell_angle_alpha   107.28528096
_cell_angle_beta   59.54645741
_cell_angle_gamma   107.33917379
_symmetry_Int_Tables_number   1
_chemical_formula_structural   Li4NbCo3O8
_chemical_formula_sum   'Li8 Nb2 Co6 O16'
_cell_volume   308.66797318
_cell_formula_units_Z   2
loop_
 _symmetry_equiv_pos_site_id
 _symmetry_equiv_pos_as_xyz
  1  'x, y, z'
loop_
 _atom_site_type_symbol
 _atom_site_label
 _atom_site_symmetry_multiplicity
 _atom_site_fract_x
 _atom_site_fract_y
 _atom_site_fract_z
 _atom_site_occupancy
  Li  Li0  1  0.25554600  0.75073100  0.24830800  1
  Li  Li1  1  0.74447900  0.24927400  0.75166500  1
  Li  Li2  1  0.50001900  0.99999500  0.49997800  1
  Li  Li3  1  0.99993700  0.49999700  0.00004400  1
  Li  Li4  1  0.24996600  0.25321400  0.75397800  1
  Li  Li5  1  0.75003600  0.74676000  0.24597600  1
  Li  Li6  1  0.00000600  0.00000200  0.50000200  1
  Li  Li7  1  0.50001800  0.49999300  0.00000500  1
  Nb  Nb8  1  0.00006300  0.00005700  0.99999800  1
  Nb  Nb9  1  0.49990300  0.49999100  0.50006800  1
  Co  Co10  1  0.75129900  0.75065900  0.74693100  1
  Co  Co11  1  0.24873600  0.24934200  0.25304000  1
  Co  Co12  1  0.99995800  0.50000200  0.49999100  1
  Co  Co13  1  0.50001700  0.99999500  0.00000400  1
  Co  Co14  1  0.25174000  0.75022900  0.74897100  1
  Co  Co15  1  0.74826400  0.24977900  0.25102000  1
  O  O16  1  0.89856400  0.62107800  0.82807500  1
  O  O17  1  0.39375700  0.12172900  0.32617400  1
  O  O18  1  0.60625400  0.87827700  0.67381400  1
  O  O19  1  0.10144800  0.37890600  0.17193300  1
  O  O20  1  0.13786800  0.88776800  0.11878900  1
  O  O21  1  0.61419200  0.38213400  0.62451900  1
  O  O22  1  0.38071100  0.61991800  0.85770800  1
  O  O23  1  0.87884600  0.12004200  0.35761400  1
  O  O24  1  0.64898500  0.87742500  0.12752600  1
  O  O25  1  0.13742600  0.38157600  0.62552700  1
  O  O26  1  0.86216300  0.11223800  0.88117700  1
  O  O27  1  0.38577400  0.61786100  0.37549900  1
  O  O28  1  0.12115700  0.87995400  0.64240500  1
  O  O29  1  0.61924700  0.38009600  0.14235300  1
  O  O30  1  0.35111800  0.12258300  0.87239500  1
  O  O31  1  0.86250200  0.61840200  0.37451500  1
