# generated using pymatgen
data_Li7Mn5O12
_symmetry_space_group_name_H-M   'P 1'
_cell_length_a   6.00441473
_cell_length_b   10.23602725
_cell_length_c   7.79102147
_cell_angle_alpha   106.47668356
_cell_angle_beta   103.91738908
_cell_angle_gamma   92.48325615
_symmetry_Int_Tables_number   1
_chemical_formula_structural   Li7Mn5O12
_chemical_formula_sum   'Li14 Mn10 O24'
_cell_volume   442.49088495
_cell_formula_units_Z   2
loop_
 _symmetry_equiv_pos_site_id
 _symmetry_equiv_pos_as_xyz
  1  'x, y, z'
loop_
 _atom_site_type_symbol
 _atom_site_label
 _atom_site_symmetry_multiplicity
 _atom_site_fract_x
 _atom_site_fract_y
 _atom_site_fract_z
 _atom_site_occupancy
  Li  Li0  1  0.57101200  0.26565300  0.34897600  1
  Li  Li1  1  0.09548200  0.73429700  0.31766700  1
  Li  Li2  1  0.83331700  0.00006100  0.33325700  1
  Li  Li3  1  0.33332300  0.49997000  0.33329100  1
  Li  Li4  1  0.08608700  0.25101700  0.33798200  1
  Li  Li5  1  0.58062500  0.74890100  0.32862400  1
  Li  Li6  1  0.67212500  0.49644500  0.66468500  1
  Li  Li7  1  0.16911600  0.99925400  0.66357500  1
  Li  Li8  1  0.49762700  0.00075000  0.00294900  1
  Li  Li9  1  0.99443600  0.50378500  0.00226900  1
  Li  Li10  1  0.91799600  0.25843900  0.67023400  1
  Li  Li11  1  0.43008500  0.73577700  0.64582700  1
  Li  Li12  1  0.74838600  0.74188800  0.99690200  1
  Li  Li13  1  0.23700900  0.26400500  0.02060000  1
  Mn  Mn14  1  0.83344200  0.49985600  0.33344400  1
  Mn  Mn15  1  0.33332000  0.99996200  0.33338000  1
  Mn  Mn16  1  0.99547800  0.00446300  0.00487100  1
  Mn  Mn17  1  0.49257400  0.50450000  0.00689000  1
  Mn  Mn18  1  0.67133100  0.99553000  0.66168900  1
  Mn  Mn19  1  0.17385100  0.49545200  0.65966600  1
  Mn  Mn20  1  0.75319700  0.25102900  0.00361200  1
  Mn  Mn21  1  0.24723600  0.75091300  0.00526700  1
  Mn  Mn22  1  0.91362600  0.74913800  0.66318600  1
  Mn  Mn23  1  0.41940500  0.24907200  0.66126500  1
  O  O24  1  0.65981300  0.61688400  0.49001900  1
  O  O25  1  0.16512400  0.11659300  0.49052300  1
  O  O26  1  0.50144200  0.88339500  0.17617000  1
  O  O27  1  0.00701700  0.38313800  0.17689500  1
  O  O28  1  0.21900500  0.38222700  0.83784100  1
  O  O29  1  0.71023200  0.88949700  0.83518800  1
  O  O30  1  0.95648100  0.11050600  0.83138600  1
  O  O31  1  0.44753500  0.61773300  0.82865400  1
  O  O32  1  0.88885400  0.38686400  0.49935500  1
  O  O33  1  0.38702200  0.88864400  0.50420500  1
  O  O34  1  0.27967900  0.11123500  0.16256100  1
  O  O35  1  0.77761900  0.61298700  0.16737900  1
  O  O36  1  0.96446800  0.63794200  0.83232600  1
  O  O37  1  0.49461200  0.12113700  0.81502100  1
  O  O38  1  0.70212100  0.36216900  0.83440800  1
  O  O39  1  0.17224500  0.87894500  0.85155700  1
  O  O40  1  0.54899000  0.38569800  0.17559400  1
  O  O41  1  0.04082300  0.89436200  0.17479500  1
  O  O42  1  0.62570800  0.10560200  0.49177500  1
  O  O43  1  0.11768800  0.61420100  0.49109500  1
  O  O44  1  0.81316800  0.11901400  0.14096800  1
  O  O45  1  0.28476600  0.63224400  0.15594200  1
  O  O46  1  0.85363300  0.88101900  0.52564300  1
  O  O47  1  0.38187200  0.36780800  0.51059300  1
