# generated using pymatgen
data_Li2HgPt
_symmetry_space_group_name_H-M   'P 1'
_cell_length_a   10.96133225
_cell_length_b   10.96133225
_cell_length_c   10.96133225
_cell_angle_alpha   125.39381356
_cell_angle_beta   118.11717488
_cell_angle_gamma   87.10708500
_symmetry_Int_Tables_number   1
_chemical_formula_structural   Li2HgPt
_chemical_formula_sum   'Li2 Hg1 Pt1'
_cell_volume   900.43533035
_cell_formula_units_Z   1
loop_
 _symmetry_equiv_pos_site_id
 _symmetry_equiv_pos_as_xyz
  1  'x, y, z'
loop_
 _atom_site_type_symbol
 _atom_site_label
 _atom_site_symmetry_multiplicity
 _atom_site_fract_x
 _atom_site_fract_y
 _atom_site_fract_z
 _atom_site_occupancy
  Li  Li0  1  0.00000000  0.22816000  0.22816000  1
  Li  Li1  1  0.00000000  0.77184000  0.77184000  1
  Hg  Hg2  1  0.00000000  0.50000000  0.50000000  1
  Pt  Pt3  1  0.00000000  0.00000000  0.00000000  1
