# generated using pymatgen
data_Li6V3P8O29
_symmetry_space_group_name_H-M   'P 1'
_cell_length_a   9.78751600
_cell_length_b   9.80872607
_cell_length_c   13.94888610
_cell_angle_alpha   90.13552085
_cell_angle_beta   90.02487945
_cell_angle_gamma   119.85261025
_symmetry_Int_Tables_number   1
_chemical_formula_structural   Li6V3P8O29
_chemical_formula_sum   'Li12 V6 P16 O58'
_cell_volume   1161.43894651
_cell_formula_units_Z   2
loop_
 _symmetry_equiv_pos_site_id
 _symmetry_equiv_pos_as_xyz
  1  'x, y, z'
loop_
 _atom_site_type_symbol
 _atom_site_label
 _atom_site_symmetry_multiplicity
 _atom_site_fract_x
 _atom_site_fract_y
 _atom_site_fract_z
 _atom_site_occupancy
  Li  Li0  1  0.76358700  0.66874200  0.93943200  1
  Li  Li1  1  0.90728300  0.67728400  0.43560500  1
  Li  Li2  1  0.32031000  0.22897600  0.43921700  1
  Li  Li3  1  0.67049000  0.33411400  0.11698900  1
  Li  Li4  1  0.32463500  0.09078600  0.93943100  1
  Li  Li5  1  0.90408700  0.23041900  0.93997500  1
  Li  Li6  1  0.22824800  0.90639100  0.55858100  1
  Li  Li7  1  0.77001200  0.09333700  0.43669700  1
  Li  Li8  1  0.67806600  0.77287200  0.55893800  1
  Li  Li9  1  0.09276100  0.32202900  0.56001600  1
  Li  Li10  1  0.23382000  0.33223200  0.06105200  1
  Li  Li11  1  0.97146100  0.95827200  0.00634600  1
  V  V12  1  0.43480000  0.00011900  0.75218800  1
  V  V13  1  0.56281000  0.99561700  0.24500900  1
  V  V14  1  0.00581000  0.56836600  0.24735200  1
  V  V15  1  0.99883900  0.43404100  0.75175700  1
  V  V16  1  0.56852600  0.56835300  0.75023500  1
  V  V17  1  0.43649300  0.43814600  0.25088600  1
  P  P18  1  0.77633300  0.68483400  0.15666400  1
  P  P19  1  0.91307500  0.67979200  0.65585200  1
  P  P20  1  0.32055000  0.23167600  0.65901900  1
  P  P21  1  0.66585900  0.33340400  0.87511100  1
  P  P22  1  0.66857400  0.33313600  0.37083100  1
  P  P23  1  0.31315900  0.09043900  0.15560200  1
  P  P24  1  0.23098800  0.91403900  0.34130000  1
  P  P25  1  0.91025400  0.22481000  0.15848800  1
  P  P26  1  0.08409100  0.77577200  0.84176200  1
  P  P27  1  0.76781200  0.08771900  0.65695800  1
  P  P28  1  0.69265900  0.91587000  0.84218900  1
  P  P29  1  0.33308100  0.66660200  0.63056200  1
  P  P30  1  0.33282600  0.66460700  0.12734700  1
  P  P31  1  0.68241300  0.77165000  0.34117200  1
  P  P32  1  0.08818900  0.31886400  0.34383600  1
  P  P33  1  0.22969100  0.31781100  0.84250300  1
  O  O34  1  0.76100700  0.75862400  0.43084300  1
  O  O35  1  0.74806500  0.66425400  0.65734000  1
  O  O36  1  0.99290400  0.79211700  0.92268800  1
  O  O37  1  0.91746000  0.65873800  0.16154600  1
  O  O38  1  0.62408200  0.52082200  0.16857500  1
  O  O39  1  0.67878400  0.48946700  0.83658300  1
  O  O40  1  0.48116600  0.38120900  0.67864400  1
  O  O41  1  0.22692200  0.22941700  0.93154800  1
  O  O42  1  0.33361300  0.25705900  0.15868800  1
  O  O43  1  0.81610800  0.48415800  0.32999300  1
  O  O44  1  0.89977900  0.51856900  0.67770200  1
  O  O45  1  0.51667800  0.33339400  0.32892000  1
  O  O46  1  0.66503400  0.33329800  0.98342000  1
  O  O47  1  0.66515600  0.33092100  0.47771500  1
  O  O48  1  0.50971100  0.19042300  0.83597100  1
  O  O49  1  0.89411300  0.37435100  0.17000900  1
  O  O50  1  0.80956200  0.32025600  0.83664100  1
  O  O51  1  0.33683500  0.08318300  0.65864800  1
  O  O52  1  0.21061600  0.00259100  0.24896700  1
  O  O53  1  0.24018100  0.00423200  0.43102400  1
  O  O54  1  0.22826400  0.00724000  0.06576000  1
  O  O55  1  0.47976600  0.10773200  0.16838400  1
  O  O56  1  0.66820600  0.18445400  0.32742200  1
  O  O57  1  0.25527800  0.91834800  0.83949600  1
  O  O58  1  0.61927200  0.10052400  0.67880900  1
  O  O59  1  0.91685100  0.25227900  0.65918800  1
  O  O60  1  0.00815200  0.79579700  0.74248300  1
  O  O61  1  0.99987900  0.75102100  0.56428100  1
  O  O62  1  0.99682400  0.23681200  0.43261800  1
  O  O63  1  0.08231600  0.75036000  0.34072900  1
  O  O64  1  0.38117000  0.90432300  0.32602400  1
  O  O65  1  0.74530700  0.08160000  0.15868100  1
  O  O66  1  0.32690900  0.81396800  0.67152300  1
  O  O67  1  0.53706500  0.91661100  0.83422800  1
  O  O68  1  0.79984300  0.00412200  0.92392100  1
  O  O69  1  0.75281600  0.00122500  0.56500800  1
  O  O70  1  0.78848400  0.99175300  0.74315100  1
  O  O71  1  0.66835000  0.92089200  0.34060500  1
  O  O72  1  0.18607900  0.66483800  0.17329500  1
  O  O73  1  0.08472400  0.62057400  0.83314600  1
  O  O74  1  0.48004900  0.81331900  0.17101500  1
  O  O75  1  0.32809200  0.65489500  0.02138200  1
  O  O76  1  0.33145100  0.66630200  0.52342700  1
  O  O77  1  0.48902000  0.67468600  0.66915800  1
  O  O78  1  0.09723800  0.47779500  0.32877500  1
  O  O79  1  0.18654500  0.51292600  0.67138700  1
  O  O80  1  0.66320800  0.74417700  0.83876200  1
  O  O81  1  0.79003500  0.79024200  0.24895600  1
  O  O82  1  0.77815100  0.76887900  0.06656200  1
  O  O83  1  0.52035800  0.62383300  0.32589600  1
  O  O84  1  0.33203500  0.51369700  0.17014500  1
  O  O85  1  0.37987200  0.47515200  0.82895700  1
  O  O86  1  0.08143300  0.33731000  0.83986700  1
  O  O87  1  0.00236000  0.23110300  0.06985200  1
  O  O88  1  0.00088100  0.21039600  0.25076400  1
  O  O89  1  0.25262600  0.33436300  0.34362700  1
  O  O90  1  0.24414700  0.24560400  0.56900600  1
  O  O91  1  0.20894500  0.20954500  0.74971700  1
