# generated using pymatgen
data_Li4MnCo2O7
_symmetry_space_group_name_H-M   'P 1'
_cell_length_a   2.94347500
_cell_length_b   5.06755086
_cell_length_c   17.45059551
_cell_angle_alpha   84.52525692
_cell_angle_beta   88.03184754
_cell_angle_gamma   76.11463836
_symmetry_Int_Tables_number   1
_chemical_formula_structural   Li4MnCo2O7
_chemical_formula_sum   'Li8 Mn2 Co4 O14'
_cell_volume   251.51996142
_cell_formula_units_Z   2
loop_
 _symmetry_equiv_pos_site_id
 _symmetry_equiv_pos_as_xyz
  1  'x, y, z'
loop_
 _atom_site_type_symbol
 _atom_site_label
 _atom_site_symmetry_multiplicity
 _atom_site_fract_x
 _atom_site_fract_y
 _atom_site_fract_z
 _atom_site_occupancy
  Li  Li0  1  0.70146100  0.58060400  0.92800300  1
  Li  Li1  1  0.14394900  0.71347900  0.78506500  1
  Li  Li2  1  0.56919900  0.86158400  0.64265800  1
  Li  Li3  1  0.99929800  0.99831100  0.49821300  1
  Li  Li4  1  0.42359100  0.14354400  0.35571600  1
  Li  Li5  1  0.85849300  0.27306400  0.21247400  1
  Li  Li6  1  0.31533000  0.41855000  0.07822600  1
  Li  Li7  1  0.55224000  0.87312800  0.14392500  1
  Mn  Mn8  1  0.99805200  0.00465600  0.00624400  1
  Mn  Mn9  1  0.29326800  0.42567500  0.56910800  1
  Co  Co10  1  0.44105700  0.14013200  0.85758700  1
  Co  Co11  1  0.86140700  0.28203600  0.71409100  1
  Co  Co12  1  0.70986800  0.57228200  0.42601200  1
  Co  Co13  1  0.13558100  0.71576400  0.28015100  1
  O  O14  1  0.39962500  0.25209100  0.96783600  1
  O  O15  1  0.78838100  0.40838900  0.82398300  1
  O  O16  1  0.21230300  0.55105000  0.67605200  1
  O  O17  1  0.62501900  0.69856700  0.52959700  1
  O  O18  1  0.05438100  0.82916300  0.38604900  1
  O  O19  1  0.48024800  0.97501500  0.25438300  1
  O  O20  1  0.92426500  0.14401600  0.09972900  1
  O  O21  1  0.07710000  0.88024700  0.89528300  1
  O  O22  1  0.50268100  0.01686700  0.74966900  1
  O  O23  1  0.95514500  0.15459300  0.60593400  1
  O  O24  1  0.37782600  0.30237500  0.46493000  1
  O  O25  1  0.79123400  0.45347400  0.32561400  1
  O  O26  1  0.21185600  0.57619200  0.19205200  1
  O  O27  1  0.59714200  0.75515200  0.03141600  1
