# generated using pymatgen
data_Li7Mn4CoO12
_symmetry_space_group_name_H-M   'P 1'
_cell_length_a   6.46728968
_cell_length_b   10.50101735
_cell_length_c   6.78427652
_cell_angle_alpha   84.35962847
_cell_angle_beta   71.09697775
_cell_angle_gamma   93.27388506
_symmetry_Int_Tables_number   1
_chemical_formula_structural   Li7Mn4CoO12
_chemical_formula_sum   'Li14 Mn8 Co2 O24'
_cell_volume   431.84206414
_cell_formula_units_Z   2
loop_
 _symmetry_equiv_pos_site_id
 _symmetry_equiv_pos_as_xyz
  1  'x, y, z'
loop_
 _atom_site_type_symbol
 _atom_site_label
 _atom_site_symmetry_multiplicity
 _atom_site_fract_x
 _atom_site_fract_y
 _atom_site_fract_z
 _atom_site_occupancy
  Li  Li0  1  0.66668100  0.16659200  0.16673000  1
  Li  Li1  1  0.66657800  0.66669900  0.66674500  1
  Li  Li2  1  0.98909500  0.12238500  0.38639100  1
  Li  Li3  1  0.98916100  0.62254200  0.88642100  1
  Li  Li4  1  0.34424100  0.71094400  0.44689800  1
  Li  Li5  1  0.34417400  0.21078400  0.94687200  1
  Li  Li6  1  0.66463400  0.04310200  0.78130100  1
  Li  Li7  1  0.66463300  0.54309600  0.28148600  1
  Li  Li8  1  0.66868800  0.29031100  0.55181100  1
  Li  Li9  1  0.66869200  0.79030400  0.05198400  1
  Li  Li10  1  0.35243300  0.96281800  0.21566200  1
  Li  Li11  1  0.35238700  0.46291600  0.71558300  1
  Li  Li12  1  0.98090800  0.87051800  0.61767900  1
  Li  Li13  1  0.98095500  0.37042200  0.11776000  1
  Mn  Mn14  1  0.99232700  0.00125400  0.00736500  1
  Mn  Mn15  1  0.99226900  0.50129300  0.50747400  1
  Mn  Mn16  1  0.34104600  0.83209800  0.82595100  1
  Mn  Mn17  1  0.34110200  0.33207100  0.32583400  1
  Mn  Mn18  1  0.33765900  0.08424300  0.57233000  1
  Mn  Mn19  1  0.33799200  0.58438000  0.07237200  1
  Mn  Mn20  1  0.99567200  0.74907000  0.26098300  1
  Mn  Mn21  1  0.99533400  0.24894900  0.76094900  1
  Co  Co22  1  0.66666600  0.41665500  0.91668800  1
  Co  Co23  1  0.66666700  0.91664900  0.41668800  1
  O  O24  1  0.00305000  0.68551700  0.53488600  1
  O  O25  1  0.00302700  0.18556500  0.03472100  1
  O  O26  1  0.33026800  0.14778700  0.29844200  1
  O  O27  1  0.33030000  0.64774900  0.79859800  1
  O  O28  1  0.32135400  0.25875900  0.65035300  1
  O  O29  1  0.32142800  0.75862000  0.15050300  1
  O  O30  1  0.01189500  0.07470600  0.68280900  1
  O  O31  1  0.01197300  0.57456300  0.18295700  1
  O  O32  1  0.64792100  0.09477300  0.48142000  1
  O  O33  1  0.64794000  0.59471900  0.98157200  1
  O  O34  1  0.68540300  0.73856000  0.35188700  1
  O  O35  1  0.68538900  0.23861200  0.85173300  1
  O  O36  1  0.32005300  0.01835400  0.86984300  1
  O  O37  1  0.32012600  0.51827600  0.36996600  1
  O  O38  1  0.01325600  0.31509900  0.46334000  1
  O  O39  1  0.01333200  0.81503200  0.96346700  1
  O  O40  1  0.98780800  0.92414000  0.32205400  1
  O  O41  1  0.98783100  0.42423200  0.82213200  1
  O  O42  1  0.34550700  0.90917400  0.51130300  1
  O  O43  1  0.34548000  0.40908100  0.01121600  1
  O  O44  1  0.65114200  0.85968200  0.70826700  1
  O  O45  1  0.65118000  0.35966300  0.20821500  1
  O  O46  1  0.68219600  0.97361600  0.12515400  1
  O  O47  1  0.68214800  0.47362900  0.62521000  1
