# generated using pymatgen
data_Li9Mn2Co5O16
_symmetry_space_group_name_H-M   'P 1'
_cell_length_a   5.10184400
_cell_length_b   5.90379337
_cell_length_c   9.70034035
_cell_angle_alpha   88.43085596
_cell_angle_beta   78.29696464
_cell_angle_gamma   89.22982431
_symmetry_Int_Tables_number   1
_chemical_formula_structural   Li9Mn2Co5O16
_chemical_formula_sum   'Li9 Mn2 Co5 O16'
_cell_volume   285.98619242
_cell_formula_units_Z   1
loop_
 _symmetry_equiv_pos_site_id
 _symmetry_equiv_pos_as_xyz
  1  'x, y, z'
loop_
 _atom_site_type_symbol
 _atom_site_label
 _atom_site_symmetry_multiplicity
 _atom_site_fract_x
 _atom_site_fract_y
 _atom_site_fract_z
 _atom_site_occupancy
  Li  Li0  1  0.50046000  0.25398600  0.99318200  1
  Li  Li1  1  0.26120900  0.50881500  0.26010700  1
  Li  Li2  1  0.49607700  0.74483800  0.99644600  1
  Li  Li3  1  0.25507100  0.99839700  0.25757800  1
  Li  Li4  1  0.74692000  0.00068300  0.74635600  1
  Li  Li5  1  0.74041900  0.49010700  0.73828300  1
  Li  Li6  1  0.00364300  0.74534800  0.50589900  1
  Li  Li7  1  0.99258400  0.25604400  0.50511200  1
  Li  Li8  1  0.49663600  0.49838900  0.49904100  1
  Mn  Mn9  1  0.00394200  0.99943600  0.99939000  1
  Mn  Mn10  1  0.75261900  0.25437100  0.25247900  1
  Co  Co11  1  0.25353900  0.74270300  0.74019500  1
  Co  Co12  1  0.99967500  0.49822100  0.99931000  1
  Co  Co13  1  0.75423800  0.75198800  0.25424100  1
  Co  Co14  1  0.49549300  0.99849700  0.49936400  1
  Co  Co15  1  0.25280100  0.25142200  0.73981900  1
  O  O16  1  0.34672800  0.99618700  0.88222600  1
  O  O17  1  0.10083800  0.24490200  0.11441400  1
  O  O18  1  0.34301900  0.49979000  0.87857100  1
  O  O19  1  0.10045000  0.76516400  0.12633700  1
  O  O20  1  0.60334900  0.76327900  0.62920700  1
  O  O21  1  0.59775000  0.24266300  0.63136500  1
  O  O22  1  0.86889400  0.49402200  0.35419500  1
  O  O23  1  0.86923700  0.02272100  0.36994100  1
  O  O24  1  0.65081600  0.48326600  0.12241200  1
  O  O25  1  0.41202300  0.75626400  0.36932000  1
  O  O26  1  0.65583600  0.00647100  0.13447300  1
  O  O27  1  0.40688700  0.24036400  0.36863500  1
  O  O28  1  0.89288000  0.22979600  0.87913400  1
  O  O29  1  0.89572400  0.75761000  0.89167400  1
  O  O30  1  0.13392300  0.99971900  0.62507800  1
  O  O31  1  0.11632200  0.50453800  0.63621700  1
