# generated using pymatgen
data_Li9Mn2Co5O16
_symmetry_space_group_name_H-M   'P 1'
_cell_length_a   5.88209500
_cell_length_b   6.44263789
_cell_length_c   8.09386584
_cell_angle_alpha   88.83798394
_cell_angle_beta   89.26887701
_cell_angle_gamma   65.64638949
_symmetry_Int_Tables_number   1
_chemical_formula_structural   Li9Mn2Co5O16
_chemical_formula_sum   'Li9 Mn2 Co5 O16'
_cell_volume   279.37288400
_cell_formula_units_Z   1
loop_
 _symmetry_equiv_pos_site_id
 _symmetry_equiv_pos_as_xyz
  1  'x, y, z'
loop_
 _atom_site_type_symbol
 _atom_site_label
 _atom_site_symmetry_multiplicity
 _atom_site_fract_x
 _atom_site_fract_y
 _atom_site_fract_z
 _atom_site_occupancy
  Li  Li0  1  0.37503300  0.25416100  0.75590000  1
  Li  Li1  1  0.74851700  0.00067200  0.99996600  1
  Li  Li2  1  0.00000000  0.50000000  0.50000000  1
  Li  Li3  1  0.62496700  0.74583900  0.24410000  1
  Li  Li4  1  0.25148300  0.99932800  0.00003400  1
  Li  Li5  1  0.87262700  0.25356900  0.75684300  1
  Li  Li6  1  0.50000000  0.50000000  0.50000000  1
  Li  Li7  1  0.12737300  0.74643100  0.24315700  1
  Li  Li8  1  0.00000000  0.50000000  0.00000000  1
  Mn  Mn9  1  0.63472100  0.74434600  0.75360400  1
  Mn  Mn10  1  0.36527900  0.25565400  0.24639600  1
  Co  Co11  1  0.74821800  0.00078000  0.50049300  1
  Co  Co12  1  0.12970300  0.74568200  0.75330500  1
  Co  Co13  1  0.50000000  0.50000000  0.00000000  1
  Co  Co14  1  0.87029700  0.25431800  0.24669500  1
  Co  Co15  1  0.25178200  0.99922000  0.49950700  1
  O  O16  1  0.74116500  0.99210500  0.74033700  1
  O  O17  1  0.15284800  0.73090600  0.98322300  1
  O  O18  1  0.36581800  0.23873300  0.49041800  1
  O  O19  1  0.02171100  0.46975400  0.25124200  1
  O  O20  1  0.61797100  0.74201400  0.98702600  1
  O  O21  1  0.27247900  0.97326900  0.73944100  1
  O  O22  1  0.86840700  0.23473900  0.48654000  1
  O  O23  1  0.48198600  0.49505700  0.24039400  1
  O  O24  1  0.97828900  0.53024600  0.74875800  1
  O  O25  1  0.38202900  0.25798600  0.01297400  1
  O  O26  1  0.63418200  0.76126700  0.50958200  1
  O  O27  1  0.25883500  0.00789500  0.25966300  1
  O  O28  1  0.84715200  0.26909400  0.01677700  1
  O  O29  1  0.51801400  0.50494300  0.75960600  1
  O  O30  1  0.13159300  0.76526100  0.51346000  1
  O  O31  1  0.72752100  0.02673100  0.26055900  1
