# generated using pymatgen
data_Li5Co2Ni3O10
_symmetry_space_group_name_H-M   'P 1'
_cell_length_a   5.02572125
_cell_length_b   10.04330017
_cell_length_c   7.62000813
_cell_angle_alpha   71.86397403
_cell_angle_beta   78.11408955
_cell_angle_gamma   100.43797335
_symmetry_Int_Tables_number   1
_chemical_formula_structural   Li5Co2Ni3O10
_chemical_formula_sum   'Li10 Co4 Ni6 O20'
_cell_volume   345.00832885
_cell_formula_units_Z   2
loop_
 _symmetry_equiv_pos_site_id
 _symmetry_equiv_pos_as_xyz
  1  'x, y, z'
loop_
 _atom_site_type_symbol
 _atom_site_label
 _atom_site_symmetry_multiplicity
 _atom_site_fract_x
 _atom_site_fract_y
 _atom_site_fract_z
 _atom_site_occupancy
  Li  Li0  1  0.99931400  0.99848700  0.49953300  1
  Li  Li1  1  0.49939100  0.49900400  0.99877800  1
  Li  Li2  1  0.58986200  0.09603200  0.30880800  1
  Li  Li3  1  0.09076000  0.59746100  0.80817200  1
  Li  Li4  1  0.40324600  0.89981800  0.69350400  1
  Li  Li5  1  0.90205900  0.39989100  0.19317400  1
  Li  Li6  1  0.70670500  0.20298900  0.58881500  1
  Li  Li7  1  0.20702200  0.70330000  0.08770300  1
  Li  Li8  1  0.29927100  0.80197100  0.40911800  1
  Li  Li9  1  0.79875800  0.30177600  0.91000300  1
  Co  Co10  1  0.30019600  0.29582200  0.40017600  1
  Co  Co11  1  0.79943900  0.79598900  0.89890100  1
  Co  Co12  1  0.70125400  0.70369400  0.60184100  1
  Co  Co13  1  0.20206000  0.20415500  0.10268200  1
  Ni  Ni14  1  0.99739100  0.49815500  0.50165200  1
  Ni  Ni15  1  0.60087000  0.60098200  0.29790700  1
  Ni  Ni16  1  0.39796900  0.39972200  0.70460500  1
  Ni  Ni17  1  0.49564400  0.99805800  0.00172700  1
  Ni  Ni18  1  0.10073000  0.10115500  0.79833900  1
  Ni  Ni19  1  0.89687000  0.89899000  0.20488000  1
  O  O20  1  0.62790500  0.39488000  0.44449000  1
  O  O21  1  0.13035500  0.89485000  0.94477200  1
  O  O22  1  0.38042000  0.60445000  0.54256200  1
  O  O23  1  0.88018000  0.10438100  0.04152600  1
  O  O24  1  0.06399400  0.30122800  0.63054000  1
  O  O25  1  0.56380200  0.80092400  0.12978300  1
  O  O26  1  0.91942400  0.69413700  0.36370800  1
  O  O27  1  0.41924100  0.19432100  0.86431500  1
  O  O28  1  0.99304700  0.21052200  0.33740200  1
  O  O29  1  0.49139300  0.70952800  0.83656500  1
  O  O30  1  0.01148700  0.79052700  0.66209900  1
  O  O31  1  0.51254900  0.29005900  0.16272900  1
  O  O32  1  0.25030300  0.01497300  0.23420800  1
  O  O33  1  0.75123100  0.51547200  0.73367400  1
  O  O34  1  0.76902200  0.99099700  0.76814200  1
  O  O35  1  0.26969000  0.49095200  0.26658400  1
  O  O36  1  0.33651500  0.11678100  0.55193600  1
  O  O37  1  0.83830600  0.61824900  0.04956300  1
  O  O38  1  0.65124100  0.88276400  0.46231900  1
  O  O39  1  0.15108600  0.38255200  0.96276600  1
