# generated using pymatgen
data_Na6Li2Y3Zr3P6(CO17)2
_symmetry_space_group_name_H-M   'P 1'
_cell_length_a   11.08558500
_cell_length_b   11.08958349
_cell_length_c   11.12365523
_cell_angle_alpha   89.92292524
_cell_angle_beta   89.95669718
_cell_angle_gamma   89.96161193
_symmetry_Int_Tables_number   1
_chemical_formula_structural   Na6Li2Y3Zr3P6(CO17)2
_chemical_formula_sum   'Na12 Li4 Y6 Zr6 P12 C4 O68'
_cell_volume   1367.47928725
_cell_formula_units_Z   2
loop_
 _symmetry_equiv_pos_site_id
 _symmetry_equiv_pos_as_xyz
  1  'x, y, z'
loop_
 _atom_site_type_symbol
 _atom_site_label
 _atom_site_symmetry_multiplicity
 _atom_site_fract_x
 _atom_site_fract_y
 _atom_site_fract_z
 _atom_site_occupancy
  Na  Na0  1  0.18547100  0.50613700  0.67320700  1
  Na  Na1  1  0.18516500  0.47985200  0.00128100  1
  Na  Na2  1  0.51049200  0.48187600  0.67477600  1
  Na  Na3  1  0.18614800  0.15500200  0.32593400  1
  Na  Na4  1  0.18698400  0.83041400  0.34776900  1
  Na  Na5  1  0.85916900  0.15450500  0.99897100  1
  Na  Na6  1  0.51040100  0.83036400  0.32658100  1
  Na  Na7  1  0.83574500  0.83226300  0.99886800  1
  Na  Na8  1  0.50929700  0.50274600  0.99781000  1
  Na  Na9  1  0.83730700  0.15509400  0.67365700  1
  Na  Na10  1  0.85632900  0.83334300  0.67277800  1
  Na  Na11  1  0.51109800  0.15500900  0.34644200  1
  Li  Li12  1  0.04100400  0.68653100  0.14233700  1
  Li  Li13  1  0.04044000  0.30028000  0.52897900  1
  Li  Li14  1  0.65424700  0.68696300  0.53073900  1
  Li  Li15  1  0.65273400  0.29685300  0.14005200  1
  Y  Y16  1  0.84895800  0.17576000  0.33655800  1
  Y  Y17  1  0.53126400  0.49313300  0.33641400  1
  Y  Y18  1  0.84879800  0.49306000  0.01872200  1
  Y  Y19  1  0.16697200  0.49317800  0.33686700  1
  Y  Y20  1  0.84945300  0.81057300  0.33690100  1
  Y  Y21  1  0.84921700  0.49400100  0.65488200  1
  Zr  Zr22  1  0.57221400  0.99304800  0.83725000  1
  Zr  Zr23  1  0.34878000  0.99352200  0.60704400  1
  Zr  Zr24  1  0.34839100  0.76988000  0.83645500  1
  Zr  Zr25  1  0.12264300  0.99492500  0.83620600  1
  Zr  Zr26  1  0.34961100  0.21782500  0.83673400  1
  Zr  Zr27  1  0.35017000  0.99404200  0.06615900  1
  P  P28  1  0.36357900  0.30187500  0.14558100  1
  P  P29  1  0.03811900  0.68722900  0.85116200  1
  P  P30  1  0.65822600  0.30179300  0.85135600  1
  P  P31  1  0.65807500  0.97771700  0.52709000  1
  P  P32  1  0.36350800  0.68416400  0.52851600  1
  P  P33  1  0.65816200  0.00806800  0.14616500  1
  P  P34  1  0.04015500  0.30286900  0.82081900  1
  P  P35  1  0.65774100  0.68437000  0.82105500  1
  P  P36  1  0.04052200  0.97803700  0.14678400  1
  P  P37  1  0.33269700  0.30258900  0.52693500  1
  P  P38  1  0.04012300  0.00874600  0.52706700  1
  P  P39  1  0.33234000  0.68328000  0.14532400  1
  C  C40  1  0.96628600  0.61021700  0.45445400  1
  C  C41  1  0.96679100  0.37520200  0.21837600  1
  C  C42  1  0.73053000  0.61121300  0.21793000  1
  C  C43  1  0.73089200  0.37518300  0.45551900  1
  O  O44  1  0.20505800  0.64039700  0.18984800  1
  O  O45  1  0.68814300  0.99194500  0.66194900  1
  O  O46  1  0.96875400  0.37471100  0.91717500  1
  O  O47  1  0.68362600  0.65777200  0.31393900  1
  O  O48  1  0.34601200  0.65304900  0.01039000  1
  O  O49  1  0.68361400  0.47087400  0.50260300  1
  O  O50  1  0.68378500  0.32842300  0.35977400  1
  O  O51  1  0.68306400  0.51594800  0.17043600  1
  O  O52  1  0.52297700  0.99273000  0.49536700  1
  O  O53  1  0.34932400  0.81942000  0.49686900  1
  O  O54  1  0.68854900  0.16641700  0.83698500  1
  O  O55  1  0.68700100  0.81988800  0.83631200  1
  O  O56  1  0.96897100  0.91124300  0.45654600  1
  O  O57  1  0.49052800  0.34544400  0.18979100  1
  O  O58  1  0.49030400  0.63988400  0.48412900  1
  O  O59  1  0.42860800  0.61046800  0.21644400  1
  O  O60  1  0.42853400  0.37506100  0.45505900  1
  O  O61  1  0.52269800  0.65319400  0.83707700  1
  O  O62  1  0.17424400  0.66050800  0.83645800  1
  O  O63  1  0.34940900  0.65440300  0.66360400  1
  O  O64  1  0.01020600  0.99407200  0.01206800  1
  O  O65  1  0.00944200  0.16755700  0.83636700  1
  O  O66  1  0.00460600  0.82217100  0.83818400  1
  O  O67  1  0.34780700  0.33276200  0.66166800  1
  O  O68  1  0.17555200  0.33279400  0.83564300  1
  O  O69  1  0.34993800  0.33206100  0.01051800  1
  O  O70  1  0.87109800  0.32794100  0.17133500  1
  O  O71  1  0.01340400  0.32871500  0.31454300  1
  O  O72  1  0.70135900  0.13524500  0.18999700  1
  O  O73  1  0.73008000  0.07451500  0.45616300  1
  O  O74  1  0.52293500  0.99304200  0.17774500  1
  O  O75  1  0.17569000  0.99198200  0.17834900  1
  O  O76  1  0.34942900  0.16665100  0.17704400  1
  O  O77  1  0.01402900  0.47089300  0.17116000  1
  O  O78  1  0.82686900  0.65804100  0.17148900  1
  O  O79  1  0.70154800  0.34544200  0.97833100  1
  O  O80  1  0.73133800  0.61302100  0.91636400  1
  O  O81  1  0.99575000  0.64059600  0.97753800  1
  O  O82  1  0.01325100  0.65701500  0.35859600  1
  O  O83  1  0.01336200  0.51428600  0.50141600  1
  O  O84  1  0.87054200  0.65758000  0.50139300  1
  O  O85  1  0.72985300  0.37314000  0.75468900  1
  O  O86  1  0.52276900  0.33243600  0.83653200  1
  O  O87  1  0.96919900  0.07485800  0.21831000  1
  O  O88  1  0.73025000  0.91123600  0.21687700  1
  O  O89  1  0.96978700  0.61492200  0.75295300  1
  O  O90  1  0.70171400  0.85048300  0.48333400  1
  O  O91  1  0.26558500  0.61322900  0.45827200  1
  O  O92  1  0.99611600  0.34598200  0.69395100  1
  O  O93  1  0.70117600  0.64152700  0.69376500  1
  O  O94  1  0.99622100  0.85077500  0.18968100  1
  O  O95  1  0.20512300  0.34539600  0.48332800  1
  O  O96  1  0.17537600  0.99446200  0.49567900  1
  O  O97  1  0.68816900  0.99419800  0.01119700  1
  O  O98  1  0.99587000  0.13558500  0.48302700  1
  O  O99  1  0.34858700  0.16766200  0.49539700  1
  O  O100  1  0.34852400  0.81818700  0.17660500  1
  O  O101  1  0.82708400  0.32821900  0.50201100  1
  O  O102  1  0.00962500  0.99482600  0.66204700  1
  O  O103  1  0.26536600  0.37269900  0.21560500  1
  O  O104  1  0.23684800  0.10634000  0.72250100  1
  O  O105  1  0.46141100  0.10593600  0.95065500  1
  O  O106  1  0.46106300  0.88144900  0.72216400  1
  O  O107  1  0.23649700  0.88316600  0.95054400  1
  O  O108  1  0.45949900  0.10443000  0.72392500  1
  O  O109  1  0.23794300  0.88508300  0.72533300  1
  O  O110  1  0.45892100  0.88231500  0.94937800  1
  O  O111  1  0.23793400  0.10406600  0.94867200  1
