# generated using pymatgen
data_Li5V3P8O29
_symmetry_space_group_name_H-M   'P 1'
_cell_length_a   9.76693300
_cell_length_b   9.78241240
_cell_length_c   14.07094526
_cell_angle_alpha   90.19043279
_cell_angle_beta   89.97439983
_cell_angle_gamma   119.78153336
_symmetry_Int_Tables_number   1
_chemical_formula_structural   Li5V3P8O29
_chemical_formula_sum   'Li10 V6 P16 O58'
_cell_volume   1166.82875563
_cell_formula_units_Z   2
loop_
 _symmetry_equiv_pos_site_id
 _symmetry_equiv_pos_as_xyz
  1  'x, y, z'
loop_
 _atom_site_type_symbol
 _atom_site_label
 _atom_site_symmetry_multiplicity
 _atom_site_fract_x
 _atom_site_fract_y
 _atom_site_fract_z
 _atom_site_occupancy
  Li  Li0  1  0.09417300  0.32284700  0.44161800  1
  Li  Li1  1  0.67960300  0.77007300  0.44299300  1
  Li  Li2  1  0.66773700  0.90487400  0.93874500  1
  Li  Li3  1  0.09844200  0.76892100  0.93840300  1
  Li  Li4  1  0.77368500  0.09347900  0.56109700  1
  Li  Li5  1  0.22490000  0.91607500  0.44127800  1
  Li  Li6  1  0.33616000  0.10210200  0.05715800  1
  Li  Li7  1  0.90875500  0.67691200  0.56203300  1
  Li  Li8  1  0.76649200  0.67020100  0.05597400  1
  Li  Li9  1  0.01877800  0.06618600  0.00406300  1
  V  V10  1  0.56658700  0.99960100  0.74778100  1
  V  V11  1  0.43282100  0.00060800  0.25010000  1
  V  V12  1  0.99772500  0.42904700  0.24626000  1
  V  V13  1  0.00110200  0.56418700  0.75387900  1
  V  V14  1  0.42603000  0.42844300  0.75092700  1
  V  V15  1  0.56298300  0.56048700  0.24854300  1
  P  P16  1  0.22352400  0.30668400  0.15887400  1
  P  P17  1  0.08765300  0.31829700  0.65853600  1
  P  P18  1  0.68062900  0.76621100  0.65814500  1
  P  P19  1  0.33954400  0.66901100  0.87222700  1
  P  P20  1  0.33201400  0.66490900  0.36859500  1
  P  P21  1  0.68447800  0.90939100  0.15654400  1
  P  P22  1  0.76957800  0.08656300  0.33946400  1
  P  P23  1  0.08692400  0.77133600  0.15853800  1
  P  P24  1  0.91422200  0.22357500  0.84174200  1
  P  P25  1  0.22788200  0.90835300  0.65810700  1
  P  P26  1  0.31373800  0.08736500  0.83986800  1
  P  P27  1  0.66709500  0.33686100  0.63094000  1
  P  P28  1  0.66584800  0.33366300  0.12870300  1
  P  P29  1  0.31443800  0.22931300  0.34435600  1
  P  P30  1  0.91073100  0.67985700  0.34081100  1
  P  P31  1  0.76915300  0.68305500  0.84154900  1
  O  O32  1  0.23508300  0.24342100  0.43009900  1
  O  O33  1  0.25454300  0.33716700  0.66469300  1
  O  O34  1  0.99700200  0.20577600  0.92453100  1
  O  O35  1  0.08574500  0.34018700  0.16381600  1
  O  O36  1  0.38263500  0.46382400  0.17071200  1
  O  O37  1  0.33231200  0.51838000  0.82342200  1
  O  O38  1  0.52168700  0.61689300  0.67637600  1
  O  O39  1  0.76964100  0.77150700  0.92977700  1
  O  O40  1  0.66028700  0.73834000  0.16346300  1
  O  O41  1  0.18448400  0.51211300  0.33164300  1
  O  O42  1  0.10129800  0.47972100  0.67787300  1
  O  O43  1  0.48299700  0.66668000  0.32183300  1
  O  O44  1  0.34624800  0.66676700  0.97790300  1
  O  O45  1  0.34785200  0.66848700  0.47412900  1
  O  O46  1  0.49290500  0.81231500  0.83114000  1
  O  O47  1  0.09610500  0.62191900  0.17223000  1
  O  O48  1  0.19165600  0.67764300  0.83534200  1
  O  O49  1  0.66533500  0.91609000  0.65701100  1
  O  O50  1  0.79153900  0.99671100  0.24943300  1
  O  O51  1  0.75477100  0.99724800  0.42926700  1
  O  O52  1  0.77420700  0.98249200  0.06724100  1
  O  O53  1  0.52847500  0.90750200  0.16949000  1
  O  O54  1  0.32738700  0.81373000  0.33029700  1
  O  O55  1  0.74105300  0.08320600  0.83591700  1
  O  O56  1  0.37925900  0.89870400  0.67902200  1
  O  O57  1  0.08042200  0.74138900  0.66315500  1
  O  O58  1  0.99099100  0.20250600  0.74393900  1
  O  O59  1  0.00305900  0.24461600  0.56731200  1
  O  O60  1  0.99657800  0.75980600  0.43055700  1
  O  O61  1  0.91752800  0.25111300  0.33982500  1
  O  O62  1  0.61930800  0.09857000  0.32032200  1
  O  O63  1  0.25419200  0.91995400  0.16171500  1
  O  O64  1  0.67062700  0.18543200  0.66573400  1
  O  O65  1  0.47071800  0.09091800  0.82963600  1
  O  O66  1  0.22444800  0.00519100  0.92932700  1
  O  O67  1  0.23594700  0.98827200  0.56732900  1
  O  O68  1  0.20581800  0.99840200  0.74855200  1
  O  O69  1  0.33697400  0.08374500  0.34242700  1
  O  O70  1  0.80529300  0.32302500  0.17226700  1
  O  O71  1  0.91564400  0.38113400  0.83294300  1
  O  O72  1  0.50859600  0.18925800  0.16430500  1
  O  O73  1  0.66641300  0.35725300  0.02387900  1
  O  O74  1  0.66620200  0.34514700  0.52531200  1
  O  O75  1  0.52080800  0.33618400  0.67984200  1
  O  O76  1  0.90376500  0.52163000  0.32298300  1
  O  O77  1  0.81516600  0.48709200  0.67334500  1
  O  O78  1  0.33670500  0.25572700  0.83494600  1
  O  O79  1  0.20690200  0.20499900  0.25174300  1
  O  O80  1  0.21466700  0.20976200  0.07443900  1
  O  O81  1  0.47590500  0.38044500  0.32211800  1
  O  O82  1  0.67417200  0.48962700  0.17584100  1
  O  O83  1  0.61535200  0.52666700  0.82786400  1
  O  O84  1  0.91605600  0.66178300  0.84254100  1
  O  O85  1  0.00157200  0.77404500  0.06960900  1
  O  O86  1  0.99790500  0.79159100  0.25045500  1
  O  O87  1  0.74277700  0.66136500  0.33962600  1
  O  O88  1  0.75984600  0.75559500  0.56889200  1
  O  O89  1  0.79237400  0.78952000  0.74881500  1
