# generated using pymatgen
data_Li6V3P8O29
_symmetry_space_group_name_H-M   'P 1'
_cell_length_a   9.82977174
_cell_length_b   9.82887333
_cell_length_c   13.96479081
_cell_angle_alpha   90.13104675
_cell_angle_beta   90.20971615
_cell_angle_gamma   60.00044379
_symmetry_Int_Tables_number   1
_chemical_formula_structural   Li6V3P8O29
_chemical_formula_sum   'Li12 V6 P16 O58'
_cell_volume   1168.45289708
_cell_formula_units_Z   2
loop_
 _symmetry_equiv_pos_site_id
 _symmetry_equiv_pos_as_xyz
  1  'x, y, z'
loop_
 _atom_site_type_symbol
 _atom_site_label
 _atom_site_symmetry_multiplicity
 _atom_site_fract_x
 _atom_site_fract_y
 _atom_site_fract_z
 _atom_site_occupancy
  Li  Li0  1  0.77576815  0.91726206  0.55813108  1
  Li  Li1  1  0.91345650  0.31258925  0.55619200  1
  Li  Li2  1  0.66974099  0.66269942  0.38170098  1
  Li  Li3  1  0.67077232  0.66593571  0.88718639  1
  Li  Li4  1  0.77188298  0.31467091  0.06645396  1
  Li  Li5  1  0.31425519  0.90901197  0.06372344  1
  Li  Li6  1  0.31617413  0.77192381  0.55955296  1
  Li  Li7  1  0.68432599  0.08980747  0.94310117  1
  Li  Li8  1  0.22382586  0.67777978  0.94413580  1
  Li  Li9  1  0.09408792  0.67671036  0.43524648  1
  Li  Li10  1  0.22788945  0.09570262  0.43742583  1
  Li  Li11  1  0.09301532  0.22539579  0.94304778  1
  V  V12  1  0.56595738  0.42929682  0.25474893  1
  V  V13  1  0.43153715  0.56684601  0.74775142  1
  V  V14  1  0.56950618  0.00190944  0.74753001  1
  V  V15  1  0.43535192  0.00144765  0.24878124  1
  V  V16  1  0.00083166  0.57123964  0.24437487  1
  V  V17  1  0.00236167  0.43336193  0.75097917  1
  P  P18  1  0.91181925  0.77150454  0.84038850  1
  P  P19  1  0.77044608  0.90956062  0.34182485  1
  P  P20  1  0.91183398  0.32196532  0.34115147  1
  P  P21  1  0.66342496  0.66612465  0.12747990  1
  P  P22  1  0.66871750  0.66625538  0.62606380  1
  P  P23  1  0.76813071  0.32142167  0.84527668  1
  P  P24  1  0.68514156  0.23236680  0.65899716  1
  P  P25  1  0.32354702  0.90801502  0.84160800  1
  P  P26  1  0.68181911  0.08706256  0.15771254  1
  P  P27  1  0.32012944  0.77090977  0.34239191  1
  P  P28  1  0.23388639  0.67841405  0.15860791  1
  P  P29  1  0.33095956  0.33429519  0.37272320  1
  P  P30  1  0.33330814  0.33484307  0.87299671  1
  P  P31  1  0.08583485  0.68005815  0.65581688  1
  P  P32  1  0.23227168  0.08619910  0.65770678  1
  P  P33  1  0.08835849  0.23162386  0.15769012  1
  O  O34  1  0.00076367  0.75582109  0.56456654  1
  O  O35  1  0.92058268  0.74442456  0.33964451  1
  O  O36  1  0.75454648  0.00449905  0.06662725  1
  O  O37  1  0.74333717  0.92025867  0.83884816  1
  O  O38  1  0.88734774  0.62725658  0.82684698  1
  O  O39  1  0.80693627  0.67067676  0.16916226  1
  O  O40  1  0.89558707  0.48652784  0.32514748  1
  O  O41  1  0.99644205  0.24311510  0.06832463  1
  O  O42  1  0.91939159  0.33249619  0.84423530  1
  O  O43  1  0.67467798  0.81455914  0.66356454  1
  O  O44  1  0.62611458  0.88494257  0.32475403  1
  O  O45  1  0.81706122  0.51499049  0.66835803  1
  O  O46  1  0.65688298  0.66574716  0.01968897  1
  O  O47  1  0.67255674  0.66157746  0.51849826  1
  O  O48  1  0.66412070  0.51579210  0.16737056  1
  O  O49  1  0.48948380  0.88431231  0.82527607  1
  O  O50  1  0.50927696  0.81766444  0.16595453  1
  O  O51  1  0.74713752  0.34354134  0.34188800  1
  O  O52  1  0.78436355  0.21038264  0.75622350  1
  O  O53  1  0.76987977  0.24166590  0.57452217  1
  O  O54  1  0.75208432  0.24698483  0.93495346  1
  O  O55  1  0.62703357  0.48824465  0.82533708  1
  O  O56  1  0.51468751  0.67257211  0.66361884  1
  O  O57  1  0.66849007  0.25050942  0.16306672  1
  O  O58  1  0.48775818  0.62836600  0.32730318  1
  O  O59  1  0.33150557  0.92136408  0.34393207  1
  O  O60  1  0.78899214  0.99637720  0.25008815  1
  O  O61  1  0.75790788  0.99450980  0.43241624  1
  O  O62  1  0.24668137  0.99622815  0.56777623  1
  O  O63  1  0.66456018  0.08577858  0.65912007  1
  O  O64  1  0.52288739  0.38367510  0.67693440  1
  O  O65  1  0.33693392  0.74350503  0.84016382  1
  O  O66  1  0.47834722  0.33663680  0.32855120  1
  O  O67  1  0.38250358  0.51955264  0.17296738  1
  O  O68  1  0.23897673  0.76076849  0.06930667  1
  O  O69  1  0.24336461  0.75387518  0.43126155  1
  O  O70  1  0.21382272  0.78842088  0.25042816  1
  O  O71  1  0.24896505  0.66925425  0.65997799  1
  O  O72  1  0.48342326  0.18827470  0.83213836  1
  O  O73  1  0.51896403  0.10230457  0.17559770  1
  O  O74  1  0.32667377  0.48731449  0.83289363  1
  O  O75  1  0.32416162  0.33463077  0.97936608  1
  O  O76  1  0.33171686  0.33010509  0.47930994  1
  O  O77  1  0.18279916  0.48545361  0.33343661  1
  O  O78  1  0.38321027  0.09499854  0.67803072  1
  O  O79  1  0.33367697  0.18118254  0.33125929  1
  O  O80  1  0.08616798  0.66075852  0.16259103  1
  O  O81  1  0.98933340  0.79327137  0.74379747  1
  O  O82  1  0.00588990  0.76452318  0.92474960  1
  O  O83  1  0.10121285  0.51892783  0.67397552  1
  O  O84  1  0.18165195  0.33261371  0.82924960  1
  O  O85  1  0.10433771  0.37614145  0.17668263  1
  O  O86  1  0.25039601  0.08101896  0.15714392  1
  O  O87  1  0.24399157  0.99851408  0.93046033  1
  O  O88  1  0.21514555  0.99634732  0.74971506  1
  O  O89  1  0.08496411  0.24926365  0.65827662  1
  O  O90  1  0.00592068  0.24408949  0.42992105  1
  O  O91  1  -0.00004167  0.21257322  0.24987788  1
