# generated using pymatgen
data_Li9Mn2Co5O16
_symmetry_space_group_name_H-M   'P 1'
_cell_length_a   2.97873200
_cell_length_b   8.08419498
_cell_length_c   11.95958854
_cell_angle_alpha   90.74325827
_cell_angle_beta   94.34807954
_cell_angle_gamma   91.01879400
_symmetry_Int_Tables_number   1
_chemical_formula_structural   Li9Mn2Co5O16
_chemical_formula_sum   'Li9 Mn2 Co5 O16'
_cell_volume   287.09076531
_cell_formula_units_Z   1
loop_
 _symmetry_equiv_pos_site_id
 _symmetry_equiv_pos_as_xyz
  1  'x, y, z'
loop_
 _atom_site_type_symbol
 _atom_site_label
 _atom_site_symmetry_multiplicity
 _atom_site_fract_x
 _atom_site_fract_y
 _atom_site_fract_z
 _atom_site_occupancy
  Li  Li0  1  0.99341000  0.00392400  0.25613400  1
  Li  Li1  1  0.49234500  0.75541300  0.62600000  1
  Li  Li2  1  0.99992400  0.49947000  0.99958400  1
  Li  Li3  1  0.49983100  0.24014900  0.37877400  1
  Li  Li4  1  0.00526200  0.00240800  0.74933400  1
  Li  Li5  1  0.50394700  0.74850800  0.12250600  1
  Li  Li6  1  0.00284300  0.49595900  0.49994600  1
  Li  Li7  1  0.50076000  0.25227100  0.87304800  1
  Li  Li8  1  0.00717700  0.00543700  0.49476000  1
  Mn  Mn9  1  0.99925600  0.00033100  0.00002300  1
  Mn  Mn10  1  0.49752800  0.75735300  0.37825600  1
  Co  Co11  1  0.99995800  0.49813600  0.74906600  1
  Co  Co12  1  0.49610300  0.25145700  0.12651400  1
  Co  Co13  1  0.50200000  0.74776900  0.87303700  1
  Co  Co14  1  0.98991600  0.49829300  0.25217800  1
  Co  Co15  1  0.50434400  0.24062800  0.62061100  1
  O  O16  1  0.47181400  0.01149900  0.12106000  1
  O  O17  1  0.02622500  0.74871000  0.48459900  1
  O  O18  1  0.47426400  0.51231200  0.86765900  1
  O  O19  1  0.97613900  0.26249100  0.24261000  1
  O  O20  1  0.49672200  0.02572600  0.62859900  1
  O  O21  1  0.97426900  0.75627600  0.99421200  1
  O  O22  1  0.47082200  0.51010700  0.36662000  1
  O  O23  1  0.97589200  0.26368100  0.74361600  1
  O  O24  1  0.50625200  0.98243000  0.37294300  1
  O  O25  1  0.02581900  0.73656300  0.75344000  1
  O  O26  1  0.52572100  0.49003900  0.13284000  1
  O  O27  1  0.02681800  0.25225300  0.51129500  1
  O  O28  1  0.52730000  0.98629400  0.87753000  1
  O  O29  1  0.97330700  0.73908500  0.26501800  1
  O  O30  1  0.52652000  0.48147200  0.63232200  1
  O  O31  1  0.02751700  0.24355600  0.00585900  1
