# generated using pymatgen
data_Li7Mn4CoO12
_symmetry_space_group_name_H-M   'P 1'
_cell_length_a   5.17269873
_cell_length_b   8.58591600
_cell_length_c   5.19551895
_cell_angle_alpha   90.00010918
_cell_angle_beta   68.02135702
_cell_angle_gamma   90.00000336
_symmetry_Int_Tables_number   1
_chemical_formula_structural   Li7Mn4CoO12
_chemical_formula_sum   'Li7 Mn4 Co1 O12'
_cell_volume   213.97546727
_cell_formula_units_Z   1
loop_
 _symmetry_equiv_pos_site_id
 _symmetry_equiv_pos_as_xyz
  1  'x, y, z'
loop_
 _atom_site_type_symbol
 _atom_site_label
 _atom_site_symmetry_multiplicity
 _atom_site_fract_x
 _atom_site_fract_y
 _atom_site_fract_z
 _atom_site_occupancy
  Li  Li0  1  0.49999800  0.16667300  0.00000000  1
  Li  Li1  1  0.50000000  0.32632600  0.50000000  1
  Li  Li2  1  0.50000000  0.49886000  0.99999900  1
  Li  Li3  1  0.50000000  0.66667700  0.50000000  1
  Li  Li4  1  0.49999900  0.83445800  0.00000000  1
  Li  Li5  1  0.49999800  0.00697200  0.50000000  1
  Li  Li6  1  0.99999900  0.16664100  0.50000000  1
  Mn  Mn7  1  0.99999600  0.99951000  0.00000400  1
  Mn  Mn8  1  0.99999900  0.33385700  0.00000800  1
  Mn  Mn9  1  0.00000800  0.49621600  0.50000300  1
  Mn  Mn10  1  0.00001500  0.83710400  0.50000100  1
  Co  Co11  1  0.99999700  0.66666200  0.00000200  1
  O  O12  1  0.23488500  0.16668000  0.78068900  1
  O  O13  1  0.21385600  0.33987700  0.23991600  1
  O  O14  1  0.23709000  0.49966400  0.77554100  1
  O  O15  1  0.20919700  0.66667000  0.24977200  1
  O  O16  1  0.23707700  0.83366800  0.77554800  1
  O  O17  1  0.21385900  0.99346400  0.23990000  1
  O  O18  1  0.76511100  0.16668000  0.21930900  1
  O  O19  1  0.78614100  0.33987600  0.76008100  1
  O  O20  1  0.76290900  0.49966400  0.22445600  1
  O  O21  1  0.79080500  0.66667100  0.75022400  1
  O  O22  1  0.76292100  0.83366800  0.22445100  1
  O  O23  1  0.78614200  0.99346200  0.76009800  1
