# generated using pymatgen
data_Li5FeO4F
_symmetry_space_group_name_H-M   'P 1'
_cell_length_a   5.21131006
_cell_length_b   10.34447973
_cell_length_c   9.75013636
_cell_angle_alpha   63.69741748
_cell_angle_beta   83.53939746
_cell_angle_gamma   101.45588740
_symmetry_Int_Tables_number   1
_chemical_formula_structural   Li5FeO4F
_chemical_formula_sum   'Li20 Fe4 O16 F4'
_cell_volume   449.61862136
_cell_formula_units_Z   4
loop_
 _symmetry_equiv_pos_site_id
 _symmetry_equiv_pos_as_xyz
  1  'x, y, z'
loop_
 _atom_site_type_symbol
 _atom_site_label
 _atom_site_symmetry_multiplicity
 _atom_site_fract_x
 _atom_site_fract_y
 _atom_site_fract_z
 _atom_site_occupancy
  Li  Li0  1  0.76808900  0.93441400  0.52541600  1
  Li  Li1  1  0.26809700  0.93441400  0.02541100  1
  Li  Li2  1  0.41640600  0.43457200  0.29008600  1
  Li  Li3  1  0.91637800  0.43456400  0.79008700  1
  Li  Li4  1  0.55766700  0.56105700  0.68221600  1
  Li  Li5  1  0.05768700  0.56106000  0.18222500  1
  Li  Li6  1  0.25334800  0.06100500  0.50681300  1
  Li  Li7  1  0.75333100  0.06101300  0.00681400  1
  Li  Li8  1  0.79494800  0.74582900  0.39373100  1
  Li  Li9  1  0.29495600  0.74583700  0.89372900  1
  Li  Li10  1  0.20072300  0.24600300  0.61019500  1
  Li  Li11  1  0.70071900  0.24601500  0.11019600  1
  Li  Li12  1  0.70984800  0.45502600  0.48247200  1
  Li  Li13  1  0.20984500  0.45504200  0.98245300  1
  Li  Li14  1  0.49512700  0.95492800  0.31274700  1
  Li  Li15  1  0.99513400  0.95491700  0.81275600  1
  Li  Li16  1  0.55676100  0.04370700  0.74079500  1
  Li  Li17  1  0.05671600  0.04370100  0.24079300  1
  Li  Li18  1  0.23721000  0.54368400  0.46549600  1
  Li  Li19  1  0.73724900  0.54372300  0.96549300  1
  Fe  Fe20  1  0.32301300  0.23223900  0.91670100  1
  Fe  Fe21  1  0.65918200  0.73228100  0.10094100  1
  Fe  Fe22  1  0.82299000  0.23221200  0.41669800  1
  Fe  Fe23  1  0.15915800  0.73226400  0.60090300  1
  O  O24  1  0.26524000  0.11123100  0.82767800  1
  O  O25  1  0.76520800  0.11122000  0.32767500  1
  O  O26  1  0.59594100  0.61111300  0.31117000  1
  O  O27  1  0.09596300  0.61110300  0.81117000  1
  O  O28  1  0.51663700  0.76030300  0.53953000  1
  O  O29  1  0.01661400  0.76029700  0.03954800  1
  O  O30  1  0.49369600  0.26025400  0.45005100  1
  O  O31  1  0.99368800  0.26025200  0.95004600  1
  O  O32  1  0.93310400  0.59056300  0.56413600  1
  O  O33  1  0.43310500  0.59058400  0.06414200  1
  O  O34  1  0.90769600  0.09063000  0.59506900  1
  O  O35  1  0.40767500  0.09063000  0.09507700  1
  O  O36  1  0.11743300  0.90320400  0.44284000  1
  O  O37  1  0.61743700  0.90322100  0.94285300  1
  O  O38  1  0.03528400  0.40303100  0.40421700  1
  O  O39  1  0.53527800  0.40304300  0.90422300  1
  F  F40  1  0.37251600  0.41841100  0.63106200  1
  F  F41  1  0.87256700  0.41842900  0.13103700  1
  F  F42  1  0.79616900  0.91855800  0.20062100  1
  F  F43  1  0.29624000  0.91856600  0.70061200  1
