# generated using pymatgen
data_Li4Fe2Ni3Te(PO4)6
_symmetry_space_group_name_H-M   'P 1'
_cell_length_a   8.42461600
_cell_length_b   8.54233842
_cell_length_c   8.55595262
_cell_angle_alpha   63.27582108
_cell_angle_beta   63.91565639
_cell_angle_gamma   63.75143342
_symmetry_Int_Tables_number   1
_chemical_formula_structural   Li4Fe2Ni3Te(PO4)6
_chemical_formula_sum   'Li4 Fe2 Ni3 Te1 P6 O24'
_cell_volume   470.44112531
_cell_formula_units_Z   1
loop_
 _symmetry_equiv_pos_site_id
 _symmetry_equiv_pos_as_xyz
  1  'x, y, z'
loop_
 _atom_site_type_symbol
 _atom_site_label
 _atom_site_symmetry_multiplicity
 _atom_site_fract_x
 _atom_site_fract_y
 _atom_site_fract_z
 _atom_site_occupancy
  Li  Li0  1  0.74042300  0.14688300  0.35730600  1
  Li  Li1  1  0.29696000  0.83982500  0.63671200  1
  Li  Li2  1  0.63384100  0.30103600  0.84411500  1
  Li  Li3  1  0.84610500  0.63204200  0.30610800  1
  Fe  Fe4  1  0.01271100  0.00260200  0.00032100  1
  Fe  Fe5  1  0.48457100  0.50197600  0.49857400  1
  Ni  Ni6  1  0.14104200  0.14733500  0.14525100  1
  Ni  Ni7  1  0.35426600  0.35144200  0.34903200  1
  Ni  Ni8  1  0.64881200  0.65151000  0.65320700  1
  Te  Te9  1  0.84938400  0.84236500  0.84785100  1
  P  P10  1  0.06650600  0.74559000  0.43623800  1
  P  P11  1  0.43390900  0.06356500  0.74909100  1
  P  P12  1  0.25187900  0.53998600  0.95110400  1
  P  P13  1  0.55166400  0.95273900  0.25206000  1
  P  P14  1  0.94062100  0.24776300  0.54031700  1
  P  P15  1  0.74702600  0.43710100  0.06264900  1
  O  O16  1  0.11028800  0.29761100  0.49069900  1
  O  O17  1  0.31318800  0.51328000  0.10406700  1
  O  O18  1  0.06481600  0.90626600  0.25295900  1
  O  O19  1  0.55224000  0.09884000  0.30711300  1
  O  O20  1  0.05832400  0.80991700  0.58635700  1
  O  O21  1  0.25107100  0.58837600  0.42013200  1
  O  O22  1  0.24267600  0.08232800  0.89663100  1
  O  O23  1  0.43858800  0.24197000  0.58278300  1
  O  O24  1  0.17405200  0.39663800  0.98343500  1
  O  O25  1  0.59479700  0.42006100  0.25106900  1
  O  O26  1  0.10218300  0.75039600  0.91468800  1
  O  O27  1  0.39183200  0.00670300  0.18555900  1
  O  O28  1  0.58355300  0.04486700  0.82419200  1
  O  O29  1  0.89425700  0.24325500  0.08327000  1
  O  O30  1  0.40946700  0.56046600  0.75884800  1
  O  O31  1  0.81678900  0.58657200  0.04894400  1
  O  O32  1  0.56242200  0.76049400  0.40968200  1
  O  O33  1  0.75819000  0.90971800  0.09886500  1
  O  O34  1  0.75266600  0.41160400  0.56449600  1
  O  O35  1  0.94445000  0.17633900  0.40420500  1
  O  O36  1  0.48060000  0.89632200  0.69317900  1
  O  O37  1  0.91662800  0.09930400  0.74796800  1
  O  O38  1  0.69056900  0.48495000  0.89584500  1
  O  O39  1  0.89663200  0.68696000  0.48807600  1
