# generated using pymatgen
data_Li6MnV3(PO4)6
_symmetry_space_group_name_H-M   'P 1'
_cell_length_a   9.88077100
_cell_length_b   9.89559910
_cell_length_c   9.90185602
_cell_angle_alpha   86.95809771
_cell_angle_beta   87.68374003
_cell_angle_gamma   87.11349321
_symmetry_Int_Tables_number   1
_chemical_formula_structural   Li6MnV3(PO4)6
_chemical_formula_sum   'Li12 Mn2 V6 P12 O48'
_cell_volume   964.88286649
_cell_formula_units_Z   2
loop_
 _symmetry_equiv_pos_site_id
 _symmetry_equiv_pos_as_xyz
  1  'x, y, z'
loop_
 _atom_site_type_symbol
 _atom_site_label
 _atom_site_symmetry_multiplicity
 _atom_site_fract_x
 _atom_site_fract_y
 _atom_site_fract_z
 _atom_site_occupancy
  Li  Li0  1  0.94808000  0.99844000  0.02429300  1
  Li  Li1  1  0.26365700  0.93271600  0.86249100  1
  Li  Li2  1  0.90192900  0.87187100  0.26312800  1
  Li  Li3  1  0.43120400  0.76876300  0.36275400  1
  Li  Li4  1  0.13469300  0.73845100  0.07079600  1
  Li  Li5  1  0.22907400  0.63142600  0.58151800  1
  Li  Li6  1  0.63686400  0.57168800  0.24088100  1
  Li  Li7  1  0.47974200  0.50944600  0.55166400  1
  Li  Li8  1  0.77229000  0.35079300  0.43584500  1
  Li  Li9  1  0.55630400  0.23566800  0.62845200  1
  Li  Li10  1  0.86687700  0.26615000  0.94395100  1
  Li  Li11  1  0.06569100  0.14101000  0.73241800  1
  Mn  Mn12  1  0.74354500  0.97435400  0.51933500  1
  Mn  Mn13  1  0.24280300  0.02583600  0.46992000  1
  V  V14  1  0.75035000  0.75172700  0.74524700  1
  V  V15  1  0.53516600  0.75055400  0.96316900  1
  V  V16  1  0.97345700  0.53190600  0.75465000  1
  V  V17  1  0.04069100  0.46601000  0.25267300  1
  V  V18  1  0.46918300  0.24984900  0.03064300  1
  V  V19  1  0.25328200  0.24927600  0.25208800  1
  P  P20  1  0.33032000  0.94926900  0.14274600  1
  P  P21  1  0.04636600  0.85353900  0.67011500  1
  P  P22  1  0.44804200  0.82424900  0.64609700  1
  P  P23  1  0.85430400  0.67426500  0.04762400  1
  P  P24  1  0.83282600  0.63771300  0.45208100  1
  P  P25  1  0.35501100  0.55181500  0.16956400  1
  P  P26  1  0.65132600  0.45249800  0.82000200  1
  P  P27  1  0.18080400  0.35538100  0.55160500  1
  P  P28  1  0.15382400  0.32998100  0.95342000  1
  P  P29  1  0.54634000  0.16586800  0.34319100  1
  P  P30  1  0.95518800  0.14987300  0.32691000  1
  P  P31  1  0.67521000  0.04921900  0.85234800  1
  O  O32  1  0.38249900  0.96265900  0.59416500  1
  O  O33  1  0.09856400  0.94496300  0.77468600  1
  O  O34  1  0.67000300  0.88820500  0.87802800  1
  O  O35  1  0.88808600  0.87882500  0.67059600  1
  O  O36  1  0.30832300  0.91107700  0.29474300  1
  O  O37  1  0.10943400  0.88851400  0.52710600  1
  O  O38  1  0.21588800  0.90957100  0.05442100  1
  O  O39  1  0.46732700  0.88373900  0.09441600  1
  O  O40  1  0.60553600  0.82473600  0.62072800  1
  O  O41  1  0.41074000  0.80983900  0.80043100  1
  O  O42  1  0.80684900  0.78830800  0.41157800  1
  O  O43  1  0.93417600  0.79454100  0.08970400  1
  O  O44  1  0.87815500  0.66999300  0.88801600  1
  O  O45  1  0.40085000  0.70964300  0.56225600  1
  O  O46  1  0.08252900  0.69930900  0.70083600  1
  O  O47  1  0.69953500  0.68696000  0.08454300  1
  O  O48  1  0.83511800  0.61878900  0.61377400  1
  O  O49  1  0.62168100  0.61169600  0.82798400  1
  O  O50  1  0.97351200  0.58934300  0.39334600  1
  O  O51  1  0.40088400  0.61817500  0.03252800  1
  O  O52  1  0.44040700  0.59567800  0.28395100  1
  O  O53  1  0.72259300  0.54655700  0.40868300  1
  O  O54  1  0.19945800  0.58756600  0.19057700  1
  O  O55  1  0.91086900  0.54021300  0.11282900  1
  O  O56  1  0.11489000  0.47013100  0.89045800  1
  O  O57  1  0.80805600  0.42125500  0.82442300  1
  O  O58  1  0.58983800  0.40879100  0.69232600  1
  O  O59  1  0.29638300  0.44080300  0.58813800  1
  O  O60  1  0.58831300  0.38430500  0.95150700  1
  O  O61  1  0.04349500  0.40778700  0.61692900  1
  O  O62  1  0.37680500  0.39196600  0.16412400  1
  O  O63  1  0.17251100  0.37684700  0.38977600  1
  O  O64  1  0.92244600  0.30590000  0.29923300  1
  O  O65  1  0.31066500  0.29726900  0.92835700  1
  O  O66  1  0.60223100  0.27098500  0.43108300  1
  O  O67  1  0.12555800  0.33039500  0.11309100  1
  O  O68  1  0.06666600  0.22022900  0.90448800  1
  O  O69  1  0.56912500  0.20825100  0.18661100  1
  O  O70  1  0.19566900  0.20217900  0.58976100  1
  O  O71  1  0.38760900  0.17028900  0.37827400  1
  O  O72  1  0.54194900  0.11001500  0.92160900  1
  O  O73  1  0.80182800  0.09264700  0.91759400  1
  O  O74  1  0.88979500  0.11440400  0.46590400  1
  O  O75  1  0.66818300  0.08654000  0.70030200  1
  O  O76  1  0.11747600  0.12204700  0.33561200  1
  O  O77  1  0.91506600  0.06413900  0.21316600  1
  O  O78  1  0.33591300  0.11115300  0.12337100  1
  O  O79  1  0.60532500  0.02317300  0.36905000  1
