# generated using pymatgen
data_Li4V5Ni3O16
_symmetry_space_group_name_H-M   'P 1'
_cell_length_a   5.89404500
_cell_length_b   5.89531962
_cell_length_c   9.54242899
_cell_angle_alpha   90.45945344
_cell_angle_beta   89.89213236
_cell_angle_gamma   119.84617268
_symmetry_Int_Tables_number   1
_chemical_formula_structural   Li4V5Ni3O16
_chemical_formula_sum   'Li4 V5 Ni3 O16'
_cell_volume   287.58499688
_cell_formula_units_Z   1
loop_
 _symmetry_equiv_pos_site_id
 _symmetry_equiv_pos_as_xyz
  1  'x, y, z'
loop_
 _atom_site_type_symbol
 _atom_site_label
 _atom_site_symmetry_multiplicity
 _atom_site_fract_x
 _atom_site_fract_y
 _atom_site_fract_z
 _atom_site_occupancy
  Li  Li0  1  0.34628000  0.65307600  0.89977900  1
  Li  Li1  1  0.99409400  0.99792400  0.98847700  1
  Li  Li2  1  0.99493500  0.00053700  0.49608600  1
  Li  Li3  1  0.67033900  0.33490400  0.39821600  1
  V  V4  1  0.16728200  0.35438000  0.22252400  1
  V  V5  1  0.65787800  0.84618300  0.21570300  1
  V  V6  1  0.81675300  0.18173400  0.73769000  1
  V  V7  1  0.33061100  0.66231800  0.50084700  1
  V  V8  1  0.63798400  0.33975900  0.99623800  1
  Ni  Ni9  1  0.16325200  0.82681500  0.21200200  1
  Ni  Ni10  1  0.34422600  0.17305000  0.70760500  1
  Ni  Ni11  1  0.82804300  0.65761700  0.70606500  1
  O  O12  1  0.17695200  0.35454400  0.58991600  1
  O  O13  1  0.47776300  0.52003700  0.34341900  1
  O  O14  1  0.33040300  0.64349800  0.10306000  1
  O  O15  1  0.00494500  0.02051400  0.30587900  1
  O  O16  1  0.98888100  0.01225600  0.79285600  1
  O  O17  1  0.64684700  0.82454200  0.58720400  1
  O  O18  1  0.04589300  0.51831000  0.34939900  1
  O  O19  1  0.49703600  0.96051800  0.33900200  1
  O  O20  1  0.82870800  0.17182600  0.10230000  1
  O  O21  1  0.17623500  0.82698700  0.58212900  1
  O  O22  1  0.53062000  0.02628600  0.84417400  1
  O  O23  1  0.97230500  0.46477200  0.84505900  1
  O  O24  1  0.69063900  0.30926400  0.60431700  1
  O  O25  1  0.33584200  0.16944800  0.09184400  1
  O  O26  1  0.53333800  0.47765300  0.84722200  1
  O  O27  1  0.81161700  0.67094900  0.09882700  1
