# generated using pymatgen
data_Li4Ti3V6O18
_symmetry_space_group_name_H-M   'P 1'
_cell_length_a   2.98734700
_cell_length_b   9.01153100
_cell_length_c   25.35725400
_cell_angle_alpha   90.00000000
_cell_angle_beta   90.00000000
_cell_angle_gamma   90.00000000
_symmetry_Int_Tables_number   1
_chemical_formula_structural   Li4Ti3V6O18
_chemical_formula_sum   'Li8 Ti6 V12 O36'
_cell_volume   682.63173381
_cell_formula_units_Z   2
loop_
 _symmetry_equiv_pos_site_id
 _symmetry_equiv_pos_as_xyz
  1  'x, y, z'
loop_
 _atom_site_type_symbol
 _atom_site_label
 _atom_site_symmetry_multiplicity
 _atom_site_fract_x
 _atom_site_fract_y
 _atom_site_fract_z
 _atom_site_occupancy
  Li  Li0  1  0.00000000  0.94513100  0.99100800  1
  Li  Li1  1  0.00000000  0.93670600  0.19712400  1
  Li  Li2  1  0.00000000  0.06329400  0.69712400  1
  Li  Li3  1  0.00000000  0.05486900  0.49100800  1
  Li  Li4  1  0.00000000  0.43994800  0.50871700  1
  Li  Li5  1  0.00000000  0.42755800  0.29785400  1
  Li  Li6  1  0.00000000  0.57244200  0.79785400  1
  Li  Li7  1  0.00000000  0.56005200  0.00871700  1
  Ti  Ti8  1  0.00000000  0.74634800  0.10168100  1
  Ti  Ti9  1  0.00000000  0.25365200  0.60168100  1
  Ti  Ti10  1  0.00000000  0.23890100  0.39823300  1
  Ti  Ti11  1  0.50000000  0.39174000  0.69693200  1
  Ti  Ti12  1  0.50000000  0.60826000  0.19693200  1
  Ti  Ti13  1  0.00000000  0.76109900  0.89823300  1
  V  V14  1  0.00000000  0.74760800  0.49958100  1
  V  V15  1  0.00000000  0.77730900  0.31152200  1
  V  V16  1  0.50000000  0.89688900  0.58553800  1
  V  V17  1  0.50000000  0.89235400  0.80346700  1
  V  V18  1  0.50000000  0.10764600  0.30346700  1
  V  V19  1  0.50000000  0.10311100  0.08553800  1
  V  V20  1  0.00000000  0.22269100  0.81152200  1
  V  V21  1  0.00000000  0.25239200  0.99958100  1
  V  V22  1  0.00000000  0.27264900  0.19038800  1
  V  V23  1  0.50000000  0.40292700  0.91408300  1
  V  V24  1  0.50000000  0.59707300  0.41408300  1
  V  V25  1  0.00000000  0.72735100  0.69038800  1
  O  O26  1  0.00000000  0.74728000  0.42559300  1
  O  O27  1  0.00000000  0.74871000  0.57461200  1
  O  O28  1  0.50000000  0.81809200  0.94106900  1
  O  O29  1  0.50000000  0.80069900  0.15778000  1
  O  O30  1  0.50000000  0.85426800  0.66318300  1
  O  O31  1  0.00000000  0.83466000  0.75837000  1
  O  O32  1  0.50000000  0.89681700  0.50399000  1
  O  O33  1  0.50000000  0.90812800  0.28132200  1
  O  O34  1  0.00000000  0.94235800  0.85344900  1
  O  O35  1  0.00000000  0.94780400  0.08163500  1
  O  O36  1  0.00000000  0.05219600  0.58163500  1
  O  O37  1  0.00000000  0.05764200  0.35344900  1
  O  O38  1  0.50000000  0.09187200  0.78132200  1
  O  O39  1  0.50000000  0.10318300  0.00399000  1
  O  O40  1  0.00000000  0.16534000  0.25837000  1
  O  O41  1  0.50000000  0.14573200  0.16318300  1
  O  O42  1  0.50000000  0.19930100  0.65778000  1
  O  O43  1  0.50000000  0.18190800  0.44106900  1
  O  O44  1  0.00000000  0.25129000  0.07461200  1
  O  O45  1  0.00000000  0.25272000  0.92559300  1
  O  O46  1  0.50000000  0.31535700  0.55945800  1
  O  O47  1  0.50000000  0.29520000  0.34119400  1
  O  O48  1  0.50000000  0.34874600  0.83787900  1
  O  O49  1  0.00000000  0.33456300  0.74336600  1
  O  O50  1  0.50000000  0.40188200  0.99563900  1
  O  O51  1  0.50000000  0.40425000  0.22008600  1
  O  O52  1  0.00000000  0.43869200  0.64816000  1
  O  O53  1  0.00000000  0.44326100  0.41708700  1
  O  O54  1  0.00000000  0.55673900  0.91708700  1
  O  O55  1  0.00000000  0.56130800  0.14816000  1
  O  O56  1  0.50000000  0.59575000  0.72008600  1
  O  O57  1  0.50000000  0.59811800  0.49563900  1
  O  O58  1  0.00000000  0.66543700  0.24336600  1
  O  O59  1  0.50000000  0.65125400  0.33787900  1
  O  O60  1  0.50000000  0.70480000  0.84119400  1
  O  O61  1  0.50000000  0.68464300  0.05945800  1
