# generated using pymatgen
data_Li9Mn2Co5O16
_symmetry_space_group_name_H-M   'P 1'
_cell_length_a   2.94721300
_cell_length_b   10.15095606
_cell_length_c   10.64660383
_cell_angle_alpha   113.90180982
_cell_angle_beta   94.97398013
_cell_angle_gamma   92.44300946
_symmetry_Int_Tables_number   1
_chemical_formula_structural   Li9Mn2Co5O16
_chemical_formula_sum   'Li9 Mn2 Co5 O16'
_cell_volume   289.04361556
_cell_formula_units_Z   1
loop_
 _symmetry_equiv_pos_site_id
 _symmetry_equiv_pos_as_xyz
  1  'x, y, z'
loop_
 _atom_site_type_symbol
 _atom_site_label
 _atom_site_symmetry_multiplicity
 _atom_site_fract_x
 _atom_site_fract_y
 _atom_site_fract_z
 _atom_site_occupancy
  Li  Li0  1  0.13071300  0.93684300  0.25259900  1
  Li  Li1  1  0.87022800  0.06896000  0.75346900  1
  Li  Li2  1  0.61012500  0.19074300  0.24446100  1
  Li  Li3  1  0.62477100  0.68453200  0.24744400  1
  Li  Li4  1  0.38051000  0.81102200  0.75171300  1
  Li  Li5  1  0.11678800  0.42768500  0.23857600  1
  Li  Li6  1  0.87816800  0.56266900  0.75110800  1
  Li  Li7  1  0.38889600  0.31752500  0.75470900  1
  Li  Li8  1  0.51998200  0.25226900  0.00944800  1
  Mn  Mn9  1  0.99083100  0.00545000  0.00036400  1
  Mn  Mn10  1  0.75030600  0.12582500  0.50124000  1
  Co  Co11  1  0.24604200  0.37391600  0.49583300  1
  Co  Co12  1  0.00675600  0.49107700  0.99893800  1
  Co  Co13  1  0.74982700  0.62447700  0.49906800  1
  Co  Co14  1  0.48777000  0.74691400  0.99688800  1
  Co  Co15  1  0.25542100  0.87547100  0.50380500  1
  O  O16  1  0.52268600  0.95859600  0.10463200  1
  O  O17  1  0.34924300  0.09316300  0.62333000  1
  O  O18  1  0.06085300  0.19828300  0.11607900  1
  O  O19  1  0.07793900  0.70576000  0.10817600  1
  O  O20  1  0.81947100  0.84376500  0.61635000  1
  O  O21  1  0.59550600  0.47471700  0.11615400  1
  O  O22  1  0.31608800  0.59248400  0.61480600  1
  O  O23  1  0.81564700  0.34179700  0.61338900  1
  O  O24  1  0.68437700  0.90922700  0.38505800  1
  O  O25  1  0.45801200  0.02626600  0.89000600  1
  O  O26  1  0.15154000  0.15612100  0.38082600  1
  O  O27  1  0.18514300  0.65901500  0.38637600  1
  O  O28  1  0.90759900  0.78813200  0.88704700  1
  O  O29  1  0.67920200  0.40698900  0.38322100  1
  O  O30  1  0.42504600  0.54153200  0.88849800  1
  O  O31  1  0.94451600  0.30877700  0.88639300  1
