# generated using pymatgen
data_Li5Cr(P2O7)2
_symmetry_space_group_name_H-M   'P 1'
_cell_length_a   6.98920600
_cell_length_b   8.77385886
_cell_length_c   9.24022433
_cell_angle_alpha   81.16753153
_cell_angle_beta   79.09585324
_cell_angle_gamma   69.58084545
_symmetry_Int_Tables_number   1
_chemical_formula_structural   Li5Cr(P2O7)2
_chemical_formula_sum   'Li10 Cr2 P8 O28'
_cell_volume   519.07499277
_cell_formula_units_Z   2
loop_
 _symmetry_equiv_pos_site_id
 _symmetry_equiv_pos_as_xyz
  1  'x, y, z'
loop_
 _atom_site_type_symbol
 _atom_site_label
 _atom_site_symmetry_multiplicity
 _atom_site_fract_x
 _atom_site_fract_y
 _atom_site_fract_z
 _atom_site_occupancy
  Li  Li0  1  0.31876300  0.17221200  0.26315800  1
  Li  Li1  1  0.25565800  0.25502200  0.56934500  1
  Li  Li2  1  0.75225800  0.27909600  0.09017600  1
  Li  Li3  1  0.05261300  0.52048900  0.14284700  1
  Li  Li4  1  0.42647700  0.50242400  0.33721900  1
  Li  Li5  1  0.57352300  0.49757600  0.66278100  1
  Li  Li6  1  0.94738700  0.47951100  0.85715300  1
  Li  Li7  1  0.24774200  0.72090400  0.90982400  1
  Li  Li8  1  0.74434200  0.74497800  0.43065500  1
  Li  Li9  1  0.68123700  0.82778800  0.73684200  1
  Cr  Cr10  1  0.86954300  0.14256500  0.74568000  1
  Cr  Cr11  1  0.13045700  0.85743500  0.25432000  1
  P  P12  1  0.18124400  0.09572200  0.96555200  1
  P  P13  1  0.70732700  0.09991500  0.44814200  1
  P  P14  1  0.40198000  0.33860700  0.94851500  1
  P  P15  1  0.86571000  0.37903600  0.43016900  1
  P  P16  1  0.13429000  0.62096400  0.56983100  1
  P  P17  1  0.59802000  0.66139300  0.05148500  1
  P  P18  1  0.29267300  0.90008500  0.55185800  1
  P  P19  1  0.81875600  0.90427800  0.03444800  1
  O  O20  1  0.15623200  0.05444300  0.62702000  1
  O  O21  1  0.13705300  0.07979900  0.13743600  1
  O  O22  1  0.74566500  0.06366500  0.09721400  1
  O  O23  1  0.72489200  0.07508500  0.61458000  1
  O  O24  1  0.99611300  0.22552800  0.89297900  1
  O  O25  1  0.48573700  0.16242800  0.41971500  1
  O  O26  1  0.36252300  0.17449600  0.92128600  1
  O  O27  1  0.07413800  0.37078900  0.34113500  1
  O  O28  1  0.42709600  0.33356000  0.10954900  1
  O  O29  1  0.80238200  0.24161800  0.36908200  1
  O  O30  1  0.60095700  0.32414500  0.83615900  1
  O  O31  1  0.87218300  0.33597300  0.59933600  1
  O  O32  1  0.21527400  0.48826800  0.91256500  1
  O  O33  1  0.31116400  0.46008500  0.58782400  1
  O  O34  1  0.68883600  0.53991500  0.41217600  1
  O  O35  1  0.78472600  0.51173200  0.08743500  1
  O  O36  1  0.12781700  0.66402700  0.40066400  1
  O  O37  1  0.39904300  0.67585500  0.16384100  1
  O  O38  1  0.19761800  0.75838200  0.63091800  1
  O  O39  1  0.57290400  0.66644000  0.89045100  1
  O  O40  1  0.92586200  0.62921100  0.65886500  1
  O  O41  1  0.63747700  0.82550400  0.07871400  1
  O  O42  1  0.51426300  0.83757200  0.58028500  1
  O  O43  1  0.00388700  0.77447200  0.10702100  1
  O  O44  1  0.27510800  0.92491500  0.38542000  1
  O  O45  1  0.25433500  0.93633500  0.90278600  1
  O  O46  1  0.86294700  0.92020100  0.86256400  1
  O  O47  1  0.84376800  0.94555700  0.37298000  1
