# generated using pymatgen
data_Li4Mn5Cu(PO4)6
_symmetry_space_group_name_H-M   'P 1'
_cell_length_a   8.51826473
_cell_length_b   8.94893893
_cell_length_c   9.06568235
_cell_angle_alpha   58.72083467
_cell_angle_beta   59.37775683
_cell_angle_gamma   58.53193603
_symmetry_Int_Tables_number   1
_chemical_formula_structural   Li4Mn5Cu(PO4)6
_chemical_formula_sum   'Li4 Mn5 Cu1 P6 O24'
_cell_volume   476.07378512
_cell_formula_units_Z   1
loop_
 _symmetry_equiv_pos_site_id
 _symmetry_equiv_pos_as_xyz
  1  'x, y, z'
loop_
 _atom_site_type_symbol
 _atom_site_label
 _atom_site_symmetry_multiplicity
 _atom_site_fract_x
 _atom_site_fract_y
 _atom_site_fract_z
 _atom_site_occupancy
  Li  Li0  1  0.25446600  0.84964100  0.64172400  1
  Li  Li1  1  0.74555600  0.15934100  0.33011600  1
  Li  Li2  1  0.71754100  0.78947200  0.14054700  1
  Li  Li3  1  0.71591400  0.32670900  0.81000000  1
  Mn  Mn4  1  0.00180000  0.99534900  0.01093900  1
  Mn  Mn5  1  0.06178800  0.65172300  0.64045100  1
  Mn  Mn6  1  0.50338000  0.49181600  0.49910700  1
  Mn  Mn7  1  0.44195700  0.85116400  0.84965400  1
  Mn  Mn8  1  0.96219900  0.34991600  0.34502100  1
  Cu  Cu9  1  0.52142400  0.14961100  0.18059100  1
  P  P10  1  0.25934900  0.25388500  0.55865700  1
  P  P11  1  0.24144700  0.94505500  0.24834400  1
  P  P12  1  0.25875600  0.54978800  0.94611800  1
  P  P13  1  0.75842900  0.46255700  0.03054900  1
  P  P14  1  0.77034000  0.03211600  0.74803300  1
  P  P15  1  0.72368100  0.75820400  0.45391700  1
  O  O16  1  0.05488600  0.10196600  0.30352000  1
  O  O17  1  0.06801900  0.53037200  0.09423200  1
  O  O18  1  0.07733000  0.30346300  0.52499400  1
  O  O19  1  0.24857300  0.08532000  0.74714000  1
  O  O20  1  0.45292700  0.20557700  0.40559700  1
  O  O21  1  0.25892900  0.41328300  0.58577700  1
  O  O22  1  0.22845600  0.91365100  0.10345400  1
  O  O23  1  0.26084800  0.75495400  0.41974200  1
  O  O24  1  0.57295600  0.60563800  0.98211000  1
  O  O25  1  0.29066900  0.57358400  0.75057400  1
  O  O26  1  0.79445100  0.26834900  0.03803200  1
  O  O27  1  0.60679700  0.96484700  0.81292900  1
  O  O28  1  0.43279700  0.97279300  0.18705800  1
  O  O29  1  0.24069700  0.74868000  0.91879100  1
  O  O30  1  0.72463100  0.43913900  0.22701800  1
  O  O31  1  0.43940100  0.38201200  0.99199000  1
  O  O32  1  0.72830800  0.23502900  0.60452700  1
  O  O33  1  0.78654000  0.04241600  0.90673800  1
  O  O34  1  0.72345000  0.60927100  0.41064900  1
  O  O35  1  0.52628000  0.81831300  0.59476300  1
  O  O36  1  0.74774500  0.92672600  0.26288200  1
  O  O37  1  0.89320100  0.69589900  0.51121100  1
  O  O38  1  0.93414100  0.52161800  0.88734600  1
  O  O39  1  0.96994100  0.89375200  0.67216200  1
