# generated using pymatgen
data_LiZnPO4
_symmetry_space_group_name_H-M   'P 1'
_cell_length_a   8.58166057
_cell_length_b   8.58166057
_cell_length_c   8.58166015
_cell_angle_alpha   107.89095500
_cell_angle_beta   107.89095500
_cell_angle_gamma   107.89095332
_symmetry_Int_Tables_number   1
_chemical_formula_structural   LiZnPO4
_chemical_formula_sum   'Li6 Zn6 P6 O24'
_cell_volume   513.00247688
_cell_formula_units_Z   6
loop_
 _symmetry_equiv_pos_site_id
 _symmetry_equiv_pos_as_xyz
  1  'x, y, z'
loop_
 _atom_site_type_symbol
 _atom_site_label
 _atom_site_symmetry_multiplicity
 _atom_site_fract_x
 _atom_site_fract_y
 _atom_site_fract_z
 _atom_site_occupancy
  Li  Li0  1  0.38790900  0.78954400  0.57070800  1
  Li  Li1  1  0.87306300  0.10607100  0.27815600  1
  Li  Li2  1  0.10607100  0.27815600  0.87306300  1
  Li  Li3  1  0.27815600  0.87306300  0.10607100  1
  Li  Li4  1  0.78954400  0.57070800  0.38790900  1
  Li  Li5  1  0.57070800  0.38790900  0.78954400  1
  Zn  Zn6  1  0.94701100  0.54460700  0.76372200  1
  Zn  Zn7  1  0.54460700  0.76372200  0.94701100  1
  Zn  Zn8  1  0.76372200  0.94701100  0.54460700  1
  Zn  Zn9  1  0.05750300  0.46264400  0.23043600  1
  Zn  Zn10  1  0.46264400  0.23043600  0.05750300  1
  Zn  Zn11  1  0.23043600  0.05750300  0.46264400  1
  P  P12  1  0.90583200  0.71796900  0.12419100  1
  P  P13  1  0.71796900  0.12419100  0.90583200  1
  P  P14  1  0.12419100  0.90583200  0.71796900  1
  P  P15  1  0.20855900  0.43147100  0.61459600  1
  P  P16  1  0.43147100  0.61459600  0.20855900  1
  P  P17  1  0.61459600  0.20855900  0.43147100  1
  O  O18  1  0.31144500  0.63205000  0.31088000  1
  O  O19  1  0.69109200  0.35327700  0.63165000  1
  O  O20  1  0.63165000  0.69109200  0.35327700  1
  O  O21  1  0.92359100  0.25612000  0.97979900  1
  O  O22  1  0.25612000  0.97979900  0.92359100  1
  O  O23  1  0.97979900  0.92359100  0.25612000  1
  O  O24  1  0.69856900  0.02344000  0.02728600  1
  O  O25  1  0.02344000  0.02728600  0.69856900  1
  O  O26  1  0.02728600  0.69856900  0.02344000  1
  O  O27  1  0.35327700  0.63165000  0.69109200  1
  O  O28  1  0.31088000  0.31144500  0.63205000  1
  O  O29  1  0.63205000  0.31088000  0.31144500  1
  O  O30  1  0.41069500  0.07526400  0.35962100  1
  O  O31  1  0.35962100  0.41069500  0.07526400  1
  O  O32  1  0.07526400  0.35962100  0.41069500  1
  O  O33  1  0.64334500  0.98001200  0.70676400  1
  O  O34  1  0.70676400  0.64334500  0.98001200  1
  O  O35  1  0.98001200  0.70676400  0.64334500  1
  O  O36  1  0.23535000  0.91442700  0.60529900  1
  O  O37  1  0.60529900  0.23535000  0.91442700  1
  O  O38  1  0.91442700  0.60529900  0.23535000  1
  O  O39  1  0.72900800  0.09975000  0.41840000  1
  O  O40  1  0.41840000  0.72900800  0.09975000  1
  O  O41  1  0.09975000  0.41840000  0.72900800  1
