# generated using pymatgen
data_Li3Ti4O8
_symmetry_space_group_name_H-M   'P 1'
_cell_length_a   9.65366900
_cell_length_b   5.08982400
_cell_length_c   5.72268033
_cell_angle_alpha   89.48482286
_cell_angle_beta   90.00000000
_cell_angle_gamma   90.00000000
_symmetry_Int_Tables_number   1
_chemical_formula_structural   Li3Ti4O8
_chemical_formula_sum   'Li6 Ti8 O16'
_cell_volume   281.17525644
_cell_formula_units_Z   2
loop_
 _symmetry_equiv_pos_site_id
 _symmetry_equiv_pos_as_xyz
  1  'x, y, z'
loop_
 _atom_site_type_symbol
 _atom_site_label
 _atom_site_symmetry_multiplicity
 _atom_site_fract_x
 _atom_site_fract_y
 _atom_site_fract_z
 _atom_site_occupancy
  Li  Li0  1  0.11076000  0.43654900  0.61943000  1
  Li  Li1  1  0.61076000  0.56345100  0.38057000  1
  Li  Li2  1  0.10912100  0.92471700  0.37385800  1
  Li  Li3  1  0.60912100  0.07528300  0.62614200  1
  Li  Li4  1  0.88519800  0.57526700  0.88087200  1
  Li  Li5  1  0.38519800  0.42473300  0.11912800  1
  Ti  Ti6  1  0.61945400  0.61380500  0.87841500  1
  Ti  Ti7  1  0.11945400  0.38619500  0.12158500  1
  Ti  Ti8  1  0.37932100  0.90545600  0.36442800  1
  Ti  Ti9  1  0.87932100  0.09454400  0.63557200  1
  Ti  Ti10  1  0.37108600  0.39032700  0.63211100  1
  Ti  Ti11  1  0.87108600  0.60967300  0.36788900  1
  Ti  Ti12  1  0.62908600  0.08467100  0.12898800  1
  Ti  Ti13  1  0.12908600  0.91532900  0.87101200  1
  O  O14  1  0.74371800  0.92974900  0.85696400  1
  O  O15  1  0.24371800  0.07025100  0.14303600  1
  O  O16  1  0.25755100  0.56244500  0.37528300  1
  O  O17  1  0.75755100  0.43755500  0.62471700  1
  O  O18  1  0.24833900  0.07055000  0.62631200  1
  O  O19  1  0.74833900  0.92945000  0.37368800  1
  O  O20  1  0.74087100  0.44854700  0.12643100  1
  O  O21  1  0.24087100  0.55145300  0.87356900  1
  O  O22  1  0.50923100  0.26811400  0.87745800  1
  O  O23  1  0.00923100  0.73188600  0.12254200  1
  O  O24  1  0.49691900  0.24221900  0.37956300  1
  O  O25  1  0.99691900  0.75778100  0.62043700  1
  O  O26  1  0.49400700  0.73238800  0.61625600  1
  O  O27  1  0.99400700  0.26761200  0.38374400  1
  O  O28  1  0.50233800  0.75230000  0.12578000  1
  O  O29  1  0.00233800  0.24770000  0.87422000  1
