# generated using pymatgen
data_KLiGd2(MoO4)4
_symmetry_space_group_name_H-M   'P 1'
_cell_length_a   6.96232314
_cell_length_b   6.96232314
_cell_length_c   19.65175994
_cell_angle_alpha   88.83899113
_cell_angle_beta   88.83899113
_cell_angle_gamma   135.14862029
_symmetry_Int_Tables_number   1
_chemical_formula_structural   KLiGd2(MoO4)4
_chemical_formula_sum   'K2 Li2 Gd4 Mo8 O32'
_cell_volume   670.89090531
_cell_formula_units_Z   2
loop_
 _symmetry_equiv_pos_site_id
 _symmetry_equiv_pos_as_xyz
  1  'x, y, z'
loop_
 _atom_site_type_symbol
 _atom_site_label
 _atom_site_symmetry_multiplicity
 _atom_site_fract_x
 _atom_site_fract_y
 _atom_site_fract_z
 _atom_site_occupancy
  K  K0  1  0.53115200  0.46884800  0.75000000  1
  K  K1  1  0.46884800  0.53115200  0.25000000  1
  Li  Li2  1  0.81356700  0.18643300  0.75000000  1
  Li  Li3  1  0.18643300  0.81356700  0.25000000  1
  Gd  Gd4  1  0.64719300  0.35434600  0.53282200  1
  Gd  Gd5  1  0.35280700  0.64565400  0.46717800  1
  Gd  Gd6  1  0.64565400  0.35280700  0.96717800  1
  Gd  Gd7  1  0.35434600  0.64719300  0.03282200  1
  Mo  Mo8  1  0.91859500  0.04343200  0.59197300  1
  Mo  Mo9  1  0.08140500  0.95656800  0.40802700  1
  Mo  Mo10  1  0.95656800  0.08140500  0.90802700  1
  Mo  Mo11  1  0.04343200  0.91859500  0.09197300  1
  Mo  Mo12  1  0.23268300  0.74718700  0.64858900  1
  Mo  Mo13  1  0.76731700  0.25281300  0.35141100  1
  Mo  Mo14  1  0.25281300  0.76731700  0.85141100  1
  Mo  Mo15  1  0.74718700  0.23268300  0.14858900  1
  O  O16  1  0.66954600  0.00842400  0.54287400  1
  O  O17  1  0.33045400  0.99157600  0.45712600  1
  O  O18  1  0.99157600  0.33045400  0.95712600  1
  O  O19  1  0.00842400  0.66954600  0.04287400  1
  O  O20  1  0.48864600  0.76767000  0.67366600  1
  O  O21  1  0.51135400  0.23233000  0.32633400  1
  O  O22  1  0.23233000  0.51135400  0.82633400  1
  O  O23  1  0.76767000  0.48864600  0.17366600  1
  O  O24  1  0.72427700  0.76319100  0.96239900  1
  O  O25  1  0.27572300  0.23680900  0.03760100  1
  O  O26  1  0.23680900  0.27572300  0.53760100  1
  O  O27  1  0.76319100  0.72427700  0.46239900  1
  O  O28  1  0.43366600  0.91416200  0.93283800  1
  O  O29  1  0.56633400  0.08583800  0.06716200  1
  O  O30  1  0.08583800  0.56633400  0.56716200  1
  O  O31  1  0.91416200  0.43366600  0.43283800  1
  O  O32  1  0.80125400  0.98490300  0.82933100  1
  O  O33  1  0.19874600  0.01509700  0.17066900  1
  O  O34  1  0.01509700  0.19874600  0.67066900  1
  O  O35  1  0.98490300  0.80125400  0.32933100  1
  O  O36  1  0.72266200  0.81184200  0.10180300  1
  O  O37  1  0.27733800  0.18815800  0.89819700  1
  O  O38  1  0.18815800  0.27733800  0.39819700  1
  O  O39  1  0.81184200  0.72266200  0.60180300  1
  O  O40  1  0.39760100  0.09543500  0.63314800  1
  O  O41  1  0.60239900  0.90456500  0.36685200  1
  O  O42  1  0.90456500  0.60239900  0.86685200  1
  O  O43  1  0.09543500  0.39760100  0.13314800  1
  O  O44  1  0.43602200  0.02852600  0.78614100  1
  O  O45  1  0.56397800  0.97147400  0.21385900  1
  O  O46  1  0.97147400  0.56397800  0.71385900  1
  O  O47  1  0.02852600  0.43602200  0.28614100  1
