# generated using pymatgen
data_Li6V3P8O29
_symmetry_space_group_name_H-M   'P 1'
_cell_length_a   9.79047000
_cell_length_b   9.81567296
_cell_length_c   13.97322841
_cell_angle_alpha   89.83273031
_cell_angle_beta   89.85575199
_cell_angle_gamma   60.65912881
_symmetry_Int_Tables_number   1
_chemical_formula_structural   Li6V3P8O29
_chemical_formula_sum   'Li12 V6 P16 O58'
_cell_volume   1170.56404201
_cell_formula_units_Z   2
loop_
 _symmetry_equiv_pos_site_id
 _symmetry_equiv_pos_as_xyz
  1  'x, y, z'
loop_
 _atom_site_type_symbol
 _atom_site_label
 _atom_site_symmetry_multiplicity
 _atom_site_fract_x
 _atom_site_fract_y
 _atom_site_fract_z
 _atom_site_occupancy
  Li  Li0  1  0.77746000  0.91100900  0.55812600  1
  Li  Li1  1  0.90415400  0.32199100  0.55901700  1
  Li  Li2  1  0.76701500  0.33708600  0.06243500  1
  Li  Li3  1  0.33590700  0.89938900  0.06068300  1
  Li  Li4  1  0.31905100  0.77534000  0.55848200  1
  Li  Li5  1  0.67646700  0.08909100  0.94007800  1
  Li  Li6  1  0.23447200  0.67361700  0.93919200  1
  Li  Li7  1  0.33836500  0.33123300  0.61205500  1
  Li  Li8  1  0.32966000  0.33400100  0.11393400  1
  Li  Li9  1  0.08552300  0.68583900  0.43360500  1
  Li  Li10  1  0.22228400  0.08961000  0.43835300  1
  Li  Li11  1  0.99702000  0.99939600  0.00591200  1
  V  V12  1  0.56921700  0.43272100  0.25464200  1
  V  V13  1  0.43703800  0.56359200  0.74841100  1
  V  V14  1  0.56905100  0.99885300  0.75358700  1
  V  V15  1  0.43238900  0.99948900  0.25046900  1
  V  V16  1  0.99222100  0.57089100  0.24495300  1
  V  V17  1  0.00087800  0.43149200  0.75567100  1
  P  P18  1  0.91916500  0.77378200  0.84131600  1
  P  P19  1  0.76862000  0.91357000  0.33957500  1
  P  P20  1  0.91508400  0.31706500  0.34467100  1
  P  P21  1  0.66014300  0.66768300  0.12704600  1
  P  P22  1  0.67041800  0.66672900  0.62968500  1
  P  P23  1  0.76798700  0.31567600  0.84357100  1
  P  P24  1  0.68237000  0.22818300  0.65925400  1
  P  P25  1  0.31301600  0.91290300  0.84401700  1
  P  P26  1  0.68560100  0.09252500  0.15598200  1
  P  P27  1  0.32202500  0.76600800  0.34189000  1
  P  P28  1  0.22871300  0.68037900  0.15867500  1
  P  P29  1  0.32709000  0.33829100  0.37131200  1
  P  P30  1  0.33627000  0.33226300  0.87226000  1
  P  P31  1  0.08881900  0.67775900  0.65468700  1
  P  P32  1  0.23042400  0.09225000  0.66015800  1
  P  P33  1  0.08759200  0.22096600  0.15966400  1
  O  O34  1  0.00014200  0.74913500  0.56396400  1
  O  O35  1  0.91394700  0.74822400  0.33495600  1
  O  O36  1  0.77184200  0.01136800  0.06650800  1
  O  O37  1  0.75040700  0.91631300  0.84018300  1
  O  O38  1  0.91948900  0.61805400  0.83345800  1
  O  O39  1  0.80361400  0.67177900  0.17095500  1
  O  O40  1  0.91135000  0.47347000  0.32109700  1
  O  O41  1  0.99362200  0.20751700  0.07959000  1
  O  O42  1  0.91027800  0.34195300  0.83480300  1
  O  O43  1  0.67041900  0.81432500  0.67279600  1
  O  O44  1  0.61594000  0.90561300  0.31754300  1
  O  O45  1  0.81599900  0.51661500  0.67035000  1
  O  O46  1  0.65705800  0.65641200  0.02087700  1
  O  O47  1  0.66463500  0.67101000  0.52335500  1
  O  O48  1  0.66380700  0.51519300  0.17140700  1
  O  O49  1  0.46904300  0.91607800  0.82898700  1
  O  O50  1  0.50732000  0.81448200  0.16518600  1
  O  O51  1  0.75069300  0.33944700  0.34075000  1
  O  O52  1  0.78268000  0.20419100  0.75584500  1
  O  O53  1  0.76829400  0.23980900  0.57557800  1
  O  O54  1  0.77328800  0.23003600  0.93458600  1
  O  O55  1  0.61579000  0.47115500  0.83069700  1
  O  O56  1  0.51768500  0.66483500  0.67097100  1
  O  O57  1  0.66746800  0.25740600  0.16070500  1
  O  O58  1  0.48307600  0.62466300  0.32558000  1
  O  O59  1  0.33039100  0.91990500  0.34056600  1
  O  O60  1  0.78889400  0.00324000  0.24899100  1
  O  O61  1  0.75776400  0.99239200  0.43167400  1
  O  O62  1  0.24617200  0.99959100  0.57111900  1
  O  O63  1  0.66230000  0.07997100  0.65917300  1
  O  O64  1  0.51469300  0.37081700  0.67384100  1
  O  O65  1  0.33868900  0.74554900  0.83661500  1
  O  O66  1  0.47399100  0.34060100  0.32594300  1
  O  O67  1  0.37686800  0.51944600  0.16719800  1
  O  O68  1  0.22497100  0.77290600  0.07081400  1
  O  O69  1  0.24283700  0.75466900  0.43173900  1
  O  O70  1  0.21080000  0.78448700  0.25144200  1
  O  O71  1  0.25376300  0.66201800  0.65454600  1
  O  O72  1  0.49341500  0.18711800  0.83662200  1
  O  O73  1  0.52078900  0.10775600  0.16912600  1
  O  O74  1  0.33053700  0.48641400  0.83119400  1
  O  O75  1  0.33742600  0.33839200  0.97960000  1
  O  O76  1  0.33031400  0.33847200  0.47877100  1
  O  O77  1  0.18057200  0.48813000  0.33297800  1
  O  O78  1  0.37437700  0.11562800  0.67667900  1
  O  O79  1  0.32688100  0.18695800  0.33422700  1
  O  O80  1  0.08454600  0.65570400  0.16130000  1
  O  O81  1  0.99477600  0.79187700  0.74119400  1
  O  O82  1  0.01127800  0.78991100  0.92168600  1
  O  O83  1  0.10906000  0.51298000  0.67519400  1
  O  O84  1  0.19531100  0.32434100  0.82829800  1
  O  O85  1  0.10195600  0.37070300  0.16538300  1
  O  O86  1  0.25821900  0.07923900  0.15956000  1
  O  O87  1  0.23044400  0.98731600  0.93518900  1
  O  O88  1  0.20906600  0.00365100  0.75135900  1
  O  O89  1  0.08147200  0.25468300  0.65910400  1
  O  O90  1  0.00277500  0.24673100  0.43591600  1
  O  O91  1  0.01554100  0.20059800  0.25908600  1
