# generated using pymatgen
data_Li2Mn2CrO6
_symmetry_space_group_name_H-M   'P 1'
_cell_length_a   5.12221485
_cell_length_b   5.12221828
_cell_length_c   10.25403100
_cell_angle_alpha   90.00077281
_cell_angle_beta   90.00045588
_cell_angle_gamma   118.43774454
_symmetry_Int_Tables_number   1
_chemical_formula_structural   Li2Mn2CrO6
_chemical_formula_sum   'Li4 Mn4 Cr2 O12'
_cell_volume   236.57284159
_cell_formula_units_Z   2
loop_
 _symmetry_equiv_pos_site_id
 _symmetry_equiv_pos_as_xyz
  1  'x, y, z'
loop_
 _atom_site_type_symbol
 _atom_site_label
 _atom_site_symmetry_multiplicity
 _atom_site_fract_x
 _atom_site_fract_y
 _atom_site_fract_z
 _atom_site_occupancy
  Li  Li0  1  0.11904300  0.62319700  0.75154000  1
  Li  Li1  1  0.37680000  0.88094900  0.24845900  1
  Li  Li2  1  0.61905800  0.12319300  0.74845500  1
  Li  Li3  1  0.87679200  0.38093400  0.25154300  1
  Mn  Mn4  1  0.16152600  0.83846100  0.50000100  1
  Mn  Mn5  1  0.33472900  0.66529300  0.00000000  1
  Mn  Mn6  1  0.66158400  0.33843700  0.99999600  1
  Mn  Mn7  1  0.83471700  0.16526500  0.50000500  1
  Cr  Cr8  1  0.00225600  0.99775300  0.99999800  1
  Cr  Cr9  1  0.50223700  0.49776400  0.49999800  1
  O  O10  1  0.04473400  0.68920200  0.11131500  1
  O  O11  1  0.99801400  0.34376800  0.90036800  1
  O  O12  1  0.15620700  0.50201000  0.40037800  1
  O  O13  1  0.49797300  0.84377900  0.59962500  1
  O  O14  1  0.16154300  0.16569100  0.59534300  1
  O  O15  1  0.33436400  0.33844000  0.09532900  1
  O  O16  1  0.66158400  0.66566400  0.90466700  1
  O  O17  1  0.31080900  0.95527900  0.88868400  1
  O  O18  1  0.83429100  0.83843500  0.40466300  1
  O  O19  1  0.54469700  0.18919100  0.38868400  1
  O  O20  1  0.81079500  0.45528700  0.61131900  1
  O  O21  1  0.65624700  0.00200900  0.09962900  1
