# generated using pymatgen
data_Li6V3P8O29
_symmetry_space_group_name_H-M   'P 1'
_cell_length_a   9.86480319
_cell_length_b   9.86480319
_cell_length_c   13.92940514
_cell_angle_alpha   89.75811288
_cell_angle_beta   89.75811288
_cell_angle_gamma   59.77934608
_symmetry_Int_Tables_number   1
_chemical_formula_structural   Li6V3P8O29
_chemical_formula_sum   'Li12 V6 P16 O58'
_cell_volume   1171.29143783
_cell_formula_units_Z   2
loop_
 _symmetry_equiv_pos_site_id
 _symmetry_equiv_pos_as_xyz
  1  'x, y, z'
loop_
 _atom_site_type_symbol
 _atom_site_label
 _atom_site_symmetry_multiplicity
 _atom_site_fract_x
 _atom_site_fract_y
 _atom_site_fract_z
 _atom_site_occupancy
  Li  Li0  1  0.91401300  0.77362100  0.93924900  1
  Li  Li1  1  0.77362100  0.91401300  0.43924900  1
  Li  Li2  1  0.90819000  0.31507400  0.44060300  1
  Li  Li3  1  0.66526600  0.66497100  0.61706200  1
  Li  Li4  1  0.66497100  0.66526600  0.11706200  1
  Li  Li5  1  0.77082600  0.31957500  0.93733800  1
  Li  Li6  1  0.31507400  0.90819000  0.94060300  1
  Li  Li7  1  0.31957500  0.77082600  0.43733800  1
  Li  Li8  1  0.67774800  0.09581900  0.06000900  1
  Li  Li9  1  0.09581900  0.67774800  0.56000900  1
  Li  Li10  1  0.22489500  0.09570700  0.55985100  1
  Li  Li11  1  0.09570700  0.22489500  0.05985100  1
  V  V12  1  0.56709300  0.42847700  0.74836500  1
  V  V13  1  0.42847700  0.56709300  0.24836500  1
  V  V14  1  0.56777400  0.00308400  0.25287100  1
  V  V15  1  0.43334800  0.00261100  0.74884500  1
  V  V16  1  0.00308400  0.56777400  0.75287100  1
  V  V17  1  0.00261100  0.43334800  0.24884500  1
  P  P18  1  0.90939700  0.77081100  0.15733300  1
  P  P19  1  0.77081100  0.90939700  0.65733300  1
  P  P20  1  0.90887300  0.32301000  0.65915400  1
  P  P21  1  0.66629100  0.66727400  0.87362300  1
  P  P22  1  0.66727400  0.66629100  0.37362300  1
  P  P23  1  0.76953000  0.31924600  0.15575300  1
  P  P24  1  0.68348500  0.23338100  0.34209700  1
  P  P25  1  0.32301000  0.90887300  0.15915400  1
  P  P26  1  0.68031500  0.08622300  0.84105500  1
  P  P27  1  0.31924600  0.76953000  0.65575300  1
  P  P28  1  0.23338100  0.68348500  0.84209700  1
  P  P29  1  0.33431500  0.33352600  0.62641100  1
  P  P30  1  0.33352600  0.33431500  0.12641100  1
  P  P31  1  0.08622300  0.68031500  0.34105500  1
  P  P32  1  0.23140900  0.08677800  0.34234800  1
  P  P33  1  0.08677800  0.23140900  0.84234800  1
  O  O34  1  0.99806700  0.75831200  0.43136500  1
  O  O35  1  0.92043900  0.74181300  0.66262500  1
  O  O36  1  0.75831200  0.99806700  0.93136500  1
  O  O37  1  0.74181300  0.92043900  0.16262500  1
  O  O38  1  0.88668000  0.62685600  0.17456700  1
  O  O39  1  0.81415700  0.67392500  0.83609000  1
  O  O40  1  0.88932700  0.48729300  0.67452900  1
  O  O41  1  0.99629600  0.24557400  0.93237900  1
  O  O42  1  0.91913900  0.33232100  0.15625200  1
  O  O43  1  0.67392500  0.81415700  0.33609000  1
  O  O44  1  0.62685600  0.88668000  0.67456700  1
  O  O45  1  0.81724100  0.51452800  0.33251800  1
  O  O46  1  0.66330000  0.67182000  0.98181500  1
  O  O47  1  0.67182000  0.66330000  0.48181500  1
  O  O48  1  0.67143700  0.51556500  0.83629800  1
  O  O49  1  0.48729300  0.88932700  0.17452900  1
  O  O50  1  0.51452800  0.81724100  0.83251800  1
  O  O51  1  0.74367500  0.34275200  0.66395100  1
  O  O52  1  0.78598900  0.20928700  0.24526400  1
  O  O53  1  0.76919200  0.23960800  0.42714700  1
  O  O54  1  0.75597500  0.24287400  0.06585800  1
  O  O55  1  0.62732400  0.48540300  0.17310700  1
  O  O56  1  0.51556500  0.67143700  0.33629800  1
  O  O57  1  0.66683300  0.24941100  0.83978300  1
  O  O58  1  0.48540300  0.62732400  0.67310700  1
  O  O59  1  0.33232100  0.91913900  0.65625200  1
  O  O60  1  0.78964000  0.99703000  0.74916800  1
  O  O61  1  0.76410600  0.98985100  0.56622600  1
  O  O62  1  0.24557400  0.99629600  0.43237900  1
  O  O63  1  0.66196700  0.08768300  0.34128200  1
  O  O64  1  0.52465600  0.38539700  0.32329400  1
  O  O65  1  0.34275200  0.74367500  0.16395100  1
  O  O66  1  0.48067600  0.32805000  0.67161000  1
  O  O67  1  0.38539700  0.52465600  0.82329400  1
  O  O68  1  0.23960800  0.76919200  0.92714700  1
  O  O69  1  0.24287400  0.75597500  0.56585800  1
  O  O70  1  0.20928700  0.78598900  0.74526400  1
  O  O71  1  0.24941100  0.66683300  0.33978300  1
  O  O72  1  0.48416600  0.18600500  0.16731900  1
  O  O73  1  0.52056900  0.09851600  0.82533700  1
  O  O74  1  0.32805000  0.48067600  0.17161000  1
  O  O75  1  0.32880500  0.32910400  0.01988100  1
  O  O76  1  0.32910400  0.32880500  0.51988100  1
  O  O77  1  0.18600500  0.48416600  0.66731900  1
  O  O78  1  0.38211500  0.09447200  0.32283700  1
  O  O79  1  0.33255700  0.18067500  0.66918400  1
  O  O80  1  0.08768300  0.66196700  0.84128200  1
  O  O81  1  0.99703000  0.78964000  0.24916800  1
  O  O82  1  0.98985100  0.76410600  0.06622600  1
  O  O83  1  0.09851600  0.52056900  0.32533700  1
  O  O84  1  0.18067500  0.33255700  0.16918400  1
  O  O85  1  0.09447200  0.38211500  0.82283700  1
  O  O86  1  0.25055700  0.08488500  0.84247600  1
  O  O87  1  0.24333900  0.99937200  0.06992800  1
  O  O88  1  0.21263800  0.99942200  0.25015700  1
  O  O89  1  0.08488500  0.25055700  0.34247600  1
  O  O90  1  0.99937200  0.24333900  0.56992800  1
  O  O91  1  0.99942200  0.21263800  0.75015700  1
