# generated using pymatgen
data_NaLiTl2
_symmetry_space_group_name_H-M   'P 1'
_cell_length_a   13.02853010
_cell_length_b   13.02853010
_cell_length_c   13.02853010
_cell_angle_alpha   123.34882320
_cell_angle_beta   116.67016137
_cell_angle_gamma   90.08087204
_symmetry_Int_Tables_number   1
_chemical_formula_structural   NaLiTl2
_chemical_formula_sum   'Na1 Li1 Tl2'
_cell_volume   1556.90521577
_cell_formula_units_Z   1
loop_
 _symmetry_equiv_pos_site_id
 _symmetry_equiv_pos_as_xyz
  1  'x, y, z'
loop_
 _atom_site_type_symbol
 _atom_site_label
 _atom_site_symmetry_multiplicity
 _atom_site_fract_x
 _atom_site_fract_y
 _atom_site_fract_z
 _atom_site_occupancy
  Na  Na0  1  0.00000000  0.50000000  0.50000000  1
  Li  Li1  1  0.00000000  0.00000000  0.00000000  1
  Tl  Tl2  1  0.00000000  0.23732600  0.23732600  1
  Tl  Tl3  1  0.00000000  0.76267400  0.76267400  1
