# generated using pymatgen
data_LiVCO4
_symmetry_space_group_name_H-M   'P 1'
_cell_length_a   3.18399063
_cell_length_b   9.40493801
_cell_length_c   9.37554000
_cell_angle_alpha   89.99763855
_cell_angle_beta   89.99930373
_cell_angle_gamma   88.65112979
_symmetry_Int_Tables_number   1
_chemical_formula_structural   LiVCO4
_chemical_formula_sum   'Li4 V4 C4 O16'
_cell_volume   280.67494533
_cell_formula_units_Z   4
loop_
 _symmetry_equiv_pos_site_id
 _symmetry_equiv_pos_as_xyz
  1  'x, y, z'
loop_
 _atom_site_type_symbol
 _atom_site_label
 _atom_site_symmetry_multiplicity
 _atom_site_fract_x
 _atom_site_fract_y
 _atom_site_fract_z
 _atom_site_occupancy
  Li  Li0  1  0.25054600  0.40864600  0.80842100  1
  Li  Li1  1  0.25053500  0.90865800  0.69159900  1
  Li  Li2  1  0.74963000  0.09122300  0.30817600  1
  Li  Li3  1  0.74962200  0.59124700  0.19183200  1
  V  V4  1  0.75609700  0.11875400  0.93911500  1
  V  V5  1  0.75614800  0.61875600  0.56088500  1
  V  V6  1  0.24405500  0.38117300  0.43918800  1
  V  V7  1  0.24406300  0.88116000  0.06079600  1
  C  C8  1  0.25555900  0.33380100  0.13052200  1
  C  C9  1  0.25553800  0.83378600  0.36948600  1
  C  C10  1  0.74426700  0.16623100  0.63054700  1
  C  C11  1  0.74425500  0.66622700  0.86944900  1
  O  O12  1  0.24500700  0.99832400  0.88605100  1
  O  O13  1  0.24505100  0.49831200  0.61393500  1
  O  O14  1  0.75515800  0.50159500  0.38608600  1
  O  O15  1  0.75515300  0.00157500  0.11390400  1
  O  O16  1  0.24115800  0.26122200  0.24975600  1
  O  O17  1  0.24109700  0.76122000  0.25025000  1
  O  O18  1  0.75833300  0.23898300  0.74972200  1
  O  O19  1  0.75829000  0.73897800  0.75026700  1
  O  O20  1  0.26350300  0.25890500  0.00811100  1
  O  O21  1  0.26349500  0.75887000  0.49188400  1
  O  O22  1  0.73671900  0.24108100  0.50809300  1
  O  O23  1  0.73671900  0.74107200  0.99190300  1
  O  O24  1  0.25765100  0.46687800  0.12687200  1
  O  O25  1  0.25766600  0.96686600  0.37315000  1
  O  O26  1  0.74234600  0.03323400  0.62701600  1
  O  O27  1  0.74235100  0.53322900  0.87298500  1
