# generated using pymatgen
data_Li9Mn2Co5O16
_symmetry_space_group_name_H-M   'P 1'
_cell_length_a   5.95028100
_cell_length_b   6.43543561
_cell_length_c   8.09922874
_cell_angle_alpha   89.05893503
_cell_angle_beta   89.26357396
_cell_angle_gamma   66.49508706
_symmetry_Int_Tables_number   1
_chemical_formula_structural   Li9Mn2Co5O16
_chemical_formula_sum   'Li9 Mn2 Co5 O16'
_cell_volume   284.36218316
_cell_formula_units_Z   1
loop_
 _symmetry_equiv_pos_site_id
 _symmetry_equiv_pos_as_xyz
  1  'x, y, z'
loop_
 _atom_site_type_symbol
 _atom_site_label
 _atom_site_symmetry_multiplicity
 _atom_site_fract_x
 _atom_site_fract_y
 _atom_site_fract_z
 _atom_site_occupancy
  Li  Li0  1  0.73518500  0.50918000  0.00017600  1
  Li  Li1  1  0.11472300  0.25983100  0.25928500  1
  Li  Li2  1  0.38678100  0.73973800  0.74120300  1
  Li  Li3  1  0.01973600  0.98751100  0.50000100  1
  Li  Li4  1  0.63067000  0.25795200  0.26202200  1
  Li  Li5  1  0.26537900  0.49161800  0.00118300  1
  Li  Li6  1  0.86807500  0.74217000  0.73718900  1
  Li  Li7  1  0.47959000  0.01311900  0.49943700  1
  Li  Li8  1  0.75117400  0.49825400  0.50028400  1
  Mn  Mn9  1  0.99858300  0.00163000  0.99863000  1
  Mn  Mn10  1  0.49970900  0.99974900  0.00105700  1
  Co  Co11  1  0.39055100  0.73885600  0.25208300  1
  Co  Co12  1  0.11210200  0.26050700  0.74720600  1
  Co  Co13  1  0.87553500  0.74499500  0.25297800  1
  Co  Co14  1  0.24930300  0.50084300  0.49962600  1
  Co  Co15  1  0.62043300  0.25632500  0.74736200  1
  O  O16  1  0.15732700  0.22324800  0.99068300  1
  O  O17  1  0.48760700  0.99182500  0.23981900  1
  O  O18  1  0.74224400  0.48168700  0.75223700  1
  O  O19  1  0.36866800  0.73528700  0.48562200  1
  O  O20  1  0.98889400  0.98775900  0.23901500  1
  O  O21  1  0.61471400  0.23961000  0.99018000  1
  O  O22  1  0.22866600  0.49566500  0.73763900  1
  O  O23  1  0.92214900  0.72083800  0.48492800  1
  O  O24  1  0.38343800  0.75805800  0.01203000  1
  O  O25  1  0.76511600  0.51313100  0.24916700  1
  O  O26  1  0.01241700  0.01031700  0.75832600  1
  O  O27  1  0.57859700  0.27848900  0.51526100  1
  O  O28  1  0.26807300  0.50663300  0.26182400  1
  O  O29  1  0.84097500  0.78097700  0.00819700  1
  O  O30  1  0.51064500  0.00986800  0.76181700  1
  O  O31  1  0.13294300  0.26432800  0.51353300  1
