# generated using pymatgen
data_Li4Mn3Co3(SbO8)2
_symmetry_space_group_name_H-M   'P 1'
_cell_length_a   5.96733739
_cell_length_b   19.38957832
_cell_length_c   5.99818725
_cell_angle_alpha   89.28382678
_cell_angle_beta   120.73546066
_cell_angle_gamma   90.45422947
_symmetry_Int_Tables_number   1
_chemical_formula_structural   Li4Mn3Co3(SbO8)2
_chemical_formula_sum   'Li8 Mn6 Co6 Sb4 O32'
_cell_volume   596.48357371
_cell_formula_units_Z   2
loop_
 _symmetry_equiv_pos_site_id
 _symmetry_equiv_pos_as_xyz
  1  'x, y, z'
loop_
 _atom_site_type_symbol
 _atom_site_label
 _atom_site_symmetry_multiplicity
 _atom_site_fract_x
 _atom_site_fract_y
 _atom_site_fract_z
 _atom_site_occupancy
  Li  Li0  1  0.65814000  0.45159900  0.34439800  1
  Li  Li1  1  0.65953400  0.95345700  0.32926000  1
  Li  Li2  1  0.00194800  0.49469900  0.99582300  1
  Li  Li3  1  0.99961500  0.99443900  0.00562300  1
  Li  Li4  1  0.00925500  0.24401200  0.99627900  1
  Li  Li5  1  0.00428100  0.74367700  0.00934100  1
  Li  Li6  1  0.33887400  0.20286600  0.66409600  1
  Li  Li7  1  0.33612400  0.70072300  0.67904300  1
  Mn  Mn8  1  0.82733300  0.60641200  0.66070500  1
  Mn  Mn9  1  0.66222500  0.35608300  0.82763000  1
  Mn  Mn10  1  0.16954600  0.35823100  0.82448800  1
  Mn  Mn11  1  0.83480600  0.10650900  0.65876400  1
  Mn  Mn12  1  0.66423800  0.85658600  0.84477100  1
  Mn  Mn13  1  0.15983200  0.85700600  0.82315900  1
  Co  Co14  1  0.16903200  0.35611100  0.33548300  1
  Co  Co15  1  0.18111800  0.85647500  0.34466800  1
  Co  Co16  1  0.83379200  0.10749800  0.16874000  1
  Co  Co17  1  0.82830000  0.60460700  0.17200000  1
  Co  Co18  1  0.34199900  0.10643200  0.16986900  1
  Co  Co19  1  0.34022500  0.60807900  0.17069500  1
  Sb  Sb20  1  0.66907800  0.24367900  0.31850900  1
  Sb  Sb21  1  0.66978900  0.74272200  0.34077100  1
  Sb  Sb22  1  0.32722100  0.49374500  0.66007200  1
  Sb  Sb23  1  0.33054300  0.99358300  0.66380700  1
  O  O24  1  0.49987500  0.17005500  0.03033500  1
  O  O25  1  0.51000500  0.67619200  0.04309100  1
  O  O26  1  0.65800600  0.05770100  0.33530800  1
  O  O27  1  0.65366700  0.55546000  0.34748300  1
  O  O28  1  0.01246100  0.14917900  0.99251900  1
  O  O29  1  0.00414000  0.64960100  0.98915000  1
  O  O30  1  0.99544800  0.40057900  0.97914700  1
  O  O31  1  0.00483300  0.89867100  0.00638400  1
  O  O32  1  0.17847400  0.04998900  0.32850500  1
  O  O33  1  0.15732300  0.54331200  0.32440800  1
  O  O34  1  0.85652700  0.29701800  0.65646500  1
  O  O35  1  0.85151700  0.79561100  0.67288800  1
  O  O36  1  0.33851200  0.30706400  0.68443300  1
  O  O37  1  0.33433400  0.80822400  0.67018000  1
  O  O38  1  0.45860200  0.42574800  0.96929900  1
  O  O39  1  0.44726900  0.92389400  0.96381000  1
  O  O40  1  0.82842600  0.29534500  0.14203600  1
  O  O41  1  0.82722100  0.79510400  0.16252200  1
  O  O42  1  0.33512000  0.29872200  0.15001900  1
  O  O43  1  0.33573200  0.79636600  0.19625300  1
  O  O44  1  0.96974500  0.17482800  0.44366800  1
  O  O45  1  0.96451300  0.66995300  0.50309700  1
  O  O46  1  0.54316100  0.17735000  0.49810700  1
  O  O47  1  0.52952000  0.67042600  0.50193700  1
  O  O48  1  0.48795100  0.42341200  0.53325200  1
  O  O49  1  0.51471300  0.92519900  0.55105500  1
  O  O50  1  0.02958800  0.42112200  0.52978800  1
  O  O51  1  0.03151400  0.92416700  0.47366800  1
  O  O52  1  0.66316000  0.04715000  0.85681700  1
  O  O53  1  0.66610800  0.54807700  0.82405200  1
  O  O54  1  0.14332100  0.04397800  0.81163600  1
  O  O55  1  0.15296700  0.54911600  0.82069000  1
