# generated using pymatgen
data_Li2Fe2C4Cl2O13
_symmetry_space_group_name_H-M   'P 1'
_cell_length_a   13.92157972
_cell_length_b   12.58199329
_cell_length_c   8.39036058
_cell_angle_alpha   80.48706507
_cell_angle_beta   63.04310460
_cell_angle_gamma   36.46983033
_symmetry_Int_Tables_number   1
_chemical_formula_structural   Li2Fe2C4Cl2O13
_chemical_formula_sum   'Li4 Fe4 C8 Cl4 O26'
_cell_volume   721.47674123
_cell_formula_units_Z   2
loop_
 _symmetry_equiv_pos_site_id
 _symmetry_equiv_pos_as_xyz
  1  'x, y, z'
loop_
 _atom_site_type_symbol
 _atom_site_label
 _atom_site_symmetry_multiplicity
 _atom_site_fract_x
 _atom_site_fract_y
 _atom_site_fract_z
 _atom_site_occupancy
  Li  Li0  1  0.09030900  0.27838000  0.23054600  1
  Li  Li1  1  0.40076400  0.23054600  0.27838000  1
  Li  Li2  1  0.01945400  0.84923600  0.15969100  1
  Li  Li3  1  0.97162000  0.15969100  0.84923600  1
  Fe  Fe4  1  0.51559700  0.88686600  0.14488000  1
  Fe  Fe5  1  0.45265700  0.14488000  0.88686600  1
  Fe  Fe6  1  0.10512000  0.79734300  0.73440300  1
  Fe  Fe7  1  0.36313400  0.73440300  0.79734300  1
  C  C8  1  0.50536600  0.71024600  0.40910400  1
  C  C9  1  0.37528300  0.40910400  0.71024600  1
  C  C10  1  0.84089600  0.87471700  0.74463400  1
  C  C11  1  0.53975400  0.74463400  0.87471700  1
  C  C12  1  0.35182100  0.91928900  0.53409900  1
  C  C13  1  0.19479100  0.53409900  0.91928900  1
  C  C14  1  0.71590100  0.05520900  0.89817900  1
  C  C15  1  0.33071100  0.89817900  0.05520900  1
  Cl  Cl16  1  0.76122000  0.76180600  0.12450300  1
  Cl  Cl17  1  0.35247200  0.12450300  0.76180600  1
  Cl  Cl18  1  0.12549700  0.89752800  0.48878000  1
  Cl  Cl19  1  0.48819400  0.48878000  0.89752800  1
  O  O20  1  0.36776400  0.13223600  0.13223600  1
  O  O21  1  0.11776400  0.88223600  0.88223600  1
  O  O22  1  0.59404400  0.66325800  0.22936900  1
  O  O23  1  0.51332900  0.22936900  0.66325800  1
  O  O24  1  0.02063100  0.73667100  0.65595600  1
  O  O25  1  0.58674200  0.65595600  0.73667100  1
  O  O26  1  0.33846200  0.01828200  0.44446600  1
  O  O27  1  0.19879000  0.44446600  0.01828200  1
  O  O28  1  0.80553400  0.05121000  0.91153800  1
  O  O29  1  0.23171800  0.91153800  0.05121000  1
  O  O30  1  0.25054200  0.97435800  0.71363700  1
  O  O31  1  0.06146400  0.71363700  0.97435800  1
  O  O32  1  0.53636300  0.18853600  0.99945800  1
  O  O33  1  0.27564200  0.99945800  0.18853600  1
  O  O34  1  0.52415100  0.60911200  0.50103300  1
  O  O35  1  0.36570400  0.50103300  0.60911200  1
  O  O36  1  0.74896700  0.88429600  0.72584900  1
  O  O37  1  0.64088800  0.72584900  0.88429600  1
  O  O38  1  0.94691600  0.30749500  0.14538600  1
  O  O39  1  0.60020300  0.14538600  0.30749500  1
  O  O40  1  0.10461400  0.64979700  0.30308400  1
  O  O41  1  0.94250500  0.30308400  0.64979700  1
  O  O42  1  0.89995800  0.20256800  0.28990100  1
  O  O43  1  0.60757300  0.28990100  0.20256800  1
  O  O44  1  0.96009900  0.64242700  0.35004200  1
  O  O45  1  0.04743200  0.35004200  0.64242700  1
