# generated using pymatgen
data_Li3FeO3
_symmetry_space_group_name_H-M   'P 1'
_cell_length_a   3.59338205
_cell_length_b   8.98810856
_cell_length_c   8.98828017
_cell_angle_alpha   90.33924384
_cell_angle_beta   89.99985011
_cell_angle_gamma   90.00004723
_symmetry_Int_Tables_number   1
_chemical_formula_structural   Li3FeO3
_chemical_formula_sum   'Li12 Fe4 O12'
_cell_volume   290.29575963
_cell_formula_units_Z   4
loop_
 _symmetry_equiv_pos_site_id
 _symmetry_equiv_pos_as_xyz
  1  'x, y, z'
loop_
 _atom_site_type_symbol
 _atom_site_label
 _atom_site_symmetry_multiplicity
 _atom_site_fract_x
 _atom_site_fract_y
 _atom_site_fract_z
 _atom_site_occupancy
  Li  Li0  1  0.00000137  0.16932837  0.17359277  1
  Li  Li1  1  0.50000055  0.33216781  0.66781068  1
  Li  Li2  1  0.50000009  0.66876947  0.33120929  1
  Li  Li3  1  0.00000098  0.82639253  0.83066323  1
  Li  Li4  1  0.50000132  0.09976974  0.35698507  1
  Li  Li5  1  0.99999936  0.14186864  0.59350329  1
  Li  Li6  1  0.50000385  0.36051597  0.10222098  1
  Li  Li7  1  0.00000090  0.40648182  0.85811071  1
  Li  Li8  1  0.00000224  0.60016362  0.14295563  1
  Li  Li9  1  0.50000398  0.64301285  0.90022618  1
  Li  Li10  1  0.00000103  0.85701864  0.39982957  1
  Li  Li11  1  0.50000107  0.89776514  0.63946758  1
  Fe  Fe12  1  0.99999187  0.38571487  0.38523700  1
  Fe  Fe13  1  0.00000427  0.61469576  0.61426150  1
  Fe  Fe14  1  0.49998261  0.11672966  0.88333869  1
  Fe  Fe15  1  0.50000336  0.88352593  0.11662711  1
  O  O16  1  0.49999983  0.09900631  0.10545705  1
  O  O17  1  0.99999948  0.39949662  0.60048728  1
  O  O18  1  0.99999940  0.60041607  0.39957115  1
  O  O19  1  0.49999989  0.89458524  0.90103702  1
  O  O20  1  0.49999889  0.10971216  0.67348121  1
  O  O21  1  -0.00000067  0.18093764  0.38755427  1
  O  O22  1  0.49999961  0.32651667  0.89027433  1
  O  O23  1  0.00000230  0.38840689  0.18016484  1
  O  O24  1  0.00000150  0.61243033  0.81905361  1
  O  O25  1  0.50000131  0.67760379  0.11286140  1
  O  O26  1  0.99999895  0.81981771  0.61158235  1
  O  O27  1  0.50000063  0.88714974  0.32243623  1
