# generated using pymatgen
data_Li9Mn2Co5O16
_symmetry_space_group_name_H-M   'P 1'
_cell_length_a   5.11330100
_cell_length_b   5.88116853
_cell_length_c   10.47427648
_cell_angle_alpha   74.56119711
_cell_angle_beta   76.33723168
_cell_angle_gamma   74.44210164
_symmetry_Int_Tables_number   1
_chemical_formula_structural   Li9Mn2Co5O16
_chemical_formula_sum   'Li9 Mn2 Co5 O16'
_cell_volume   287.85022879
_cell_formula_units_Z   1
loop_
 _symmetry_equiv_pos_site_id
 _symmetry_equiv_pos_as_xyz
  1  'x, y, z'
loop_
 _atom_site_type_symbol
 _atom_site_label
 _atom_site_symmetry_multiplicity
 _atom_site_fract_x
 _atom_site_fract_y
 _atom_site_fract_z
 _atom_site_occupancy
  Li  Li0  1  0.49801500  0.80411500  0.13549800  1
  Li  Li1  1  0.49962300  0.30716700  0.13186000  1
  Li  Li2  1  0.50316500  0.44833400  0.36986000  1
  Li  Li3  1  0.50371700  0.93254600  0.37412600  1
  Li  Li4  1  0.49840000  0.06295400  0.61916100  1
  Li  Li5  1  0.49610200  0.56955900  0.61978300  1
  Li  Li6  1  0.49973900  0.69281200  0.87542900  1
  Li  Li7  1  0.50142400  0.18159000  0.87743600  1
  Li  Li8  1  0.99691500  0.62782000  0.25011500  1
  Mn  Mn9  1  0.00555400  0.99365900  0.00201300  1
  Mn  Mn10  1  0.99665000  0.87618600  0.74999100  1
  Co  Co11  1  0.99999100  0.49880700  0.00313300  1
  Co  Co12  1  0.99917900  0.12148200  0.24949600  1
  Co  Co13  1  0.00480700  0.26086000  0.48848200  1
  Co  Co14  1  0.99477400  0.75017100  0.49331600  1
  Co  Co15  1  0.00088800  0.37641200  0.74886300  1
  O  O16  1  0.23944700  0.14182300  0.05868500  1
  O  O17  1  0.21812500  0.67293500  0.05263900  1
  O  O18  1  0.23470100  0.79407300  0.31801900  1
  O  O19  1  0.23509700  0.27146800  0.32084200  1
  O  O20  1  0.22539600  0.40694000  0.57657700  1
  O  O21  1  0.21945700  0.90195000  0.57460000  1
  O  O22  1  0.22731900  0.01899600  0.81812300  1
  O  O23  1  0.20845600  0.54654700  0.81544300  1
  O  O24  1  0.77580100  0.46111400  0.17310000  1
  O  O25  1  0.77442200  0.98128900  0.17427400  1
  O  O26  1  0.76160600  0.09057000  0.43591000  1
  O  O27  1  0.76188600  0.58915600  0.44661600  1
  O  O28  1  0.76462700  0.72747400  0.69388300  1
  O  O29  1  0.78800600  0.20222400  0.68986400  1
  O  O30  1  0.79507200  0.32860500  0.93240300  1
  O  O31  1  0.77163800  0.86036600  0.93046100  1
