# generated using pymatgen
data_Li9Mn2Co5O16
_symmetry_space_group_name_H-M   'P 1'
_cell_length_a   2.89528000
_cell_length_b   9.75591177
_cell_length_c   10.14883252
_cell_angle_alpha   84.81359645
_cell_angle_beta   88.78761719
_cell_angle_gamma   82.54578124
_symmetry_Int_Tables_number   1
_chemical_formula_structural   Li9Mn2Co5O16
_chemical_formula_sum   'Li9 Mn2 Co5 O16'
_cell_volume   283.06561631
_cell_formula_units_Z   1
loop_
 _symmetry_equiv_pos_site_id
 _symmetry_equiv_pos_as_xyz
  1  'x, y, z'
loop_
 _atom_site_type_symbol
 _atom_site_label
 _atom_site_symmetry_multiplicity
 _atom_site_fract_x
 _atom_site_fract_y
 _atom_site_fract_z
 _atom_site_occupancy
  Li  Li0  1  0.87579800  0.24213900  0.55353500  1
  Li  Li1  1  0.12420200  0.75786100  0.44646500  1
  Li  Li2  1  0.38447900  0.24528600  0.31863200  1
  Li  Li3  1  0.62239400  0.75030200  0.18712400  1
  Li  Li4  1  0.87447000  0.25146200  0.06019500  1
  Li  Li5  1  0.12553000  0.74853800  0.93980500  1
  Li  Li6  1  0.37760600  0.24969800  0.81287600  1
  Li  Li7  1  0.61552100  0.75471400  0.68136800  1
  Li  Li8  1  0.50000000  0.00000000  0.50000000  1
  Mn  Mn9  1  0.00194800  0.99781900  0.74574400  1
  Mn  Mn10  1  0.99805200  0.00218100  0.25425600  1
  Co  Co11  1  0.24948200  0.49909800  0.62528100  1
  Co  Co12  1  0.75051800  0.50090200  0.37471900  1
  Co  Co13  1  0.24996900  0.50029500  0.12511400  1
  Co  Co14  1  0.50000000  0.00000000  0.00000000  1
  Co  Co15  1  0.75003100  0.49970500  0.87488600  1
  O  O16  1  0.45614500  0.11136900  0.67014400  1
  O  O17  1  0.67475400  0.61711300  0.53495800  1
  O  O18  1  0.94122700  0.11645500  0.38853200  1
  O  O19  1  0.17481500  0.61769100  0.28532000  1
  O  O20  1  0.45507300  0.10623100  0.15435700  1
  O  O21  1  0.67397300  0.61843800  0.03476600  1
  O  O22  1  0.95651900  0.10593100  0.91074000  1
  O  O23  1  0.17552700  0.61481900  0.78676400  1
  O  O24  1  0.32524600  0.38288700  0.46504200  1
  O  O25  1  0.54385500  0.88863100  0.32985600  1
  O  O26  1  0.82447300  0.38518100  0.21323600  1
  O  O27  1  0.04348100  0.89406900  0.08926000  1
  O  O28  1  0.32602700  0.38156200  0.96523400  1
  O  O29  1  0.54492700  0.89376900  0.84564300  1
  O  O30  1  0.82518500  0.38230900  0.71468000  1
  O  O31  1  0.05877300  0.88354500  0.61146800  1
