# generated using pymatgen
data_Li2FeSnO4
_symmetry_space_group_name_H-M   'P 1'
_cell_length_a   6.16376827
_cell_length_b   10.67942108
_cell_length_c   6.15736856
_cell_angle_alpha   75.32476128
_cell_angle_beta   61.36349465
_cell_angle_gamma   74.60312928
_symmetry_Int_Tables_number   1
_chemical_formula_structural   Li2FeSnO4
_chemical_formula_sum   'Li8 Fe4 Sn4 O16'
_cell_volume   339.13633586
_cell_formula_units_Z   4
loop_
 _symmetry_equiv_pos_site_id
 _symmetry_equiv_pos_as_xyz
  1  'x, y, z'
loop_
 _atom_site_type_symbol
 _atom_site_label
 _atom_site_symmetry_multiplicity
 _atom_site_fract_x
 _atom_site_fract_y
 _atom_site_fract_z
 _atom_site_occupancy
  Li  Li0  1  0.75000500  0.24998100  0.25003700  1
  Li  Li1  1  0.25000500  0.75001900  0.74996500  1
  Li  Li2  1  0.50001000  0.99999000  0.50000100  1
  Li  Li3  1  0.00000400  0.49999700  0.99999700  1
  Li  Li4  1  0.25002400  0.25000300  0.75001800  1
  Li  Li5  1  0.74999100  0.74999600  0.24997400  1
  Li  Li6  1  0.25000900  0.25000000  0.24997900  1
  Li  Li7  1  0.74999600  0.74999200  0.75002300  1
  Fe  Fe8  1  0.49999100  0.49999400  0.00004500  1
  Fe  Fe9  1  0.99996100  0.00003300  0.00000100  1
  Fe  Fe10  1  0.00003600  0.99999000  0.49998200  1
  Fe  Fe11  1  0.49998100  0.50000400  0.50003600  1
  Sn  Sn12  1  0.75002600  0.24995700  0.75002700  1
  Sn  Sn13  1  0.24996800  0.75003500  0.24992900  1
  Sn  Sn14  1  0.49999500  0.00000900  0.99998100  1
  Sn  Sn15  1  0.00003500  0.49998300  0.49999200  1
  O  O16  1  0.87373000  0.36879300  0.39042100  1
  O  O17  1  0.37367000  0.86880500  0.89039000  1
  O  O18  1  0.88337000  0.37880500  0.85727800  1
  O  O19  1  0.38336000  0.87877000  0.35723200  1
  O  O20  1  0.61665000  0.12122700  0.64276500  1
  O  O21  1  0.11663100  0.62118800  0.14273300  1
  O  O22  1  0.62630900  0.13119900  0.10959900  1
  O  O23  1  0.12629000  0.63120500  0.60957100  1
  O  O24  1  0.14523300  0.11306900  0.11566000  1
  O  O25  1  0.64517800  0.61304400  0.61567200  1
  O  O26  1  0.40314900  0.37110400  0.86785200  1
  O  O27  1  0.90320900  0.87110100  0.36775500  1
  O  O28  1  0.09677900  0.12890600  0.63222800  1
  O  O29  1  0.59682700  0.62889900  0.13216200  1
  O  O30  1  0.35479500  0.38697000  0.38436700  1
  O  O31  1  0.85478100  0.88692900  0.88432800  1
