# generated using pymatgen
data_Li6Zn3(PS4)4
_symmetry_space_group_name_H-M   'P 1'
_cell_length_a   9.30843900
_cell_length_b   11.58476810
_cell_length_c   23.13710976
_cell_angle_alpha   89.89211094
_cell_angle_beta   89.91121261
_cell_angle_gamma   89.96546852
_symmetry_Int_Tables_number   1
_chemical_formula_structural   Li6Zn3(PS4)4
_chemical_formula_sum   'Li24 Zn12 P16 S64'
_cell_volume   2495.00798101
_cell_formula_units_Z   4
loop_
 _symmetry_equiv_pos_site_id
 _symmetry_equiv_pos_as_xyz
  1  'x, y, z'
loop_
 _atom_site_type_symbol
 _atom_site_label
 _atom_site_symmetry_multiplicity
 _atom_site_fract_x
 _atom_site_fract_y
 _atom_site_fract_z
 _atom_site_occupancy
  Li  Li0  1  0.74466800  0.50444900  0.87958000  1
  Li  Li1  1  0.74649300  0.99725300  0.87655700  1
  Li  Li2  1  0.24915800  0.75699400  0.75179500  1
  Li  Li3  1  0.24546000  0.75129000  0.00001600  1
  Li  Li4  1  0.50390200  0.49867000  0.25021800  1
  Li  Li5  1  0.50328600  0.99898000  0.25060800  1
  Li  Li6  1  0.50086900  0.50060200  0.49926600  1
  Li  Li7  1  0.50346100  0.00199100  0.49891900  1
  Li  Li8  1  0.00132100  0.75074800  0.37449900  1
  Li  Li9  1  0.00079300  0.25033400  0.37454100  1
  Li  Li10  1  0.49880000  0.49854200  0.74823200  1
  Li  Li11  1  0.50212400  0.00343100  0.74878500  1
  Li  Li12  1  0.99871500  0.75178200  0.62320200  1
  Li  Li13  1  0.00086400  0.25041500  0.62383200  1
  Li  Li14  1  0.49725000  0.49703100  0.00143900  1
  Li  Li15  1  0.49832200  0.00023400  0.00215100  1
  Li  Li16  1  0.99445000  0.74972900  0.87603100  1
  Li  Li17  1  0.99778100  0.75027700  0.12658000  1
  Li  Li18  1  0.00279200  0.24890100  0.12486200  1
  Li  Li19  1  0.48869400  0.25006100  0.87565900  1
  Li  Li20  1  0.49582000  0.75178300  0.87518500  1
  Li  Li21  1  0.99840300  0.00163000  0.74913200  1
  Li  Li22  1  0.99768000  0.50065500  0.00176000  1
  Li  Li23  1  0.00069400  0.00275500  0.00107700  1
  Zn  Zn24  1  0.01102200  0.24723500  0.87615100  1
  Zn  Zn25  1  0.50121800  0.24886700  0.12375000  1
  Zn  Zn26  1  0.50525500  0.74837900  0.12592700  1
  Zn  Zn27  1  0.49948600  0.24950700  0.37456000  1
  Zn  Zn28  1  0.49912600  0.74955500  0.37458400  1
  Zn  Zn29  1  0.99999600  0.49966600  0.24973900  1
  Zn  Zn30  1  0.99982400  0.99929100  0.24942000  1
  Zn  Zn31  1  0.50137700  0.24906600  0.62617500  1
  Zn  Zn32  1  0.50605800  0.75180800  0.62323100  1
  Zn  Zn33  1  0.99880800  0.49917900  0.49918400  1
  Zn  Zn34  1  0.00017000  0.99963300  0.49961400  1
  Zn  Zn35  1  0.00111200  0.49886700  0.74927400  1
  P  P36  1  0.75038700  0.24972100  0.24981500  1
  P  P37  1  0.75054000  0.74988000  0.25040700  1
  P  P38  1  0.74987800  0.25058100  0.50013300  1
  P  P39  1  0.75040900  0.75007100  0.49965500  1
  P  P40  1  0.24997700  0.50014600  0.37508400  1
  P  P41  1  0.24978300  0.00020100  0.37500200  1
  P  P42  1  0.74980800  0.24299900  0.74854400  1
  P  P43  1  0.74934500  0.74385400  0.75205700  1
  P  P44  1  0.24754000  0.50056000  0.62521900  1
  P  P45  1  0.25339800  0.99546500  0.62435100  1
  P  P46  1  0.74943900  0.25897000  0.99924700  1
  P  P47  1  0.74976700  0.75418000  0.99966100  1
  P  P48  1  0.25097300  0.49726200  0.87240800  1
  P  P49  1  0.25005800  0.99831500  0.87686100  1
  P  P50  1  0.25375500  0.50461900  0.12579300  1
  P  P51  1  0.24812100  0.00365400  0.12554000  1
  S  S52  1  0.86922400  0.35704600  0.05184500  1
  S  S53  1  0.87129400  0.85475800  0.05128200  1
  S  S54  1  0.86414900  0.36143500  0.30214300  1
  S  S55  1  0.86442000  0.86145200  0.30256700  1
  S  S56  1  0.37092800  0.61158800  0.17904300  1
  S  S57  1  0.37388800  0.10755000  0.17727600  1
  S  S58  1  0.86371100  0.36234200  0.55235100  1
  S  S59  1  0.86242400  0.86225700  0.55204700  1
  S  S60  1  0.36359500  0.61172400  0.42745100  1
  S  S61  1  0.36359400  0.11175900  0.42732900  1
  S  S62  1  0.86998300  0.35740200  0.80378900  1
  S  S63  1  0.86856700  0.85419700  0.80207900  1
  S  S64  1  0.36806300  0.61308200  0.67673200  1
  S  S65  1  0.36381100  0.10910000  0.67693600  1
  S  S66  1  0.36344800  0.60436400  0.92663800  1
  S  S67  1  0.36984400  0.10074800  0.92794500  1
  S  S68  1  0.63615000  0.64535300  0.30640800  1
  S  S69  1  0.63680700  0.14537100  0.30628700  1
  S  S70  1  0.63852300  0.64381300  0.55574800  1
  S  S71  1  0.63575100  0.14634500  0.55624800  1
  S  S72  1  0.13589600  0.89518600  0.43097300  1
  S  S73  1  0.13657400  0.39499100  0.43123700  1
  S  S74  1  0.62575200  0.64006300  0.80404000  1
  S  S75  1  0.63149100  0.14525900  0.80465300  1
  S  S76  1  0.13296100  0.89328800  0.67850000  1
  S  S77  1  0.13714100  0.39457200  0.68124600  1
  S  S78  1  0.62646400  0.64728800  0.05216100  1
  S  S79  1  0.63343400  0.14769100  0.05131400  1
  S  S80  1  0.12531200  0.89228400  0.92805500  1
  S  S81  1  0.12637700  0.39559300  0.92610800  1
  S  S82  1  0.13788500  0.89564500  0.18151500  1
  S  S83  1  0.13617100  0.39907900  0.18025400  1
  S  S84  1  0.86468500  0.13830900  0.19777000  1
  S  S85  1  0.86326100  0.63778400  0.19824400  1
  S  S86  1  0.86450800  0.13910300  0.44809000  1
  S  S87  1  0.86551700  0.63920300  0.44752500  1
  S  S88  1  0.36428800  0.38878800  0.32291000  1
  S  S89  1  0.36421100  0.88863300  0.32293000  1
  S  S90  1  0.87023600  0.14372700  0.69674700  1
  S  S91  1  0.86920600  0.63903300  0.69786800  1
  S  S92  1  0.36727500  0.39130800  0.57444800  1
  S  S93  1  0.37134900  0.88856800  0.57107600  1
  S  S94  1  0.86799600  0.14639400  0.94464800  1
  S  S95  1  0.86639700  0.64273500  0.94752000  1
  S  S96  1  0.36697000  0.39496300  0.82002900  1
  S  S97  1  0.36743600  0.89573200  0.82046000  1
  S  S98  1  0.36385800  0.39020000  0.07350400  1
  S  S99  1  0.36874000  0.88837900  0.07418900  1
  S  S100  1  0.63599700  0.35324800  0.19388600  1
  S  S101  1  0.63791600  0.85480600  0.19453500  1
  S  S102  1  0.63502500  0.35417900  0.44428400  1
  S  S103  1  0.63513100  0.85357300  0.44407400  1
  S  S104  1  0.13500700  0.60404300  0.31954000  1
  S  S105  1  0.13506400  0.10395400  0.31929600  1
  S  S106  1  0.63395400  0.35418500  0.69662400  1
  S  S107  1  0.63333300  0.84955600  0.69677800  1
  S  S108  1  0.13424000  0.60434000  0.56946300  1
  S  S109  1  0.13630600  0.10053000  0.56975100  1
  S  S110  1  0.62672300  0.35897800  0.94482100  1
  S  S111  1  0.62585700  0.85792100  0.94653900  1
  S  S112  1  0.12560100  0.60713400  0.81946400  1
  S  S113  1  0.12905800  0.10491200  0.82279900  1
  S  S114  1  0.13404700  0.60722000  0.07171100  1
  S  S115  1  0.13874400  0.10588100  0.07096000  1
