# generated using pymatgen
data_Li3Cr4PO19
_symmetry_space_group_name_H-M   'P 1'
_cell_length_a   7.94043362
_cell_length_b   7.94043362
_cell_length_c   7.76864599
_cell_angle_alpha   77.76256053
_cell_angle_beta   77.76256053
_cell_angle_gamma   102.76828192
_symmetry_Int_Tables_number   1
_chemical_formula_structural   Li3Cr4PO19
_chemical_formula_sum   'Li3 Cr4 P1 O19'
_cell_volume   449.30897404
_cell_formula_units_Z   1
loop_
 _symmetry_equiv_pos_site_id
 _symmetry_equiv_pos_as_xyz
  1  'x, y, z'
loop_
 _atom_site_type_symbol
 _atom_site_label
 _atom_site_symmetry_multiplicity
 _atom_site_fract_x
 _atom_site_fract_y
 _atom_site_fract_z
 _atom_site_occupancy
  Li  Li0  1  0.95495300  0.95495300  0.54547700  1
  Li  Li1  1  0.35699600  0.85679900  0.87970600  1
  Li  Li2  1  0.85679900  0.35699600  0.87970600  1
  Cr  Cr3  1  0.16673500  0.16673500  0.83443900  1
  Cr  Cr4  1  0.53321200  0.92002200  0.46048400  1
  Cr  Cr5  1  0.92002200  0.53321200  0.46048400  1
  Cr  Cr6  1  0.52665400  0.52665400  0.06921800  1
  P  P7  1  0.49003600  0.49003600  0.50729700  1
  O  O8  1  0.04171400  0.25661000  0.96060600  1
  O  O9  1  0.25661000  0.04171400  0.96060600  1
  O  O10  1  0.04459200  0.04459200  0.73759100  1
  O  O11  1  0.34346300  0.34346300  0.65748500  1
  O  O12  1  0.46728700  0.46728700  0.32156200  1
  O  O13  1  0.46813400  0.67275800  0.53094300  1
  O  O14  1  0.67275800  0.46813400  0.53094300  1
  O  O15  1  0.39006600  0.97563600  0.60638900  1
  O  O16  1  0.97563600  0.39006600  0.60638900  1
  O  O17  1  0.73435400  0.99155500  0.48202200  1
  O  O18  1  0.99155500  0.73435400  0.48202200  1
  O  O19  1  0.52336100  0.00006800  0.25477700  1
  O  O20  1  0.00006800  0.52336100  0.25477700  1
  O  O21  1  0.38637600  0.38637600  0.01381300  1
  O  O22  1  0.51079500  0.72830300  0.98622700  1
  O  O23  1  0.72830300  0.51079500  0.98622700  1
  O  O24  1  0.13219500  0.13219500  0.31750300  1
  O  O25  1  0.11945100  0.65947600  0.87595400  1
  O  O26  1  0.65947600  0.11945100  0.87595400  1
