# generated using pymatgen
data_Li5MnF8
_symmetry_space_group_name_H-M   'P 1'
_cell_length_a   5.27161820
_cell_length_b   5.27161820
_cell_length_c   5.82128000
_cell_angle_alpha   90.00000000
_cell_angle_beta   90.00000000
_cell_angle_gamma   114.38727253
_symmetry_Int_Tables_number   1
_chemical_formula_structural   Li5MnF8
_chemical_formula_sum   'Li5 Mn1 F8'
_cell_volume   147.33898697
_cell_formula_units_Z   1
loop_
 _symmetry_equiv_pos_site_id
 _symmetry_equiv_pos_as_xyz
  1  'x, y, z'
loop_
 _atom_site_type_symbol
 _atom_site_label
 _atom_site_symmetry_multiplicity
 _atom_site_fract_x
 _atom_site_fract_y
 _atom_site_fract_z
 _atom_site_occupancy
  Li  Li0  1  0.50000000  0.00000000  0.23554700  1
  Li  Li1  1  0.50000000  0.00000000  0.76445300  1
  Li  Li2  1  0.50000000  0.50000000  0.00000000  1
  Li  Li3  1  0.00000000  0.50000000  0.76445300  1
  Li  Li4  1  0.00000000  0.50000000  0.23554700  1
  Mn  Mn5  1  0.50000000  0.50000000  0.50000000  1
  F  F6  1  0.72699700  0.27300300  0.00000000  1
  F  F7  1  0.73666900  0.26333100  0.50000000  1
  F  F8  1  0.27349100  0.27349100  0.73621200  1
  F  F9  1  0.72650900  0.72650900  0.73621200  1
  F  F10  1  0.27349100  0.27349100  0.26378800  1
  F  F11  1  0.72650900  0.72650900  0.26378800  1
  F  F12  1  0.26333100  0.73666900  0.50000000  1
  F  F13  1  0.27300300  0.72699700  0.00000000  1
