# generated using pymatgen
data_Li7V3P8O29
_symmetry_space_group_name_H-M   'P 1'
_cell_length_a   9.85904600
_cell_length_b   9.86125264
_cell_length_c   13.94511185
_cell_angle_alpha   90.73335855
_cell_angle_beta   89.76385797
_cell_angle_gamma   119.92515324
_symmetry_Int_Tables_number   1
_chemical_formula_structural   Li7V3P8O29
_chemical_formula_sum   'Li14 V6 P16 O58'
_cell_volume   1174.92354853
_cell_formula_units_Z   2
loop_
 _symmetry_equiv_pos_site_id
 _symmetry_equiv_pos_as_xyz
  1  'x, y, z'
loop_
 _atom_site_type_symbol
 _atom_site_label
 _atom_site_symmetry_multiplicity
 _atom_site_fract_x
 _atom_site_fract_y
 _atom_site_fract_z
 _atom_site_occupancy
  Li  Li0  1  0.32513700  0.67793800  0.38819700  1
  Li  Li1  1  0.33494400  0.67497300  0.88711600  1
  Li  Li2  1  0.67728200  0.76744700  0.06232800  1
  Li  Li3  1  0.09096200  0.32352200  0.06497200  1
  Li  Li4  1  0.76461200  0.66998300  0.43787200  1
  Li  Li5  1  0.23065200  0.32084300  0.56450800  1
  Li  Li6  1  0.90286900  0.66606300  0.93785500  1
  Li  Li7  1  0.33541000  0.23613100  0.93808400  1
  Li  Li8  1  0.66439500  0.33701400  0.61420300  1
  Li  Li9  1  0.32588500  0.09268700  0.43770500  1
  Li  Li10  1  0.90396600  0.22746400  0.43761600  1
  Li  Li11  1  0.76428000  0.09971200  0.94113900  1
  Li  Li12  1  0.03784300  0.97707800  0.00556400  1
  Li  Li13  1  0.96936400  0.94503000  0.50625700  1
  V  V14  1  0.56646900  0.56561800  0.25005400  1
  V  V15  1  0.43596700  0.43561900  0.75127800  1
  V  V16  1  0.00223100  0.56628800  0.74856100  1
  V  V17  1  0.99861300  0.43610400  0.25053300  1
  V  V18  1  0.43644200  0.00003000  0.24718700  1
  V  V19  1  0.56319000  0.00023200  0.74651600  1
  P  P20  1  0.22137600  0.91533600  0.83955700  1
  P  P21  1  0.08742400  0.78342600  0.33893700  1
  P  P22  1  0.68918700  0.91180700  0.34102900  1
  P  P23  1  0.33933300  0.66709200  0.12808100  1
  P  P24  1  0.32997100  0.66403900  0.62768200  1
  P  P25  1  0.68335700  0.77675800  0.84090700  1
  P  P26  1  0.77596600  0.68125400  0.65616800  1
  P  P27  1  0.08918900  0.31864100  0.84566100  1
  P  P28  1  0.91263600  0.68521700  0.15383700  1
  P  P29  1  0.22845900  0.32063400  0.34521000  1
  P  P30  1  0.31303800  0.22576800  0.16021100  1
  P  P31  1  0.66309600  0.33001600  0.37351300  1
  P  P32  1  0.67076100  0.33267400  0.87258800  1
  P  P33  1  0.31405700  0.08666000  0.65238500  1
  P  P34  1  0.90885000  0.22510000  0.65868000  1
  P  P35  1  0.77062600  0.08266100  0.15549300  1
  O  O36  1  0.23538000  0.00509500  0.56072000  1
  O  O37  1  0.25496700  0.92549900  0.34031400  1
  O  O38  1  0.97941400  0.77222900  0.06162600  1
  O  O39  1  0.08042200  0.74717900  0.84323000  1
  O  O40  1  0.37461200  0.90755200  0.83469600  1
  O  O41  1  0.33888100  0.81236200  0.17770900  1
  O  O42  1  0.52847600  0.90337100  0.33476700  1
  O  O43  1  0.76503600  0.99543600  0.06387700  1
  O  O44  1  0.66890100  0.92557200  0.84134200  1
  O  O45  1  0.18118200  0.65698000  0.67543100  1
  O  O46  1  0.10084700  0.63410800  0.33374200  1
  O  O47  1  0.47035000  0.81457300  0.67587600  1
  O  O48  1  0.34975400  0.67928300  0.02082900  1
  O  O49  1  0.32762500  0.67377500  0.52135800  1
  O  O50  1  0.49363600  0.67494100  0.16629600  1
  O  O51  1  0.10710700  0.48285900  0.83367600  1
  O  O52  1  0.19303500  0.51570200  0.16235000  1
  O  O53  1  0.65746600  0.73959900  0.34185500  1
  O  O54  1  0.78263900  0.78843300  0.74691600  1
  O  O55  1  0.78428800  0.76756100  0.56616300  1
  O  O56  1  0.77269800  0.77202900  0.92795300  1
  O  O57  1  0.51777400  0.63309300  0.83136300  1
  O  O58  1  0.33256600  0.51646500  0.66078900  1
  O  O59  1  0.74522400  0.66460200  0.16504000  1
  O  O60  1  0.37261700  0.48490600  0.32911400  1
  O  O61  1  0.08137000  0.33569300  0.34706200  1
  O  O62  1  0.01352300  0.80095800  0.23973500  1
  O  O63  1  0.98856400  0.79279200  0.41833000  1
  O  O64  1  0.99996500  0.22824000  0.57032100  1
  O  O65  1  0.91994200  0.66211300  0.66565500  1
  O  O66  1  0.62792700  0.51905200  0.66593300  1
  O  O67  1  0.25158900  0.33389900  0.84684200  1
  O  O68  1  0.66801700  0.48107400  0.33452800  1
  O  O69  1  0.46683700  0.38489900  0.17385700  1
  O  O70  1  0.22522100  0.22346900  0.07039100  1
  O  O71  1  0.24216000  0.23889900  0.43250900  1
  O  O72  1  0.20772700  0.21166400  0.25218000  1
  O  O73  1  0.32925300  0.24921900  0.66037800  1
  O  O74  1  0.81854100  0.48091000  0.82860900  1
  O  O75  1  0.90931600  0.53119500  0.16488100  1
  O  O76  1  0.52037700  0.33162000  0.83802800  1
  O  O77  1  0.68601700  0.33227300  0.97870900  1
  O  O78  1  0.64818600  0.32502100  0.48121300  1
  O  O79  1  0.51413300  0.18188300  0.33008700  1
  O  O80  1  0.89385900  0.37439600  0.66912900  1
  O  O81  1  0.81073300  0.32548600  0.33987100  1
  O  O82  1  0.34471800  0.09063800  0.16158100  1
  O  O83  1  0.20514500  0.98629200  0.73995500  1
  O  O84  1  0.21116500  0.01325100  0.91973000  1
  O  O85  1  0.48018800  0.10714100  0.66858100  1
  O  O86  1  0.66779700  0.18305400  0.82631400  1
  O  O87  1  0.62180700  0.09319200  0.17088900  1
  O  O88  1  0.91846600  0.24393000  0.16053600  1
  O  O89  1  0.99471000  0.23377300  0.93307200  1
  O  O90  1  0.00143100  0.21570000  0.75130700  1
  O  O91  1  0.74487300  0.08210800  0.66057600  1
  O  O92  1  0.79469900  0.00360100  0.42255000  1
  O  O93  1  0.78231900  0.98184100  0.24229700  1
