# generated using pymatgen
data_LiSNO4
_symmetry_space_group_name_H-M   'P 1'
_cell_length_a   5.44385600
_cell_length_b   9.33207400
_cell_length_c   17.93335463
_cell_angle_alpha   89.66276700
_cell_angle_beta   90.00000000
_cell_angle_gamma   90.00000000
_symmetry_Int_Tables_number   1
_chemical_formula_structural   LiSNO4
_chemical_formula_sum   'Li8 S8 N8 O32'
_cell_volume   911.04287669
_cell_formula_units_Z   8
loop_
 _symmetry_equiv_pos_site_id
 _symmetry_equiv_pos_as_xyz
  1  'x, y, z'
loop_
 _atom_site_type_symbol
 _atom_site_label
 _atom_site_symmetry_multiplicity
 _atom_site_fract_x
 _atom_site_fract_y
 _atom_site_fract_z
 _atom_site_occupancy
  Li  Li0  1  0.73328900  0.41101900  0.33832300  1
  Li  Li1  1  0.23328900  0.58898100  0.16167700  1
  Li  Li2  1  0.26671100  0.58898100  0.66167700  1
  Li  Li3  1  0.76671100  0.41101900  0.83832300  1
  Li  Li4  1  0.77015800  0.09320600  0.08577400  1
  Li  Li5  1  0.27015800  0.90679400  0.41422600  1
  Li  Li6  1  0.22984200  0.90679400  0.91422600  1
  Li  Li7  1  0.72984200  0.09320600  0.58577400  1
  S  S8  1  0.76080300  0.08459600  0.39805500  1
  S  S9  1  0.26080300  0.91540400  0.10194500  1
  S  S10  1  0.23919700  0.91540400  0.60194500  1
  S  S11  1  0.73919700  0.08459600  0.89805500  1
  S  S12  1  0.73471000  0.42522300  0.14820800  1
  S  S13  1  0.23471000  0.57477700  0.35179200  1
  S  S14  1  0.26529000  0.57477700  0.85179200  1
  S  S15  1  0.76529000  0.42522300  0.64820800  1
  N  N16  1  0.23141100  0.21798400  0.25167300  1
  N  N17  1  0.73141100  0.78201600  0.24832700  1
  N  N18  1  0.76858900  0.78201600  0.74832700  1
  N  N19  1  0.26858900  0.21798400  0.75167300  1
  N  N20  1  0.25260400  0.29537300  0.00383800  1
  N  N21  1  0.75260400  0.70462700  0.49616200  1
  N  N22  1  0.74739600  0.70462700  0.99616200  1
  N  N23  1  0.24739600  0.29537300  0.50383800  1
  O  O24  1  0.72620200  0.12784000  0.47725100  1
  O  O25  1  0.22620200  0.87216000  0.02274900  1
  O  O26  1  0.27379800  0.87216000  0.52274900  1
  O  O27  1  0.77379800  0.12784000  0.97725100  1
  O  O28  1  0.60923500  0.95645300  0.38297300  1
  O  O29  1  0.10923500  0.04354700  0.11702700  1
  O  O30  1  0.39076500  0.04354700  0.61702700  1
  O  O31  1  0.89076500  0.95645300  0.88297300  1
  O  O32  1  0.02488300  0.05375000  0.38631600  1
  O  O33  1  0.52488200  0.94625000  0.11368400  1
  O  O34  1  0.97511700  0.94625000  0.61368400  1
  O  O35  1  0.47511700  0.05375000  0.88631600  1
  O  O36  1  0.68623600  0.20402900  0.34861900  1
  O  O37  1  0.18623600  0.79597100  0.15138100  1
  O  O38  1  0.31376400  0.79597100  0.65138100  1
  O  O39  1  0.81376400  0.20402900  0.84861900  1
  O  O40  1  0.73477100  0.43243100  0.23053900  1
  O  O41  1  0.23477100  0.56756900  0.26946100  1
  O  O42  1  0.26522900  0.56756900  0.76946100  1
  O  O43  1  0.76522900  0.43243100  0.73053900  1
  O  O44  1  0.54681000  0.52392300  0.11598000  1
  O  O45  1  0.04681000  0.47607700  0.38402000  1
  O  O46  1  0.45319000  0.47607700  0.88402000  1
  O  O47  1  0.95319000  0.52392300  0.61598000  1
  O  O48  1  0.97875400  0.46223300  0.11778900  1
  O  O49  1  0.47875400  0.53776700  0.38221100  1
  O  O50  1  0.02124600  0.53776700  0.88221100  1
  O  O51  1  0.52124600  0.46223300  0.61778900  1
  O  O52  1  0.65840300  0.27797300  0.12703100  1
  O  O53  1  0.15840300  0.72202700  0.37296900  1
  O  O54  1  0.34159700  0.72202700  0.87296900  1
  O  O55  1  0.84159700  0.27797300  0.62703100  1
