# generated using pymatgen
data_Li2AgGe
_symmetry_space_group_name_H-M   'P 1'
_cell_length_a   10.83004580
_cell_length_b   10.83004580
_cell_length_c   10.83004580
_cell_angle_alpha   122.56006172
_cell_angle_beta   119.17363338
_cell_angle_gamma   88.53069946
_symmetry_Int_Tables_number   1
_chemical_formula_structural   Li2AgGe
_chemical_formula_sum   'Li2 Ag1 Ge1'
_cell_volume   885.12205778
_cell_formula_units_Z   1
loop_
 _symmetry_equiv_pos_site_id
 _symmetry_equiv_pos_as_xyz
  1  'x, y, z'
loop_
 _atom_site_type_symbol
 _atom_site_label
 _atom_site_symmetry_multiplicity
 _atom_site_fract_x
 _atom_site_fract_y
 _atom_site_fract_z
 _atom_site_occupancy
  Li  Li0  1  0.00000000  0.25181700  0.25181700  1
  Li  Li1  1  0.00000000  0.74818300  0.74818300  1
  Ag  Ag2  1  0.00000000  0.50000000  0.50000000  1
  Ge  Ge3  1  0.00000000  0.00000000  0.00000000  1
