# generated using pymatgen
data_Li7Mn5O12
_symmetry_space_group_name_H-M   'P 1'
_cell_length_a   5.80004131
_cell_length_b   6.03322164
_cell_length_c   14.48780854
_cell_angle_alpha   94.29428536
_cell_angle_beta   90.37719580
_cell_angle_gamma   118.75169498
_symmetry_Int_Tables_number   1
_chemical_formula_structural   Li7Mn5O12
_chemical_formula_sum   'Li14 Mn10 O24'
_cell_volume   442.69344965
_cell_formula_units_Z   2
loop_
 _symmetry_equiv_pos_site_id
 _symmetry_equiv_pos_as_xyz
  1  'x, y, z'
loop_
 _atom_site_type_symbol
 _atom_site_label
 _atom_site_symmetry_multiplicity
 _atom_site_fract_x
 _atom_site_fract_y
 _atom_site_fract_z
 _atom_site_occupancy
  Li  Li0  1  0.64807700  0.30090300  0.17515700  1
  Li  Li1  1  0.14756700  0.30025600  0.67511200  1
  Li  Li2  1  0.17463700  0.83491200  0.16549100  1
  Li  Li3  1  0.67357000  0.83452600  0.66566000  1
  Li  Li4  1  0.66694600  0.84145000  0.16550100  1
  Li  Li5  1  0.16652600  0.84094800  0.66560100  1
  Li  Li6  1  0.34104400  0.17885200  0.33120500  1
  Li  Li7  1  0.84007100  0.17785500  0.83118400  1
  Li  Li8  1  0.99558100  0.49330400  0.00159800  1
  Li  Li9  1  0.49561300  0.49358200  0.50160200  1
  Li  Li10  1  0.85216800  0.70252500  0.31806000  1
  Li  Li11  1  0.35014300  0.70005200  0.81867300  1
  Li  Li12  1  0.51259000  0.01394200  0.99541000  1
  Li  Li13  1  0.01256500  0.01412700  0.49540900  1
  Mn  Mn14  1  0.16709900  0.33224000  0.16768400  1
  Mn  Mn15  1  0.49163100  0.98776900  0.50253200  1
  Mn  Mn16  1  0.84152700  0.67730600  0.82974500  1
  Mn  Mn17  1  0.49741400  0.49705300  0.00317100  1
  Mn  Mn18  1  0.82995100  0.16619800  0.33230800  1
  Mn  Mn19  1  0.66667500  0.33198100  0.66770000  1
  Mn  Mn20  1  0.99153200  0.98762100  0.00252500  1
  Mn  Mn21  1  0.34187400  0.67777600  0.32982000  1
  Mn  Mn22  1  0.99751500  0.49724700  0.50314400  1
  Mn  Mn23  1  0.32960500  0.16566000  0.83231700  1
  O  O24  1  0.01139700  0.04540800  0.24642700  1
  O  O25  1  0.51087200  0.04496000  0.74636100  1
  O  O26  1  0.32045300  0.61475300  0.09019200  1
  O  O27  1  0.82020300  0.61466300  0.59024600  1
  O  O28  1  0.64627300  0.82706000  0.41916900  1
  O  O29  1  0.14602800  0.82660400  0.91914600  1
  O  O30  1  0.18517900  0.83583500  0.41728900  1
  O  O31  1  0.68504600  0.83553700  0.91733600  1
  O  O32  1  0.48067300  0.49843600  0.25021600  1
  O  O33  1  0.98016800  0.49788000  0.75024100  1
  O  O34  1  0.85587500  0.16353800  0.08226800  1
  O  O35  1  0.35558500  0.16351600  0.58225700  1
  O  O36  1  0.14024500  0.33103900  0.41871800  1
  O  O37  1  0.63995200  0.33051700  0.91872400  1
  O  O38  1  0.66271000  0.29183000  0.42811700  1
  O  O39  1  0.16261500  0.29169700  0.92804900  1
  O  O40  1  0.30278800  0.15054900  0.08754400  1
  O  O41  1  0.80262900  0.15053000  0.58756600  1
  O  O42  1  0.02497800  0.51105400  0.24595300  1
  O  O43  1  0.52442800  0.51053600  0.74601200  1
  O  O44  1  0.83679400  0.69540500  0.07058800  1
  O  O45  1  0.33674400  0.69560900  0.57060100  1
  O  O46  1  0.51847200  0.01272400  0.25516800  1
  O  O47  1  0.01797300  0.01223600  0.75520500  1
