# generated using pymatgen
data_Li4MnCo2O7
_symmetry_space_group_name_H-M   'P 1'
_cell_length_a   2.98496500
_cell_length_b   5.10657126
_cell_length_c   17.25715932
_cell_angle_alpha   85.33022242
_cell_angle_beta   88.73213328
_cell_angle_gamma   75.37101371
_symmetry_Int_Tables_number   1
_chemical_formula_structural   Li4MnCo2O7
_chemical_formula_sum   'Li8 Mn2 Co4 O14'
_cell_volume   253.67688214
_cell_formula_units_Z   2
loop_
 _symmetry_equiv_pos_site_id
 _symmetry_equiv_pos_as_xyz
  1  'x, y, z'
loop_
 _atom_site_type_symbol
 _atom_site_label
 _atom_site_symmetry_multiplicity
 _atom_site_fract_x
 _atom_site_fract_y
 _atom_site_fract_z
 _atom_site_occupancy
  Li  Li0  1  0.70517400  0.58052600  0.92717000  1
  Li  Li1  1  0.14094500  0.71524200  0.78585100  1
  Li  Li2  1  0.57327900  0.85668800  0.64088700  1
  Li  Li3  1  0.99972400  0.99959900  0.49949500  1
  Li  Li4  1  0.42429200  0.14399300  0.35589800  1
  Li  Li5  1  0.86085200  0.27303800  0.21270500  1
  Li  Li6  1  0.30856800  0.41797100  0.07869900  1
  Li  Li7  1  0.55130200  0.87360100  0.14420800  1
  Mn  Mn8  1  0.99231800  0.00172700  0.00561400  1
  Mn  Mn9  1  0.86173100  0.28761700  0.71310000  1
  Co  Co10  1  0.44170100  0.13334900  0.85684700  1
  Co  Co11  1  0.28621300  0.43152000  0.56738400  1
  Co  Co12  1  0.71443300  0.57487300  0.42670000  1
  Co  Co13  1  0.13233000  0.71633400  0.28055300  1
  O  O14  1  0.38568200  0.24940100  0.96514500  1
  O  O15  1  0.81849900  0.40653200  0.82004300  1
  O  O16  1  0.18775800  0.55902300  0.67341300  1
  O  O17  1  0.66320100  0.69754000  0.52991600  1
  O  O18  1  0.05720800  0.82797300  0.38700000  1
  O  O19  1  0.47287700  0.97297700  0.25498400  1
  O  O20  1  0.92024700  0.14633500  0.10016800  1
  O  O21  1  0.06149300  0.87490500  0.89694300  1
  O  O22  1  0.54029200  0.00991000  0.75390600  1
  O  O23  1  0.91034200  0.16120700  0.60894100  1
  O  O24  1  0.38858000  0.30212600  0.46552700  1
  O  O25  1  0.79723600  0.45379400  0.32570100  1
  O  O26  1  0.20934600  0.57496500  0.19146100  1
  O  O27  1  0.59437400  0.75723300  0.03173900  1
