# generated using pymatgen
data_LiFePO4
_symmetry_space_group_name_H-M   'P 1'
_cell_length_a   5.88795469
_cell_length_b   7.48293787
_cell_length_c   9.25294009
_cell_angle_alpha   105.57922785
_cell_angle_beta   99.70005108
_cell_angle_gamma   98.14704377
_symmetry_Int_Tables_number   1
_chemical_formula_structural   LiFePO4
_chemical_formula_sum   'Li4 Fe4 P4 O16'
_cell_volume   379.50611815
_cell_formula_units_Z   4
loop_
 _symmetry_equiv_pos_site_id
 _symmetry_equiv_pos_as_xyz
  1  'x, y, z'
loop_
 _atom_site_type_symbol
 _atom_site_label
 _atom_site_symmetry_multiplicity
 _atom_site_fract_x
 _atom_site_fract_y
 _atom_site_fract_z
 _atom_site_occupancy
  Li  Li0  1  0.99651558  0.99111289  0.75097653  1
  Li  Li1  1  0.00357778  0.00900971  0.24902777  1
  Li  Li2  1  0.86798167  0.48449468  0.10617619  1
  Li  Li3  1  0.13201312  0.51542293  0.89384914  1
  Fe  Fe4  1  0.50141735  0.01443948  0.75748010  1
  Fe  Fe5  1  0.49861034  0.98548446  0.24249962  1
  Fe  Fe6  1  0.62490380  0.50801063  0.36354298  1
  Fe  Fe7  1  0.37495209  0.49217952  0.63648941  1
  P  P8  1  0.18388403  0.75125637  0.43949350  1
  P  P9  1  0.81601111  0.24872705  0.56050913  1
  P  P10  1  0.30353285  0.24970245  0.06103379  1
  P  P11  1  0.69657435  0.75028954  0.93896369  1
  O  O12  1  0.55646385  0.37224903  0.13813951  1
  O  O13  1  0.44355010  0.62787426  0.86190900  1
  O  O14  1  0.35855838  0.61199891  0.45487246  1
  O  O15  1  0.64135503  0.38803268  0.54515117  1
  O  O16  1  0.93771100  0.63258562  0.35487431  1
  O  O17  1  0.06220164  0.36735039  0.64512317  1
  O  O18  1  0.75118207  0.88022272  0.83711428  1
  O  O19  1  0.24898975  0.11964524  0.16280523  1
  O  O20  1  0.12308083  0.37466869  0.04802162  1
  O  O21  1  0.87690890  0.62521558  0.95197882  1
  O  O22  1  0.18549154  0.87128889  0.60440473  1
  O  O23  1  0.81444552  0.12868570  0.39559711  1
  O  O24  1  0.30402077  0.12353199  0.89710967  1
  O  O25  1  0.69615640  0.87657422  0.10287052  1
  O  O26  1  0.73928139  0.12070757  0.65637158  1
  O  O27  1  0.26062875  0.87923982  0.34361496  1
