# generated using pymatgen
data_Li7V3P8O29
_symmetry_space_group_name_H-M   'P 1'
_cell_length_a   9.86675048
_cell_length_b   9.87760130
_cell_length_c   13.88344347
_cell_angle_alpha   90.13412223
_cell_angle_beta   90.29206273
_cell_angle_gamma   59.86509831
_symmetry_Int_Tables_number   1
_chemical_formula_structural   Li7V3P8O29
_chemical_formula_sum   'Li14 V6 P16 O58'
_cell_volume   1170.18854197
_cell_formula_units_Z   2
loop_
 _symmetry_equiv_pos_site_id
 _symmetry_equiv_pos_as_xyz
  1  'x, y, z'
loop_
 _atom_site_type_symbol
 _atom_site_label
 _atom_site_symmetry_multiplicity
 _atom_site_fract_x
 _atom_site_fract_y
 _atom_site_fract_z
 _atom_site_occupancy
  Li  Li0  1  0.90810419  0.77376912  0.06316326  1
  Li  Li1  1  0.77194201  0.91082226  0.56160919  1
  Li  Li2  1  0.90994443  0.31266787  0.56212138  1
  Li  Li3  1  0.67144510  0.66551765  0.38178507  1
  Li  Li4  1  0.66305875  0.66311869  0.88174238  1
  Li  Li5  1  0.77559010  0.31431120  0.06187471  1
  Li  Li6  1  0.31754825  0.91184213  0.06204685  1
  Li  Li7  1  0.67205206  0.22932178  0.44022102  1
  Li  Li8  1  0.31664642  0.77371121  0.56338706  1
  Li  Li9  1  0.67658291  0.09757550  0.93905233  1
  Li  Li10  1  0.22764388  0.67703560  0.93726133  1
  Li  Li11  1  0.09619511  0.67678652  0.43826296  1
  Li  Li12  1  0.22514763  0.09651730  0.43954597  1
  Li  Li13  1  0.09532640  0.22759664  0.94168083  1
  V  V14  1  0.56768187  0.43057108  0.24783509  1
  V  V15  1  0.43092678  0.56903514  0.74924602  1
  V  V16  1  0.56819435  0.00238414  0.74796127  1
  V  V17  1  0.43147817  0.00340906  0.25065141  1
  V  V18  1  0.00048984  0.56805662  0.24883410  1
  V  V19  1  0.00320363  0.43247696  0.75009062  1
  P  P20  1  0.90896437  0.76911601  0.84128309  1
  P  P21  1  0.76859434  0.91143641  0.34350654  1
  P  P22  1  0.90781766  0.32260948  0.34162474  1
  P  P23  1  0.66332189  0.66941417  0.12502134  1
  P  P24  1  0.66853515  0.66786096  0.62491031  1
  P  P25  1  0.77105883  0.32091521  0.84311041  1
  P  P26  1  0.67793927  0.23399547  0.65828785  1
  P  P27  1  0.32271402  0.91142128  0.84374829  1
  P  P28  1  0.67816042  0.08719653  0.15803700  1
  P  P29  1  0.32263521  0.76885813  0.34321479  1
  P  P30  1  0.23292764  0.68295155  0.15684236  1
  P  P31  1  0.33714208  0.33153786  0.37469138  1
  P  P32  1  0.33309359  0.33365252  0.87468880  1
  P  P33  1  0.08516282  0.68105662  0.65597189  1
  P  P34  1  0.23269066  0.08725852  0.65786881  1
  P  P35  1  0.08813187  0.23290258  0.15725090  1
  O  O36  1  0.99261129  0.75884728  0.56621874  1
  O  O37  1  0.91901678  0.75165597  0.34519079  1
  O  O38  1  0.75851815  0.99858317  0.06787756  1
  O  O39  1  0.74399591  0.91903658  0.84198863  1
  O  O40  1  0.88538192  0.62621572  0.82671371  1
  O  O41  1  0.80906252  0.67679749  0.16115337  1
  O  O42  1  0.88038597  0.48884508  0.32891786  1
  O  O43  1  0.99778009  0.23957018  0.06777529  1
  O  O44  1  0.92360641  0.32897191  0.84332034  1
  O  O45  1  0.67735925  0.81363759  0.66430838  1
  O  O46  1  0.62646660  0.88636142  0.32564078  1
  O  O47  1  0.81726831  0.51452075  0.66680924  1
  O  O48  1  0.65468983  0.67234265  0.01660092  1
  O  O49  1  0.67679645  0.66489075  0.51657427  1
  O  O50  1  0.67026908  0.51494213  0.16313981  1
  O  O51  1  0.48900064  0.88682073  0.82517396  1
  O  O52  1  0.51094745  0.81679013  0.16713711  1
  O  O53  1  0.74388627  0.33339354  0.33959411  1
  O  O54  1  0.78789302  0.21434695  0.75045306  1
  O  O55  1  0.76096248  0.23786591  0.56837236  1
  O  O56  1  0.75761419  0.24087776  0.93189686  1
  O  O57  1  0.63137787  0.48747077  0.82837221  1
  O  O58  1  0.51606909  0.67526374  0.66067502  1
  O  O59  1  0.66573548  0.25015382  0.15850751  1
  O  O60  1  0.48849722  0.62599527  0.32622989  1
  O  O61  1  0.33500757  0.91827286  0.34537150  1
  O  O62  1  0.78624985  0.99999028  0.25079574  1
  O  O63  1  0.74773229  0.00676241  0.43243723  1
  O  O64  1  0.24446980  0.99779691  0.56751843  1
  O  O65  1  0.66916542  0.08017069  0.66087176  1
  O  O66  1  0.51734286  0.37633375  0.67305630  1
  O  O67  1  0.33160729  0.75211306  0.84554500  1
  O  O68  1  0.48904576  0.32389511  0.33265301  1
  O  O69  1  0.38284226  0.52224036  0.17779376  1
  O  O70  1  0.25191469  0.75578551  0.06676268  1
  O  O71  1  0.24396840  0.75418133  0.43193932  1
  O  O72  1  0.21621300  0.78903635  0.24968996  1
  O  O73  1  0.24420226  0.67244925  0.65670972  1
  O  O74  1  0.48419232  0.18762835  0.83179594  1
  O  O75  1  0.51828574  0.09986765  0.17268462  1
  O  O76  1  0.32422413  0.48689129  0.83864344  1
  O  O77  1  0.32874479  0.32255239  0.98159092  1
  O  O78  1  0.34545061  0.31481025  0.48158825  1
  O  O79  1  0.19052407  0.48275188  0.33770869  1
  O  O80  1  0.38228713  0.09713260  0.67641470  1
  O  O81  1  0.33282913  0.18100243  0.33008283  1
  O  O82  1  0.08570840  0.66969830  0.15558409  1
  O  O83  1  0.99427240  0.78922075  0.74940959  1
  O  O84  1  0.99909357  0.75720213  0.93155290  1
  O  O85  1  0.09891443  0.52083383  0.67361567  1
  O  O86  1  0.18142905  0.33246103  0.82994632  1
  O  O87  1  0.10502490  0.37594975  0.17309922  1
  O  O88  1  0.24832799  0.07971380  0.16013505  1
  O  O89  1  0.24670964  0.00700721  0.93229208  1
  O  O90  1  0.21506183  0.99964192  0.75050751  1
  O  O91  1  0.08485303  0.25008498  0.65736365  1
  O  O92  1  0.99774566  0.24081923  0.43139936  1
  O  O93  1  0.99628478  0.21618731  0.25004867  1
