# generated using pymatgen
data_LiSmEu2O4
_symmetry_space_group_name_H-M   'P 1'
_cell_length_a   3.49789300
_cell_length_b   11.59536600
_cell_length_c   11.69817200
_cell_angle_alpha   90.00000000
_cell_angle_beta   90.00000000
_cell_angle_gamma   90.00000000
_symmetry_Int_Tables_number   1
_chemical_formula_structural   LiSmEu2O4
_chemical_formula_sum   'Li4 Sm4 Eu8 O16'
_cell_volume   474.47024741
_cell_formula_units_Z   4
loop_
 _symmetry_equiv_pos_site_id
 _symmetry_equiv_pos_as_xyz
  1  'x, y, z'
loop_
 _atom_site_type_symbol
 _atom_site_label
 _atom_site_symmetry_multiplicity
 _atom_site_fract_x
 _atom_site_fract_y
 _atom_site_fract_z
 _atom_site_occupancy
  Li  Li0  1  0.25000000  0.34737400  0.90952300  1
  Li  Li1  1  0.25000000  0.84737400  0.59047700  1
  Li  Li2  1  0.75000000  0.65262600  0.09047700  1
  Li  Li3  1  0.75000000  0.15262600  0.40952300  1
  Sm  Sm4  1  0.25000000  0.14021000  0.20396900  1
  Sm  Sm5  1  0.25000000  0.64021000  0.29603100  1
  Sm  Sm6  1  0.75000000  0.85979000  0.79603100  1
  Sm  Sm7  1  0.75000000  0.35979000  0.70396900  1
  Eu  Eu8  1  0.25000000  0.09805800  0.61441500  1
  Eu  Eu9  1  0.25000000  0.59805800  0.88558500  1
  Eu  Eu10  1  0.75000000  0.90194200  0.38558500  1
  Eu  Eu11  1  0.75000000  0.40194200  0.11441500  1
  Eu  Eu12  1  0.25000000  0.36503100  0.42529700  1
  Eu  Eu13  1  0.25000000  0.86503100  0.07470300  1
  Eu  Eu14  1  0.75000000  0.63496900  0.57470300  1
  Eu  Eu15  1  0.75000000  0.13496900  0.92529700  1
  O  O16  1  0.25000000  0.25694200  0.04338400  1
  O  O17  1  0.25000000  0.75694200  0.45661600  1
  O  O18  1  0.75000000  0.74305800  0.95661600  1
  O  O19  1  0.75000000  0.24305800  0.54338400  1
  O  O20  1  0.25000000  0.05956000  0.39167500  1
  O  O21  1  0.25000000  0.55956000  0.10832500  1
  O  O22  1  0.75000000  0.94044000  0.60832500  1
  O  O23  1  0.75000000  0.44044000  0.89167500  1
  O  O24  1  0.25000000  0.47463800  0.62685400  1
  O  O25  1  0.25000000  0.97463800  0.87314600  1
  O  O26  1  0.75000000  0.52536200  0.37314600  1
  O  O27  1  0.75000000  0.02536200  0.12685400  1
  O  O28  1  0.25000000  0.23973500  0.78026100  1
  O  O29  1  0.25000000  0.73973500  0.71973900  1
  O  O30  1  0.75000000  0.76026500  0.21973900  1
  O  O31  1  0.75000000  0.26026500  0.28026100  1
