# generated using pymatgen
data_Li7Mn5O12
_symmetry_space_group_name_H-M   'P 1'
_cell_length_a   5.99583562
_cell_length_b   10.17526223
_cell_length_c   7.65832231
_cell_angle_alpha   77.43492757
_cell_angle_beta   98.40419049
_cell_angle_gamma   103.90513277
_symmetry_Int_Tables_number   1
_chemical_formula_structural   Li7Mn5O12
_chemical_formula_sum   'Li14 Mn10 O24'
_cell_volume   440.49529536
_cell_formula_units_Z   2
loop_
 _symmetry_equiv_pos_site_id
 _symmetry_equiv_pos_as_xyz
  1  'x, y, z'
loop_
 _atom_site_type_symbol
 _atom_site_label
 _atom_site_symmetry_multiplicity
 _atom_site_fract_x
 _atom_site_fract_y
 _atom_site_fract_z
 _atom_site_occupancy
  Li  Li0  1  0.16799000  0.25040600  0.16713300  1
  Li  Li1  1  0.16686300  0.75016300  0.16675200  1
  Li  Li2  1  0.66688900  0.25001300  0.16669500  1
  Li  Li3  1  0.66667900  0.74999200  0.16653600  1
  Li  Li4  1  0.17163800  0.00306300  0.66473100  1
  Li  Li5  1  0.16195200  0.49702800  0.66871500  1
  Li  Li6  1  0.49824000  0.24876600  0.50452800  1
  Li  Li7  1  0.51195000  0.75419500  0.51040600  1
  Li  Li8  1  0.83441400  0.25105100  0.82880800  1
  Li  Li9  1  0.82029400  0.74563300  0.82256400  1
  Li  Li10  1  0.00453100  0.24192900  0.50535400  1
  Li  Li11  1  0.00246900  0.74362100  0.50710700  1
  Li  Li12  1  0.32855600  0.25800600  0.82804900  1
  Li  Li13  1  0.33062800  0.75649800  0.82628200  1
  Mn  Mn14  1  0.66704100  0.99894800  0.66744400  1
  Mn  Mn15  1  0.99560100  0.99843200  0.99652600  1
  Mn  Mn16  1  0.33464100  0.00316700  0.33657800  1
  Mn  Mn17  1  0.49057900  0.49966300  0.99248200  1
  Mn  Mn18  1  0.84402300  0.50171300  0.33601900  1
  Mn  Mn19  1  0.66647600  0.50107300  0.66576600  1
  Mn  Mn20  1  0.99873900  0.49687200  0.99693000  1
  Mn  Mn21  1  0.33783100  0.50157300  0.33683400  1
  Mn  Mn22  1  0.48940300  0.99828900  0.99735300  1
  Mn  Mn23  1  0.84253100  0.00021300  0.34058400  1
  O  O24  1  0.80455200  0.10279100  0.08375200  1
  O  O25  1  0.84677600  0.61431300  0.09561700  1
  O  O26  1  0.52845600  0.39698700  0.24941600  1
  O  O27  1  0.48641600  0.88555400  0.23779400  1
  O  O28  1  0.34810500  0.11789200  0.08609800  1
  O  O29  1  0.34655600  0.61547300  0.09046300  1
  O  O30  1  0.98529300  0.38213100  0.24739500  1
  O  O31  1  0.98688700  0.88446400  0.24287300  1
  O  O32  1  0.18161200  0.12444600  0.40603000  1
  O  O33  1  0.14454700  0.60771600  0.40496100  1
  O  O34  1  0.15174800  0.37560600  0.92750800  1
  O  O35  1  0.18908700  0.89242700  0.92844200  1
  O  O36  1  0.68773800  0.11630500  0.43274100  1
  O  O37  1  0.68830200  0.61807600  0.42780100  1
  O  O38  1  0.64552000  0.38368200  0.90040200  1
  O  O39  1  0.64513200  0.88187600  0.90532200  1
  O  O40  1  0.50975300  0.11196300  0.76106400  1
  O  O41  1  0.50709400  0.61570800  0.75159100  1
  O  O42  1  0.82373600  0.38804900  0.57231900  1
  O  O43  1  0.82604800  0.88423600  0.58153300  1
  O  O44  1  0.96604100  0.10628900  0.75513200  1
  O  O45  1  0.96574000  0.60826800  0.75407800  1
  O  O46  1  0.36736600  0.39368900  0.57820700  1
  O  O47  1  0.36753900  0.89175300  0.57928700  1
