# generated using pymatgen
data_Li9Mn7O16
_symmetry_space_group_name_H-M   'P 1'
_cell_length_a   6.06109912
_cell_length_b   6.06109912
_cell_length_c   9.73266956
_cell_angle_alpha   84.23478706
_cell_angle_beta   84.23478706
_cell_angle_gamma   56.59683010
_symmetry_Int_Tables_number   1
_chemical_formula_structural   Li9Mn7O16
_chemical_formula_sum   'Li9 Mn7 O16'
_cell_volume   296.53868233
_cell_formula_units_Z   1
loop_
 _symmetry_equiv_pos_site_id
 _symmetry_equiv_pos_as_xyz
  1  'x, y, z'
loop_
 _atom_site_type_symbol
 _atom_site_label
 _atom_site_symmetry_multiplicity
 _atom_site_fract_x
 _atom_site_fract_y
 _atom_site_fract_z
 _atom_site_occupancy
  Li  Li0  1  0.38191500  0.86976500  0.75041000  1
  Li  Li1  1  0.61808500  0.13023500  0.24959000  1
  Li  Li2  1  0.86976500  0.38191500  0.75041000  1
  Li  Li3  1  0.87135400  0.87135400  0.75639500  1
  Li  Li4  1  0.12864600  0.12864600  0.24360500  1
  Li  Li5  1  0.37705700  0.37705700  0.75920900  1
  Li  Li6  1  0.62294300  0.62294300  0.24079100  1
  Li  Li7  1  0.13023500  0.61808500  0.24959000  1
  Li  Li8  1  0.50000000  0.50000000  0.00000000  1
  Mn  Mn9  1  0.00000000  0.00000000  0.00000000  1
  Mn  Mn10  1  0.50000000  0.00000000  0.00000000  1
  Mn  Mn11  1  0.24963100  0.24963100  0.50082000  1
  Mn  Mn12  1  0.75036900  0.75036900  0.49918000  1
  Mn  Mn13  1  0.75008100  0.24991900  0.50000000  1
  Mn  Mn14  1  0.00000000  0.50000000  0.00000000  1
  Mn  Mn15  1  0.24991900  0.75008100  0.50000000  1
  O  O16  1  0.15839000  0.68061700  0.89657000  1
  O  O17  1  0.44666900  0.94768500  0.38336500  1
  O  O18  1  0.68061700  0.15839000  0.89657000  1
  O  O19  1  0.69386500  0.69386500  0.88635400  1
  O  O20  1  0.94863700  0.94863700  0.38061600  1
  O  O21  1  0.19949500  0.19949500  0.88213500  1
  O  O22  1  0.44936100  0.44936100  0.37973100  1
  O  O23  1  0.94768500  0.44666900  0.38336500  1
  O  O24  1  0.55333100  0.05231500  0.61663500  1
  O  O25  1  0.84161000  0.31938300  0.10343000  1
  O  O26  1  0.05231500  0.55333100  0.61663500  1
  O  O27  1  0.05136300  0.05136300  0.61938400  1
  O  O28  1  0.30613500  0.30613500  0.11364600  1
  O  O29  1  0.55063900  0.55063900  0.62026900  1
  O  O30  1  0.80050500  0.80050500  0.11786500  1
  O  O31  1  0.31938300  0.84161000  0.10343000  1
