# generated using pymatgen
data_Li3OsN2
_symmetry_space_group_name_H-M   'P 1'
_cell_length_a   8.47050405
_cell_length_b   9.78089481
_cell_length_c   9.78089547
_cell_angle_alpha   89.99999871
_cell_angle_beta   125.26438774
_cell_angle_gamma   54.73560952
_symmetry_Int_Tables_number   1
_chemical_formula_structural   Li3OsN2
_chemical_formula_sum   'Li24 Os8 N16'
_cell_volume   467.84913971
_cell_formula_units_Z   8
loop_
 _symmetry_equiv_pos_site_id
 _symmetry_equiv_pos_as_xyz
  1  'x, y, z'
loop_
 _atom_site_type_symbol
 _atom_site_label
 _atom_site_symmetry_multiplicity
 _atom_site_fract_x
 _atom_site_fract_y
 _atom_site_fract_z
 _atom_site_occupancy
  Li  Li0  1  0.22255850  0.04198226  0.98755252  1
  Li  Li1  1  0.77744150  0.76453976  0.51244748  1
  Li  Li2  1  0.77744150  0.45801774  0.76499402  1
  Li  Li3  1  0.22255850  0.73546024  0.73500598  1
  Li  Li4  1  0.24745346  0.76499402  0.27698724  1
  Li  Li5  1  0.75254654  0.73500598  0.02953378  1
  Li  Li6  1  0.24745346  0.98755252  0.47046622  1
  Li  Li7  1  0.75254654  0.51244748  0.22301276  1
  Li  Li8  1  0.69347798  0.02953378  0.73546024  1
  Li  Li9  1  0.69347798  0.27698724  0.45801774  1
  Li  Li10  1  0.30652202  0.22301276  0.76453976  1
  Li  Li11  1  0.30652202  0.47046622  0.04198226  1
  Li  Li12  1  0.77744150  0.95801774  0.01244748  1
  Li  Li13  1  0.22255850  0.23546024  0.48755252  1
  Li  Li14  1  0.22255850  0.54198226  0.23500598  1
  Li  Li15  1  0.77744150  0.26453976  0.26499402  1
  Li  Li16  1  0.75254654  0.23500598  0.72301276  1
  Li  Li17  1  0.24745346  0.26499402  0.97046622  1
  Li  Li18  1  0.75254654  0.01244748  0.52953378  1
  Li  Li19  1  0.24745346  0.48755252  0.77698724  1
  Li  Li20  1  0.30652202  0.97046622  0.26453976  1
  Li  Li21  1  0.30652202  0.72301276  0.54198226  1
  Li  Li22  1  0.69347798  0.77698724  0.23546024  1
  Li  Li23  1  0.69347798  0.52953378  0.95801774  1
  Os  Os24  1  0.22795982  1.00000000  0.72795982  1
  Os  Os25  1  0.77204018  0.72795982  0.77204018  1
  Os  Os26  1  0.77204018  0.50000000  0.50000000  1
  Os  Os27  1  0.22795982  0.77204018  1.00000000  1
  Os  Os28  1  0.77204018  0.00000000  0.27204018  1
  Os  Os29  1  0.22795982  0.27204018  0.22795982  1
  Os  Os30  1  0.22795982  0.50000000  0.50000000  1
  Os  Os31  1  0.77204018  0.22795982  0.00000000  1
  N  N32  1  0.00000000  0.00000000  0.50000000  1
  N  N33  1  0.00000000  0.50000000  0.00000000  1
  N  N34  1  0.00000000  0.50000000  0.50000000  1
  N  N35  1  0.00000000  0.00000000  0.00000000  1
  N  N36  1  0.50000000  0.97964177  0.75000000  1
  N  N37  1  0.50000000  0.52035823  0.25000000  1
  N  N38  1  0.00000000  0.25000000  0.72964177  1
  N  N39  1  0.00000000  0.75000000  0.77035823  1
  N  N40  1  0.54071746  0.72964177  0.52035823  1
  N  N41  1  0.45928254  0.77035823  0.97964177  1
  N  N42  1  0.50000000  0.02035823  0.25000000  1
  N  N43  1  0.50000000  0.47964177  0.75000000  1
  N  N44  1  0.00000000  0.75000000  0.27035823  1
  N  N45  1  0.00000000  0.25000000  0.22964177  1
  N  N46  1  0.45928254  0.27035823  0.47964177  1
  N  N47  1  0.54071746  0.22964177  0.02035823  1
