# generated using pymatgen
data_Li3TiMn4O8
_symmetry_space_group_name_H-M   'P 1'
_cell_length_a   6.13628848
_cell_length_b   10.60348389
_cell_length_c   6.16743001
_cell_angle_alpha   88.62724778
_cell_angle_beta   120.40788576
_cell_angle_gamma   74.97463101
_symmetry_Int_Tables_number   1
_chemical_formula_structural   Li3TiMn4O8
_chemical_formula_sum   'Li6 Ti2 Mn8 O16'
_cell_volume   328.40640788
_cell_formula_units_Z   2
loop_
 _symmetry_equiv_pos_site_id
 _symmetry_equiv_pos_as_xyz
  1  'x, y, z'
loop_
 _atom_site_type_symbol
 _atom_site_label
 _atom_site_symmetry_multiplicity
 _atom_site_fract_x
 _atom_site_fract_y
 _atom_site_fract_z
 _atom_site_occupancy
  Li  Li0  1  0.99980000  0.49917900  0.99995800  1
  Li  Li1  1  0.00004600  0.00106700  0.50019200  1
  Li  Li2  1  0.99999300  0.24999000  0.74982100  1
  Li  Li3  1  0.99998000  0.74998000  0.25010900  1
  Li  Li4  1  0.52150200  0.48510100  0.50682600  1
  Li  Li5  1  0.47836000  0.01492400  0.99290500  1
  Ti  Ti6  1  0.50008500  0.25003000  0.75007500  1
  Ti  Ti7  1  0.49994000  0.75000500  0.24999900  1
  Mn  Mn8  1  0.50002400  0.75001300  0.75007400  1
  Mn  Mn9  1  0.50001000  0.24996700  0.24992600  1
  Mn  Mn10  1  0.00692600  0.00141400  0.00011100  1
  Mn  Mn11  1  0.99290200  0.49867300  0.49981600  1
  Mn  Mn12  1  0.00026900  0.24996400  0.25010700  1
  Mn  Mn13  1  0.00024800  0.74988600  0.75022000  1
  Mn  Mn14  1  0.50130200  0.99806200  0.50661200  1
  Mn  Mn15  1  0.49887200  0.50182600  0.99342300  1
  O  O16  1  0.24310500  0.64265300  0.10152000  1
  O  O17  1  0.27476500  0.13293600  0.63636100  1
  O  O18  1  0.72535000  0.36696300  0.86359600  1
  O  O19  1  0.75682300  0.85734100  0.39855700  1
  O  O20  1  0.78181900  0.86418600  0.86354400  1
  O  O21  1  0.73593200  0.36987300  0.36275600  1
  O  O22  1  0.26406500  0.13004600  0.13711800  1
  O  O23  1  0.21810400  0.63585900  0.63667600  1
  O  O24  1  0.26804700  0.86373900  0.36047800  1
  O  O25  1  0.26898400  0.35893400  0.87803800  1
  O  O26  1  0.71471800  0.62653200  0.58828000  1
  O  O27  1  0.73485600  0.12830200  0.09425700  1
  O  O28  1  0.26517700  0.37175400  0.40565200  1
  O  O29  1  0.28519600  0.87350200  0.91180100  1
  O  O30  1  0.73106300  0.14098300  0.62174200  1
  O  O31  1  0.73173700  0.63631300  0.13944900  1
