# generated using pymatgen
data_Li32Mn11Cr5O48
_symmetry_space_group_name_H-M   'P 1'
_cell_length_a   5.00695100
_cell_length_b   5.01329174
_cell_length_c   38.39100946
_cell_angle_alpha   92.26483915
_cell_angle_beta   88.95863605
_cell_angle_gamma   119.88459664
_symmetry_Int_Tables_number   1
_chemical_formula_structural   Li32Mn11Cr5O48
_chemical_formula_sum   'Li32 Mn11 Cr5 O48'
_cell_volume   834.87275501
_cell_formula_units_Z   1
loop_
 _symmetry_equiv_pos_site_id
 _symmetry_equiv_pos_as_xyz
  1  'x, y, z'
loop_
 _atom_site_type_symbol
 _atom_site_label
 _atom_site_symmetry_multiplicity
 _atom_site_fract_x
 _atom_site_fract_y
 _atom_site_fract_z
 _atom_site_occupancy
  Li  Li0  1  0.82126300  0.91487500  0.75000000  1
  Li  Li1  1  0.50254200  0.00281500  0.00010200  1
  Li  Li2  1  0.50423700  0.93972500  0.81246300  1
  Li  Li3  1  0.49780900  0.87134600  0.62495200  1
  Li  Li4  1  0.49738100  0.81528600  0.43747000  1
  Li  Li5  1  0.49658900  0.74934500  0.24984800  1
  Li  Li6  1  0.49983400  0.68747700  0.06251000  1
  Li  Li7  1  0.17547300  0.96704900  0.87521800  1
  Li  Li8  1  0.50410400  0.62710100  0.87504200  1
  Li  Li9  1  0.18085000  0.83930900  0.50019700  1
  Li  Li10  1  0.17928800  0.71548000  0.12508900  1
  Li  Li11  1  0.49778700  0.56436000  0.68742700  1
  Li  Li12  1  0.49557000  0.49549100  0.50022200  1
  Li  Li13  1  0.18013300  0.58536000  0.74996900  1
  Li  Li14  1  0.17595500  0.46461000  0.37502800  1
  Li  Li15  1  0.82723900  0.78954200  0.37480700  1
  Li  Li16  1  0.82268200  0.66219400  0.00018100  1
  Li  Li17  1  0.17480600  0.33550200  0.00001100  1
  Li  Li18  1  0.17660600  0.21481700  0.62502300  1
  Li  Li19  1  0.82584000  0.53869400  0.62482400  1
  Li  Li20  1  0.82481100  0.41190500  0.24989600  1
  Li  Li21  1  0.49993500  0.43749900  0.31243400  1
  Li  Li22  1  0.81915700  0.28094200  0.87490700  1
  Li  Li23  1  0.82300700  0.16418700  0.50024200  1
  Li  Li24  1  0.49586400  0.37247100  0.12502100  1
  Li  Li25  1  0.82429000  0.03727700  0.12495300  1
  Li  Li26  1  0.50285100  0.31269100  0.93752500  1
  Li  Li27  1  0.49734300  0.24786600  0.75001400  1
  Li  Li28  1  0.49987200  0.18743700  0.56255900  1
  Li  Li29  1  0.49781400  0.12110100  0.37495100  1
  Li  Li30  1  0.49745400  0.06122900  0.18747500  1
  Li  Li31  1  0.17932600  0.08870600  0.24983600  1
  Mn  Mn32  1  0.83456700  0.98045800  0.93767900  1
  Mn  Mn33  1  0.83437600  0.85468400  0.56250700  1
  Mn  Mn34  1  0.16633400  0.89537000  0.68746300  1
  Mn  Mn35  1  0.16595400  0.77039500  0.31243900  1
  Mn  Mn36  1  0.16572600  0.52046100  0.56253100  1
  Mn  Mn37  1  0.16451700  0.39443200  0.18754800  1
  Mn  Mn38  1  0.16751900  0.27102900  0.81241700  1
  Mn  Mn39  1  0.83458800  0.35479500  0.06260700  1
  Mn  Mn40  1  0.83466500  0.10485000  0.31243900  1
  Mn  Mn41  1  0.16636400  0.14471100  0.43731500  1
  Mn  Mn42  1  0.16558700  0.02053300  0.06259000  1
  Cr  Cr43  1  0.16907900  0.64319200  0.93770800  1
  Cr  Cr44  1  0.83006300  0.73053200  0.18751800  1
  Cr  Cr45  1  0.83958300  0.60630400  0.81242200  1
  Cr  Cr46  1  0.83177100  0.48380600  0.43741500  1
  Cr  Cr47  1  0.83122600  0.23330900  0.68750600  1
  O  O48  1  0.85863800  0.91179200  0.65953600  1
  O  O49  1  0.85816300  0.95214200  0.84063700  1
  O  O50  1  0.49380700  0.92358700  0.71629100  1
  O  O51  1  0.50082700  0.80423500  0.34072100  1
  O  O52  1  0.50455900  0.95005100  0.90889500  1
  O  O53  1  0.49962100  0.82026300  0.53408900  1
  O  O54  1  0.49801400  0.69423000  0.15889700  1
  O  O55  1  0.49960300  0.68106400  0.96604700  1
  O  O56  1  0.50073000  0.55391200  0.59097800  1
  O  O57  1  0.13757700  0.92621700  0.78453300  1
  O  O58  1  0.49865800  0.56880200  0.78393700  1
  O  O59  1  0.14831800  0.81071400  0.40903200  1
  O  O60  1  0.14192400  0.67839600  0.03464300  1
  O  O61  1  0.14025100  0.96107200  0.96562300  1
  O  O62  1  0.14332400  0.83962300  0.59048000  1
  O  O63  1  0.14632400  0.71289600  0.21569000  1
  O  O64  1  0.85779400  0.78646100  0.28441200  1
  O  O65  1  0.85961000  0.81825600  0.46531400  1
  O  O66  1  0.85827900  0.69693900  0.09052700  1
  O  O67  1  0.14706600  0.55882600  0.65912700  1
  O  O68  1  0.14210500  0.42832100  0.28456800  1
  O  O69  1  0.13874300  0.58586400  0.84048900  1
  O  O70  1  0.14101800  0.46160200  0.46540100  1
  O  O71  1  0.14258800  0.33904700  0.09042300  1
  O  O72  1  0.85672700  0.66302200  0.90950300  1
  O  O73  1  0.85768600  0.53630500  0.53449500  1
  O  O74  1  0.85871300  0.41092100  0.15948300  1
  O  O75  1  0.85938200  0.56737900  0.71533200  1
  O  O76  1  0.85799500  0.44694300  0.34030900  1
  O  O77  1  0.13950300  0.30666000  0.90975200  1
  O  O78  1  0.14181600  0.17817800  0.53460000  1
  O  O79  1  0.14223600  0.21236000  0.71522000  1
  O  O80  1  0.85802300  0.28181700  0.78415100  1
  O  O81  1  0.85918900  0.16198600  0.40947900  1
  O  O82  1  0.85743100  0.03610000  0.03469500  1
  O  O83  1  0.85221800  0.31556400  0.96590900  1
  O  O84  1  0.85753700  0.19681700  0.59054800  1
  O  O85  1  0.49538200  0.42529900  0.21627500  1
  O  O86  1  0.85967600  0.07149100  0.21542100  1
  O  O87  1  0.50286100  0.44345200  0.40911200  1
  O  O88  1  0.49928100  0.32057500  0.03420600  1
  O  O89  1  0.50016800  0.30631200  0.84091800  1
  O  O90  1  0.49307000  0.17342800  0.46636300  1
  O  O91  1  0.50073900  0.05477300  0.09090000  1
  O  O92  1  0.50245300  0.19375300  0.65927200  1
  O  O93  1  0.49979900  0.07075400  0.28407500  1
  O  O94  1  0.14786800  0.05992800  0.15917400  1
  O  O95  1  0.14308100  0.08932200  0.34021800  1
