# generated using pymatgen
data_Li9Mn7O16
_symmetry_space_group_name_H-M   'P 1'
_cell_length_a   5.08726200
_cell_length_b   5.29373312
_cell_length_c   11.36353354
_cell_angle_alpha   84.61378318
_cell_angle_beta   88.06119954
_cell_angle_gamma   77.63475602
_symmetry_Int_Tables_number   1
_chemical_formula_structural   Li9Mn7O16
_chemical_formula_sum   'Li9 Mn7 O16'
_cell_volume   297.57820005
_cell_formula_units_Z   1
loop_
 _symmetry_equiv_pos_site_id
 _symmetry_equiv_pos_as_xyz
  1  'x, y, z'
loop_
 _atom_site_type_symbol
 _atom_site_label
 _atom_site_symmetry_multiplicity
 _atom_site_fract_x
 _atom_site_fract_y
 _atom_site_fract_z
 _atom_site_occupancy
  Li  Li0  1  0.26672500  0.07911500  0.93686700  1
  Li  Li1  1  0.73818000  0.18441100  0.81963300  1
  Li  Li2  1  0.25408000  0.32296600  0.68749000  1
  Li  Li3  1  0.26182000  0.81558900  0.18036700  1
  Li  Li4  1  0.73327500  0.92088500  0.06313300  1
  Li  Li5  1  0.25004100  0.56489000  0.43767200  1
  Li  Li6  1  0.74592000  0.67703400  0.31251000  1
  Li  Li7  1  0.74995900  0.43511000  0.56232800  1
  Li  Li8  1  0.50000000  0.50000000  0.00000000  1
  Mn  Mn9  1  0.00057900  0.60888800  0.87995800  1
  Mn  Mn10  1  0.99942100  0.39111200  0.12004200  1
  Mn  Mn11  1  0.49632500  0.73221000  0.75830700  1
  Mn  Mn12  1  0.99549000  0.86989300  0.62764700  1
  Mn  Mn13  1  0.50000000  0.00000000  0.50000000  1
  Mn  Mn14  1  0.00451000  0.13010700  0.37235300  1
  Mn  Mn15  1  0.50367500  0.26779000  0.24169300  1
  O  O16  1  0.10493400  0.68497100  0.03131100  1
  O  O17  1  0.63960200  0.83337700  0.89678700  1
  O  O18  1  0.11849500  0.91708200  0.78821000  1
  O  O19  1  0.13837000  0.46940400  0.26794200  1
  O  O20  1  0.65316600  0.59023800  0.15204100  1
  O  O21  1  0.13632600  0.20994200  0.52371000  1
  O  O22  1  0.64071100  0.33459000  0.39445700  1
  O  O23  1  0.63689800  0.08327900  0.64704800  1
  O  O24  1  0.34683400  0.40976200  0.84795900  1
  O  O25  1  0.86163000  0.53059600  0.73205800  1
  O  O26  1  0.35928900  0.66541000  0.60554300  1
  O  O27  1  0.36039800  0.16662300  0.10321300  1
  O  O28  1  0.89506600  0.31502900  0.96868900  1
  O  O29  1  0.36310200  0.91672100  0.35295200  1
  O  O30  1  0.88150500  0.08291800  0.21179000  1
  O  O31  1  0.86367400  0.79005800  0.47629000  1
