# generated using pymatgen
data_Li4TiCo5O12
_symmetry_space_group_name_H-M   'P 1'
_cell_length_a   4.96299434
_cell_length_b   20.09688407
_cell_length_c   4.98797153
_cell_angle_alpha   89.73143269
_cell_angle_beta   118.83147858
_cell_angle_gamma   89.06377133
_symmetry_Int_Tables_number   1
_chemical_formula_structural   Li4TiCo5O12
_chemical_formula_sum   'Li8 Ti2 Co10 O24'
_cell_volume   435.73119544
_cell_formula_units_Z   2
loop_
 _symmetry_equiv_pos_site_id
 _symmetry_equiv_pos_as_xyz
  1  'x, y, z'
loop_
 _atom_site_type_symbol
 _atom_site_label
 _atom_site_symmetry_multiplicity
 _atom_site_fract_x
 _atom_site_fract_y
 _atom_site_fract_z
 _atom_site_occupancy
  Li  Li0  1  0.64372400  0.37242700  0.14597700  1
  Li  Li1  1  0.64930700  0.87215400  0.15212500  1
  Li  Li2  1  0.84880700  0.12762200  0.34789400  1
  Li  Li3  1  0.85051100  0.62720700  0.36209400  1
  Li  Li4  1  0.14586200  0.37256300  0.64270700  1
  Li  Li5  1  0.15130100  0.87227100  0.65180900  1
  Li  Li6  1  0.35046700  0.12774500  0.84789100  1
  Li  Li7  1  0.36112800  0.62729200  0.85023900  1
  Ti  Ti8  1  0.99987000  0.99997200  0.99989400  1
  Ti  Ti9  1  0.00615400  0.50119500  0.00612000  1
  Co  Co10  1  0.49981600  0.74990500  0.50001800  1
  Co  Co11  1  0.83529800  0.25009800  0.16416900  1
  Co  Co12  1  0.83541700  0.74964400  0.16472000  1
  Co  Co13  1  0.16444700  0.25026200  0.83523700  1
  Co  Co14  1  0.16463900  0.74980800  0.83568700  1
  Co  Co15  1  0.49996700  0.25007300  0.49977100  1
  Co  Co16  1  0.33816800  0.99870100  0.66522500  1
  Co  Co17  1  0.33254900  0.49924100  0.66263300  1
  Co  Co18  1  0.66165200  0.00136700  0.33466500  1
  Co  Co19  1  0.66297000  0.49939100  0.33295000  1
  O  O20  1  0.17011700  0.29724800  0.17124200  1
  O  O21  1  0.16988700  0.79676600  0.17148000  1
  O  O22  1  0.83028600  0.20314500  0.82872600  1
  O  O23  1  0.82921800  0.70268100  0.82807700  1
  O  O24  1  0.32906500  0.05181100  0.31567500  1
  O  O25  1  0.33539300  0.55045900  0.33732000  1
  O  O26  1  0.66211600  0.45182200  0.66026800  1
  O  O27  1  0.67084900  0.94820100  0.68429800  1
  O  O28  1  0.67573800  0.05678200  0.00524700  1
  O  O29  1  0.68634700  0.55560900  0.03409700  1
  O  O30  1  0.96956400  0.44378900  0.31136500  1
  O  O31  1  0.98141800  0.94471400  0.32688300  1
  O  O32  1  0.01855400  0.05535600  0.67317500  1
  O  O33  1  0.03257300  0.55571400  0.68834800  1
  O  O34  1  0.31322500  0.44386600  0.96798100  1
  O  O35  1  0.32422800  0.94326600  0.99461000  1
  O  O36  1  0.50731900  0.20077700  0.17014100  1
  O  O37  1  0.50764200  0.70043600  0.17122700  1
  O  O38  1  0.17167300  0.20072600  0.50661200  1
  O  O39  1  0.17248600  0.70043600  0.50742800  1
  O  O40  1  0.82729100  0.29949700  0.49264300  1
  O  O41  1  0.82813700  0.79926300  0.49312000  1
  O  O42  1  0.49239900  0.29949000  0.82855400  1
  O  O43  1  0.49242100  0.79920700  0.82965800  1
