# generated using pymatgen
data_Li9Mn2Co5O16
_symmetry_space_group_name_H-M   'P 1'
_cell_length_a   7.75845188
_cell_length_b   7.75845188
_cell_length_c   5.91018488
_cell_angle_alpha   67.88495779
_cell_angle_beta   67.88495779
_cell_angle_gamma   97.23201809
_symmetry_Int_Tables_number   1
_chemical_formula_structural   Li9Mn2Co5O16
_chemical_formula_sum   'Li9 Mn2 Co5 O16'
_cell_volume   290.11243420
_cell_formula_units_Z   1
loop_
 _symmetry_equiv_pos_site_id
 _symmetry_equiv_pos_as_xyz
  1  'x, y, z'
loop_
 _atom_site_type_symbol
 _atom_site_label
 _atom_site_symmetry_multiplicity
 _atom_site_fract_x
 _atom_site_fract_y
 _atom_site_fract_z
 _atom_site_occupancy
  Li  Li0  1  0.86914000  0.62154600  0.50628000  1
  Li  Li1  1  0.37845400  0.13086000  0.49372000  1
  Li  Li2  1  0.74874700  0.25125300  0.50000000  1
  Li  Li3  1  0.24981000  0.75019000  0.50000000  1
  Li  Li4  1  0.61960000  0.86736600  0.51338000  1
  Li  Li5  1  0.13263400  0.38040000  0.48662000  1
  Li  Li6  1  0.49858900  0.50141100  0.50000000  1
  Li  Li7  1  0.00115800  0.99884200  0.50000000  1
  Li  Li8  1  0.49914300  0.50085700  0.00000000  1
  Mn  Mn9  1  0.00057600  0.99942400  0.00000000  1
  Mn  Mn10  1  0.74831300  0.25168700  0.00000000  1
  Co  Co11  1  0.86759000  0.61884800  0.00756200  1
  Co  Co12  1  0.38115200  0.13241000  0.99243800  1
  Co  Co13  1  0.25541800  0.74458200  0.00000000  1
  Co  Co14  1  0.62110200  0.86449900  0.00256700  1
  Co  Co15  1  0.13550100  0.37889800  0.99743300  1
  O  O16  1  0.12198200  0.88339900  0.22403900  1
  O  O17  1  0.63892800  0.37105600  0.22901100  1
  O  O18  1  0.00270200  0.50844400  0.22594100  1
  O  O19  1  0.52162300  0.01722000  0.21919600  1
  O  O20  1  0.87681600  0.12542000  0.22024300  1
  O  O21  1  0.37761700  0.64060600  0.23637100  1
  O  O22  1  0.76775700  0.76714500  0.22859900  1
  O  O23  1  0.24419700  0.24525900  0.22587000  1
  O  O24  1  0.62894400  0.36107200  0.77098900  1
  O  O25  1  0.11660100  0.87801800  0.77596100  1
  O  O26  1  0.49155600  0.99729800  0.77405900  1
  O  O27  1  0.98278000  0.47837700  0.78080400  1
  O  O28  1  0.35939400  0.62238300  0.76362900  1
  O  O29  1  0.87458000  0.12318400  0.77975700  1
  O  O30  1  0.23285500  0.23224300  0.77140100  1
  O  O31  1  0.75474100  0.75580300  0.77413000  1
