# generated using pymatgen
data_Li5TlIn
_symmetry_space_group_name_H-M   'P 1'
_cell_length_a   7.38136375
_cell_length_b   7.38136375
_cell_length_c   7.38136382
_cell_angle_alpha   37.12020441
_cell_angle_beta   37.12020441
_cell_angle_gamma   37.12021119
_symmetry_Int_Tables_number   1
_chemical_formula_structural   Li5TlIn
_chemical_formula_sum   'Li5 Tl1 In1'
_cell_volume   131.26780836
_cell_formula_units_Z   1
loop_
 _symmetry_equiv_pos_site_id
 _symmetry_equiv_pos_as_xyz
  1  'x, y, z'
loop_
 _atom_site_type_symbol
 _atom_site_label
 _atom_site_symmetry_multiplicity
 _atom_site_fract_x
 _atom_site_fract_y
 _atom_site_fract_z
 _atom_site_occupancy
  Li  Li0  1  0.65050600  0.65050600  0.65050600  1
  Li  Li1  1  0.34698500  0.34698500  0.34698500  1
  Li  Li2  1  0.50218500  0.50218500  0.50218500  1
  Li  Li3  1  0.79067200  0.79067200  0.79067200  1
  Li  Li4  1  0.20892400  0.20892400  0.20892400  1
  Tl  Tl5  1  0.07244200  0.07244200  0.07244200  1
  In  In6  1  0.92828600  0.92828600  0.92828600  1
