# generated using pymatgen
data_Li9Mn2Co5O16
_symmetry_space_group_name_H-M   'P 1'
_cell_length_a   5.90646300
_cell_length_b   6.44491288
_cell_length_c   8.60689616
_cell_angle_alpha   82.97697200
_cell_angle_beta   109.35468634
_cell_angle_gamma   114.07180636
_symmetry_Int_Tables_number   1
_chemical_formula_structural   Li9Mn2Co5O16
_chemical_formula_sum   'Li9 Mn2 Co5 O16'
_cell_volume   282.20504852
_cell_formula_units_Z   1
loop_
 _symmetry_equiv_pos_site_id
 _symmetry_equiv_pos_as_xyz
  1  'x, y, z'
loop_
 _atom_site_type_symbol
 _atom_site_label
 _atom_site_symmetry_multiplicity
 _atom_site_fract_x
 _atom_site_fract_y
 _atom_site_fract_z
 _atom_site_occupancy
  Li  Li0  1  0.75403500  0.74753800  0.25337000  1
  Li  Li1  1  0.25694600  0.00113300  0.49833300  1
  Li  Li2  1  0.24905000  0.74985800  0.25429800  1
  Li  Li3  1  0.74224700  0.00480200  0.49625400  1
  Li  Li4  1  0.74806100  0.25364700  0.74549400  1
  Li  Li5  1  0.24905200  0.24996200  0.74695700  1
  Li  Li6  1  0.25182300  0.49702100  0.00356700  1
  Li  Li7  1  0.75079200  0.49936100  0.00204600  1
  Li  Li8  1  0.50106600  0.25034900  0.25365800  1
  Mn  Mn9  1  0.01021300  0.00317300  0.99986900  1
  Mn  Mn10  1  0.00167300  0.25301000  0.25144100  1
  Co  Co11  1  0.98626800  0.49302900  0.49842500  1
  Co  Co12  1  0.50152200  0.74983100  0.74873500  1
  Co  Co13  1  0.50411700  0.00196200  0.00100900  1
  Co  Co14  1  0.49801000  0.49660600  0.49964100  1
  Co  Co15  1  0.00003000  0.75008000  0.74880300  1
  O  O16  1  0.10978200  0.00857300  0.23591300  1
  O  O17  1  0.61863800  0.26815300  0.50148000  1
  O  O18  1  0.64652200  0.01982700  0.23315800  1
  O  O19  1  0.10002400  0.25289700  0.48683000  1
  O  O20  1  0.11552800  0.51537800  0.73970600  1
  O  O21  1  0.61398700  0.51396400  0.74058900  1
  O  O22  1  0.64496900  0.77765400  0.98912000  1
  O  O23  1  0.11196500  0.75854500  0.99016200  1
  O  O24  1  0.34872800  0.48114300  0.26234400  1
  O  O25  1  0.89009800  0.73984800  0.51278900  1
  O  O26  1  0.88657500  0.49068900  0.26016300  1
  O  O27  1  0.38427900  0.73455100  0.51200600  1
  O  O28  1  0.38831000  0.98566300  0.76493900  1
  O  O29  1  0.88821900  0.98924900  0.76054600  1
  O  O30  1  0.89709700  0.24552400  0.01033500  1
  O  O31  1  0.35037400  0.21698100  0.99801900  1
