# generated using pymatgen
data_Li5Mn(CoO4)2
_symmetry_space_group_name_H-M   'P 1'
_cell_length_a   2.93586102
_cell_length_b   2.93586141
_cell_length_c   20.01711724
_cell_angle_alpha   85.79450135
_cell_angle_beta   90.00000000
_cell_angle_gamma   119.99999563
_symmetry_Int_Tables_number   1
_chemical_formula_structural   Li5Mn(CoO4)2
_chemical_formula_sum   'Li5 Mn1 Co2 O8'
_cell_volume   148.88144207
_cell_formula_units_Z   1
loop_
 _symmetry_equiv_pos_site_id
 _symmetry_equiv_pos_as_xyz
  1  'x, y, z'
loop_
 _atom_site_type_symbol
 _atom_site_label
 _atom_site_symmetry_multiplicity
 _atom_site_fract_x
 _atom_site_fract_y
 _atom_site_fract_z
 _atom_site_occupancy
  Li  Li0  1  0.87656740  0.75313479  0.37029781  1
  Li  Li1  1  0.12437490  0.24874980  0.62687531  1
  Li  Li2  1  0.37775765  0.75551530  0.86672705  1
  Li  Li3  1  0.62163182  0.24326365  0.13510453  1
  Li  Li4  1  0.25000525  0.50001051  0.24998424  1
  Mn  Mn5  1  0.00098415  0.00196829  0.99704756  1
  Co  Co6  1  0.49901278  0.99802555  0.50296167  1
  Co  Co7  1  0.75028770  0.50057540  0.74913690  1
  O  O8  1  0.81410901  0.62821803  0.55767296  1
  O  O9  1  0.06480293  0.12960587  0.80559120  1
  O  O10  1  0.31695885  0.63391771  0.04912344  1
  O  O11  1  0.56121150  0.12242300  0.31636549  1
  O  O12  1  0.93840770  0.87681541  0.18477689  1
  O  O13  1  0.18229506  0.36459012  0.45311481  1
  O  O14  1  0.43530313  0.87060625  0.69409062  1
  O  O15  1  0.68629016  0.37258033  0.94112951  1
