# generated using pymatgen
data_Li2Cr3CoO8
_symmetry_space_group_name_H-M   'P 1'
_cell_length_a   8.28730100
_cell_length_b   8.31277952
_cell_length_c   8.34951679
_cell_angle_alpha   89.76358766
_cell_angle_beta   89.67427862
_cell_angle_gamma   89.94027653
_symmetry_Int_Tables_number   1
_chemical_formula_structural   Li2Cr3CoO8
_chemical_formula_sum   'Li8 Cr12 Co4 O32'
_cell_volume   575.18794703
_cell_formula_units_Z   4
loop_
 _symmetry_equiv_pos_site_id
 _symmetry_equiv_pos_as_xyz
  1  'x, y, z'
loop_
 _atom_site_type_symbol
 _atom_site_label
 _atom_site_symmetry_multiplicity
 _atom_site_fract_x
 _atom_site_fract_y
 _atom_site_fract_z
 _atom_site_occupancy
  Li  Li0  1  0.99923800  0.99744100  0.00064300  1
  Li  Li1  1  0.75174200  0.24992400  0.25290900  1
  Li  Li2  1  0.24884600  0.74786800  0.24560000  1
  Li  Li3  1  0.50227300  0.00276500  0.50088200  1
  Li  Li4  1  0.00040500  0.49635500  0.50035100  1
  Li  Li5  1  0.24958100  0.25277900  0.74803300  1
  Li  Li6  1  0.75122100  0.74911400  0.74989100  1
  Li  Li7  1  0.49799500  0.50172600  0.99817200  1
  Cr  Cr8  1  0.37441300  0.12387100  0.13141900  1
  Cr  Cr9  1  0.11985000  0.36921400  0.12353900  1
  Cr  Cr10  1  0.86924000  0.62230200  0.12050500  1
  Cr  Cr11  1  0.37392600  0.37621700  0.37854200  1
  Cr  Cr12  1  0.62420200  0.62837000  0.37501800  1
  Cr  Cr13  1  0.87521800  0.87783500  0.37204600  1
  Cr  Cr14  1  0.62542400  0.37870900  0.62962200  1
  Cr  Cr15  1  0.88037000  0.12860400  0.62746000  1
  Cr  Cr16  1  0.12792600  0.87594000  0.62129200  1
  Cr  Cr17  1  0.62973400  0.12376200  0.87987900  1
  Cr  Cr18  1  0.37786500  0.87465100  0.87092300  1
  Cr  Cr19  1  0.12262300  0.62038600  0.87014800  1
  Co  Co20  1  0.62540500  0.87736600  0.12785400  1
  Co  Co21  1  0.12587300  0.12368200  0.37506600  1
  Co  Co22  1  0.37411800  0.62631000  0.62308300  1
  Co  Co23  1  0.87406400  0.37366800  0.87674400  1
  O  O24  1  0.61593100  0.10572600  0.11993700  1
  O  O25  1  0.39463000  0.89114600  0.11316400  1
  O  O26  1  0.10973200  0.61068800  0.10953200  1
  O  O27  1  0.13803200  0.12650200  0.14378100  1
  O  O28  1  0.87875300  0.38288900  0.10439700  1
  O  O29  1  0.36360500  0.35250700  0.13436300  1
  O  O30  1  0.62198400  0.64766000  0.14217100  1
  O  O31  1  0.85149000  0.86479600  0.13422500  1
  O  O32  1  0.35698700  0.13101900  0.36117600  1
  O  O33  1  0.13234000  0.35175000  0.36361400  1
  O  O34  1  0.85339600  0.63602900  0.36693300  1
  O  O35  1  0.38687000  0.61718600  0.39081800  1
  O  O36  1  0.63411200  0.86774000  0.35785800  1
  O  O37  1  0.61469600  0.39222100  0.38899500  1
  O  O38  1  0.89869800  0.11742400  0.38737900  1
  O  O39  1  0.11952500  0.89285000  0.38703900  1
  O  O40  1  0.38292900  0.39903900  0.61659200  1
  O  O41  1  0.60506600  0.62431000  0.60918800  1
  O  O42  1  0.89762900  0.88458000  0.61508800  1
  O  O43  1  0.86631900  0.36735000  0.64882600  1
  O  O44  1  0.12332600  0.11201200  0.60600700  1
  O  O45  1  0.63736200  0.13699100  0.64373900  1
  O  O46  1  0.36337100  0.85859200  0.63021800  1
  O  O47  1  0.14595100  0.63704600  0.62662300  1
  O  O48  1  0.64103100  0.35853100  0.87155700  1
  O  O49  1  0.86102500  0.13848200  0.86774200  1
  O  O50  1  0.13635800  0.86412100  0.85278600  1
  O  O51  1  0.62198400  0.89221800  0.89454200  1
  O  O52  1  0.36649900  0.63549000  0.85097600  1
  O  O53  1  0.39487400  0.12051600  0.89487300  1
  O  O54  1  0.10217500  0.37996200  0.88314900  1
  O  O55  1  0.88163300  0.60390700  0.88309200  1
