# generated using pymatgen
data_Li4Mn3O7
_symmetry_space_group_name_H-M   'P 1'
_cell_length_a   3.00550600
_cell_length_b   7.85564611
_cell_length_c   11.29925305
_cell_angle_alpha   80.76536914
_cell_angle_beta   83.25866402
_cell_angle_gamma   83.56039905
_symmetry_Int_Tables_number   1
_chemical_formula_structural   Li4Mn3O7
_chemical_formula_sum   'Li8 Mn6 O14'
_cell_volume   260.31169015
_cell_formula_units_Z   2
loop_
 _symmetry_equiv_pos_site_id
 _symmetry_equiv_pos_as_xyz
  1  'x, y, z'
loop_
 _atom_site_type_symbol
 _atom_site_label
 _atom_site_symmetry_multiplicity
 _atom_site_fract_x
 _atom_site_fract_y
 _atom_site_fract_z
 _atom_site_occupancy
  Li  Li0  1  0.68362500  0.16045700  0.93224600  1
  Li  Li1  1  0.85092500  0.57781700  0.20312300  1
  Li  Li2  1  0.00000000  0.00000000  0.50000000  1
  Li  Li3  1  0.14907500  0.42218300  0.79687700  1
  Li  Li4  1  0.31637500  0.83954300  0.06775400  1
  Li  Li5  1  0.43327800  0.28404800  0.35591400  1
  Li  Li6  1  0.56672200  0.71595200  0.64408600  1
  Li  Li7  1  0.50000000  0.50000000  0.00000000  1
  Mn  Mn8  1  0.93602500  0.77570800  0.86292500  1
  Mn  Mn9  1  0.06397500  0.22429200  0.13707500  1
  Mn  Mn10  1  0.21433800  0.64280100  0.42770900  1
  Mn  Mn11  1  0.36752100  0.06753700  0.71495100  1
  Mn  Mn12  1  0.63247900  0.93246300  0.28504900  1
  Mn  Mn13  1  0.78566200  0.35719900  0.57229100  1
  O  O14  1  0.36746400  0.94327000  0.88305200  1
  O  O15  1  0.50177600  0.36956000  0.17287700  1
  O  O16  1  0.57803300  0.82218700  0.45529300  1
  O  O17  1  0.72532000  0.24819100  0.74396600  1
  O  O18  1  0.88576300  0.69200000  0.02458900  1
  O  O19  1  0.00484200  0.10675800  0.31062900  1
  O  O20  1  0.14719400  0.53596900  0.59930800  1
  O  O21  1  0.11423700  0.30800000  0.97541100  1
  O  O22  1  0.27468000  0.75180900  0.25603400  1
  O  O23  1  0.42196700  0.17781300  0.54470700  1
  O  O24  1  0.49822400  0.63044000  0.82712300  1
  O  O25  1  0.63253600  0.05673000  0.11694800  1
  O  O26  1  0.85280600  0.46403100  0.40069200  1
  O  O27  1  0.99515800  0.89324200  0.68937100  1
