# generated using pymatgen
data_Li9Mn2Co5O16
_symmetry_space_group_name_H-M   'P 1'
_cell_length_a   10.64549096
_cell_length_b   10.64549096
_cell_length_c   9.86101924
_cell_angle_alpha   72.38997668
_cell_angle_beta   72.38997668
_cell_angle_gamma   15.73042210
_symmetry_Int_Tables_number   1
_chemical_formula_structural   Li9Mn2Co5O16
_chemical_formula_sum   'Li9 Mn2 Co5 O16'
_cell_volume   288.49548008
_cell_formula_units_Z   1
loop_
 _symmetry_equiv_pos_site_id
 _symmetry_equiv_pos_as_xyz
  1  'x, y, z'
loop_
 _atom_site_type_symbol
 _atom_site_label
 _atom_site_symmetry_multiplicity
 _atom_site_fract_x
 _atom_site_fract_y
 _atom_site_fract_z
 _atom_site_occupancy
  Li  Li0  1  0.43780800  0.43780800  0.79807200  1
  Li  Li1  1  0.30508700  0.30508700  0.44163100  1
  Li  Li2  1  0.19360300  0.19360300  0.07456200  1
  Li  Li3  1  0.81063100  0.81063100  0.93831600  1
  Li  Li4  1  0.68742800  0.68742800  0.55984600  1
  Li  Li5  1  0.56571800  0.56571800  0.19568000  1
  Li  Li6  1  0.06539600  0.06539600  0.67330500  1
  Li  Li7  1  0.93532000  0.93532000  0.32513300  1
  Li  Li8  1  0.74945900  0.74945900  0.24911300  1
  Mn  Mn9  1  0.00010700  0.00010700  0.00087000  1
  Mn  Mn10  1  0.37047400  0.37047400  0.12617700  1
  Co  Co11  1  0.87450500  0.87450500  0.62517500  1
  Co  Co12  1  0.63088500  0.63088500  0.87455100  1
  Co  Co13  1  0.50191200  0.50191200  0.49351700  1
  Co  Co14  1  0.24894300  0.24894300  0.74719500  1
  Co  Co15  1  0.13581500  0.13581500  0.37288300  1
  O  O16  1  0.52689000  0.52689000  0.86495200  1
  O  O17  1  0.40471000  0.40471000  0.47901000  1
  O  O18  1  0.29144800  0.29144800  0.09095500  1
  O  O19  1  0.90853500  0.90853500  0.98525400  1
  O  O20  1  0.77982600  0.77982600  0.60427000  1
  O  O21  1  0.65400500  0.65400500  0.23115900  1
  O  O22  1  0.15142100  0.15142100  0.73093400  1
  O  O23  1  0.02864800  0.02864800  0.35328500  1
  O  O24  1  0.34500500  0.34500500  0.77001000  1
  O  O25  1  0.21476300  0.21476300  0.40708400  1
  O  O26  1  0.08611900  0.08611900  0.02306400  1
  O  O27  1  0.71524300  0.71524300  0.90533400  1
  O  O28  1  0.59365500  0.59365500  0.51606500  1
  O  O29  1  0.46773300  0.46773300  0.13764800  1
  O  O30  1  0.96972400  0.96972400  0.64502500  1
  O  O31  1  0.84918500  0.84918500  0.25992600  1
