# generated using pymatgen
data_Li(FeO2)2
_symmetry_space_group_name_H-M   'P 1'
_cell_length_a   8.42399187
_cell_length_b   8.42399187
_cell_length_c   8.42399181
_cell_angle_alpha   90.05855320
_cell_angle_beta   90.05855320
_cell_angle_gamma   90.05855909
_symmetry_Int_Tables_number   1
_chemical_formula_structural   Li(FeO2)2
_chemical_formula_sum   'Li8 Fe16 O32'
_cell_volume   597.79617692
_cell_formula_units_Z   8
loop_
 _symmetry_equiv_pos_site_id
 _symmetry_equiv_pos_as_xyz
  1  'x, y, z'
loop_
 _atom_site_type_symbol
 _atom_site_label
 _atom_site_symmetry_multiplicity
 _atom_site_fract_x
 _atom_site_fract_y
 _atom_site_fract_z
 _atom_site_occupancy
  Li  Li0  1  0.87944600  0.87944600  0.87944600  1
  Li  Li1  1  0.75218700  0.74863000  0.25335800  1
  Li  Li2  1  0.74863000  0.25335800  0.75218700  1
  Li  Li3  1  0.62282100  0.12525200  0.37845000  1
  Li  Li4  1  0.37845000  0.62282100  0.12525200  1
  Li  Li5  1  0.25335800  0.75218700  0.74863000  1
  Li  Li6  1  0.25158500  0.25158500  0.25158500  1
  Li  Li7  1  0.12525200  0.37845000  0.62282100  1
  Fe  Fe8  1  0.00074200  0.49530500  0.00757200  1
  Fe  Fe9  1  0.88712200  0.62236300  0.63118400  1
  Fe  Fe10  1  0.88021000  0.37495800  0.38781800  1
  Fe  Fe11  1  0.87843100  0.11641800  0.12523400  1
  Fe  Fe12  1  0.63118400  0.88712200  0.62236300  1
  Fe  Fe13  1  0.62236300  0.63118400  0.88712200  1
  Fe  Fe14  1  0.61718000  0.37807700  0.12876300  1
  Fe  Fe15  1  0.50438100  0.50438100  0.50438100  1
  Fe  Fe16  1  0.49530500  0.00757200  0.00074200  1
  Fe  Fe17  1  0.38781800  0.88021000  0.37495800  1
  Fe  Fe18  1  0.37807700  0.12876300  0.61718000  1
  Fe  Fe19  1  0.37495800  0.38781800  0.88021000  1
  Fe  Fe20  1  0.12876300  0.61718000  0.37807700  1
  Fe  Fe21  1  0.12523400  0.87843100  0.11641800  1
  Fe  Fe22  1  0.11641800  0.12523400  0.87843100  1
  Fe  Fe23  1  0.00757200  0.00074200  0.49530500  1
  O  O24  1  0.89523200  0.12750500  0.89079900  1
  O  O25  1  0.89079900  0.89523200  0.12750500  1
  O  O26  1  0.88882500  0.61299300  0.39015200  1
  O  O27  1  0.87735800  0.38718200  0.61036000  1
  O  O28  1  0.88163100  0.13772000  0.36927300  1
  O  O29  1  0.86365800  0.36300900  0.14146300  1
  O  O30  1  0.87242700  0.62107300  0.86877400  1
  O  O31  1  0.86877400  0.87242700  0.62107300  1
  O  O32  1  0.63673100  0.14042300  0.12627300  1
  O  O33  1  0.63697700  0.38016700  0.36451600  1
  O  O34  1  0.63801000  0.63801000  0.63801000  1
  O  O35  1  0.62107300  0.86877400  0.87242700  1
  O  O36  1  0.62563000  0.60278100  0.11625100  1
  O  O37  1  0.61299300  0.39015200  0.88882500  1
  O  O38  1  0.60278100  0.11625100  0.62563000  1
  O  O39  1  0.61036000  0.87735800  0.38718200  1
  O  O40  1  0.39597200  0.37317300  0.11632500  1
  O  O41  1  0.38718200  0.61036000  0.87735800  1
  O  O42  1  0.39015200  0.88882500  0.61299300  1
  O  O43  1  0.37317300  0.11632500  0.39597200  1
  O  O44  1  0.38016700  0.36451600  0.63697700  1
  O  O45  1  0.36300900  0.14146300  0.86365800  1
  O  O46  1  0.36927300  0.88163100  0.13772000  1
  O  O47  1  0.36451600  0.63697700  0.38016700  1
  O  O48  1  0.13772000  0.36927300  0.88163100  1
  O  O49  1  0.14042300  0.12627300  0.63673100  1
  O  O50  1  0.14146300  0.86365800  0.36300900  1
  O  O51  1  0.12627300  0.63673100  0.14042300  1
  O  O52  1  0.12750500  0.89079900  0.89523200  1
  O  O53  1  0.11663300  0.11663300  0.11663300  1
  O  O54  1  0.11632500  0.39597200  0.37317300  1
  O  O55  1  0.11625100  0.62563000  0.60278100  1
