# generated using pymatgen
data_Li9Mn7O16
_symmetry_space_group_name_H-M   'P 1'
_cell_length_a   3.01792600
_cell_length_b   5.10426570
_cell_length_c   19.97573243
_cell_angle_alpha   91.82984565
_cell_angle_beta   91.46540077
_cell_angle_gamma   102.77390103
_symmetry_Int_Tables_number   1
_chemical_formula_structural   Li9Mn7O16
_chemical_formula_sum   'Li9 Mn7 O16'
_cell_volume   299.77510782
_cell_formula_units_Z   1
loop_
 _symmetry_equiv_pos_site_id
 _symmetry_equiv_pos_as_xyz
  1  'x, y, z'
loop_
 _atom_site_type_symbol
 _atom_site_label
 _atom_site_symmetry_multiplicity
 _atom_site_fract_x
 _atom_site_fract_y
 _atom_site_fract_z
 _atom_site_occupancy
  Li  Li0  1  0.95757300  0.20248900  0.68770000  1
  Li  Li1  1  0.56093200  0.31119500  0.81217100  1
  Li  Li2  1  0.18751600  0.43765600  0.93733700  1
  Li  Li3  1  0.81248400  0.56234400  0.06266300  1
  Li  Li4  1  0.43906800  0.68880500  0.18782900  1
  Li  Li5  1  0.04242700  0.79751100  0.31230000  1
  Li  Li6  1  0.72725000  0.94927800  0.44594800  1
  Li  Li7  1  0.27275000  0.05072200  0.55405200  1
  Li  Li8  1  0.00000000  0.50000000  0.50000000  1
  Mn  Mn9  1  0.61772200  0.62522200  0.61994400  1
  Mn  Mn10  1  0.38227800  0.37477800  0.38005600  1
  Mn  Mn11  1  0.23384400  0.74254400  0.74873000  1
  Mn  Mn12  1  0.87240900  0.87425100  0.87430000  1
  Mn  Mn13  1  0.50000000  0.00000000  0.00000000  1
  Mn  Mn14  1  0.12759100  0.12574900  0.12570000  1
  Mn  Mn15  1  0.76615600  0.25745600  0.25127000  1
  O  O16  1  0.22771900  0.86715700  0.65576300  1
  O  O17  1  0.92416800  0.01545800  0.78303000  1
  O  O18  1  0.55760100  0.14335800  0.90932500  1
  O  O19  1  0.18336100  0.26848000  0.03493300  1
  O  O20  1  0.80861800  0.39410200  0.15997300  1
  O  O21  1  0.43621400  0.51777700  0.28534300  1
  O  O22  1  0.97594300  0.61097900  0.40199300  1
  O  O23  1  0.66642500  0.78367000  0.53922900  1
  O  O24  1  0.56378600  0.48222300  0.71465700  1
  O  O25  1  0.19138200  0.60589800  0.84002700  1
  O  O26  1  0.81663900  0.73152000  0.96506700  1
  O  O27  1  0.44239900  0.85664200  0.09067500  1
  O  O28  1  0.07583200  0.98454200  0.21697000  1
  O  O29  1  0.77228100  0.13284300  0.34423700  1
  O  O30  1  0.33357500  0.21633000  0.46077100  1
  O  O31  1  0.02405700  0.38902100  0.59800700  1
