# generated using pymatgen
data_Li6MnV3(PO4)6
_symmetry_space_group_name_H-M   'P 1'
_cell_length_a   9.83602500
_cell_length_b   9.87114100
_cell_length_c   9.87431297
_cell_angle_alpha   86.66431570
_cell_angle_beta   85.99129386
_cell_angle_gamma   87.14677279
_symmetry_Int_Tables_number   1
_chemical_formula_structural   Li6MnV3(PO4)6
_chemical_formula_sum   'Li12 Mn2 V6 P12 O48'
_cell_volume   953.75241871
_cell_formula_units_Z   2
loop_
 _symmetry_equiv_pos_site_id
 _symmetry_equiv_pos_as_xyz
  1  'x, y, z'
loop_
 _atom_site_type_symbol
 _atom_site_label
 _atom_site_symmetry_multiplicity
 _atom_site_fract_x
 _atom_site_fract_y
 _atom_site_fract_z
 _atom_site_occupancy
  Li  Li0  1  0.73410200  0.00764300  0.49095900  1
  Li  Li1  1  0.61589700  0.95361900  0.75831500  1
  Li  Li2  1  0.52927800  0.22956300  0.43561500  1
  Li  Li3  1  0.83774100  0.20365200  0.27968100  1
  Li  Li4  1  0.38120800  0.23829900  0.05537600  1
  Li  Li5  1  0.15995400  0.37217300  0.25381100  1
  Li  Li6  1  0.27945900  0.51172800  0.98090100  1
  Li  Li7  1  0.47171100  0.57234100  0.76086600  1
  Li  Li8  1  0.02102400  0.67121600  0.09206300  1
  Li  Li9  1  0.17813300  0.73445900  0.78117000  1
  Li  Li10  1  0.83529600  0.75513300  0.62085600  1
  Li  Li11  1  0.98106200  0.90457000  0.32356000  1
  Mn  Mn12  1  0.50653500  0.53078300  0.46653800  1
  Mn  Mn13  1  0.27114300  0.97314900  0.24277800  1
  V  V14  1  0.22346400  0.03094600  0.74568900  1
  V  V15  1  0.00460700  0.25323600  0.75067300  1
  V  V16  1  0.78190200  0.25497500  0.97117000  1
  V  V17  1  0.99869300  0.46979300  0.53276200  1
  V  V18  1  0.71830400  0.75393100  0.03701400  1
  V  V19  1  0.49220300  0.75212400  0.24958300  1
  P  P20  1  0.60245300  0.05193000  0.18272900  1
  P  P21  1  0.09294700  0.16750700  0.04880200  1
  P  P22  1  0.06729300  0.15418600  0.45020300  1
  P  P23  1  0.70046700  0.32576400  0.66097600  1
  P  P24  1  0.30334000  0.34872400  0.67332600  1
  P  P25  1  0.56779600  0.45127000  0.15334500  1
  P  P26  1  0.93050500  0.55605400  0.84725900  1
  P  P27  1  0.19529300  0.64439300  0.31396200  1
  P  P28  1  0.79555700  0.67720300  0.35099000  1
  P  P29  1  0.42812700  0.83848900  0.55144000  1
  P  P30  1  0.40890700  0.82271800  0.94495300  1
  P  P31  1  0.90376300  0.95190100  0.83086800  1
  O  O32  1  0.11194400  0.02523300  0.11391500  1
  O  O33  1  0.45028200  0.09032200  0.17476900  1
  O  O34  1  0.20489800  0.11087400  0.38367700  1
  O  O35  1  0.67934200  0.11098900  0.05035200  1
  O  O36  1  0.66210600  0.10223900  0.30963700  1
  O  O37  1  0.07335000  0.12485600  0.60964400  1
  O  O38  1  0.94432900  0.08194400  0.40333400  1
  O  O39  1  0.87903800  0.11280400  0.84182800  1
  O  O40  1  0.12691900  0.16862600  0.88918600  1
  O  O41  1  0.32610200  0.19202700  0.68675100  1
  O  O42  1  0.93635300  0.21407900  0.08146300  1
  O  O43  1  0.65078900  0.20803400  0.58895700  1
  O  O44  1  0.18520400  0.27203700  0.09760600  1
  O  O45  1  0.04240200  0.31110800  0.41281100  1
  O  O46  1  0.68054800  0.29967700  0.82297200  1
  O  O47  1  0.86046300  0.33254400  0.62835700  1
  O  O48  1  0.70560200  0.38270300  0.09709900  1
  O  O49  1  0.44533500  0.41026300  0.08328400  1
  O  O50  1  0.14296100  0.38221500  0.66579200  1
  O  O51  1  0.37823500  0.39014900  0.53309800  1
  O  O52  1  0.56047000  0.41205700  0.30996300  1
  O  O53  1  0.34897000  0.42270100  0.79175200  1
  O  O54  1  0.92449700  0.39610200  0.87749700  1
  O  O55  1  0.63026000  0.46496700  0.63065100  1
  O  O56  1  0.15326800  0.56378100  0.19548900  1
  O  O57  1  0.85578900  0.54239900  0.40730400  1
  O  O58  1  0.13915000  0.58286600  0.45358500  1
  O  O59  1  0.58085900  0.61018600  0.12383900  1
  O  O60  1  0.35510400  0.62282600  0.31855900  1
  O  O61  1  0.05852700  0.60653400  0.90444900  1
  O  O62  1  0.93233600  0.59064300  0.68970300  1
  O  O63  1  0.79740700  0.61746400  0.91361800  1
  O  O64  1  0.63310000  0.66835100  0.37490400  1
  O  O65  1  0.83736700  0.69787100  0.19530700  1
  O  O66  1  0.44057700  0.67983600  0.58493100  1
  O  O67  1  0.35155100  0.69727500  0.88769500  1
  O  O68  1  0.14806800  0.79487800  0.29769500  1
  O  O69  1  0.37291900  0.82224200  0.10171400  1
  O  O70  1  0.83436800  0.80104800  0.42531800  1
  O  O71  1  0.56843900  0.82448500  0.91449100  1
  O  O72  1  0.41783300  0.87176500  0.39389200  1
  O  O73  1  0.62972300  0.89207200  0.17776400  1
  O  O74  1  0.28924000  0.88186800  0.62487100  1
  O  O75  1  0.05822900  0.91698800  0.79608300  1
  O  O76  1  0.55080200  0.91005700  0.59353600  1
  O  O77  1  0.86297500  0.88216200  0.96947200  1
  O  O78  1  0.81446700  0.91490400  0.71829000  1
  O  O79  1  0.34933500  0.95827300  0.88206400  1
