# generated using pymatgen
data_Li9Mn2Co5O16
_symmetry_space_group_name_H-M   'P 1'
_cell_length_a   5.18378702
_cell_length_b   10.35546392
_cell_length_c   5.90270210
_cell_angle_alpha   104.52620208
_cell_angle_beta   71.41145288
_cell_angle_gamma   84.94307760
_symmetry_Int_Tables_number   1
_chemical_formula_structural   Li9Mn2Co5O16
_chemical_formula_sum   'Li9 Mn2 Co5 O16'
_cell_volume   285.80867472
_cell_formula_units_Z   1
loop_
 _symmetry_equiv_pos_site_id
 _symmetry_equiv_pos_as_xyz
  1  'x, y, z'
loop_
 _atom_site_type_symbol
 _atom_site_label
 _atom_site_symmetry_multiplicity
 _atom_site_fract_x
 _atom_site_fract_y
 _atom_site_fract_z
 _atom_site_occupancy
  Li  Li0  1  0.49792669  0.13226849  0.93830217  1
  Li  Li1  1  0.50009906  0.37686852  0.31010256  1
  Li  Li2  1  0.50931862  0.61805859  0.67569490  1
  Li  Li3  1  0.49884415  0.87337866  0.06713894  1
  Li  Li4  1  0.50384558  0.13117024  0.44405375  1
  Li  Li5  1  0.49265584  0.37934447  0.82085114  1
  Li  Li6  1  0.49807620  0.61632641  0.18557756  1
  Li  Li7  1  0.50035565  0.87509137  0.55587818  1
  Li  Li8  1  0.00079628  0.49632949  0.25314318  1
  Mn  Mn9  1  0.99439731  0.00207283  0.99770379  1
  Mn  Mn10  1  0.99698422  0.74857367  0.62499973  1
  Co  Co11  1  0.00199634  0.25176889  0.37070529  1
  Co  Co12  1  0.99095520  0.49307028  0.74866035  1
  Co  Co13  1  0.00687624  0.73713458  0.12000829  1
  Co  Co14  1  0.99729789  0.00087820  0.49520880  1
  Co  Co15  1  0.00934313  0.25276847  0.88030839  1
  O  O16  1  0.22778509  0.06833382  0.73789184  1
  O  O17  1  0.23204891  0.30798859  0.11507888  1
  O  O18  1  0.22677832  0.57591524  0.49672582  1
  O  O19  1  0.21580714  0.82144443  0.84003154  1
  O  O20  1  0.20953163  0.05853460  0.21024034  1
  O  O21  1  0.24048648  0.31056388  0.61339776  1
  O  O22  1  0.23870125  0.57436190  0.97484328  1
  O  O23  1  0.21862184  0.82043559  0.36286574  1
  O  O24  1  0.76814573  0.17916052  0.12784488  1
  O  O25  1  0.77512727  0.42528414  0.53208099  1
  O  O26  1  0.76648895  0.69121477  0.89616816  1
  O  O27  1  0.76766562  0.93568356  0.25658833  1
  O  O28  1  0.78750330  0.17684288  0.62586494  1
  O  O29  1  0.77245617  0.42972087  0.01312696  1
  O  O30  1  0.77061167  0.70006131  0.42940057  1
  O  O31  1  0.78247226  0.93935076  0.77951295  1
