# generated using pymatgen
data_Li2VSi2O7
_symmetry_space_group_name_H-M   'P 1'
_cell_length_a   8.57121200
_cell_length_b   8.58442528
_cell_length_c   12.97702517
_cell_angle_alpha   91.02500719
_cell_angle_beta   89.88061812
_cell_angle_gamma   119.88371948
_symmetry_Int_Tables_number   1
_chemical_formula_structural   Li2VSi2O7
_chemical_formula_sum   'Li12 V6 Si12 O42'
_cell_volume   827.72094186
_cell_formula_units_Z   6
loop_
 _symmetry_equiv_pos_site_id
 _symmetry_equiv_pos_as_xyz
  1  'x, y, z'
loop_
 _atom_site_type_symbol
 _atom_site_label
 _atom_site_symmetry_multiplicity
 _atom_site_fract_x
 _atom_site_fract_y
 _atom_site_fract_z
 _atom_site_occupancy
  Li  Li0  1  0.97078900  0.31062400  0.89655600  1
  Li  Li1  1  0.69730400  0.66571900  0.89904700  1
  Li  Li2  1  0.33222700  0.02698400  0.89911800  1
  Li  Li3  1  0.33506700  0.03196700  0.56433000  1
  Li  Li4  1  0.65928800  0.97503700  0.39439300  1
  Li  Li5  1  0.31115000  0.32937200  0.39392300  1
  Li  Li6  1  0.33345100  0.65771200  0.22959300  1
  Li  Li7  1  0.33651300  0.66438700  0.72309100  1
  Li  Li8  1  0.98838000  0.00394400  0.45453200  1
  Li  Li9  1  0.00671700  0.01964200  0.96682800  1
  Li  Li10  1  0.02357700  0.69146000  0.39386100  1
  Li  Li11  1  0.02730400  0.69233600  0.06947200  1
  V  V12  1  0.99663000  0.99926400  0.72695200  1
  V  V13  1  0.67563600  0.34127400  0.51437900  1
  V  V14  1  0.66774400  0.32986700  0.95544300  1
  V  V15  1  0.99543700  0.00119900  0.22457500  1
  V  V16  1  0.34150600  0.66853000  0.01359400  1
  V  V17  1  0.33688200  0.66595500  0.45684200  1
  Si  Si18  1  0.96990900  0.32465400  0.12180900  1
  Si  Si19  1  0.96197800  0.32318100  0.34571600  1
  Si  Si20  1  0.67586700  0.63975700  0.34733000  1
  Si  Si21  1  0.66948800  0.63700800  0.12538300  1
  Si  Si22  1  0.36092400  0.03374900  0.12096100  1
  Si  Si23  1  0.35177700  0.02695300  0.34233300  1
  Si  Si24  1  0.64708500  0.97569400  0.62005800  1
  Si  Si25  1  0.64238700  0.96532300  0.84733400  1
  Si  Si26  1  0.33338200  0.35870600  0.61952400  1
  Si  Si27  1  0.32786600  0.36064400  0.84857200  1
  Si  Si28  1  0.02846800  0.67413600  0.84638100  1
  Si  Si29  1  0.02970200  0.66994200  0.62125900  1
  O  O30  1  0.86270000  0.05892700  0.84073500  1
  O  O31  1  0.86405200  0.05577800  0.63126600  1
  O  O32  1  0.87165600  0.30952200  0.23228300  1
  O  O33  1  0.82017200  0.26290600  0.02868200  1
  O  O34  1  0.79133400  0.24087400  0.42497000  1
  O  O35  1  0.88058300  0.46570100  0.59814100  1
  O  O36  1  0.87666600  0.46695100  0.86730900  1
  O  O37  1  0.93860600  0.80352300  0.83807100  1
  O  O38  1  0.95235100  0.80886700  0.63836400  1
  O  O39  1  0.58111400  0.11336200  0.86927400  1
  O  O40  1  0.58508400  0.11977200  0.59603000  1
  O  O41  1  0.76401900  0.56076700  0.42796700  1
  O  O42  1  0.75759900  0.57138800  0.03422800  1
  O  O43  1  0.68502000  0.55366700  0.23424800  1
  O  O44  1  0.44258100  0.12492800  0.23362100  1
  O  O45  1  0.79677400  0.86107600  0.34336600  1
  O  O46  1  0.80295800  0.85729000  0.14037600  1
  O  O47  1  0.45233100  0.18404300  0.03289600  1
  O  O48  1  0.42292600  0.18130200  0.43274500  1
  O  O49  1  0.53701300  0.40613200  0.59375300  1
  O  O50  1  0.53299700  0.41483700  0.87536300  1
  O  O51  1  0.46155600  0.58007100  0.36299100  1
  O  O52  1  0.46418200  0.59497700  0.10661800  1
  O  O53  1  0.55732400  0.79224800  0.92368500  1
  O  O54  1  0.55659300  0.81565200  0.53037800  1
  O  O55  1  0.19879600  0.14191800  0.62637900  1
  O  O56  1  0.19503600  0.14212200  0.84033300  1
  O  O57  1  0.55822000  0.87469800  0.73109300  1
  O  O58  1  0.32846900  0.44562300  0.73390800  1
  O  O59  1  0.26922300  0.45947000  0.53775200  1
  O  O60  1  0.24057500  0.45470900  0.92356200  1
  O  O61  1  0.40036200  0.86557400  0.10023300  1
  O  O62  1  0.40312800  0.86700400  0.35976300  1
  O  O63  1  0.05281300  0.18821300  0.12502600  1
  O  O64  1  0.05707800  0.19557100  0.34172700  1
  O  O65  1  0.12058400  0.53330800  0.36675000  1
  O  O66  1  0.12490800  0.53574600  0.10639400  1
  O  O67  1  0.18993100  0.76059200  0.93289700  1
  O  O68  1  0.19344500  0.75908700  0.53643900  1
  O  O69  1  0.12799100  0.67932300  0.73447300  1
  O  O70  1  0.14032600  0.94371300  0.12429500  1
  O  O71  1  0.13055800  0.93417600  0.33245200  1
