# generated using pymatgen
data_Li4MnCo2O7
_symmetry_space_group_name_H-M   'P 1'
_cell_length_a   5.08272800
_cell_length_b   6.63730442
_cell_length_c   7.74262975
_cell_angle_alpha   85.67111162
_cell_angle_beta   76.53579639
_cell_angle_gamma   82.18341507
_symmetry_Int_Tables_number   1
_chemical_formula_structural   Li4MnCo2O7
_chemical_formula_sum   'Li8 Mn2 Co4 O14'
_cell_volume   251.40275041
_cell_formula_units_Z   2
loop_
 _symmetry_equiv_pos_site_id
 _symmetry_equiv_pos_as_xyz
  1  'x, y, z'
loop_
 _atom_site_type_symbol
 _atom_site_label
 _atom_site_symmetry_multiplicity
 _atom_site_fract_x
 _atom_site_fract_y
 _atom_site_fract_z
 _atom_site_occupancy
  Li  Li0  1  0.78112300  0.43137100  0.92541100  1
  Li  Li1  1  0.92429000  0.13694900  0.64848100  1
  Li  Li2  1  0.63881400  0.71775200  0.20623600  1
  Li  Li3  1  0.50564500  0.99732800  0.51068800  1
  Li  Li4  1  0.35769800  0.28050500  0.78523100  1
  Li  Li5  1  0.22529600  0.58341800  0.06721800  1
  Li  Li6  1  0.06726100  0.85227800  0.35682000  1
  Li  Li7  1  0.57250500  0.85855100  0.85679700  1
  Mn  Mn8  1  0.00190500  0.99503500  0.00082000  1
  Mn  Mn9  1  0.28505900  0.42929700  0.42751300  1
  Co  Co10  1  0.13216600  0.72460400  0.71558900  1
  Co  Co11  1  0.43475500  0.13494500  0.13478500  1
  Co  Co12  1  0.70618800  0.57866200  0.58251100  1
  Co  Co13  1  0.85651300  0.28619800  0.28598500  1
  O  O14  1  0.68553200  0.13882900  0.91352700  1
  O  O15  1  0.83925200  0.84285200  0.60837300  1
  O  O16  1  0.52453100  0.42253900  0.19364400  1
  O  O17  1  0.39397600  0.69263200  0.46293200  1
  O  O18  1  0.22978300  0.99318700  0.76528300  1
  O  O19  1  0.09098400  0.26564800  0.04441700  1
  O  O20  1  0.97717600  0.55175900  0.33608000  1
  O  O21  1  0.90964900  0.73351600  0.96586100  1
  O  O22  1  0.04872100  0.43704100  0.66239600  1
  O  O23  1  0.75930300  0.00709100  0.23700800  1
  O  O24  1  0.59841300  0.29375900  0.51686500  1
  O  O25  1  0.46596600  0.57168900  0.80260100  1
  O  O26  1  0.29723200  0.87737300  0.10375600  1
  O  O27  1  0.19026400  0.16519300  0.38317100  1
