# generated using pymatgen
data_Li10Sc9Fe(SiO3)20
_symmetry_space_group_name_H-M   'P 1'
_cell_length_a   11.16291464
_cell_length_b   11.16291464
_cell_length_c   12.87483148
_cell_angle_alpha   74.96743726
_cell_angle_beta   74.96743726
_cell_angle_gamma   47.76813702
_symmetry_Int_Tables_number   1
_chemical_formula_structural   Li10Sc9Fe(SiO3)20
_chemical_formula_sum   'Li10 Sc9 Fe1 Si20 O60'
_cell_volume   1139.11114835
_cell_formula_units_Z   1
loop_
 _symmetry_equiv_pos_site_id
 _symmetry_equiv_pos_as_xyz
  1  'x, y, z'
loop_
 _atom_site_type_symbol
 _atom_site_label
 _atom_site_symmetry_multiplicity
 _atom_site_fract_x
 _atom_site_fract_y
 _atom_site_fract_z
 _atom_site_occupancy
  Li  Li0  1  0.79747400  0.20252600  0.00000000  1
  Li  Li1  1  0.40259900  0.79746600  0.09997900  1
  Li  Li2  1  0.99718100  0.40269900  0.20013600  1
  Li  Li3  1  0.60252700  0.99763000  0.30027600  1
  Li  Li4  1  0.19882700  0.60209600  0.40094400  1
  Li  Li5  1  0.80041500  0.19958500  0.50000000  1
  Li  Li6  1  0.39790400  0.80117300  0.59905600  1
  Li  Li7  1  0.00237000  0.39747300  0.69972400  1
  Li  Li8  1  0.59730100  0.00281900  0.79986400  1
  Li  Li9  1  0.20253400  0.59740100  0.90002100  1
  Sc  Sc10  1  0.15694000  0.84306000  0.00000000  1
  Sc  Sc11  1  0.04253300  0.15708300  0.10056900  1
  Sc  Sc12  1  0.35705100  0.04264600  0.20024000  1
  Sc  Sc13  1  0.24322400  0.35683000  0.30006400  1
  Sc  Sc14  1  0.55636300  0.24529100  0.40060000  1
  Sc  Sc15  1  0.75470900  0.44363700  0.59940000  1
  Sc  Sc16  1  0.64317000  0.75677600  0.69993600  1
  Sc  Sc17  1  0.95735400  0.64294900  0.79976000  1
  Sc  Sc18  1  0.84291700  0.95746700  0.89943100  1
  Fe  Fe19  1  0.44086500  0.55913500  0.50000000  1
  Si  Si20  1  0.22790000  0.30201100  0.96693100  1
  Si  Si21  1  0.69798900  0.77210000  0.03306900  1
  Si  Si22  1  0.50215900  0.22784700  0.06687600  1
  Si  Si23  1  0.97202700  0.69804000  0.13309400  1
  Si  Si24  1  0.89876000  0.97150300  0.23379500  1
  Si  Si25  1  0.42794700  0.50205500  0.16692100  1
  Si  Si26  1  0.70079700  0.42897300  0.26784400  1
  Si  Si27  1  0.17457900  0.89522500  0.33486000  1
  Si  Si28  1  0.62591500  0.70168200  0.36734700  1
  Si  Si29  1  0.09807900  0.17190700  0.43326300  1
  Si  Si30  1  0.90156700  0.62784100  0.46712000  1
  Si  Si31  1  0.37215900  0.09843300  0.53288000  1
  Si  Si32  1  0.82809300  0.90192100  0.56673700  1
  Si  Si33  1  0.29831800  0.37408500  0.63265300  1
  Si  Si34  1  0.57102700  0.29920300  0.73215600  1
  Si  Si35  1  0.10477500  0.82542100  0.66514000  1
  Si  Si36  1  0.02849700  0.10124000  0.76620500  1
  Si  Si37  1  0.49794500  0.57205300  0.83307900  1
  Si  Si38  1  0.30196000  0.02797300  0.86690600  1
  Si  Si39  1  0.77215300  0.49784100  0.93312400  1
  O  O40  1  0.38749100  0.27675900  0.97857800  1
  O  O41  1  0.02963300  0.75889800  0.01508200  1
  O  O42  1  0.69205100  0.09458800  0.02161700  1
  O  O43  1  0.90541200  0.30794900  0.97838300  1
  O  O44  1  0.24110200  0.97036700  0.98491800  1
  O  O45  1  0.72324100  0.61250900  0.02142200  1
  O  O46  1  0.47681700  0.38752500  0.07854300  1
  O  O47  1  0.50812300  0.90543400  0.07818500  1
  O  O48  1  0.17026400  0.24094100  0.08493000  1
  O  O49  1  0.81245700  0.72335900  0.12146400  1
  O  O50  1  0.10531700  0.50812100  0.17829800  1
  O  O51  1  0.95892000  0.02953700  0.11559200  1
  O  O52  1  0.44132000  0.17017600  0.18484100  1
  O  O53  1  0.29479800  0.69185400  0.12182200  1
  O  O54  1  0.92301000  0.81266600  0.22158800  1
  O  O55  1  0.58740300  0.47654200  0.17910300  1
  O  O56  1  0.70893000  0.10563900  0.27923200  1
  O  O57  1  0.23152900  0.95615300  0.21651800  1
  O  O58  1  0.37010400  0.44138200  0.28493500  1
  O  O59  1  0.89057400  0.29468600  0.22260400  1
  O  O60  1  0.67714200  0.58796800  0.27771900  1
  O  O61  1  0.15881800  0.22952900  0.31526200  1
  O  O62  1  0.49419700  0.89168000  0.32227800  1
  O  O63  1  0.01582700  0.91977200  0.32169000  1
  O  O64  1  0.78538100  0.67600600  0.38022100  1
  O  O65  1  0.42978100  0.15961200  0.41502100  1
  O  O66  1  0.09158700  0.49494300  0.42183300  1
  O  O67  1  0.30814300  0.70517400  0.38184300  1
  O  O68  1  0.63738800  0.37494800  0.38674300  1
  O  O69  1  0.12368900  0.01191500  0.42217300  1
  O  O70  1  0.87643400  0.78749300  0.47845200  1
  O  O71  1  0.36054500  0.43397500  0.51583300  1
  O  O72  1  0.69473900  0.09204000  0.52170900  1
  O  O73  1  0.90796000  0.30526100  0.47829100  1
  O  O74  1  0.56602500  0.63945500  0.48416700  1
  O  O75  1  0.21250700  0.12356600  0.52154800  1
  O  O76  1  0.98808500  0.87631100  0.57782700  1
  O  O77  1  0.50505700  0.90841300  0.57816700  1
  O  O78  1  0.84038800  0.57021900  0.58497900  1
  O  O79  1  0.32399400  0.21461900  0.61977900  1
  O  O80  1  0.10832000  0.50580300  0.67772200  1
  O  O81  1  0.62505200  0.36261200  0.61325700  1
  O  O82  1  0.77047100  0.84118200  0.68473800  1
  O  O83  1  0.29482600  0.69185700  0.61815700  1
  O  O84  1  0.41203200  0.32285800  0.72228100  1
  O  O85  1  0.08022800  0.98417300  0.67831000  1
  O  O86  1  0.70531400  0.10942600  0.77739600  1
  O  O87  1  0.55861800  0.62989600  0.71506500  1
  O  O88  1  0.04384700  0.76847100  0.78348200  1
  O  O89  1  0.89436100  0.29107000  0.72076800  1
  O  O90  1  0.18733400  0.07699000  0.77841200  1
  O  O91  1  0.82982400  0.55868000  0.81515900  1
  O  O92  1  0.49187900  0.89468300  0.82170200  1
  O  O93  1  0.52345800  0.41259700  0.82089700  1
  O  O94  1  0.27664100  0.18754300  0.87853600  1
  O  O95  1  0.75905900  0.82973600  0.91507000  1
  O  O96  1  0.09456600  0.49187700  0.92181500  1
  O  O97  1  0.30814600  0.70520200  0.87817800  1
  O  O98  1  0.97046300  0.04108000  0.88440800  1
  O  O99  1  0.61247500  0.52318300  0.92145700  1
