# generated using pymatgen
data_Li9Mn2Co5O16
_symmetry_space_group_name_H-M   'P 1'
_cell_length_a   2.94733700
_cell_length_b   10.18708767
_cell_length_c   10.23911166
_cell_angle_alpha   108.72480515
_cell_angle_beta   91.37156626
_cell_angle_gamma   92.60418469
_symmetry_Int_Tables_number   1
_chemical_formula_structural   Li9Mn2Co5O16
_chemical_formula_sum   'Li9 Mn2 Co5 O16'
_cell_volume   290.61350049
_cell_formula_units_Z   1
loop_
 _symmetry_equiv_pos_site_id
 _symmetry_equiv_pos_as_xyz
  1  'x, y, z'
loop_
 _atom_site_type_symbol
 _atom_site_label
 _atom_site_symmetry_multiplicity
 _atom_site_fract_x
 _atom_site_fract_y
 _atom_site_fract_z
 _atom_site_occupancy
  Li  Li0  1  0.00777900  0.24580100  0.25264500  1
  Li  Li1  1  0.51301200  0.49054300  0.74356600  1
  Li  Li2  1  0.99761700  0.75077800  0.25170900  1
  Li  Li3  1  0.49504300  0.50264300  0.25154200  1
  Li  Li4  1  0.99615100  0.75376600  0.75376300  1
  Li  Li5  1  0.48970300  0.99920900  0.25446000  1
  Li  Li6  1  0.50108400  0.99981000  0.74558900  1
  Li  Li7  1  0.00209500  0.25142900  0.73984100  1
  Li  Li8  1  0.48652100  0.25450100  0.50938900  1
  Mn  Mn9  1  0.99925700  0.00051200  0.00100500  1
  Mn  Mn10  1  0.00668400  0.49512100  0.50088100  1
  Co  Co11  1  0.00044400  0.49976600  0.99926400  1
  Co  Co12  1  0.50996700  0.75084300  0.49693500  1
  Co  Co13  1  0.50185500  0.74820400  0.99688900  1
  Co  Co14  1  0.99477800  0.00786300  0.49811800  1
  Co  Co15  1  0.49858900  0.25145900  0.00301800  1
  O  O16  1  0.46127300  0.12305600  0.12279900  1
  O  O17  1  0.99574100  0.38973100  0.61690700  1
  O  O18  1  0.49035700  0.61831000  0.11461600  1
  O  O19  1  0.98530200  0.36876700  0.11585900  1
  O  O20  1  0.52926100  0.61893700  0.60450000  1
  O  O21  1  0.98865400  0.86958100  0.11230400  1
  O  O22  1  0.97209800  0.87552500  0.60602000  1
  O  O23  1  0.46442100  0.11256600  0.61595200  1
  O  O24  1  0.48386500  0.39135000  0.39068900  1
  O  O25  1  0.01166900  0.63276600  0.88554100  1
  O  O26  1  0.51815000  0.87546100  0.38834500  1
  O  O27  1  0.04084600  0.62711300  0.38825300  1
  O  O28  1  0.53663000  0.87722700  0.87853000  1
  O  O29  1  0.00041200  0.10585300  0.38676500  1
  O  O30  1  0.01031900  0.13013300  0.88890100  1
  O  O31  1  0.51042300  0.38137700  0.88540400  1
