# generated using pymatgen
data_Li2Ni3WO8
_symmetry_space_group_name_H-M   'P 1'
_cell_length_a   8.50065766
_cell_length_b   8.56339487
_cell_length_c   8.22028044
_cell_angle_alpha   90.00566469
_cell_angle_beta   89.97176485
_cell_angle_gamma   90.00027264
_symmetry_Int_Tables_number   1
_chemical_formula_structural   Li2Ni3WO8
_chemical_formula_sum   'Li8 Ni12 W4 O32'
_cell_volume   598.39103178
_cell_formula_units_Z   4
loop_
 _symmetry_equiv_pos_site_id
 _symmetry_equiv_pos_as_xyz
  1  'x, y, z'
loop_
 _atom_site_type_symbol
 _atom_site_label
 _atom_site_symmetry_multiplicity
 _atom_site_fract_x
 _atom_site_fract_y
 _atom_site_fract_z
 _atom_site_occupancy
  Li  Li0  1  0.99047031  0.99709105  0.99390711  1
  Li  Li1  1  0.25264346  0.25788561  0.25659222  1
  Li  Li2  1  0.24759661  0.74248761  0.75680310  1
  Li  Li3  1  0.50962414  0.00255023  0.49373447  1
  Li  Li4  1  0.49092335  0.50192846  0.00645460  1
  Li  Li5  1  0.75224200  0.24221566  0.74340646  1
  Li  Li6  1  0.74712634  0.75818684  0.24355564  1
  Li  Li7  1  0.00927682  0.49752317  0.50623107  1
  Ni  Ni8  1  0.11978519  0.12946247  0.62510012  1
  Ni  Ni9  1  0.12795962  0.37769370  0.87720787  1
  Ni  Ni10  1  0.12694964  0.62296613  0.12766174  1
  Ni  Ni11  1  0.37315387  0.37729162  0.62757302  1
  Ni  Ni12  1  0.37241633  0.62275008  0.37738415  1
  Ni  Ni13  1  0.38026097  0.87048352  0.12531082  1
  Ni  Ni14  1  0.62000199  0.37037545  0.37484387  1
  Ni  Ni15  1  0.62792887  0.12312414  0.12228161  1
  Ni  Ni16  1  0.62674115  0.87770511  0.87224368  1
  Ni  Ni17  1  0.87331113  0.12262483  0.37223922  1
  Ni  Ni18  1  0.87195242  0.87728761  0.62249189  1
  Ni  Ni19  1  0.88000162  0.62960703  0.87497359  1
  W  W20  1  0.12825752  0.87813659  0.37499506  1
  W  W21  1  0.37107284  0.12139328  0.87476833  1
  W  W22  1  0.62830357  0.62175374  0.62559874  1
  W  W23  1  0.87227724  0.37818685  0.12528945  1
  O  O24  1  0.11294033  0.10488262  0.37486884  1
  O  O25  1  0.11629335  0.87544363  0.61004182  1
  O  O26  1  0.11844126  0.60595709  0.89803421  1
  O  O27  1  0.14458302  0.13251271  0.87513449  1
  O  O28  1  0.10745574  0.37759322  0.11092895  1
  O  O29  1  0.14618819  0.36724856  0.64749997  1
  O  O30  1  0.12758572  0.64415772  0.36196503  1
  O  O31  1  0.12426322  0.86724240  0.14050555  1
  O  O32  1  0.37557781  0.13222916  0.64048532  1
  O  O33  1  0.37155727  0.35585263  0.86190825  1
  O  O34  1  0.35452964  0.63275877  0.14785867  1
  O  O35  1  0.39295988  0.62328697  0.61106218  1
  O  O36  1  0.35525306  0.86613356  0.37556757  1
  O  O37  1  0.38148233  0.39523853  0.39765094  1
  O  O38  1  0.38264368  0.12451260  0.10980497  1
  O  O39  1  0.38775242  0.89463776  0.87515197  1
  O  O40  1  0.61295959  0.39503854  0.62504066  1
  O  O41  1  0.61653930  0.62441005  0.38998351  1
  O  O42  1  0.61892027  0.89655663  0.10251272  1
  O  O43  1  0.64484618  0.36442487  0.12426348  1
  O  O44  1  0.60652565  0.12374290  0.88865703  1
  O  O45  1  0.64672008  0.13260574  0.35234799  1
  O  O46  1  0.62735126  0.85568595  0.63789964  1
  O  O47  1  0.62422406  0.63202418  0.85953160  1
  O  O48  1  0.87571651  0.36792001  0.35962772  1
  O  O49  1  0.87372951  0.14448635  0.13806975  1
  O  O50  1  0.85311366  0.86747607  0.85237890  1
  O  O51  1  0.89304828  0.87661216  0.38891113  1
  O  O52  1  0.85525035  0.63397853  0.62459653  1
  O  O53  1  0.88114446  0.10471516  0.60215579  1
  O  O54  1  0.88446472  0.37540328  0.88990714  1
  O  O55  1  0.88566318  0.60466287  0.12513887  1
