# generated using pymatgen
data_Li2MnV(PO4)3
_symmetry_space_group_name_H-M   'P 1'
_cell_length_a   8.94021720
_cell_length_b   8.57976561
_cell_length_c   8.29438795
_cell_angle_alpha   59.38961387
_cell_angle_beta   63.75256562
_cell_angle_gamma   91.84141995
_symmetry_Int_Tables_number   1
_chemical_formula_structural   Li2MnV(PO4)3
_chemical_formula_sum   'Li4 Mn2 V2 P6 O24'
_cell_volume   463.01371755
_cell_formula_units_Z   2
loop_
 _symmetry_equiv_pos_site_id
 _symmetry_equiv_pos_as_xyz
  1  'x, y, z'
loop_
 _atom_site_type_symbol
 _atom_site_label
 _atom_site_symmetry_multiplicity
 _atom_site_fract_x
 _atom_site_fract_y
 _atom_site_fract_z
 _atom_site_occupancy
  Li  Li0  1  0.13738000  0.73704500  0.18264900  1
  Li  Li1  1  0.15807400  0.32758800  0.94086000  1
  Li  Li2  1  0.85842700  0.92540100  0.40678000  1
  Li  Li3  1  0.86077900  0.26728400  0.81282400  1
  Mn  Mn4  1  0.05113000  0.34873400  0.30456800  1
  Mn  Mn5  1  0.94910000  0.65121000  0.70200400  1
  V  V6  1  0.56359400  0.85299200  0.29513500  1
  V  V7  1  0.43838600  0.14686900  0.70170400  1
  P  P8  1  0.25138900  0.03585800  0.21431900  1
  P  P9  1  0.25298500  0.45291100  0.50419300  1
  P  P10  1  0.24839100  0.75193800  0.78180000  1
  P  P11  1  0.75555700  0.25305800  0.20676400  1
  P  P12  1  0.75512600  0.54350100  0.49244200  1
  P  P13  1  0.74339500  0.97054500  0.78720900  1
  O  O14  1  0.08892500  0.83950500  0.37191200  1
  O  O15  1  0.27167900  0.12043900  0.98491400  1
  O  O16  1  0.20471500  0.17089400  0.27985800  1
  O  O17  1  0.20360500  0.49213400  0.33261600  1
  O  O18  1  0.09662800  0.42947600  0.70847200  1
  O  O19  1  0.10647900  0.78580300  0.72263200  1
  O  O20  1  0.42031300  0.99468900  0.20075500  1
  O  O21  1  0.29677500  0.26315800  0.59420500  1
  O  O22  1  0.41629700  0.61824000  0.39066800  1
  O  O23  1  0.20198700  0.53915800  0.96761100  1
  O  O24  1  0.27038000  0.88170100  0.85331400  1
  O  O25  1  0.42763100  0.80628500  0.57409800  1
  O  O26  1  0.58706100  0.19106700  0.41776500  1
  O  O27  1  0.73604000  0.11529400  0.14211500  1
  O  O28  1  0.80448200  0.46175300  0.01982400  1
  O  O29  1  0.58363300  0.38204400  0.61295400  1
  O  O30  1  0.72524200  0.74258100  0.39654600  1
  O  O31  1  0.56744300  0.00489300  0.80612100  1
  O  O32  1  0.91306900  0.21721200  0.24792200  1
  O  O33  1  0.91270400  0.55423000  0.30284200  1
  O  O34  1  0.79833800  0.50731300  0.67058300  1
  O  O35  1  0.78946500  0.84499600  0.70642200  1
  O  O36  1  0.71296100  0.88634400  0.01947900  1
  O  O37  1  0.88989200  0.17127100  0.63195300  1
