# generated using pymatgen
data_Li9Mn7O16
_symmetry_space_group_name_H-M   'P 1'
_cell_length_a   5.09455000
_cell_length_b   7.69343308
_cell_length_c   8.13346820
_cell_angle_alpha   79.97938623
_cell_angle_beta   86.06081310
_cell_angle_gamma   72.63621959
_symmetry_Int_Tables_number   1
_chemical_formula_structural   Li9Mn7O16
_chemical_formula_sum   'Li9 Mn7 O16'
_cell_volume   299.57132111
_cell_formula_units_Z   1
loop_
 _symmetry_equiv_pos_site_id
 _symmetry_equiv_pos_as_xyz
  1  'x, y, z'
loop_
 _atom_site_type_symbol
 _atom_site_label
 _atom_site_symmetry_multiplicity
 _atom_site_fract_x
 _atom_site_fract_y
 _atom_site_fract_z
 _atom_site_occupancy
  Li  Li0  1  0.50692500  0.56189600  0.80028900  1
  Li  Li1  1  0.49866800  0.81308000  0.06694800  1
  Li  Li2  1  0.49307500  0.43810400  0.19971100  1
  Li  Li3  1  0.49015600  0.69331400  0.43892700  1
  Li  Li4  1  0.50984400  0.30668600  0.56107300  1
  Li  Li5  1  0.50133200  0.18692000  0.93305200  1
  Li  Li6  1  0.51458000  0.06092800  0.31785300  1
  Li  Li7  1  0.48542000  0.93907200  0.68214700  1
  Li  Li8  1  0.00000000  0.00000000  0.50000000  1
  Mn  Mn9  1  0.00620200  0.62785900  0.62276900  1
  Mn  Mn10  1  0.99379800  0.37214100  0.37723100  1
  Mn  Mn11  1  0.00127100  0.87669200  0.86845300  1
  Mn  Mn12  1  0.99872900  0.12330800  0.13154700  1
  Mn  Mn13  1  0.00000000  0.50000000  0.00000000  1
  Mn  Mn14  1  0.99568200  0.75214200  0.25532200  1
  Mn  Mn15  1  0.00431800  0.24785800  0.74467800  1
  O  O16  1  0.77041400  0.46384500  0.60976300  1
  O  O17  1  0.76578900  0.71709200  0.85787500  1
  O  O18  1  0.79170000  0.33159300  0.95479400  1
  O  O19  1  0.76952000  0.59356900  0.22738200  1
  O  O20  1  0.75879000  0.23028800  0.34229400  1
  O  O21  1  0.76863800  0.09439600  0.73068400  1
  O  O22  1  0.76855200  0.96562700  0.11041400  1
  O  O23  1  0.78388900  0.82358000  0.45406300  1
  O  O24  1  0.20830000  0.66840700  0.04520600  1
  O  O25  1  0.23136200  0.90560400  0.26931600  1
  O  O26  1  0.22958600  0.53615500  0.39023700  1
  O  O27  1  0.24121000  0.76971200  0.65770600  1
  O  O28  1  0.23048000  0.40643100  0.77261800  1
  O  O29  1  0.23421100  0.28290800  0.14212500  1
  O  O30  1  0.21611100  0.17642000  0.54593700  1
  O  O31  1  0.23144800  0.03437300  0.88958600  1
