# generated using pymatgen
data_Li4MnCo2O7
_symmetry_space_group_name_H-M   'P 1'
_cell_length_a   4.99914600
_cell_length_b   6.46590517
_cell_length_c   8.02861302
_cell_angle_alpha   85.47885337
_cell_angle_beta   82.69607575
_cell_angle_gamma   83.43082518
_symmetry_Int_Tables_number   1
_chemical_formula_structural   Li4MnCo2O7
_chemical_formula_sum   'Li8 Mn2 Co4 O14'
_cell_volume   255.17635111
_cell_formula_units_Z   2
loop_
 _symmetry_equiv_pos_site_id
 _symmetry_equiv_pos_as_xyz
  1  'x, y, z'
loop_
 _atom_site_type_symbol
 _atom_site_label
 _atom_site_symmetry_multiplicity
 _atom_site_fract_x
 _atom_site_fract_y
 _atom_site_fract_z
 _atom_site_occupancy
  Li  Li0  1  0.85032600  0.78150100  0.28890300  1
  Li  Li1  1  0.57751400  0.36167200  0.85333700  1
  Li  Li2  1  0.28639200  0.92246400  0.43066400  1
  Li  Li3  1  0.71360800  0.07753600  0.56933600  1
  Li  Li4  1  0.42248600  0.63832800  0.14666300  1
  Li  Li5  1  0.14967400  0.21849900  0.71109700  1
  Li  Li6  1  0.00000000  0.50000000  0.00000000  1
  Li  Li7  1  0.50000000  0.50000000  0.50000000  1
  Mn  Mn8  1  0.78662200  0.92681200  0.92450400  1
  Mn  Mn9  1  0.21337800  0.07318800  0.07549600  1
  Co  Co10  1  0.93101500  0.64064600  0.63143000  1
  Co  Co11  1  0.63981500  0.21567100  0.21878500  1
  Co  Co12  1  0.36018500  0.78432900  0.78121500  1
  Co  Co13  1  0.06898500  0.35935400  0.36857000  1
  O  O14  1  0.09902800  0.80210500  0.03486200  1
  O  O15  1  0.83885400  0.37396800  0.60196700  1
  O  O16  1  0.52797500  0.94658800  0.18170700  1
  O  O17  1  0.94719100  0.09412800  0.32218300  1
  O  O18  1  0.66443700  0.65818100  0.88904600  1
  O  O19  1  0.36230700  0.22547000  0.45324800  1
  O  O20  1  0.22537500  0.52739700  0.74729000  1
  O  O21  1  0.63769300  0.77453000  0.54675200  1
  O  O22  1  0.33556300  0.34181900  0.11095400  1
  O  O23  1  0.05280900  0.90587200  0.67781700  1
  O  O24  1  0.47202500  0.05341200  0.81829300  1
  O  O25  1  0.16114600  0.62603200  0.39803300  1
  O  O26  1  0.90097200  0.19789500  0.96513800  1
  O  O27  1  0.77462500  0.47260300  0.25271000  1
