# generated using pymatgen
data_Li4V3CrO8
_symmetry_space_group_name_H-M   'P 1'
_cell_length_a   5.96975089
_cell_length_b   5.96975089
_cell_length_c   5.96975102
_cell_angle_alpha   60.24429784
_cell_angle_beta   60.24429784
_cell_angle_gamma   60.24428708
_symmetry_Int_Tables_number   1
_chemical_formula_structural   Li4V3CrO8
_chemical_formula_sum   'Li4 V3 Cr1 O8'
_cell_volume   151.26858423
_cell_formula_units_Z   1
loop_
 _symmetry_equiv_pos_site_id
 _symmetry_equiv_pos_as_xyz
  1  'x, y, z'
loop_
 _atom_site_type_symbol
 _atom_site_label
 _atom_site_symmetry_multiplicity
 _atom_site_fract_x
 _atom_site_fract_y
 _atom_site_fract_z
 _atom_site_occupancy
  Li  Li0  1  0.50000000  0.50000000  0.50000000  1
  Li  Li1  1  0.00000000  0.00000000  0.50000000  1
  Li  Li2  1  0.00000000  0.50000000  0.00000000  1
  Li  Li3  1  0.50000000  0.00000000  0.00000000  1
  V  V4  1  0.50000000  0.50000000  0.00000000  1
  V  V5  1  0.50000000  0.00000000  0.50000000  1
  V  V6  1  0.00000000  0.50000000  0.50000000  1
  Cr  Cr7  1  0.00000000  0.00000000  0.00000000  1
  O  O8  1  0.74235000  0.74235000  0.74235000  1
  O  O9  1  0.24084000  0.24084000  0.74535200  1
  O  O10  1  0.24084000  0.74535200  0.24084000  1
  O  O11  1  0.25765000  0.25765000  0.25765000  1
  O  O12  1  0.74535200  0.24084000  0.24084000  1
  O  O13  1  0.75916000  0.75916000  0.25464800  1
  O  O14  1  0.75916000  0.25464800  0.75916000  1
  O  O15  1  0.25464800  0.75916000  0.75916000  1
