# generated using pymatgen
data_Na2LiFePCO7
_symmetry_space_group_name_H-M   'P 1'
_cell_length_a   6.72206800
_cell_length_b   8.83640758
_cell_length_c   10.26651046
_cell_angle_alpha   88.37834816
_cell_angle_beta   89.85124247
_cell_angle_gamma   89.76938089
_symmetry_Int_Tables_number   1
_chemical_formula_structural   Na2LiFePCO7
_chemical_formula_sum   'Na8 Li4 Fe4 P4 C4 O28'
_cell_volume   609.56870814
_cell_formula_units_Z   4
loop_
 _symmetry_equiv_pos_site_id
 _symmetry_equiv_pos_as_xyz
  1  'x, y, z'
loop_
 _atom_site_type_symbol
 _atom_site_label
 _atom_site_symmetry_multiplicity
 _atom_site_fract_x
 _atom_site_fract_y
 _atom_site_fract_z
 _atom_site_occupancy
  Na  Na0  1  0.74620500  0.08291400  0.88007900  1
  Na  Na1  1  0.74500700  0.08382200  0.38062300  1
  Na  Na2  1  0.00188900  0.25589000  0.62868100  1
  Na  Na3  1  0.99915500  0.26228400  0.12231700  1
  Na  Na4  1  0.50059300  0.26236700  0.12512300  1
  Na  Na5  1  0.49718300  0.74459700  0.87331700  1
  Na  Na6  1  0.49503400  0.73856100  0.37766400  1
  Na  Na7  1  0.00261100  0.73943400  0.37576300  1
  Li  Li8  1  0.53003200  0.28238000  0.61565600  1
  Li  Li9  1  0.02177300  0.72447700  0.88130200  1
  Li  Li10  1  0.24802600  0.90347600  0.62565800  1
  Li  Li11  1  0.24509500  0.90026800  0.12297500  1
  Fe  Fe12  1  0.25484200  0.35682800  0.88203300  1
  Fe  Fe13  1  0.25155100  0.35236800  0.39618400  1
  Fe  Fe14  1  0.75260500  0.65043800  0.61782400  1
  Fe  Fe15  1  0.75292700  0.64981800  0.10602500  1
  P  P16  1  0.75324200  0.41381800  0.84966600  1
  P  P17  1  0.75035900  0.41550300  0.35982500  1
  P  P18  1  0.25123300  0.59455800  0.65122600  1
  P  P19  1  0.25065600  0.58938400  0.14205100  1
  C  C20  1  0.24230300  0.04434500  0.86508400  1
  C  C21  1  0.24886500  0.05139300  0.36004500  1
  C  C22  1  0.74085600  0.94758400  0.63497000  1
  C  C23  1  0.75034800  0.94186600  0.13580600  1
  O  O24  1  0.72354900  0.09311900  0.64257900  1
  O  O25  1  0.75124100  0.08703400  0.14552800  1
  O  O26  1  0.24956500  0.07468000  0.98803600  1
  O  O27  1  0.24347400  0.08323500  0.48320100  1
  O  O28  1  0.25916700  0.15429400  0.77756100  1
  O  O29  1  0.25398900  0.16145800  0.27230500  1
  O  O30  1  0.93745700  0.31357200  0.88306000  1
  O  O31  1  0.56913500  0.32664100  0.90246900  1
  O  O32  1  0.93819300  0.32009500  0.39884800  1
  O  O33  1  0.56683900  0.31885200  0.40655500  1
  O  O34  1  0.73413300  0.43171400  0.69729300  1
  O  O35  1  0.27096000  0.43386900  0.59351600  1
  O  O36  1  0.74540800  0.43732100  0.20835900  1
  O  O37  1  0.24837100  0.43535600  0.07464700  1
  O  O38  1  0.77156800  0.57440200  0.90635500  1
  O  O39  1  0.23214400  0.57495900  0.80292400  1
  O  O40  1  0.74873100  0.57089600  0.42356000  1
  O  O41  1  0.24467400  0.56260300  0.29260600  1
  O  O42  1  0.43266600  0.69729800  0.61745700  1
  O  O43  1  0.06883200  0.68514000  0.59925500  1
  O  O44  1  0.43718400  0.68623700  0.10486700  1
  O  O45  1  0.06990300  0.69100600  0.09774200  1
  O  O46  1  0.75315700  0.86099000  0.73941600  1
  O  O47  1  0.75299700  0.85359600  0.23959100  1
  O  O48  1  0.74758400  0.88283800  0.52264800  1
  O  O49  1  0.74703200  0.88016400  0.02214500  1
  O  O50  1  0.21988400  0.90702800  0.82587500  1
  O  O51  1  0.24977200  0.91323000  0.32170300  1
