# generated using pymatgen
data_LiSn(PO3)4
_symmetry_space_group_name_H-M   'P 1'
_cell_length_a   10.59564000
_cell_length_b   9.27086900
_cell_length_c   9.78358482
_cell_angle_alpha   88.30758266
_cell_angle_beta   90.00000000
_cell_angle_gamma   90.00000000
_symmetry_Int_Tables_number   1
_chemical_formula_structural   LiSn(PO3)4
_chemical_formula_sum   'Li4 Sn4 P16 O48'
_cell_volume   960.63003859
_cell_formula_units_Z   4
loop_
 _symmetry_equiv_pos_site_id
 _symmetry_equiv_pos_as_xyz
  1  'x, y, z'
loop_
 _atom_site_type_symbol
 _atom_site_label
 _atom_site_symmetry_multiplicity
 _atom_site_fract_x
 _atom_site_fract_y
 _atom_site_fract_z
 _atom_site_occupancy
  Li  Li0  1  0.32212600  0.13180900  0.25071300  1
  Li  Li1  1  0.67609200  0.63463600  0.24727600  1
  Li  Li2  1  0.17609200  0.36536400  0.75272400  1
  Li  Li3  1  0.82212600  0.86819100  0.74928700  1
  Sn  Sn4  1  0.80099800  0.26364400  0.72840900  1
  Sn  Sn5  1  0.69678500  0.24352000  0.22985800  1
  Sn  Sn6  1  0.19678500  0.75648000  0.77014200  1
  Sn  Sn7  1  0.30099800  0.73635600  0.27159100  1
  P  P8  1  0.01945300  0.76413400  0.48501300  1
  P  P9  1  0.09969700  0.27160300  0.44785100  1
  P  P10  1  0.40259900  0.26393400  0.94933100  1
  P  P11  1  0.61269500  0.05157400  0.94913400  1
  P  P12  1  0.38655600  0.94786300  0.54588700  1
  P  P13  1  0.60452400  0.47883900  0.95380200  1
  P  P14  1  0.89726800  0.47969100  0.44677000  1
  P  P15  1  0.90259900  0.73606600  0.05066900  1
  P  P16  1  0.47956900  0.75729000  0.98436900  1
  P  P17  1  0.10452400  0.52116100  0.04619800  1
  P  P18  1  0.88655600  0.05213700  0.45411300  1
  P  P19  1  0.51945300  0.23586600  0.51498700  1
  P  P20  1  0.59969700  0.72839700  0.55214900  1
  P  P21  1  0.39726800  0.52030900  0.55323000  1
  P  P22  1  0.97956900  0.24271000  0.01563100  1
  P  P23  1  0.11269500  0.94842600  0.05086600  1
  O  O24  1  0.87656900  0.43723100  0.59643900  1
  O  O25  1  0.03643100  0.09465600  0.07262300  1
  O  O26  1  0.53302300  0.57452400  0.60272200  1
  O  O27  1  0.89692400  0.76578600  0.90113200  1
  O  O28  1  0.27189100  0.93734800  0.63807000  1
  O  O29  1  0.47975400  0.74428800  0.13953600  1
  O  O30  1  0.70225200  0.43038600  0.85307200  1
  O  O31  1  0.63185900  0.07057800  0.10082000  1
  O  O32  1  0.96683700  0.57765500  0.08362100  1
  O  O33  1  0.13165000  0.54712100  0.89444000  1
  O  O34  1  0.77189100  0.06265200  0.36193000  1
  O  O35  1  0.20225200  0.56961400  0.14692800  1
  O  O36  1  0.13185900  0.92942200  0.89918000  1
  O  O37  1  0.48080400  0.82901900  0.60199700  1
  O  O38  1  0.64588500  0.26360000  0.57834600  1
  O  O39  1  0.58357500  0.64932400  0.92534600  1
  O  O40  1  0.51829200  0.16715700  0.88380600  1
  O  O41  1  0.46683700  0.42234500  0.91637900  1
  O  O42  1  0.39692400  0.23421400  0.09886800  1
  O  O43  1  0.35350500  0.73793900  0.91774100  1
  O  O44  1  0.36662300  0.94187500  0.39234000  1
  O  O45  1  0.79343400  0.44670900  0.34649800  1
  O  O46  1  0.86662300  0.05812500  0.60766000  1
  O  O47  1  0.96102700  0.90745800  0.41792900  1
  O  O48  1  0.37656900  0.56276900  0.40356100  1
  O  O49  1  0.01807700  0.76957500  0.63983000  1
  O  O50  1  0.14588500  0.73640000  0.42165400  1
  O  O51  1  0.29343400  0.55329100  0.65350200  1
  O  O52  1  0.98080400  0.17098100  0.39800300  1
  O  O53  1  0.91688800  0.65137400  0.43365200  1
  O  O54  1  0.97975400  0.25571200  0.86046400  1
  O  O55  1  0.22729700  0.94862800  0.14388400  1
  O  O56  1  0.08357500  0.35067600  0.07465400  1
  O  O57  1  0.79119100  0.74644900  0.14129600  1
  O  O58  1  0.20745300  0.24198600  0.35642500  1
  O  O59  1  0.10991600  0.26719200  0.59897300  1
  O  O60  1  0.46102700  0.09254200  0.58207100  1
  O  O61  1  0.70745300  0.75801400  0.64357500  1
  O  O62  1  0.53643100  0.90534400  0.92737700  1
  O  O63  1  0.85350500  0.26206100  0.08225900  1
  O  O64  1  0.01829200  0.83284300  0.11619400  1
  O  O65  1  0.29119100  0.25355100  0.85870400  1
  O  O66  1  0.41688800  0.34862600  0.56634800  1
  O  O67  1  0.51807700  0.23042500  0.36017000  1
  O  O68  1  0.63165000  0.45287900  0.10556000  1
  O  O69  1  0.72729700  0.05137200  0.85611600  1
  O  O70  1  0.60991600  0.73280800  0.40102700  1
  O  O71  1  0.03302300  0.42547600  0.39727800  1
