# generated using pymatgen
data_Li4NO
_symmetry_space_group_name_H-M   'P 1'
_cell_length_a   3.31286600
_cell_length_b   3.31286600
_cell_length_c   4.93651800
_cell_angle_alpha   90.00000000
_cell_angle_beta   90.00000000
_cell_angle_gamma   90.00000000
_symmetry_Int_Tables_number   1
_chemical_formula_structural   Li4NO
_chemical_formula_sum   'Li4 N1 O1'
_cell_volume   54.17868557
_cell_formula_units_Z   1
loop_
 _symmetry_equiv_pos_site_id
 _symmetry_equiv_pos_as_xyz
  1  'x, y, z'
loop_
 _atom_site_type_symbol
 _atom_site_label
 _atom_site_symmetry_multiplicity
 _atom_site_fract_x
 _atom_site_fract_y
 _atom_site_fract_z
 _atom_site_occupancy
  Li  Li0  1  0.00000000  0.50000000  0.26384800  1
  Li  Li1  1  0.50000000  0.00000000  0.73615200  1
  Li  Li2  1  0.00000000  0.50000000  0.73615200  1
  Li  Li3  1  0.50000000  0.00000000  0.26384800  1
  N  N4  1  0.00000000  0.00000000  0.00000000  1
  O  O5  1  0.50000000  0.50000000  0.50000000  1
