# generated using pymatgen
data_Li(CoO2)2
_symmetry_space_group_name_H-M   'P 1'
_cell_length_a   5.72944164
_cell_length_b   5.72944164
_cell_length_c   9.40425100
_cell_angle_alpha   90.00000000
_cell_angle_beta   90.00000000
_cell_angle_gamma   119.87882781
_symmetry_Int_Tables_number   1
_chemical_formula_structural   Li(CoO2)2
_chemical_formula_sum   'Li4 Co8 O16'
_cell_volume   267.67537989
_cell_formula_units_Z   4
loop_
 _symmetry_equiv_pos_site_id
 _symmetry_equiv_pos_as_xyz
  1  'x, y, z'
loop_
 _atom_site_type_symbol
 _atom_site_label
 _atom_site_symmetry_multiplicity
 _atom_site_fract_x
 _atom_site_fract_y
 _atom_site_fract_z
 _atom_site_occupancy
  Li  Li0  1  0.33221200  0.66778800  0.39484100  1
  Li  Li1  1  0.00073600  0.99926400  0.49582500  1
  Li  Li2  1  0.99926400  0.00073600  0.99582500  1
  Li  Li3  1  0.66778800  0.33221200  0.89484100  1
  Co  Co4  1  0.17020400  0.33808800  0.71247200  1
  Co  Co5  1  0.33489900  0.66510100  0.98699600  1
  Co  Co6  1  0.66191200  0.82979600  0.71247200  1
  Co  Co7  1  0.16906800  0.83093200  0.71326300  1
  Co  Co8  1  0.83093200  0.16906800  0.21326300  1
  Co  Co9  1  0.66510100  0.33489900  0.48699600  1
  Co  Co10  1  0.33808800  0.17020400  0.21247200  1
  Co  Co11  1  0.82979600  0.66191200  0.21247200  1
  O  O12  1  0.17074600  0.32664600  0.10527300  1
  O  O13  1  0.48209100  0.51790900  0.83408200  1
  O  O14  1  0.33359100  0.66640900  0.61086700  1
  O  O15  1  0.00010900  0.99989100  0.80631400  1
  O  O16  1  0.99989100  0.00010900  0.30631400  1
  O  O17  1  0.67335400  0.82925400  0.10527300  1
  O  O18  1  0.04038200  0.51132300  0.83714800  1
  O  O19  1  0.48867700  0.95961800  0.83714800  1
  O  O20  1  0.83649300  0.16350700  0.60477300  1
  O  O21  1  0.16350700  0.83649300  0.10477300  1
  O  O22  1  0.51132300  0.04038200  0.33714800  1
  O  O23  1  0.95961800  0.48867700  0.33714800  1
  O  O24  1  0.66640900  0.33359100  0.11086700  1
  O  O25  1  0.32664600  0.17074600  0.60527300  1
  O  O26  1  0.51790900  0.48209100  0.33408200  1
  O  O27  1  0.82925400  0.67335400  0.60527300  1
