# generated using pymatgen
data_LiPrO2
_symmetry_space_group_name_H-M   'P 1'
_cell_length_a   6.17485100
_cell_length_b   5.85040500
_cell_length_c   5.86425513
_cell_angle_alpha   77.58620197
_cell_angle_beta   90.00000000
_cell_angle_gamma   90.00000000
_symmetry_Int_Tables_number   1
_chemical_formula_structural   LiPrO2
_chemical_formula_sum   'Li4 Pr4 O8'
_cell_volume   206.89553753
_cell_formula_units_Z   4
loop_
 _symmetry_equiv_pos_site_id
 _symmetry_equiv_pos_as_xyz
  1  'x, y, z'
loop_
 _atom_site_type_symbol
 _atom_site_label
 _atom_site_symmetry_multiplicity
 _atom_site_fract_x
 _atom_site_fract_y
 _atom_site_fract_z
 _atom_site_occupancy
  Li  Li0  1  0.35981700  0.33418000  0.68694600  1
  Li  Li1  1  0.64018300  0.66582000  0.31305400  1
  Li  Li2  1  0.14018300  0.33418000  0.18694600  1
  Li  Li3  1  0.85981700  0.66582000  0.81305400  1
  Pr  Pr4  1  0.57100000  0.20175200  0.19761200  1
  Pr  Pr5  1  0.07100000  0.79824800  0.30238800  1
  Pr  Pr6  1  0.42900000  0.79824800  0.80238800  1
  Pr  Pr7  1  0.92900000  0.20175200  0.69761200  1
  O  O8  1  0.73861200  0.91132900  0.51631100  1
  O  O9  1  0.76138800  0.91132900  0.01631100  1
  O  O10  1  0.23861200  0.08867100  0.98368900  1
  O  O11  1  0.26138800  0.08867100  0.48368900  1
  O  O12  1  0.86695800  0.42720100  0.29841700  1
  O  O13  1  0.36695800  0.57279900  0.20158300  1
  O  O14  1  0.13304200  0.57279900  0.70158300  1
  O  O15  1  0.63304200  0.42720100  0.79841700  1
