# generated using pymatgen
data_Li5V3P8O29
_symmetry_space_group_name_H-M   'P 1'
_cell_length_a   9.74277400
_cell_length_b   9.76889451
_cell_length_c   14.11020921
_cell_angle_alpha   89.14657921
_cell_angle_beta   89.41674297
_cell_angle_gamma   60.17073109
_symmetry_Int_Tables_number   1
_chemical_formula_structural   Li5V3P8O29
_chemical_formula_sum   'Li10 V6 P16 O58'
_cell_volume   1164.89379232
_cell_formula_units_Z   2
loop_
 _symmetry_equiv_pos_site_id
 _symmetry_equiv_pos_as_xyz
  1  'x, y, z'
loop_
 _atom_site_type_symbol
 _atom_site_label
 _atom_site_symmetry_multiplicity
 _atom_site_fract_x
 _atom_site_fract_y
 _atom_site_fract_z
 _atom_site_occupancy
  Li  Li0  1  0.32818400  0.90611000  0.44030400  1
  Li  Li1  1  0.32804100  0.76408000  0.94085600  1
  Li  Li2  1  0.90663300  0.32847400  0.93610300  1
  Li  Li3  1  0.23518100  0.66337300  0.55497400  1
  Li  Li4  1  0.76366600  0.33817100  0.44211700  1
  Li  Li5  1  0.66998200  0.23114000  0.05932400  1
  Li  Li6  1  0.66964100  0.09527900  0.56370000  1
  Li  Li7  1  0.23742200  0.09666800  0.05660200  1
  Li  Li8  1  0.99505400  0.93603500  0.01357900  1
  Li  Li9  1  0.00359100  0.99041700  0.49941700  1
  V  V10  1  0.43524900  0.56281200  0.75132400  1
  V  V11  1  0.56624900  0.43377900  0.24515500  1
  V  V12  1  0.99915400  0.56774800  0.25159700  1
  V  V13  1  0.00454800  0.44048900  0.74610600  1
  V  V14  1  0.56558600  0.99567400  0.75102200  1
  V  V15  1  0.43709400  0.00048400  0.25381800  1
  P  P16  1  0.78109500  0.91514500  0.16527000  1
  P  P17  1  0.91891600  0.78279800  0.65785600  1
  P  P18  1  0.31130400  0.91118700  0.65628600  1
  P  P19  1  0.66450500  0.66363100  0.86722100  1
  P  P20  1  0.66783100  0.66119000  0.36820600  1
  P  P21  1  0.31440800  0.77744300  0.15700400  1
  P  P22  1  0.22529800  0.68526700  0.33862200  1
  P  P23  1  0.91688800  0.31530900  0.15410800  1
  P  P24  1  0.08329200  0.69284600  0.84395600  1
  P  P25  1  0.77734500  0.31576900  0.65986700  1
  P  P26  1  0.68785100  0.22205200  0.84179300  1
  P  P27  1  0.33713800  0.33409200  0.63288700  1
  P  P28  1  0.32978700  0.33348800  0.13178600  1
  P  P29  1  0.68710000  0.08887600  0.34663900  1
  P  P30  1  0.08104400  0.22077600  0.33969800  1
  P  P31  1  0.22353100  0.08661100  0.83842100  1
  O  O32  1  0.76615500  0.02242900  0.43944800  1
  O  O33  1  0.74854900  0.92269500  0.65937800  1
  O  O34  1  0.00794000  0.78740600  0.92942600  1
  O  O35  1  0.91972800  0.74265700  0.16722300  1
  O  O36  1  0.62096800  0.92210000  0.17119800  1
  O  O37  1  0.66617200  0.81012200  0.82140900  1
  O  O38  1  0.46704800  0.91265400  0.66627800  1
  O  O39  1  0.22838900  0.99618100  0.92756600  1
  O  O40  1  0.34387100  0.91891800  0.16322900  1
  O  O41  1  0.81114400  0.66888400  0.32009600  1
  O  O42  1  0.91603900  0.62632200  0.66867300  1
  O  O43  1  0.51193800  0.81079500  0.33112300  1
  O  O44  1  0.64595700  0.66624400  0.97205500  1
  O  O45  1  0.67220100  0.65492500  0.47358800  1
  O  O46  1  0.51006400  0.67160500  0.82273800  1
  O  O47  1  0.91261600  0.47231800  0.17215600  1
  O  O48  1  0.81246600  0.51362100  0.82884400  1
  O  O49  1  0.34079900  0.73773700  0.66369100  1
  O  O50  1  0.20411700  0.79600200  0.24726700  1
  O  O51  1  0.21867100  0.77598000  0.42631500  1
  O  O52  1  0.22827100  0.78795100  0.06754500  1
  O  O53  1  0.47116400  0.62023800  0.17069000  1
  O  O54  1  0.67664100  0.50970400  0.32621200  1
  O  O55  1  0.26041700  0.65616100  0.83760500  1
  O  O56  1  0.61629000  0.47079000  0.67506400  1
  O  O57  1  0.91267200  0.34989800  0.66035600  1
  O  O58  1  0.00218100  0.80039900  0.75167600  1
  O  O59  1  0.01128500  0.79292100  0.57483900  1
  O  O60  1  0.98755900  0.20409900  0.41942500  1
  O  O61  1  0.08186900  0.65838600  0.33530800  1
  O  O62  1  0.38016800  0.53036200  0.32704300  1
  O  O63  1  0.74790600  0.33740000  0.15544600  1
  O  O64  1  0.32871300  0.48732400  0.67719900  1
  O  O65  1  0.53009300  0.38177200  0.82610400  1
  O  O66  1  0.76774700  0.23041300  0.93081800  1
  O  O67  1  0.77129000  0.23202800  0.57218600  1
  O  O68  1  0.79740400  0.20650700  0.75160900  1
  O  O69  1  0.65891300  0.25965800  0.33362900  1
  O  O70  1  0.18749700  0.47882700  0.18296600  1
  O  O71  1  0.07904300  0.53865400  0.83361000  1
  O  O72  1  0.48743400  0.32532300  0.16630900  1
  O  O73  1  0.31982400  0.33874100  0.02660000  1
  O  O74  1  0.33600600  0.35191100  0.52794100  1
  O  O75  1  0.49017800  0.18536200  0.67003600  1
  O  O76  1  0.07515400  0.38131000  0.33039100  1
  O  O77  1  0.19275800  0.32886000  0.67848900  1
  O  O78  1  0.65712100  0.08513500  0.83875800  1
  O  O79  1  0.80342000  0.98968900  0.26213800  1
  O  O80  1  0.79943000  0.00622800  0.08432500  1
  O  O81  1  0.52928300  0.09045900  0.33097900  1
  O  O82  1  0.32349300  0.18759100  0.17400500  1
  O  O83  1  0.37690100  0.09351100  0.82544700  1
  O  O84  1  0.07795100  0.25290300  0.83758200  1
  O  O85  1  0.00194200  0.23575200  0.06383600  1
  O  O86  1  0.01016300  0.19848900  0.24091100  1
  O  O87  1  0.25439300  0.08228900  0.34221800  1
  O  O88  1  0.22279000  0.98091400  0.56579900  1
  O  O89  1  0.20273300  0.99796600  0.74759000  1
