# generated using pymatgen
data_Li9Mn2Co5O16
_symmetry_space_group_name_H-M   'P 1'
_cell_length_a   5.90859800
_cell_length_b   6.43654216
_cell_length_c   7.87108320
_cell_angle_alpha   85.96852746
_cell_angle_beta   75.67741605
_cell_angle_gamma   76.79116751
_symmetry_Int_Tables_number   1
_chemical_formula_structural   Li9Mn2Co5O16
_chemical_formula_sum   'Li9 Mn2 Co5 O16'
_cell_volume   282.33702736
_cell_formula_units_Z   1
loop_
 _symmetry_equiv_pos_site_id
 _symmetry_equiv_pos_as_xyz
  1  'x, y, z'
loop_
 _atom_site_type_symbol
 _atom_site_label
 _atom_site_symmetry_multiplicity
 _atom_site_fract_x
 _atom_site_fract_y
 _atom_site_fract_z
 _atom_site_occupancy
  Li  Li0  1  0.06791300  0.12531900  0.61961100  1
  Li  Li1  1  0.81153300  0.61719600  0.12671300  1
  Li  Li2  1  0.55197600  0.12795200  0.61451200  1
  Li  Li3  1  0.92891100  0.88171600  0.37211200  1
  Li  Li4  1  0.68693000  0.37486000  0.88381800  1
  Li  Li5  1  0.44742400  0.88595100  0.37431600  1
  Li  Li6  1  0.31311000  0.61736100  0.12528000  1
  Li  Li7  1  0.19121500  0.37260200  0.88035200  1
  Li  Li8  1  0.62484100  0.24788000  0.25110400  1
  Mn  Mn9  1  0.99699500  0.00231400  0.00325200  1
  Mn  Mn10  1  0.74600900  0.50157100  0.49673900  1
  Co  Co11  1  0.50459700  0.00033500  0.00717600  1
  Co  Co12  1  0.25007500  0.49672500  0.49635500  1
  Co  Co13  1  0.37581500  0.75038000  0.74946200  1
  Co  Co14  1  0.12177500  0.25012200  0.25040100  1
  Co  Co15  1  0.87648000  0.74989000  0.75014900  1
  O  O16  1  0.27492900  0.04257300  0.81608100  1
  O  O17  1  0.01830200  0.54800700  0.31540700  1
  O  O18  1  0.79538300  0.04299300  0.83393300  1
  O  O19  1  0.14405700  0.79048300  0.56980700  1
  O  O20  1  0.91122800  0.29441600  0.05463400  1
  O  O21  1  0.64663800  0.80033300  0.56962800  1
  O  O22  1  0.53402800  0.55762600  0.33989400  1
  O  O23  1  0.39124700  0.28872700  0.06893300  1
  O  O24  1  0.85577100  0.20749000  0.43398800  1
  O  O25  1  0.60586400  0.70999400  0.93149200  1
  O  O26  1  0.33567600  0.20933600  0.43943900  1
  O  O27  1  0.73601400  0.93775000  0.17567400  1
  O  O28  1  0.48254700  0.45275900  0.68592700  1
  O  O29  1  0.20803100  0.95386900  0.16935400  1
  O  O30  1  0.11017300  0.70087200  0.92917000  1
  O  O31  1  0.95451700  0.46060100  0.66528800  1
