# generated using pymatgen
data_LiYbF2
_symmetry_space_group_name_H-M   'P 1'
_cell_length_a   7.50317463
_cell_length_b   7.50317463
_cell_length_c   7.50317463
_cell_angle_alpha   128.98910176
_cell_angle_beta   128.98910176
_cell_angle_gamma   75.02811011
_symmetry_Int_Tables_number   1
_chemical_formula_structural   LiYbF2
_chemical_formula_sum   'Li4 Yb4 F8'
_cell_volume   248.49743455
_cell_formula_units_Z   4
loop_
 _symmetry_equiv_pos_site_id
 _symmetry_equiv_pos_as_xyz
  1  'x, y, z'
loop_
 _atom_site_type_symbol
 _atom_site_label
 _atom_site_symmetry_multiplicity
 _atom_site_fract_x
 _atom_site_fract_y
 _atom_site_fract_z
 _atom_site_occupancy
  Li  Li0  1  0.37500000  0.12500000  0.25000000  1
  Li  Li1  1  0.87500000  0.12500000  0.75000000  1
  Li  Li2  1  0.87500000  0.12500000  0.25000000  1
  Li  Li3  1  0.87500000  0.62500000  0.75000000  1
  Yb  Yb4  1  0.87500000  0.62500000  0.25000000  1
  Yb  Yb5  1  0.37500000  0.62500000  0.75000000  1
  Yb  Yb6  1  0.37500000  0.62500000  0.25000000  1
  Yb  Yb7  1  0.37500000  0.12500000  0.75000000  1
  F  F8  1  0.17929300  0.44976700  0.27047400  1
  F  F9  1  0.17929300  0.90882000  0.72952600  1
  F  F10  1  0.19976700  0.42929300  0.77047400  1
  F  F11  1  0.57070700  0.80023300  0.22952600  1
  F  F12  1  0.65882000  0.42929300  0.22952600  1
  F  F13  1  0.57070700  0.34118000  0.77047400  1
  F  F14  1  0.55023300  0.82070700  0.72952600  1
  F  F15  1  0.09118000  0.82070700  0.27047400  1
