# generated using pymatgen
data_Li3MnV(PO4)3
_symmetry_space_group_name_H-M   'P 1'
_cell_length_a   8.55907700
_cell_length_b   8.84110550
_cell_length_c   12.38573652
_cell_angle_alpha   89.84180731
_cell_angle_beta   87.53071853
_cell_angle_gamma   89.57388283
_symmetry_Int_Tables_number   1
_chemical_formula_structural   Li3MnV(PO4)3
_chemical_formula_sum   'Li12 Mn4 V4 P12 O48'
_cell_volume   936.35081295
_cell_formula_units_Z   4
loop_
 _symmetry_equiv_pos_site_id
 _symmetry_equiv_pos_as_xyz
  1  'x, y, z'
loop_
 _atom_site_type_symbol
 _atom_site_label
 _atom_site_symmetry_multiplicity
 _atom_site_fract_x
 _atom_site_fract_y
 _atom_site_fract_z
 _atom_site_occupancy
  Li  Li0  1  0.00759300  0.99839700  0.00132400  1
  Li  Li1  1  0.98744400  0.10975600  0.24681600  1
  Li  Li2  1  0.00167900  0.99657400  0.50575200  1
  Li  Li3  1  0.02509600  0.89335200  0.74237200  1
  Li  Li4  1  0.28168500  0.81144600  0.04721700  1
  Li  Li5  1  0.27237300  0.19154500  0.56198600  1
  Li  Li6  1  0.51023900  0.51540000  0.00342400  1
  Li  Li7  1  0.50514600  0.40493300  0.26499000  1
  Li  Li8  1  0.50926200  0.49376900  0.50305100  1
  Li  Li9  1  0.50273000  0.59730700  0.75721700  1
  Li  Li10  1  0.71087700  0.79943600  0.44379000  1
  Li  Li11  1  0.73695900  0.19236800  0.93736700  1
  Mn  Mn12  1  0.28853200  0.00570800  0.85496900  1
  Mn  Mn13  1  0.71479000  0.99764300  0.64318800  1
  Mn  Mn14  1  0.79203200  0.49962800  0.35428500  1
  Mn  Mn15  1  0.79083100  0.49820300  0.85437400  1
  V  V16  1  0.21109600  0.50063100  0.14457600  1
  V  V17  1  0.21633500  0.49940000  0.64393500  1
  V  V18  1  0.28478700  0.99752300  0.35529900  1
  V  V19  1  0.71488200  0.00278200  0.14165000  1
  P  P20  1  0.99721800  0.80459100  0.25011100  1
  P  P21  1  0.00958700  0.19575000  0.74869000  1
  P  P22  1  0.16491200  0.35457200  0.39579900  1
  P  P23  1  0.15501300  0.64362400  0.89292300  1
  P  P24  1  0.34555800  0.14725700  0.10590700  1
  P  P25  1  0.34610800  0.84679200  0.59667100  1
  P  P26  1  0.49519700  0.71079400  0.24754800  1
  P  P27  1  0.50854300  0.29051000  0.74791400  1
  P  P28  1  0.64851800  0.14125500  0.39797700  1
  P  P29  1  0.64353200  0.85889600  0.89715000  1
  P  P30  1  0.83793000  0.35972300  0.10505900  1
  P  P31  1  0.83927500  0.64246000  0.60957300  1
  O  O32  1  0.00237500  0.42198700  0.11445600  1
  O  O33  1  0.00587800  0.58190600  0.60983700  1
  O  O34  1  0.07167800  0.91942000  0.33123200  1
  O  O35  1  0.08275400  0.09180400  0.83861800  1
  O  O36  1  0.12103400  0.70424600  0.19108800  1
  O  O37  1  0.13451500  0.29644300  0.69158900  1
  O  O38  1  0.16225000  0.17531500  0.41260500  1
  O  O39  1  0.14082000  0.82088400  0.90390400  1
  O  O40  1  0.26026600  0.40362300  0.29315500  1
  O  O41  1  0.24931900  0.05047300  0.02871600  1
  O  O42  1  0.25829900  0.40545100  0.49459800  1
  O  O43  1  0.25257800  0.59567000  0.79034600  1
  O  O44  1  0.24888800  0.93005800  0.50795000  1
  O  O45  1  0.27232200  0.10540000  0.22014800  1
  O  O46  1  0.24938600  0.59276600  0.99153400  1
  O  O47  1  0.26358600  0.90040200  0.70288600  1
  O  O48  1  0.33121600  0.31958700  0.08507000  1
  O  O49  1  0.33769000  0.67257600  0.58122800  1
  O  O50  1  0.36504600  0.81422400  0.30225100  1
  O  O51  1  0.38744200  0.19462700  0.81040100  1
  O  O52  1  0.42541200  0.60466100  0.16113000  1
  O  O53  1  0.43744800  0.40208600  0.66471800  1
  O  O54  1  0.47739000  0.08019800  0.40206000  1
  O  O55  1  0.46654100  0.90157900  0.90631800  1
  O  O56  1  0.52168400  0.11112000  0.09879300  1
  O  O57  1  0.51946800  0.88593700  0.58674100  1
  O  O58  1  0.55886900  0.61328400  0.33923800  1
  O  O59  1  0.58105400  0.39379300  0.83590200  1
  O  O60  1  0.61329400  0.81125600  0.18745700  1
  O  O61  1  0.62733200  0.19246700  0.68264500  1
  O  O62  1  0.63254300  0.31309500  0.41258900  1
  O  O63  1  0.64253600  0.68653500  0.91505300  1
  O  O64  1  0.73482400  0.09707300  0.28959800  1
  O  O65  1  0.74976000  0.41395900  0.00299100  1
  O  O66  1  0.72140700  0.90857100  0.78790700  1
  O  O67  1  0.74600600  0.05581500  0.48394700  1
  O  O68  1  0.73098500  0.40211700  0.20274300  1
  O  O69  1  0.73880800  0.59232200  0.51587100  1
  O  O70  1  0.73960400  0.94809400  0.98070300  1
  O  O71  1  0.74712500  0.59770300  0.71583900  1
  O  O72  1  0.85739700  0.18328300  0.08919200  1
  O  O73  1  0.85549100  0.82111500  0.59794000  1
  O  O74  1  0.87072100  0.72306200  0.31684300  1
  O  O75  1  0.87859800  0.27961300  0.81130900  1
  O  O76  1  0.93269400  0.91233600  0.16043600  1
  O  O77  1  0.95447100  0.08449100  0.66171400  1
  O  O78  1  0.99644600  0.40265500  0.39431400  1
  O  O79  1  0.98899000  0.58289100  0.89149400  1
