# generated using pymatgen
data_Li7Mn2(CoO4)3
_symmetry_space_group_name_H-M   'P 1'
_cell_length_a   5.05572998
_cell_length_b   4.97888901
_cell_length_c   9.83921310
_cell_angle_alpha   92.48441387
_cell_angle_beta   95.01326035
_cell_angle_gamma   117.83538094
_symmetry_Int_Tables_number   1
_chemical_formula_structural   Li7Mn2(CoO4)3
_chemical_formula_sum   'Li7 Mn2 Co3 O12'
_cell_volume   217.17884572
_cell_formula_units_Z   1
loop_
 _symmetry_equiv_pos_site_id
 _symmetry_equiv_pos_as_xyz
  1  'x, y, z'
loop_
 _atom_site_type_symbol
 _atom_site_label
 _atom_site_symmetry_multiplicity
 _atom_site_fract_x
 _atom_site_fract_y
 _atom_site_fract_z
 _atom_site_occupancy
  Li  Li0  1  0.83009600  0.16480100  0.49964800  1
  Li  Li1  1  0.09102800  0.43015900  0.27588600  1
  Li  Li2  1  0.57116200  0.90965700  0.72503200  1
  Li  Li3  1  0.45241900  0.10328600  0.27477500  1
  Li  Li4  1  0.90262200  0.55948500  0.72868700  1
  Li  Li5  1  0.74759800  0.75625200  0.26695700  1
  Li  Li6  1  0.23366400  0.24144400  0.72965900  1
  Mn  Mn7  1  0.00028800  0.00010800  0.00031000  1
  Mn  Mn8  1  0.66195900  0.33580800  0.99953600  1
  Co  Co9  1  0.33396600  0.66575200  0.99993300  1
  Co  Co10  1  0.51793900  0.49988000  0.50259400  1
  Co  Co11  1  0.15667200  0.82921200  0.49748800  1
  O  O12  1  0.68624800  0.01950400  0.10461600  1
  O  O13  1  0.97385200  0.31707300  0.89558400  1
  O  O14  1  0.21609600  0.57561100  0.61322800  1
  O  O15  1  0.43923600  0.76949100  0.38688700  1
  O  O16  1  0.02277300  0.68030400  0.10219000  1
  O  O17  1  0.39655200  0.38726200  0.11192300  1
  O  O18  1  0.31364700  0.98302700  0.89672400  1
  O  O19  1  0.60450700  0.61259900  0.88797300  1
  O  O20  1  0.53399500  0.22539900  0.62198500  1
  O  O21  1  0.88443400  0.86465200  0.61558000  1
  O  O22  1  0.79272400  0.46869300  0.37971200  1
  O  O23  1  0.13652200  0.10054200  0.38309400  1
