# generated using pymatgen
data_LiMnSnO4
_symmetry_space_group_name_H-M   'P 1'
_cell_length_a   5.94889000
_cell_length_b   5.94889000
_cell_length_c   9.22073500
_cell_angle_alpha   90.00000000
_cell_angle_beta   90.00000000
_cell_angle_gamma   90.00000000
_symmetry_Int_Tables_number   1
_chemical_formula_structural   LiMnSnO4
_chemical_formula_sum   'Li4 Mn4 Sn4 O16'
_cell_volume   326.31528551
_cell_formula_units_Z   4
loop_
 _symmetry_equiv_pos_site_id
 _symmetry_equiv_pos_as_xyz
  1  'x, y, z'
loop_
 _atom_site_type_symbol
 _atom_site_label
 _atom_site_symmetry_multiplicity
 _atom_site_fract_x
 _atom_site_fract_y
 _atom_site_fract_z
 _atom_site_occupancy
  Li  Li0  1  0.00000000  0.23314700  0.00000000  1
  Li  Li1  1  0.00000000  0.76685300  0.50000000  1
  Li  Li2  1  0.23314700  0.00000000  0.25000000  1
  Li  Li3  1  0.76685300  0.00000000  0.75000000  1
  Mn  Mn4  1  0.23749800  0.50000000  0.25000000  1
  Mn  Mn5  1  0.50000000  0.23749800  0.00000000  1
  Mn  Mn6  1  0.50000000  0.76250200  0.50000000  1
  Mn  Mn7  1  0.76250200  0.50000000  0.75000000  1
  Sn  Sn8  1  0.26031800  0.26031800  0.62500000  1
  Sn  Sn9  1  0.26031800  0.73968200  0.87500000  1
  Sn  Sn10  1  0.73968200  0.26031800  0.37500000  1
  Sn  Sn11  1  0.73968200  0.73968200  0.12500000  1
  O  O12  1  0.01342400  0.26128700  0.25170700  1
  O  O13  1  0.01342400  0.73871300  0.24829300  1
  O  O14  1  0.26128700  0.01342400  0.99829300  1
  O  O15  1  0.26128700  0.98657600  0.50170700  1
  O  O16  1  0.26205500  0.47332300  0.00771500  1
  O  O17  1  0.26205500  0.52667700  0.49228500  1
  O  O18  1  0.47332300  0.26205500  0.24228500  1
  O  O19  1  0.47332300  0.73794500  0.25771500  1
  O  O20  1  0.52667700  0.26205500  0.75771500  1
  O  O21  1  0.52667700  0.73794500  0.74228500  1
  O  O22  1  0.73794500  0.52667700  0.50771500  1
  O  O23  1  0.73794500  0.47332300  0.99228500  1
  O  O24  1  0.73871300  0.01342400  0.00170700  1
  O  O25  1  0.73871300  0.98657600  0.49829300  1
  O  O26  1  0.98657600  0.26128700  0.74829300  1
  O  O27  1  0.98657600  0.73871300  0.75170700  1
