# generated using pymatgen
data_Li2SiNiO4
_symmetry_space_group_name_H-M   'P 1'
_cell_length_a   4.97693887
_cell_length_b   8.75203588
_cell_length_c   12.36479065
_cell_angle_alpha   109.14554951
_cell_angle_beta   100.36715919
_cell_angle_gamma   90.60279897
_symmetry_Int_Tables_number   1
_chemical_formula_structural   Li2SiNiO4
_chemical_formula_sum   'Li12 Si6 Ni6 O24'
_cell_volume   499.08999029
_cell_formula_units_Z   6
loop_
 _symmetry_equiv_pos_site_id
 _symmetry_equiv_pos_as_xyz
  1  'x, y, z'
loop_
 _atom_site_type_symbol
 _atom_site_label
 _atom_site_symmetry_multiplicity
 _atom_site_fract_x
 _atom_site_fract_y
 _atom_site_fract_z
 _atom_site_occupancy
  Li  Li0  1  0.19469844  0.51286098  0.58635192  1
  Li  Li1  1  0.69390811  0.01321315  0.58618778  1
  Li  Li2  1  0.67720237  0.80052982  0.92584966  1
  Li  Li3  1  0.17700471  0.30074037  0.92619782  1
  Li  Li4  1  0.00610428  0.55960725  0.24367505  1
  Li  Li5  1  0.50534664  0.05913156  0.24386405  1
  Li  Li6  1  0.24619499  0.70547323  0.07376522  1
  Li  Li7  1  0.74652767  0.20591074  0.07362943  1
  Li  Li8  1  0.27204919  0.93566348  0.74665442  1
  Li  Li9  1  0.77170558  0.43586197  0.74702165  1
  Li  Li10  1  0.10730463  0.98241899  0.42176486  1
  Li  Li11  1  0.60885313  0.48332461  0.42199877  1
  Si  Si12  1  0.24711584  0.24180785  0.66805969  1
  Si  Si13  1  0.74752239  0.74172607  0.66806586  1
  Si  Si14  1  0.56698538  0.76088366  0.33313869  1
  Si  Si15  1  0.06721016  0.26098777  0.33289200  1
  Si  Si16  1  0.67419044  0.50258747  0.00004547  1
  Si  Si17  1  0.17492981  0.00259123  0.99987802  1
  Ni  Ni18  1  0.37612816  0.35127322  0.18380566  1
  Ni  Ni19  1  0.71241123  0.22662040  0.48559034  1
  Ni  Ni20  1  0.70173119  0.14970717  0.82326274  1
  Ni  Ni21  1  0.87394845  0.85165150  0.18224384  1
  Ni  Ni22  1  0.21230245  0.72554084  0.48529708  1
  Ni  Ni23  1  0.20202630  0.64962951  0.82293055  1
  O  O24  1  0.46161313  0.62243954  0.95528286  1
  O  O25  1  0.96191350  0.12238139  0.95527056  1
  O  O26  1  0.41478354  0.57924488  0.30695584  1
  O  O27  1  0.91678380  0.07891962  0.30648992  1
  O  O28  1  0.04628433  0.74131206  0.62576962  1
  O  O29  1  0.54548983  0.24213476  0.62559950  1
  O  O30  1  0.51407362  0.62130814  0.56049653  1
  O  O31  1  0.01348465  0.12160242  0.56048104  1
  O  O32  1  0.99714845  0.32584303  0.22055566  1
  O  O33  1  0.49765931  0.82541882  0.22063180  1
  O  O34  1  0.31327104  0.88824853  0.89213610  1
  O  O35  1  0.81238414  0.38825978  0.89219145  1
  O  O36  1  0.64706577  0.92705850  0.70595275  1
  O  O37  1  0.14666897  0.42708610  0.70617394  1
  O  O38  1  0.90489655  0.75705173  0.36251290  1
  O  O39  1  0.40562946  0.25777376  0.36193264  1
  O  O40  1  0.00296682  0.88554864  0.04920107  1
  O  O41  1  0.50262819  0.38589497  0.04977128  1
  O  O42  1  0.91937017  0.61506515  0.10602160  1
  O  O43  1  0.41992754  0.11487803  0.10613243  1
  O  O44  1  0.45147062  0.88367112  0.44515748  1
  O  O45  1  0.95190525  0.38361033  0.44506699  1
  O  O46  1  0.29462124  0.17271012  0.77893850  1
  O  O47  1  0.79452054  0.67276574  0.77903098  1
