# generated using pymatgen
data_Li9Mn2Co5O16
_symmetry_space_group_name_H-M   'P 1'
_cell_length_a   5.12169200
_cell_length_b   7.65320107
_cell_length_c   7.85048913
_cell_angle_alpha   81.66618455
_cell_angle_beta   84.58646913
_cell_angle_gamma   71.66493364
_symmetry_Int_Tables_number   1
_chemical_formula_structural   Li9Mn2Co5O16
_chemical_formula_sum   'Li9 Mn2 Co5 O16'
_cell_volume   288.62240059
_cell_formula_units_Z   1
loop_
 _symmetry_equiv_pos_site_id
 _symmetry_equiv_pos_as_xyz
  1  'x, y, z'
loop_
 _atom_site_type_symbol
 _atom_site_label
 _atom_site_symmetry_multiplicity
 _atom_site_fract_x
 _atom_site_fract_y
 _atom_site_fract_z
 _atom_site_occupancy
  Li  Li0  1  0.50094900  0.56049800  0.82596100  1
  Li  Li1  1  0.49922700  0.81522200  0.06204700  1
  Li  Li2  1  0.49905100  0.43950200  0.17403900  1
  Li  Li3  1  0.50040300  0.69024700  0.43505800  1
  Li  Li4  1  0.49959700  0.30975300  0.56494200  1
  Li  Li5  1  0.50077300  0.18477800  0.93795300  1
  Li  Li6  1  0.49818700  0.06349900  0.30796800  1
  Li  Li7  1  0.50181300  0.93650100  0.69203200  1
  Li  Li8  1  0.00000000  0.50000000  0.00000000  1
  Mn  Mn9  1  0.99982300  0.62323800  0.62796900  1
  Mn  Mn10  1  0.00017700  0.37676200  0.37203100  1
  Co  Co11  1  0.00548000  0.86410800  0.88002300  1
  Co  Co12  1  0.99452000  0.13589200  0.11997700  1
  Co  Co13  1  0.99936800  0.75230400  0.23994500  1
  Co  Co14  1  0.00000000  0.00000000  0.50000000  1
  Co  Co15  1  0.00063200  0.24769600  0.76005500  1
  O  O16  1  0.78075800  0.46846100  0.58520300  1
  O  O17  1  0.77542400  0.71315200  0.82229200  1
  O  O18  1  0.76152000  0.32856100  0.97265500  1
  O  O19  1  0.77435000  0.59047100  0.23436700  1
  O  O20  1  0.76870300  0.22547300  0.34765900  1
  O  O21  1  0.77856500  0.09043300  0.72140400  1
  O  O22  1  0.76272900  0.96173200  0.08965500  1
  O  O23  1  0.77829100  0.83921200  0.47581400  1
  O  O24  1  0.23848000  0.67143900  0.02734500  1
  O  O25  1  0.22143500  0.90956700  0.27859600  1
  O  O26  1  0.21924200  0.53153900  0.41479700  1
  O  O27  1  0.23129700  0.77452700  0.65234100  1
  O  O28  1  0.22565000  0.40952900  0.76563300  1
  O  O29  1  0.22457600  0.28684800  0.17770800  1
  O  O30  1  0.22170900  0.16078800  0.52418600  1
  O  O31  1  0.23727100  0.03826800  0.91034500  1
