# generated using pymatgen
data_Li7Mn5O12
_symmetry_space_group_name_H-M   'P 1'
_cell_length_a   5.08930896
_cell_length_b   15.07506216
_cell_length_c   5.99169773
_cell_angle_alpha   93.96345275
_cell_angle_beta   103.96584038
_cell_angle_gamma   96.85389440
_symmetry_Int_Tables_number   1
_chemical_formula_structural   Li7Mn5O12
_chemical_formula_sum   'Li14 Mn10 O24'
_cell_volume   440.62298148
_cell_formula_units_Z   2
loop_
 _symmetry_equiv_pos_site_id
 _symmetry_equiv_pos_as_xyz
  1  'x, y, z'
loop_
 _atom_site_type_symbol
 _atom_site_label
 _atom_site_symmetry_multiplicity
 _atom_site_fract_x
 _atom_site_fract_y
 _atom_site_fract_z
 _atom_site_occupancy
  Li  Li0  1  0.56270900  0.07882400  0.15058200  1
  Li  Li1  1  0.10376200  0.58786700  0.18266000  1
  Li  Li2  1  0.58047200  0.08096600  0.66835900  1
  Li  Li3  1  0.08623500  0.58576400  0.66498000  1
  Li  Li4  1  0.33337500  0.33334200  0.16665900  1
  Li  Li5  1  0.83332100  0.83336000  0.16652600  1
  Li  Li6  1  0.76415300  0.25346700  0.51440800  1
  Li  Li7  1  0.24862800  0.75546500  0.49614500  1
  Li  Li8  1  0.90235800  0.41321500  0.81885900  1
  Li  Li9  1  0.41824300  0.91117300  0.83711000  1
  Li  Li10  1  0.74050800  0.25283200  0.00377500  1
  Li  Li11  1  0.23802700  0.75386200  0.00562600  1
  Li  Li12  1  0.92606000  0.41387800  0.32932500  1
  Li  Li13  1  0.42869300  0.91276100  0.32749900  1
  Mn  Mn14  1  0.83365800  0.83327100  0.66678100  1
  Mn  Mn15  1  0.49458300  0.49818700  0.99281900  1
  Mn  Mn16  1  0.99016200  0.99845400  0.99894900  1
  Mn  Mn17  1  0.17187300  0.16856500  0.34052700  1
  Mn  Mn18  1  0.67626200  0.66823600  0.33434900  1
  Mn  Mn19  1  0.33344600  0.33337200  0.66675300  1
  Mn  Mn20  1  0.49606700  0.49792700  0.48722800  1
  Mn  Mn21  1  0.99462000  0.99682200  0.49132900  1
  Mn  Mn22  1  0.17057500  0.16862700  0.84599300  1
  Mn  Mn23  1  0.67167300  0.66974900  0.84174900  1
  O  O24  1  0.27262200  0.05043700  0.84507700  1
  O  O25  1  0.74934500  0.54011400  0.80294300  1
  O  O26  1  0.91717800  0.12644100  0.53001700  1
  O  O27  1  0.39309500  0.61608700  0.48760500  1
  O  O28  1  0.27886700  0.04724700  0.34981400  1
  O  O29  1  0.77566600  0.54186500  0.34500300  1
  O  O30  1  0.89070600  0.12477800  0.98752000  1
  O  O31  1  0.38652300  0.61941200  0.98296400  1
  O  O32  1  0.42160900  0.20276300  0.14832500  1
  O  O33  1  0.94846700  0.70290600  0.17940300  1
  O  O34  1  0.24566900  0.46357400  0.18481600  1
  O  O35  1  0.71750600  0.96410600  0.15418000  1
  O  O36  1  0.45052200  0.21594200  0.68995700  1
  O  O37  1  0.95084900  0.71534500  0.68920400  1
  O  O38  1  0.21671500  0.45068500  0.64323000  1
  O  O39  1  0.71689000  0.95155700  0.64514700  1
  O  O40  1  0.60462300  0.37834100  0.50815700  1
  O  O41  1  0.10747300  0.87813400  0.51035100  1
  O  O42  1  0.06262400  0.28817600  0.82587700  1
  O  O43  1  0.55929500  0.78828900  0.82330000  1
  O  O44  1  0.59478700  0.37735900  0.96675500  1
  O  O45  1  0.09146300  0.87796700  0.96742800  1
  O  O46  1  0.07267000  0.28962000  0.36703800  1
  O  O47  1  0.57537500  0.78886600  0.36689800  1
