# generated using pymatgen
data_Li9Mn2Co5O16
_symmetry_space_group_name_H-M   'P 1'
_cell_length_a   5.90662100
_cell_length_b   7.63790331
_cell_length_c   7.71739961
_cell_angle_alpha   65.51302606
_cell_angle_beta   68.68616516
_cell_angle_gamma   69.17137105
_symmetry_Int_Tables_number   1
_chemical_formula_structural   Li9Mn2Co5O16
_chemical_formula_sum   'Li9 Mn2 Co5 O16'
_cell_volume   286.42559649
_cell_formula_units_Z   1
loop_
 _symmetry_equiv_pos_site_id
 _symmetry_equiv_pos_as_xyz
  1  'x, y, z'
loop_
 _atom_site_type_symbol
 _atom_site_label
 _atom_site_symmetry_multiplicity
 _atom_site_fract_x
 _atom_site_fract_y
 _atom_site_fract_z
 _atom_site_occupancy
  Li  Li0  1  0.37480500  0.62256900  0.12631100  1
  Li  Li1  1  0.24344800  0.25516900  0.24813500  1
  Li  Li2  1  0.62600900  0.37625800  0.87471800  1
  Li  Li3  1  0.50428900  0.99501000  0.00099200  1
  Li  Li4  1  0.87225300  0.12513900  0.62554000  1
  Li  Li5  1  0.75093000  0.74620400  0.76040700  1
  Li  Li6  1  0.12807200  0.87664700  0.37234900  1
  Li  Li7  1  0.00038500  0.50436100  0.49138900  1
  Li  Li8  1  0.87291400  0.62539100  0.12477300  1
  Mn  Mn9  1  0.00342600  0.99570000  0.00373600  1
  Mn  Mn10  1  0.50056400  0.49995400  0.49594300  1
  Co  Co11  1  0.75049500  0.25361600  0.24686500  1
  Co  Co12  1  0.63707500  0.86823400  0.37061100  1
  Co  Co13  1  0.37154300  0.12524400  0.62379700  1
  Co  Co14  1  0.24101700  0.74571900  0.75863700  1
  Co  Co15  1  0.11427900  0.37946700  0.88142400  1
  O  O16  1  0.99266100  0.77050200  0.23621000  1
  O  O17  1  0.83649500  0.37797600  0.37860300  1
  O  O18  1  0.25168400  0.50236200  0.98040200  1
  O  O19  1  0.12451200  0.12307100  0.11517600  1
  O  O20  1  0.48841300  0.26163000  0.72911000  1
  O  O21  1  0.35029600  0.88303800  0.88140100  1
  O  O22  1  0.73231200  0.01344500  0.48371900  1
  O  O23  1  0.61549600  0.62235400  0.61653700  1
  O  O24  1  0.76249200  0.47967500  0.01209100  1
  O  O25  1  0.66164000  0.11754300  0.12210300  1
  O  O26  1  0.01285000  0.23674300  0.76737100  1
  O  O27  1  0.89214800  0.88079600  0.87699100  1
  O  O28  1  0.26222500  0.99604000  0.51320500  1
  O  O29  1  0.14864500  0.61622400  0.62235700  1
  O  O30  1  0.50244000  0.74283900  0.27485400  1
  O  O31  1  0.37418800  0.38108400  0.38423500  1
