# generated using pymatgen
data_Li6V3P8O29
_symmetry_space_group_name_H-M   'P 1'
_cell_length_a   9.83616100
_cell_length_b   9.85885547
_cell_length_c   13.93804838
_cell_angle_alpha   89.74156737
_cell_angle_beta   89.76402195
_cell_angle_gamma   60.19627933
_symmetry_Int_Tables_number   1
_chemical_formula_structural   Li6V3P8O29
_chemical_formula_sum   'Li12 V6 P16 O58'
_cell_volume   1172.82946042
_cell_formula_units_Z   2
loop_
 _symmetry_equiv_pos_site_id
 _symmetry_equiv_pos_as_xyz
  1  'x, y, z'
loop_
 _atom_site_type_symbol
 _atom_site_label
 _atom_site_symmetry_multiplicity
 _atom_site_fract_x
 _atom_site_fract_y
 _atom_site_fract_z
 _atom_site_occupancy
  Li  Li0  1  0.68291000  0.09001200  0.44154800  1
  Li  Li1  1  0.22593900  0.68906400  0.44168400  1
  Li  Li2  1  0.33301800  0.33148900  0.61929500  1
  Li  Li3  1  0.33779800  0.32972900  0.11410400  1
  Li  Li4  1  0.09023700  0.68384300  0.93541900  1
  Li  Li5  1  0.22712200  0.09132200  0.93459400  1
  Li  Li6  1  0.90420600  0.77238400  0.56334200  1
  Li  Li7  1  0.09001000  0.22287000  0.44372900  1
  Li  Li8  1  0.77277900  0.91007600  0.05786500  1
  Li  Li9  1  0.90522400  0.31681800  0.05473500  1
  Li  Li10  1  0.77354300  0.32345500  0.56364800  1
  Li  Li11  1  0.32262000  0.77374500  0.05686400  1
  V  V12  1  0.99787200  0.56868700  0.75264700  1
  V  V13  1  0.99660800  0.43512800  0.24914500  1
  V  V14  1  0.56837600  0.99931200  0.25204000  1
  V  V15  1  0.43713300  0.99191300  0.74460600  1
  V  V16  1  0.56544200  0.43263700  0.75456300  1
  V  V17  1  0.43467500  0.56839700  0.25201900  1
  P  P18  1  0.68099700  0.23117400  0.15842200  1
  P  P19  1  0.68229100  0.08920300  0.65908800  1
  P  P20  1  0.23058200  0.67891900  0.65741000  1
  P  P21  1  0.33190600  0.33197400  0.87301300  1
  P  P22  1  0.33102700  0.33467900  0.37359500  1
  P  P23  1  0.09109200  0.67965200  0.15878800  1
  P  P24  1  0.91277700  0.76679000  0.34233500  1
  P  P25  1  0.23088800  0.08903100  0.15555800  1
  P  P26  1  0.76635400  0.91319400  0.84363000  1
  P  P27  1  0.09174300  0.23041000  0.65807800  1
  P  P28  1  0.91179900  0.31756500  0.84106000  1
  P  P29  1  0.66784700  0.66448400  0.62632400  1
  P  P30  1  0.66805900  0.66855100  0.12633400  1
  P  P31  1  0.76768100  0.31709500  0.34375200  1
  P  P32  1  0.31538900  0.91604400  0.34156200  1
  P  P33  1  0.31913600  0.76799900  0.84089700  1
  O  O34  1  0.75230300  0.24461400  0.43498200  1
  O  O35  1  0.66816900  0.25182400  0.65751800  1
  O  O36  1  0.76326700  0.99327500  0.93411900  1
  O  O37  1  0.66056200  0.08351600  0.16113000  1
  O  O38  1  0.51497100  0.37448400  0.17443700  1
  O  O39  1  0.47855500  0.33557400  0.82853800  1
  O  O40  1  0.37477900  0.51384300  0.67318600  1
  O  O41  1  0.24141100  0.75530600  0.93140100  1
  O  O42  1  0.25691100  0.66337200  0.16016300  1
  O  O43  1  0.48410400  0.18727600  0.33597600  1
  O  O44  1  0.51483400  0.11234400  0.67371400  1
  O  O45  1  0.32652600  0.48757100  0.33498500  1
  O  O46  1  0.33193900  0.33398300  0.98085000  1
  O  O47  1  0.32796500  0.33463100  0.48134200  1
  O  O48  1  0.18430500  0.48686100  0.83660900  1
  O  O49  1  0.37349900  0.11236300  0.17388700  1
  O  O50  1  0.33145400  0.18394800  0.83400500  1
  O  O51  1  0.08106500  0.66067300  0.66227400  1
  O  O52  1  0.00281200  0.78711000  0.24999800  1
  O  O53  1  0.00107700  0.75666700  0.43202400  1
  O  O54  1  0.00255200  0.75655400  0.06907500  1
  O  O55  1  0.11314200  0.51372200  0.17417700  1
  O  O56  1  0.18217400  0.33268300  0.33199200  1
  O  O57  1  0.91618900  0.74802800  0.83890200  1
  O  O58  1  0.11100900  0.37585700  0.67393100  1
  O  O59  1  0.25461700  0.08653900  0.65929700  1
  O  O60  1  0.78838900  0.00057100  0.75022000  1
  O  O61  1  0.75784800  0.99727000  0.56928000  1
  O  O62  1  0.23267600  0.00894000  0.42689800  1
  O  O63  1  0.75001700  0.91746000  0.34057400  1
  O  O64  1  0.90002200  0.62003900  0.32525700  1
  O  O65  1  0.08150200  0.25141900  0.15663000  1
  O  O66  1  0.81389300  0.66996500  0.66636500  1
  O  O67  1  0.90760400  0.47583100  0.82210900  1
  O  O68  1  0.00424300  0.24299600  0.93054300  1
  O  O69  1  0.99723200  0.24608100  0.56979700  1
  O  O70  1  0.00098700  0.21121500  0.74953900  1
  O  O71  1  0.91398500  0.33486700  0.34219200  1
  O  O72  1  0.67466600  0.81350800  0.16670500  1
  O  O73  1  0.61712200  0.90419400  0.82570900  1
  O  O74  1  0.81894700  0.51558700  0.17037000  1
  O  O75  1  0.67609600  0.65949000  0.01996200  1
  O  O76  1  0.66697100  0.66455900  0.51979200  1
  O  O77  1  0.66384600  0.51676400  0.66866200  1
  O  O78  1  0.47595500  0.90810000  0.32185800  1
  O  O79  1  0.51969800  0.81425000  0.67128100  1
  O  O80  1  0.74762400  0.34119100  0.84017100  1
  O  O81  1  0.78351400  0.20838800  0.25458700  1
  O  O82  1  0.76881700  0.23753900  0.07396500  1
  O  O83  1  0.61721500  0.47624000  0.32288200  1
  O  O84  1  0.51755400  0.67130900  0.16754900  1
  O  O85  1  0.47975500  0.62179600  0.82521800  1
  O  O86  1  0.33169800  0.91737900  0.84021900  1
  O  O87  1  0.24529600  0.99886300  0.06583400  1
  O  O88  1  0.21434900  0.99500400  0.24522100  1
  O  O89  1  0.33746300  0.74912000  0.34054800  1
  O  O90  1  0.23536700  0.75522900  0.56673600  1
  O  O91  1  0.21078500  0.78565700  0.74945100  1
