# generated using pymatgen
data_SrLiTi4CrO11
_symmetry_space_group_name_H-M   'P 1'
_cell_length_a   13.95195600
_cell_length_b   5.86433800
_cell_length_c   11.59200305
_cell_angle_alpha   59.66532928
_cell_angle_beta   90.00000000
_cell_angle_gamma   90.00000000
_symmetry_Int_Tables_number   1
_chemical_formula_structural   SrLiTi4CrO11
_chemical_formula_sum   'Sr4 Li4 Ti16 Cr4 O44'
_cell_volume   818.59428870
_cell_formula_units_Z   4
loop_
 _symmetry_equiv_pos_site_id
 _symmetry_equiv_pos_as_xyz
  1  'x, y, z'
loop_
 _atom_site_type_symbol
 _atom_site_label
 _atom_site_symmetry_multiplicity
 _atom_site_fract_x
 _atom_site_fract_y
 _atom_site_fract_z
 _atom_site_occupancy
  Sr  Sr0  1  0.90341800  0.84809300  0.89618500  1
  Sr  Sr1  1  0.40341800  0.15190700  0.60381500  1
  Sr  Sr2  1  0.59658200  0.84809300  0.39618500  1
  Sr  Sr3  1  0.09658200  0.15190700  0.10381500  1
  Li  Li4  1  0.45644000  0.82521300  0.92137500  1
  Li  Li5  1  0.95644000  0.17478700  0.57862500  1
  Li  Li6  1  0.04356000  0.82521300  0.42137500  1
  Li  Li7  1  0.54356000  0.17478700  0.07862500  1
  Ti  Ti8  1  0.33206500  0.82781000  0.16689200  1
  Ti  Ti9  1  0.16447500  0.35643300  0.39018300  1
  Ti  Ti10  1  0.17245900  0.81211100  0.93444100  1
  Ti  Ti11  1  0.99877800  0.53624600  0.22164400  1
  Ti  Ti12  1  0.66447500  0.64356700  0.10981700  1
  Ti  Ti13  1  0.49877800  0.46375400  0.27835600  1
  Ti  Ti14  1  0.67245900  0.18788900  0.56555900  1
  Ti  Ti15  1  0.83206500  0.17219000  0.33310800  1
  Ti  Ti16  1  0.16793500  0.82781000  0.66689200  1
  Ti  Ti17  1  0.33552500  0.35643300  0.89018300  1
  Ti  Ti18  1  0.00122200  0.46375400  0.77835600  1
  Ti  Ti19  1  0.50122200  0.53624600  0.72164400  1
  Ti  Ti20  1  0.83552500  0.64356700  0.60981700  1
  Ti  Ti21  1  0.32754100  0.81211100  0.43444100  1
  Ti  Ti22  1  0.82754100  0.18788900  0.06555900  1
  Ti  Ti23  1  0.66793500  0.17219000  0.83310800  1
  Cr  Cr24  1  0.82971100  0.66793200  0.33220300  1
  Cr  Cr25  1  0.32971100  0.33206800  0.16779700  1
  Cr  Cr26  1  0.67028900  0.66793200  0.83220300  1
  Cr  Cr27  1  0.17028900  0.33206800  0.66779700  1
  O  O28  1  0.75651900  0.00883200  0.99436700  1
  O  O29  1  0.25852400  0.49614800  0.50520000  1
  O  O30  1  0.58327700  0.31923600  0.67429000  1
  O  O31  1  0.08360400  0.16927900  0.83046700  1
  O  O32  1  0.58808900  0.78788700  0.18475300  1
  O  O33  1  0.08680700  0.65620300  0.31505300  1
  O  O34  1  0.73792800  0.01551500  0.74081500  1
  O  O35  1  0.75760900  0.49641000  0.24846400  1
  O  O36  1  0.23792800  0.98448500  0.75918500  1
  O  O37  1  0.56535600  0.31160400  0.44163300  1
  O  O38  1  0.91380200  0.35160900  0.39428400  1
  O  O39  1  0.60276900  0.82551900  0.92907300  1
  O  O40  1  0.10276900  0.17448100  0.57092700  1
  O  O41  1  0.25760900  0.50359000  0.25153600  1
  O  O42  1  0.41380200  0.64839100  0.10571600  1
  O  O43  1  0.06535600  0.68839600  0.05836700  1
  O  O44  1  0.08808900  0.21211300  0.31524700  1
  O  O45  1  0.58680700  0.34379700  0.18494700  1
  O  O46  1  0.58360400  0.83072100  0.66953300  1
  O  O47  1  0.08327700  0.68076400  0.82571000  1
  O  O48  1  0.75852400  0.50385200  0.99480000  1
  O  O49  1  0.25651900  0.99116800  0.50563300  1
  O  O50  1  0.74348100  0.00883200  0.49436700  1
  O  O51  1  0.24147600  0.49614800  0.00520000  1
  O  O52  1  0.41639600  0.16927900  0.33046700  1
  O  O53  1  0.91672300  0.31923600  0.17429000  1
  O  O54  1  0.41319300  0.65620300  0.81505300  1
  O  O55  1  0.91191100  0.78788700  0.68475300  1
  O  O56  1  0.93464400  0.31160400  0.94163300  1
  O  O57  1  0.74239100  0.49641000  0.74846400  1
  O  O58  1  0.24239100  0.50359000  0.75153600  1
  O  O59  1  0.08619800  0.64839100  0.60571600  1
  O  O60  1  0.43464400  0.68839600  0.55836700  1
  O  O61  1  0.89723100  0.82551900  0.42907300  1
  O  O62  1  0.26207200  0.98448500  0.25918500  1
  O  O63  1  0.76207200  0.01551500  0.24081500  1
  O  O64  1  0.39723100  0.17448100  0.07092700  1
  O  O65  1  0.58619800  0.35160900  0.89428400  1
  O  O66  1  0.41191100  0.21211300  0.81524700  1
  O  O67  1  0.91319300  0.34379700  0.68494700  1
  O  O68  1  0.41672300  0.68076400  0.32571000  1
  O  O69  1  0.91639600  0.83072100  0.16953300  1
  O  O70  1  0.74147600  0.50385200  0.49480000  1
  O  O71  1  0.24348100  0.99116800  0.00563300  1
