# generated using pymatgen
data_Li4Co5SnO12
_symmetry_space_group_name_H-M   'P 1'
_cell_length_a   5.14423922
_cell_length_b   5.08263634
_cell_length_c   19.84436496
_cell_angle_alpha   92.59813264
_cell_angle_beta   84.91444944
_cell_angle_gamma   120.32927570
_symmetry_Int_Tables_number   1
_chemical_formula_structural   Li4Co5SnO12
_chemical_formula_sum   'Li8 Co10 Sn2 O24'
_cell_volume   446.08165943
_cell_formula_units_Z   2
loop_
 _symmetry_equiv_pos_site_id
 _symmetry_equiv_pos_as_xyz
  1  'x, y, z'
loop_
 _atom_site_type_symbol
 _atom_site_label
 _atom_site_symmetry_multiplicity
 _atom_site_fract_x
 _atom_site_fract_y
 _atom_site_fract_z
 _atom_site_occupancy
  Li  Li0  1  0.20813400  0.33663400  0.37041100  1
  Li  Li1  1  0.71592900  0.34533300  0.86965100  1
  Li  Li2  1  0.63243200  0.33897200  0.12986600  1
  Li  Li3  1  0.12868500  0.33810800  0.63005300  1
  Li  Li4  1  0.87139200  0.66465400  0.37054100  1
  Li  Li5  1  0.37126900  0.66131800  0.87093400  1
  Li  Li6  1  0.29424700  0.66737800  0.12880100  1
  Li  Li7  1  0.78805800  0.66113100  0.62979800  1
  Co  Co8  1  0.74865500  0.99766400  0.75009800  1
  Co  Co9  1  0.58498500  0.66687100  0.24962200  1
  Co  Co10  1  0.08328500  0.66653500  0.75004100  1
  Co  Co11  1  0.91834900  0.33312700  0.24968400  1
  Co  Co12  1  0.41651200  0.33322000  0.75006300  1
  Co  Co13  1  0.25015100  0.99999800  0.25006700  1
  Co  Co14  1  0.83121200  0.66673500  0.50011700  1
  Co  Co15  1  0.33275700  0.66515500  0.99992000  1
  Co  Co16  1  0.66788100  0.33486100  0.99966200  1
  Co  Co17  1  0.16484200  0.33352300  0.50020200  1
  Sn  Sn18  1  0.99584300  0.99748700  0.00014800  1
  Sn  Sn19  1  0.50316700  0.00040700  0.50003900  1
  O  O20  1  0.91241300  0.00018800  0.29812000  1
  O  O21  1  0.40856400  0.99604900  0.79777100  1
  O  O22  1  0.58957100  0.00002800  0.20185400  1
  O  O23  1  0.08694100  0.99536900  0.70245500  1
  O  O24  1  0.33130100  0.98902700  0.05330300  1
  O  O25  1  0.82556200  0.99892100  0.55761700  1
  O  O26  1  0.17043700  0.00204200  0.44517200  1
  O  O27  1  0.66188000  0.99267700  0.94399800  1
  O  O28  1  0.63727000  0.64964400  0.05798100  1
  O  O29  1  0.13755800  0.64988100  0.55620200  1
  O  O30  1  0.51972700  0.65507300  0.44258800  1
  O  O31  1  0.00872000  0.65038700  0.94268200  1
  O  O32  1  0.99059700  0.35090800  0.05638900  1
  O  O33  1  0.48620400  0.34878700  0.55671800  1
  O  O34  1  0.86384900  0.34609800  0.44264900  1
  O  O35  1  0.35855900  0.35749900  0.94506900  1
  O  O36  1  0.29878700  0.33442500  0.19801200  1
  O  O37  1  0.78039200  0.35993000  0.69941300  1
  O  O38  1  0.96389400  0.66460600  0.19810200  1
  O  O39  1  0.41715200  0.64384700  0.69954300  1
  O  O40  1  0.53625200  0.33650200  0.30165100  1
  O  O41  1  0.07999100  0.36063000  0.80082600  1
  O  O42  1  0.20018700  0.66384900  0.30171500  1
  O  O43  1  0.72640900  0.64452300  0.80045400  1
