# generated using pymatgen
data_LiMn3(PO4)3
_symmetry_space_group_name_H-M   'P 1'
_cell_length_a   8.65339600
_cell_length_b   9.04480956
_cell_length_c   12.55063090
_cell_angle_alpha   104.67754178
_cell_angle_beta   100.84578260
_cell_angle_gamma   103.51534343
_symmetry_Int_Tables_number   1
_chemical_formula_structural   LiMn3(PO4)3
_chemical_formula_sum   'Li4 Mn12 P12 O48'
_cell_volume   891.41629010
_cell_formula_units_Z   4
loop_
 _symmetry_equiv_pos_site_id
 _symmetry_equiv_pos_as_xyz
  1  'x, y, z'
loop_
 _atom_site_type_symbol
 _atom_site_label
 _atom_site_symmetry_multiplicity
 _atom_site_fract_x
 _atom_site_fract_y
 _atom_site_fract_z
 _atom_site_occupancy
  Li  Li0  1  0.49847200  0.50595600  0.01256700  1
  Li  Li1  1  0.49957700  0.24897300  0.74920600  1
  Li  Li2  1  0.50092100  0.99332300  0.48832300  1
  Li  Li3  1  0.99161700  0.13187800  0.12075800  1
  Mn  Mn4  1  0.61139200  0.89013400  0.95821800  1
  Mn  Mn5  1  0.26096200  0.49524200  0.75592400  1
  Mn  Mn6  1  0.93292700  0.48348400  0.86682300  1
  Mn  Mn7  1  0.06640300  0.01619300  0.63180400  1
  Mn  Mn8  1  0.38574000  0.60857400  0.53978300  1
  Mn  Mn9  1  0.73785700  0.00149700  0.74106100  1
  Mn  Mn10  1  0.27399900  0.98145700  0.25769700  1
  Mn  Mn11  1  0.61338600  0.39035500  0.45628000  1
  Mn  Mn12  1  0.93457700  0.98679700  0.37142800  1
  Mn  Mn13  1  0.06638600  0.52011800  0.13085800  1
  Mn  Mn14  1  0.73392200  0.51760600  0.24727200  1
  Mn  Mn15  1  0.38396400  0.10750300  0.04238800  1
  P  P16  1  0.13212700  0.24042800  0.89208200  1
  P  P17  1  0.34951200  0.88385500  0.74870300  1
  P  P18  1  0.71194700  0.26885100  0.98043600  1
  P  P19  1  0.64975500  0.61553300  0.75067900  1
  P  P20  1  0.13339700  0.74147000  0.39372000  1
  P  P21  1  0.28770300  0.23139100  0.51995600  1
  P  P22  1  0.71193100  0.77333400  0.48050300  1
  P  P23  1  0.86486900  0.25965300  0.60832000  1
  P  P24  1  0.34328400  0.37258200  0.24341100  1
  P  P25  1  0.28838900  0.72657000  0.01876100  1
  P  P26  1  0.65435700  0.12336800  0.25393000  1
  P  P27  1  0.87052100  0.76400300  0.10834500  1
  O  O28  1  0.04226000  0.36055500  0.95003600  1
  O  O29  1  0.40892400  0.92838300  0.88411800  1
  O  O30  1  0.16640000  0.63348200  0.89900600  1
  O  O31  1  0.18181100  0.15365800  0.97956400  1
  O  O32  1  0.17831900  0.90828400  0.71929600  1
  O  O33  1  0.53660100  0.26663900  0.99471800  1
  O  O34  1  0.28068000  0.33396000  0.86227300  1
  O  O35  1  0.47746700  0.99121000  0.70957000  1
  O  O36  1  0.99712900  0.38312800  0.71464400  1
  O  O37  1  0.66834200  0.79646900  0.80155800  1
  O  O38  1  0.33347300  0.70391100  0.69970300  1
  O  O39  1  0.52310100  0.50971900  0.79165100  1
  O  O40  1  0.72672900  0.34829900  0.88466200  1
  O  O41  1  0.04340400  0.85965700  0.45406200  1
  O  O42  1  0.73740000  0.10049100  0.93812800  1
  O  O43  1  0.82158500  0.59211100  0.78097300  1
  O  O44  1  0.18732000  0.64900100  0.47432000  1
  O  O45  1  0.26818500  0.40049400  0.56594500  1
  O  O46  1  0.83441600  0.86628000  0.60062700  1
  O  O47  1  0.59061600  0.57214100  0.61592300  1
  O  O48  1  0.27289800  0.15161800  0.61624200  1
  O  O49  1  0.53785400  0.77393000  0.49820100  1
  O  O50  1  0.28097500  0.83988300  0.36619300  1
  O  O51  1  0.00390800  0.88863100  0.21348600  1
  O  O52  1  0.00181400  0.11576700  0.78604400  1
  O  O53  1  0.71892200  0.16395800  0.63984900  1
  O  O54  1  0.46284200  0.23171900  0.50473200  1
  O  O55  1  0.73289600  0.85881800  0.38893700  1
  O  O56  1  0.40662900  0.42731400  0.37834900  1
  O  O57  1  0.16441400  0.13347400  0.40196500  1
  O  O58  1  0.72869000  0.60352700  0.43207200  1
  O  O59  1  0.80990100  0.34821400  0.52486800  1
  O  O60  1  0.16619400  0.38912600  0.20819900  1
  O  O61  1  0.26995200  0.89593400  0.06684300  1
  O  O62  1  0.95565000  0.14101200  0.54945800  1
  O  O63  1  0.26885400  0.64223000  0.11111100  1
  O  O64  1  0.46617400  0.46101100  0.19212300  1
  O  O65  1  0.67519600  0.30564600  0.29834100  1
  O  O66  1  0.31481100  0.18781400  0.19984700  1
  O  O67  1  0.00302000  0.62007600  0.28528000  1
  O  O68  1  0.53472000  0.03288900  0.30618100  1
  O  O69  1  0.72372200  0.66427100  0.13554600  1
  O  O70  1  0.46304500  0.72613300  0.00192700  1
  O  O71  1  0.82617500  0.09501500  0.27584300  1
  O  O72  1  0.81903400  0.86740700  0.03317000  1
  O  O73  1  0.83742100  0.36367600  0.09872100  1
  O  O74  1  0.58749700  0.07069600  0.11825200  1
  O  O75  1  0.95726800  0.64494100  0.04547800  1
