# generated using pymatgen
data_Li3Fe2(PO4)3
_symmetry_space_group_name_H-M   'P 1'
_cell_length_a   9.03607471
_cell_length_b   9.03607471
_cell_length_c   9.03607440
_cell_angle_alpha   55.56637603
_cell_angle_beta   55.56637603
_cell_angle_gamma   55.56637655
_symmetry_Int_Tables_number   1
_chemical_formula_structural   Li3Fe2(PO4)3
_chemical_formula_sum   'Li6 Fe4 P6 O24'
_cell_volume   468.01505344
_cell_formula_units_Z   2
loop_
 _symmetry_equiv_pos_site_id
 _symmetry_equiv_pos_as_xyz
  1  'x, y, z'
loop_
 _atom_site_type_symbol
 _atom_site_label
 _atom_site_symmetry_multiplicity
 _atom_site_fract_x
 _atom_site_fract_y
 _atom_site_fract_z
 _atom_site_occupancy
  Li  Li0  1  0.07580100  0.33426400  0.73664200  1
  Li  Li1  1  0.33426400  0.73664200  0.07580100  1
  Li  Li2  1  0.73664200  0.07580100  0.33426400  1
  Li  Li3  1  0.92419900  0.66573600  0.26335800  1
  Li  Li4  1  0.66573600  0.26335800  0.92419900  1
  Li  Li5  1  0.26335800  0.92419900  0.66573600  1
  Fe  Fe6  1  0.14658600  0.14658600  0.14658600  1
  Fe  Fe7  1  0.85341400  0.85341400  0.85341400  1
  Fe  Fe8  1  0.65162700  0.65162700  0.65162700  1
  Fe  Fe9  1  0.34837300  0.34837300  0.34837300  1
  P  P10  1  0.95747000  0.25177000  0.53962200  1
  P  P11  1  0.25177000  0.53962200  0.95747000  1
  P  P12  1  0.53962200  0.95747000  0.25177000  1
  P  P13  1  0.04253000  0.74823000  0.46037800  1
  P  P14  1  0.74823000  0.46037800  0.04253000  1
  P  P15  1  0.46037800  0.04253000  0.74823000  1
  O  O16  1  0.99158800  0.20262500  0.38491100  1
  O  O17  1  0.20262500  0.38491100  0.99158800  1
  O  O18  1  0.38491100  0.99158800  0.20262500  1
  O  O19  1  0.00841200  0.79737500  0.61508900  1
  O  O20  1  0.79737500  0.61508900  0.00841200  1
  O  O21  1  0.61508900  0.00841200  0.79737500  1
  O  O22  1  0.84505300  0.79034900  0.46337200  1
  O  O23  1  0.79034900  0.46337200  0.84505300  1
  O  O24  1  0.46337200  0.84505300  0.79034900  1
  O  O25  1  0.15494700  0.20965100  0.53662800  1
  O  O26  1  0.20965100  0.53662800  0.15494700  1
  O  O27  1  0.53662800  0.15494700  0.20965100  1
  O  O28  1  0.83247400  0.46817500  0.50753700  1
  O  O29  1  0.46817500  0.50753700  0.83247400  1
  O  O30  1  0.50753700  0.83247400  0.46817500  1
  O  O31  1  0.16752600  0.53182500  0.49246300  1
  O  O32  1  0.53182500  0.49246300  0.16752600  1
  O  O33  1  0.49246300  0.16752600  0.53182500  1
  O  O34  1  0.13702400  0.87503200  0.25448500  1
  O  O35  1  0.87503200  0.25448500  0.13702400  1
  O  O36  1  0.25448500  0.13702400  0.87503200  1
  O  O37  1  0.86297600  0.12496800  0.74551500  1
  O  O38  1  0.12496800  0.74551500  0.86297600  1
  O  O39  1  0.74551500  0.86297600  0.12496800  1
