# generated using pymatgen
data_Li9Mn2Co5O16
_symmetry_space_group_name_H-M   'P 1'
_cell_length_a   5.07643500
_cell_length_b   5.97288717
_cell_length_c   10.14256571
_cell_angle_alpha   89.48057350
_cell_angle_beta   100.85353826
_cell_angle_gamma   105.98215968
_symmetry_Int_Tables_number   1
_chemical_formula_structural   Li9Mn2Co5O16
_chemical_formula_sum   'Li9 Mn2 Co5 O16'
_cell_volume   290.05875581
_cell_formula_units_Z   1
loop_
 _symmetry_equiv_pos_site_id
 _symmetry_equiv_pos_as_xyz
  1  'x, y, z'
loop_
 _atom_site_type_symbol
 _atom_site_label
 _atom_site_symmetry_multiplicity
 _atom_site_fract_x
 _atom_site_fract_y
 _atom_site_fract_z
 _atom_site_occupancy
  Li  Li0  1  0.49628700  0.37671800  0.13139900  1
  Li  Li1  1  0.99190700  0.25321800  0.26575400  1
  Li  Li2  1  0.00460100  0.49910200  0.99789800  1
  Li  Li3  1  0.51025800  0.13482600  0.38216900  1
  Li  Li4  1  0.01055800  0.00277600  0.50049700  1
  Li  Li5  1  0.48330300  0.86672300  0.61720500  1
  Li  Li6  1  0.98756200  0.74457700  0.73703200  1
  Li  Li7  1  0.50905400  0.62615800  0.86719600  1
  Li  Li8  1  0.00563700  0.49914000  0.49900100  1
  Mn  Mn9  1  0.99742100  0.99854700  0.99866700  1
  Mn  Mn10  1  0.50055400  0.87369000  0.12659200  1
  Co  Co11  1  0.01301100  0.74119900  0.26573600  1
  Co  Co12  1  0.52041700  0.61602800  0.38786300  1
  Co  Co13  1  0.49838200  0.37947500  0.62448400  1
  Co  Co14  1  0.99311900  0.25612000  0.73956300  1
  Co  Co15  1  0.48825800  0.12620800  0.86310100  1
  O  O16  1  0.25192600  0.04493600  0.17236600  1
  O  O17  1  0.73794100  0.92682600  0.29843800  1
  O  O18  1  0.74190900  0.15538100  0.05506600  1
  O  O19  1  0.24490000  0.81343900  0.42684600  1
  O  O20  1  0.74015700  0.69748900  0.55413900  1
  O  O21  1  0.26247800  0.53513900  0.68765500  1
  O  O22  1  0.73696300  0.42246500  0.80686300  1
  O  O23  1  0.22595400  0.28244300  0.93597800  1
  O  O24  1  0.75486200  0.71959000  0.06525500  1
  O  O25  1  0.27048700  0.59135900  0.18675300  1
  O  O26  1  0.24538400  0.82787400  0.95025800  1
  O  O27  1  0.75137300  0.45262500  0.30767700  1
  O  O28  1  0.27328300  0.32300700  0.44754600  1
  O  O29  1  0.74055400  0.20447800  0.57738700  1
  O  O30  1  0.24883900  0.05723600  0.69827300  1
  O  O31  1  0.76266100  0.95120600  0.82534300  1
