# generated using pymatgen
data_Li5V3P8O29
_symmetry_space_group_name_H-M   'P 1'
_cell_length_a   9.78378700
_cell_length_b   9.78524216
_cell_length_c   14.10318730
_cell_angle_alpha   90.22900748
_cell_angle_beta   89.99786307
_cell_angle_gamma   119.82513420
_symmetry_Int_Tables_number   1
_chemical_formula_structural   Li5V3P8O29
_chemical_formula_sum   'Li10 V6 P16 O58'
_cell_volume   1171.34402438
_cell_formula_units_Z   2
loop_
 _symmetry_equiv_pos_site_id
 _symmetry_equiv_pos_as_xyz
  1  'x, y, z'
loop_
 _atom_site_type_symbol
 _atom_site_label
 _atom_site_symmetry_multiplicity
 _atom_site_fract_x
 _atom_site_fract_y
 _atom_site_fract_z
 _atom_site_occupancy
  Li  Li0  1  0.08632300  0.31640600  0.43904700  1
  Li  Li1  1  0.67984900  0.77379200  0.44714100  1
  Li  Li2  1  0.66669500  0.90211900  0.93761200  1
  Li  Li3  1  0.09859000  0.76662000  0.93915900  1
  Li  Li4  1  0.22867700  0.90884600  0.44121800  1
  Li  Li5  1  0.33450300  0.10025100  0.05758800  1
  Li  Li6  1  0.32340600  0.23220100  0.56525600  1
  Li  Li7  1  0.90726800  0.68088400  0.56186000  1
  Li  Li8  1  0.76750800  0.66866900  0.05429700  1
  Li  Li9  1  0.01126400  0.06640400  0.00782200  1
  V  V10  1  0.56986300  0.00222600  0.74637400  1
  V  V11  1  0.43420300  0.99950000  0.24968800  1
  V  V12  1  0.99593200  0.42817500  0.24733600  1
  V  V13  1  0.00172900  0.56287600  0.75023500  1
  V  V14  1  0.42998700  0.43656600  0.75699100  1
  V  V15  1  0.56602100  0.56379300  0.24809900  1
  P  P16  1  0.22300200  0.30681800  0.16199100  1
  P  P17  1  0.08602500  0.31479300  0.65522400  1
  P  P18  1  0.67985300  0.76805400  0.65987200  1
  P  P19  1  0.33985500  0.67559300  0.87164600  1
  P  P20  1  0.33186500  0.66369100  0.36839900  1
  P  P21  1  0.68542100  0.91119600  0.15384300  1
  P  P22  1  0.77076800  0.08358000  0.33742500  1
  P  P23  1  0.08640300  0.77076600  0.15892200  1
  P  P24  1  0.91460400  0.22242200  0.83902900  1
  P  P25  1  0.22912700  0.91056400  0.65924300  1
  P  P26  1  0.31450500  0.08637200  0.84210100  1
  P  P27  1  0.66095400  0.33439000  0.63164200  1
  P  P28  1  0.66507000  0.33337100  0.12921000  1
  P  P29  1  0.31986700  0.23167200  0.34527800  1
  P  P30  1  0.91112300  0.68073800  0.34109900  1
  P  P31  1  0.77332800  0.68364300  0.84021800  1
  O  O32  1  0.24952100  0.24818700  0.43598000  1
  O  O33  1  0.25076800  0.33247800  0.66252600  1
  O  O34  1  0.99665400  0.20208900  0.92123000  1
  O  O35  1  0.08707800  0.34268300  0.16431800  1
  O  O36  1  0.38402300  0.46198300  0.17090000  1
  O  O37  1  0.33259400  0.52226100  0.82862900  1
  O  O38  1  0.52130600  0.61903700  0.67432600  1
  O  O39  1  0.77342400  0.77078100  0.92888700  1
  O  O40  1  0.66246800  0.74002300  0.16378200  1
  O  O41  1  0.18339900  0.51017300  0.33298200  1
  O  O42  1  0.09818200  0.47789300  0.67995200  1
  O  O43  1  0.48081200  0.66385600  0.31980100  1
  O  O44  1  0.35945100  0.68994400  0.97667400  1
  O  O45  1  0.35210700  0.66974000  0.47336400  1
  O  O46  1  0.49263900  0.81766700  0.82508500  1
  O  O47  1  0.09338500  0.62007100  0.17208800  1
  O  O48  1  0.19145100  0.68020700  0.83550300  1
  O  O49  1  0.66065500  0.91663600  0.66443100  1
  O  O50  1  0.79721900  0.00730000  0.24137400  1
  O  O51  1  0.75871300  0.98665400  0.42043200  1
  O  O52  1  0.77114600  0.97905200  0.06292800  1
  O  O53  1  0.52844100  0.90673700  0.16794600  1
  O  O54  1  0.32644000  0.81176800  0.32993200  1
  O  O55  1  0.73984100  0.08035200  0.83571100  1
  O  O56  1  0.38039400  0.90048500  0.67688700  1
  O  O57  1  0.08202600  0.74497100  0.65785400  1
  O  O58  1  0.98706600  0.20044600  0.74077700  1
  O  O59  1  0.00690600  0.25232200  0.56275600  1
  O  O60  1  0.99817800  0.76016900  0.43075900  1
  O  O61  1  0.91553300  0.25134500  0.33899400  1
  O  O62  1  0.61827100  0.09431000  0.31938000  1
  O  O63  1  0.25399600  0.91868900  0.16256900  1
  O  O64  1  0.66038200  0.18467200  0.67815700  1
  O  O65  1  0.46960100  0.08247500  0.82672000  1
  O  O66  1  0.23007000  0.99820900  0.93089500  1
  O  O67  1  0.24271400  0.00084600  0.57021000  1
  O  O68  1  0.20613400  0.99687500  0.75004300  1
  O  O69  1  0.33568200  0.08251100  0.34237100  1
  O  O70  1  0.80442000  0.32268300  0.17270600  1
  O  O71  1  0.91424100  0.37850100  0.83099600  1
  O  O72  1  0.50800300  0.18867300  0.16456500  1
  O  O73  1  0.66565100  0.35796700  0.02492800  1
  O  O74  1  0.65437200  0.32518100  0.52628300  1
  O  O75  1  0.51091600  0.33134700  0.67350600  1
  O  O76  1  0.90272300  0.52171900  0.32324400  1
  O  O77  1  0.81282700  0.48440300  0.66946500  1
  O  O78  1  0.34105200  0.25252800  0.84090900  1
  O  O79  1  0.20398300  0.21162300  0.25911400  1
  O  O80  1  0.21038200  0.20312200  0.08038200  1
  O  O81  1  0.47965800  0.38102200  0.32230100  1
  O  O82  1  0.67441700  0.48967700  0.17690900  1
  O  O83  1  0.62364400  0.52392800  0.82858800  1
  O  O84  1  0.92192900  0.66456300  0.83814500  1
  O  O85  1  0.00116500  0.77396000  0.07034700  1
  O  O86  1  0.99801000  0.79161800  0.25092200  1
  O  O87  1  0.74329000  0.66230400  0.34054400  1
  O  O88  1  0.76221500  0.76318500  0.57098200  1
  O  O89  1  0.79398300  0.79170500  0.74925300  1
