# generated using pymatgen
data_Li2Cr2FeSbO8
_symmetry_space_group_name_H-M   'P 1'
_cell_length_a   5.99244860
_cell_length_b   5.99244860
_cell_length_c   9.65077221
_cell_angle_alpha   89.84632762
_cell_angle_beta   89.84632762
_cell_angle_gamma   59.85031889
_symmetry_Int_Tables_number   1
_chemical_formula_structural   Li2Cr2FeSbO8
_chemical_formula_sum   'Li4 Cr4 Fe2 Sb2 O16'
_cell_volume   299.66928654
_cell_formula_units_Z   2
loop_
 _symmetry_equiv_pos_site_id
 _symmetry_equiv_pos_as_xyz
  1  'x, y, z'
loop_
 _atom_site_type_symbol
 _atom_site_label
 _atom_site_symmetry_multiplicity
 _atom_site_fract_x
 _atom_site_fract_y
 _atom_site_fract_z
 _atom_site_occupancy
  Li  Li0  1  0.33388500  0.33388500  0.40912400  1
  Li  Li1  1  0.66674500  0.66674500  0.90611100  1
  Li  Li2  1  0.99986000  0.99986000  0.99876700  1
  Li  Li3  1  0.99972700  0.99972700  0.49790300  1
  Cr  Cr4  1  0.17007500  0.17007500  0.72102200  1
  Cr  Cr5  1  0.17003300  0.66003700  0.72083800  1
  Cr  Cr6  1  0.66003700  0.17003300  0.72083800  1
  Cr  Cr7  1  0.82817600  0.82817600  0.22038500  1
  Fe  Fe8  1  0.82916700  0.33966500  0.22068600  1
  Fe  Fe9  1  0.33966500  0.82916700  0.22068600  1
  Sb  Sb10  1  0.33312600  0.33312600  0.99333900  1
  Sb  Sb11  1  0.66728600  0.66728600  0.49608000  1
  O  O12  1  0.99992500  0.99992500  0.81281800  1
  O  O13  1  0.99975000  0.99975000  0.31018600  1
  O  O14  1  0.16789100  0.16789100  0.10214400  1
  O  O15  1  0.16565000  0.66549800  0.10250900  1
  O  O16  1  0.66549800  0.16565000  0.10250900  1
  O  O17  1  0.83462600  0.83462600  0.60337200  1
  O  O18  1  0.83551200  0.33128300  0.60303500  1
  O  O19  1  0.33128300  0.83551200  0.60303500  1
  O  O20  1  0.48108200  0.48108200  0.85027100  1
  O  O21  1  0.48145700  0.03773700  0.84989500  1
  O  O22  1  0.03773700  0.48145700  0.84989500  1
  O  O23  1  0.51931700  0.51931700  0.35625600  1
  O  O24  1  0.52212700  0.96217600  0.35246000  1
  O  O25  1  0.96217600  0.52212700  0.35246000  1
  O  O26  1  0.33336800  0.33336800  0.61595400  1
  O  O27  1  0.66482000  0.66482000  0.11302000  1
