# generated using pymatgen
data_Li8(FeO2)5
_symmetry_space_group_name_H-M   'P 1'
_cell_length_a   5.50505758
_cell_length_b   9.56278204
_cell_length_c   10.34223045
_cell_angle_alpha   76.45565633
_cell_angle_beta   83.21279824
_cell_angle_gamma   83.89379671
_symmetry_Int_Tables_number   1
_chemical_formula_structural   Li8(FeO2)5
_chemical_formula_sum   'Li16 Fe10 O20'
_cell_volume   523.85247889
_cell_formula_units_Z   2
loop_
 _symmetry_equiv_pos_site_id
 _symmetry_equiv_pos_as_xyz
  1  'x, y, z'
loop_
 _atom_site_type_symbol
 _atom_site_label
 _atom_site_symmetry_multiplicity
 _atom_site_fract_x
 _atom_site_fract_y
 _atom_site_fract_z
 _atom_site_occupancy
  Li  Li0  1  0.68729000  0.20882400  0.85563100  1
  Li  Li1  1  0.19420000  0.70385800  0.35839000  1
  Li  Li2  1  0.41264800  0.09111300  0.04437300  1
  Li  Li3  1  0.90576900  0.59612500  0.54165000  1
  Li  Li4  1  0.40885600  0.30063700  0.13897000  1
  Li  Li5  1  0.90049400  0.80325500  0.63977200  1
  Li  Li6  1  0.19956500  0.49676300  0.26022600  1
  Li  Li7  1  0.69116300  0.99932500  0.76098400  1
  Li  Li8  1  0.75646300  0.49026400  0.77869700  1
  Li  Li9  1  0.27417000  0.98684300  0.28103400  1
  Li  Li10  1  0.34347500  0.80966300  0.12129700  1
  Li  Li11  1  0.82578200  0.31311300  0.61895900  1
  Li  Li12  1  0.61058500  0.71755100  0.83872500  1
  Li  Li13  1  0.11125100  0.21675400  0.33906600  1
  Li  Li14  1  0.48938000  0.58237600  0.06125900  1
  Li  Li15  1  0.98885500  0.08327800  0.56085300  1
  Fe  Fe16  1  0.55014500  0.15001900  0.44998300  1
  Fe  Fe17  1  0.04989700  0.65000500  0.94990500  1
  Fe  Fe18  1  0.34473700  0.55364400  0.65192200  1
  Fe  Fe19  1  0.86077900  0.04386800  0.14588000  1
  Fe  Fe20  1  0.23921300  0.25608600  0.75410100  1
  Fe  Fe21  1  0.75530100  0.74633700  0.24805000  1
  Fe  Fe22  1  0.94266200  0.35083900  0.04999000  1
  Fe  Fe23  1  0.43639300  0.85189400  0.55344600  1
  Fe  Fe24  1  0.66373400  0.44817300  0.34643100  1
  Fe  Fe25  1  0.15734200  0.94909200  0.84989800  1
  O  O26  1  0.69389400  0.21426900  0.03880200  1
  O  O27  1  0.17783400  0.72522300  0.53983000  1
  O  O28  1  0.92241200  0.57509800  0.36024300  1
  O  O29  1  0.40669200  0.08560300  0.86122600  1
  O  O30  1  0.52953400  0.36298600  0.72614500  1
  O  O31  1  0.04815900  0.87006400  0.22100600  1
  O  O32  1  0.05143700  0.43042300  0.67881900  1
  O  O33  1  0.57025800  0.93724200  0.17390400  1
  O  O34  1  0.19752200  0.47764000  0.07135500  1
  O  O35  1  0.68544200  0.98900700  0.57247200  1
  O  O36  1  0.90213700  0.82179600  0.82871100  1
  O  O37  1  0.41425000  0.31091700  0.32792900  1
  O  O38  1  0.12110000  0.16818800  0.15968700  1
  O  O39  1  0.62552900  0.67346000  0.65901700  1
  O  O40  1  0.47484800  0.62633200  0.24128200  1
  O  O41  1  0.97920600  0.13173800  0.74047500  1
  O  O42  1  0.77746600  0.53695800  0.94817000  1
  O  O43  1  0.28336000  0.04343400  0.44877000  1
  O  O44  1  0.32211500  0.76310300  0.95147300  1
  O  O45  1  0.81666000  0.25682000  0.45119000  1
