# generated using pymatgen
data_Li9Mn2Co5O16
_symmetry_space_group_name_H-M   'P 1'
_cell_length_a   5.15756200
_cell_length_b   5.83516385
_cell_length_c   10.19098023
_cell_angle_alpha   89.69066025
_cell_angle_beta   99.08916623
_cell_angle_gamma   106.69566659
_symmetry_Int_Tables_number   1
_chemical_formula_structural   Li9Mn2Co5O16
_chemical_formula_sum   'Li9 Mn2 Co5 O16'
_cell_volume   289.82261638
_cell_formula_units_Z   1
loop_
 _symmetry_equiv_pos_site_id
 _symmetry_equiv_pos_as_xyz
  1  'x, y, z'
loop_
 _atom_site_type_symbol
 _atom_site_label
 _atom_site_symmetry_multiplicity
 _atom_site_fract_x
 _atom_site_fract_y
 _atom_site_fract_z
 _atom_site_occupancy
  Li  Li0  1  0.49504700  0.87615400  0.13507600  1
  Li  Li1  1  0.51260300  0.12996300  0.38181700  1
  Li  Li2  1  0.49195600  0.37211800  0.61775300  1
  Li  Li3  1  0.51109800  0.62535100  0.86836400  1
  Li  Li4  1  0.48890200  0.37464900  0.13163600  1
  Li  Li5  1  0.50804400  0.62788200  0.38224700  1
  Li  Li6  1  0.48739700  0.87003700  0.61818300  1
  Li  Li7  1  0.50495300  0.12384600  0.86492400  1
  Li  Li8  1  0.00000000  0.50000000  0.50000000  1
  Mn  Mn9  1  0.00000000  0.00000000  0.00000000  1
  Mn  Mn10  1  0.00000000  0.50000000  0.00000000  1
  Co  Co11  1  0.01257900  0.25618900  0.26526600  1
  Co  Co12  1  0.98742100  0.74381100  0.73473400  1
  Co  Co13  1  0.99384100  0.74328800  0.26029000  1
  Co  Co14  1  0.00000000  0.00000000  0.50000000  1
  Co  Co15  1  0.00615900  0.25671200  0.73971000  1
  O  O16  1  0.77867900  0.69447100  0.05362600  1
  O  O17  1  0.76004700  0.94335900  0.31281400  1
  O  O18  1  0.77364100  0.17421400  0.56573600  1
  O  O19  1  0.77759000  0.44241200  0.82480100  1
  O  O20  1  0.78503500  0.19441000  0.05913000  1
  O  O21  1  0.76056800  0.44820000  0.29994600  1
  O  O22  1  0.76013200  0.68896100  0.57399200  1
  O  O23  1  0.78709200  0.95318300  0.82358800  1
  O  O24  1  0.21290800  0.04681700  0.17641200  1
  O  O25  1  0.23986800  0.31103900  0.42600800  1
  O  O26  1  0.23943200  0.55180000  0.70005400  1
  O  O27  1  0.21496500  0.80559000  0.94087000  1
  O  O28  1  0.22241000  0.55758800  0.17519900  1
  O  O29  1  0.22635900  0.82578600  0.43426400  1
  O  O30  1  0.23995300  0.05664100  0.68718600  1
  O  O31  1  0.22132100  0.30552900  0.94637400  1
