# generated using pymatgen
data_LiGa3
_symmetry_space_group_name_H-M   'P 1'
_cell_length_a   5.72153914
_cell_length_b   5.72153914
_cell_length_c   4.86998900
_cell_angle_alpha   90.00000000
_cell_angle_beta   90.00000000
_cell_angle_gamma   119.99999010
_symmetry_Int_Tables_number   1
_chemical_formula_structural   LiGa3
_chemical_formula_sum   'Li2 Ga6'
_cell_volume   138.06525593
_cell_formula_units_Z   2
loop_
 _symmetry_equiv_pos_site_id
 _symmetry_equiv_pos_as_xyz
  1  'x, y, z'
loop_
 _atom_site_type_symbol
 _atom_site_label
 _atom_site_symmetry_multiplicity
 _atom_site_fract_x
 _atom_site_fract_y
 _atom_site_fract_z
 _atom_site_occupancy
  Li  Li0  1  0.66666700  0.33333300  0.25000000  1
  Li  Li1  1  0.33333300  0.66666700  0.75000000  1
  Ga  Ga2  1  0.83417200  0.16582800  0.75000000  1
  Ga  Ga3  1  0.33165500  0.16582800  0.75000000  1
  Ga  Ga4  1  0.83417200  0.66834500  0.75000000  1
  Ga  Ga5  1  0.16582800  0.83417200  0.25000000  1
  Ga  Ga6  1  0.66834500  0.83417200  0.25000000  1
  Ga  Ga7  1  0.16582800  0.33165500  0.25000000  1
