# generated using pymatgen
data_Li4Co3O7
_symmetry_space_group_name_H-M   'P 1'
_cell_length_a   9.83854197
_cell_length_b   9.83854197
_cell_length_c   9.73993412
_cell_angle_alpha   63.95438309
_cell_angle_beta   63.95438309
_cell_angle_gamma   17.23331651
_symmetry_Int_Tables_number   1
_chemical_formula_structural   Li4Co3O7
_chemical_formula_sum   'Li8 Co6 O14'
_cell_volume   250.26077424
_cell_formula_units_Z   2
loop_
 _symmetry_equiv_pos_site_id
 _symmetry_equiv_pos_as_xyz
  1  'x, y, z'
loop_
 _atom_site_type_symbol
 _atom_site_label
 _atom_site_symmetry_multiplicity
 _atom_site_fract_x
 _atom_site_fract_y
 _atom_site_fract_z
 _atom_site_occupancy
  Li  Li0  1  0.43062400  0.43062400  0.78017100  1
  Li  Li1  1  0.14050800  0.14050800  0.92821300  1
  Li  Li2  1  0.85949200  0.85949200  0.07178700  1
  Li  Li3  1  0.56937600  0.56937600  0.21982900  1
  Li  Li4  1  0.28985900  0.28985900  0.35179600  1
  Li  Li5  1  0.00000000  0.00000000  0.50000000  1
  Li  Li6  1  0.71014100  0.71014100  0.64820400  1
  Li  Li7  1  0.50000000  0.50000000  0.00000000  1
  Co  Co8  1  0.06845900  0.06845900  0.72600400  1
  Co  Co9  1  0.93154100  0.93154100  0.27399600  1
  Co  Co10  1  0.78713900  0.78713900  0.85541100  1
  Co  Co11  1  0.21286100  0.21286100  0.14458900  1
  Co  Co12  1  0.64030700  0.64030700  0.43219400  1
  Co  Co13  1  0.35969300  0.35969300  0.56780600  1
  O  O14  1  0.54104400  0.54104400  0.60732400  1
  O  O15  1  0.25615200  0.25615200  0.74422300  1
  O  O16  1  0.97562000  0.97562000  0.87127000  1
  O  O17  1  0.68164100  0.68164100  0.03874100  1
  O  O18  1  0.39645500  0.39645500  0.18401700  1
  O  O19  1  0.10993300  0.10993300  0.32836100  1
  O  O20  1  0.83254000  0.83254000  0.45091900  1
  O  O21  1  0.31835900  0.31835900  0.96125900  1
  O  O22  1  0.02438000  0.02438000  0.12873000  1
  O  O23  1  0.74384800  0.74384800  0.25577700  1
  O  O24  1  0.45895600  0.45895600  0.39267600  1
  O  O25  1  0.16746000  0.16746000  0.54908100  1
  O  O26  1  0.89006700  0.89006700  0.67163900  1
  O  O27  1  0.60354500  0.60354500  0.81598300  1
