# generated using pymatgen
data_Li4Mn3O7
_symmetry_space_group_name_H-M   'P 1'
_cell_length_a   3.00385800
_cell_length_b   6.06478742
_cell_length_c   14.50089774
_cell_angle_alpha   83.41520116
_cell_angle_beta   84.53138753
_cell_angle_gamma   85.59483217
_symmetry_Int_Tables_number   1
_chemical_formula_structural   Li4Mn3O7
_chemical_formula_sum   'Li8 Mn6 O14'
_cell_volume   260.65636150
_cell_formula_units_Z   2
loop_
 _symmetry_equiv_pos_site_id
 _symmetry_equiv_pos_as_xyz
  1  'x, y, z'
loop_
 _atom_site_type_symbol
 _atom_site_label
 _atom_site_symmetry_multiplicity
 _atom_site_fract_x
 _atom_site_fract_y
 _atom_site_fract_z
 _atom_site_occupancy
  Li  Li0  1  0.93772000  0.20954200  0.63133200  1
  Li  Li1  1  0.50000000  0.50000000  0.50000000  1
  Li  Li2  1  0.06228000  0.79045800  0.36866800  1
  Li  Li3  1  0.35379800  0.92498900  0.78483400  1
  Li  Li4  1  0.78653400  0.64313000  0.92862400  1
  Li  Li5  1  0.21346600  0.35687000  0.07137600  1
  Li  Li6  1  0.64620200  0.07501100  0.21516600  1
  Li  Li7  1  0.50000000  0.00000000  0.50000000  1
  Mn  Mn8  1  0.93739900  0.72402600  0.63609000  1
  Mn  Mn9  1  0.06260100  0.27597400  0.36391000  1
  Mn  Mn10  1  0.63236600  0.56541500  0.21544000  1
  Mn  Mn11  1  0.21304500  0.85653700  0.07253400  1
  Mn  Mn12  1  0.78695500  0.14346300  0.92746600  1
  Mn  Mn13  1  0.36763400  0.43458500  0.78456000  1
  O  O14  1  0.45695100  0.49483800  0.64632700  1
  O  O15  1  0.99106600  0.74494900  0.50944800  1
  O  O16  1  0.59410700  0.06951400  0.35773100  1
  O  O17  1  0.82493600  0.18747100  0.78904200  1
  O  O18  1  0.24886500  0.89764200  0.93447500  1
  O  O19  1  0.67686200  0.61212700  0.07774900  1
  O  O20  1  0.10127800  0.32769700  0.22226300  1
  O  O21  1  0.40589300  0.93048600  0.64226900  1
  O  O22  1  0.00893400  0.25505100  0.49055200  1
  O  O23  1  0.54304900  0.50516200  0.35367300  1
  O  O24  1  0.89872200  0.67230300  0.77773700  1
  O  O25  1  0.32313800  0.38787300  0.92225100  1
  O  O26  1  0.75113500  0.10235800  0.06552500  1
  O  O27  1  0.17506400  0.81252900  0.21095800  1
