# generated using pymatgen
data_Li2CoCSO7
_symmetry_space_group_name_H-M   'P 1'
_cell_length_a   4.98197117
_cell_length_b   8.87866317
_cell_length_c   6.42322949
_cell_angle_alpha   90.21823421
_cell_angle_beta   89.83095357
_cell_angle_gamma   84.54878928
_symmetry_Int_Tables_number   1
_chemical_formula_structural   Li2CoCSO7
_chemical_formula_sum   'Li4 Co2 C2 S2 O14'
_cell_volume   282.83171245
_cell_formula_units_Z   2
loop_
 _symmetry_equiv_pos_site_id
 _symmetry_equiv_pos_as_xyz
  1  'x, y, z'
loop_
 _atom_site_type_symbol
 _atom_site_label
 _atom_site_symmetry_multiplicity
 _atom_site_fract_x
 _atom_site_fract_y
 _atom_site_fract_z
 _atom_site_occupancy
  Li  Li0  1  0.21571800  0.18604600  0.51670800  1
  Li  Li1  1  0.21431100  0.18522000  0.98363300  1
  Li  Li2  1  0.78319100  0.81327800  0.48415400  1
  Li  Li3  1  0.78494000  0.81409300  0.01511900  1
  Co  Co4  1  0.22792300  0.64761900  0.24557700  1
  Co  Co5  1  0.77935800  0.35076900  0.75164100  1
  C  C6  1  0.73170700  0.06943500  0.74983200  1
  C  C7  1  0.26759400  0.93047400  0.25052600  1
  S  S8  1  0.74368900  0.41394600  0.25109600  1
  S  S9  1  0.25611200  0.58693600  0.74910100  1
  O  O10  1  0.29831800  0.07140700  0.24960100  1
  O  O11  1  0.69716300  0.92905200  0.75050100  1
  O  O12  1  0.97098400  0.11871700  0.74993900  1
  O  O13  1  0.03008000  0.87890900  0.24708100  1
  O  O14  1  0.52594200  0.17560400  0.74904000  1
  O  O15  1  0.47493900  0.82604100  0.25523900  1
  O  O16  1  0.15507000  0.43422500  0.75035100  1
  O  O17  1  0.84356500  0.56635800  0.25005100  1
  O  O18  1  0.44336600  0.43317400  0.25120400  1
  O  O19  1  0.55599300  0.56698100  0.75070800  1
  O  O20  1  0.84565500  0.32406900  0.06555400  1
  O  O21  1  0.84489200  0.32491500  0.43574400  1
  O  O22  1  0.15640100  0.67523600  0.56390800  1
  O  O23  1  0.15309000  0.67749600  0.93369300  1
