# generated using pymatgen
data_Li9Mn7O16
_symmetry_space_group_name_H-M   'P 1'
_cell_length_a   3.03309463
_cell_length_b   19.58921634
_cell_length_c   5.11197797
_cell_angle_alpha   94.72045227
_cell_angle_beta   86.04219001
_cell_angle_gamma   89.29317678
_symmetry_Int_Tables_number   1
_chemical_formula_structural   Li9Mn7O16
_chemical_formula_sum   'Li9 Mn7 O16'
_cell_volume   301.93128649
_cell_formula_units_Z   1
loop_
 _symmetry_equiv_pos_site_id
 _symmetry_equiv_pos_as_xyz
  1  'x, y, z'
loop_
 _atom_site_type_symbol
 _atom_site_label
 _atom_site_symmetry_multiplicity
 _atom_site_fract_x
 _atom_site_fract_y
 _atom_site_fract_z
 _atom_site_occupancy
  Li  Li0  1  0.94393600  0.13277500  0.70152600  1
  Li  Li1  1  0.32032000  0.36885300  0.56571600  1
  Li  Li2  1  0.68774700  0.62460900  0.43779500  1
  Li  Li3  1  0.06225300  0.87539100  0.31220500  1
  Li  Li4  1  0.42968000  0.13114700  0.18428400  1
  Li  Li5  1  0.80606400  0.36722500  0.04847400  1
  Li  Li6  1  0.18720800  0.62472700  0.93699700  1
  Li  Li7  1  0.56279200  0.87527300  0.81300300  1
  Li  Li8  1  0.37500000  0.25000000  0.87500000  1
  Mn  Mn9  1  0.99692300  0.00080500  0.99943800  1
  Mn  Mn10  1  0.87500000  0.25000000  0.37500000  1
  Mn  Mn11  1  0.75307700  0.49919500  0.75056200  1
  Mn  Mn12  1  0.12503400  0.74997500  0.62494000  1
  Mn  Mn13  1  0.49647200  0.00053400  0.49937700  1
  Mn  Mn14  1  0.25352800  0.49946600  0.25062300  1
  Mn  Mn15  1  0.62496600  0.75002500  0.12506000  1
  O  O16  1  0.44419600  0.05762400  0.83329700  1
  O  O17  1  0.83720300  0.30900700  0.69351700  1
  O  O18  1  0.19223700  0.55839700  0.58449200  1
  O  O19  1  0.56593500  0.80819100  0.45859800  1
  O  O20  1  0.94950600  0.05605600  0.33705900  1
  O  O21  1  0.38488700  0.30366000  0.24074300  1
  O  O22  1  0.69618800  0.55804000  0.08451400  1
  O  O23  1  0.06611500  0.80820800  0.95832000  1
  O  O24  1  0.36511300  0.19634000  0.50925700  1
  O  O25  1  0.80049400  0.44394400  0.41294100  1
  O  O26  1  0.18406500  0.69180900  0.29140200  1
  O  O27  1  0.55776300  0.94160300  0.16550800  1
  O  O28  1  0.91279700  0.19099300  0.05648300  1
  O  O29  1  0.30580400  0.44237600  0.91670300  1
  O  O30  1  0.68388500  0.69179200  0.79168000  1
  O  O31  1  0.05381200  0.94196000  0.66548600  1
