# generated using pymatgen
data_Li7Mn4CoO12
_symmetry_space_group_name_H-M   'P 1'
_cell_length_a   2.97501181
_cell_length_b   12.06824082
_cell_length_c   6.46406730
_cell_angle_alpha   75.43135489
_cell_angle_beta   103.51841681
_cell_angle_gamma   94.14120084
_symmetry_Int_Tables_number   1
_chemical_formula_structural   Li7Mn4CoO12
_chemical_formula_sum   'Li7 Mn4 Co1 O12'
_cell_volume   218.37306414
_cell_formula_units_Z   1
loop_
 _symmetry_equiv_pos_site_id
 _symmetry_equiv_pos_as_xyz
  1  'x, y, z'
loop_
 _atom_site_type_symbol
 _atom_site_label
 _atom_site_symmetry_multiplicity
 _atom_site_fract_x
 _atom_site_fract_y
 _atom_site_fract_z
 _atom_site_occupancy
  Li  Li0  1  0.33334600  0.16667200  0.66666900  1
  Li  Li1  1  0.97574600  0.25302200  0.97939800  1
  Li  Li2  1  0.69095600  0.08031600  0.35395100  1
  Li  Li3  1  0.65392000  0.58983000  0.33940200  1
  Li  Li4  1  0.01276000  0.74349800  0.99394000  1
  Li  Li5  1  0.36257700  0.40446100  0.66433300  1
  Li  Li6  1  0.30410700  0.92886500  0.66900900  1
  Mn  Mn7  1  0.02272500  0.49757100  0.99326300  1
  Mn  Mn8  1  0.64388200  0.83576000  0.34005300  1
  Mn  Mn9  1  0.97444200  0.00606200  0.99291000  1
  Mn  Mn10  1  0.69222400  0.32723800  0.34049400  1
  Co  Co11  1  0.33334200  0.66667300  0.66667100  1
  O  O12  1  0.50898300  0.10841600  0.00511500  1
  O  O13  1  0.15769500  0.22491200  0.32821900  1
  O  O14  1  0.20648800  0.44334800  0.31879400  1
  O  O15  1  0.46016200  0.89000000  0.01449500  1
  O  O16  1  0.82815100  0.29672800  0.63932500  1
  O  O17  1  0.83853300  0.03660200  0.69402200  1
  O  O18  1  0.47453500  0.62343300  0.98623100  1
  O  O19  1  0.19213300  0.70990800  0.34709900  1
  O  O20  1  0.79729700  0.78423400  0.65779000  1
  O  O21  1  0.86934100  0.54911100  0.67549300  1
  O  O22  1  0.11076400  0.95712800  0.32426200  1
  O  O23  1  0.55589100  0.37621100  0.00906300  1
