# generated using pymatgen
data_Li9Mn2Co5O16
_symmetry_space_group_name_H-M   'P 1'
_cell_length_a   4.97569500
_cell_length_b   5.87940856
_cell_length_c   10.23974411
_cell_angle_alpha   106.16454201
_cell_angle_beta   100.22682756
_cell_angle_gamma   90.36539727
_symmetry_Int_Tables_number   1
_chemical_formula_structural   Li9Mn2Co5O16
_chemical_formula_sum   'Li9 Mn2 Co5 O16'
_cell_volume   282.64746750
_cell_formula_units_Z   1
loop_
 _symmetry_equiv_pos_site_id
 _symmetry_equiv_pos_as_xyz
  1  'x, y, z'
loop_
 _atom_site_type_symbol
 _atom_site_label
 _atom_site_symmetry_multiplicity
 _atom_site_fract_x
 _atom_site_fract_y
 _atom_site_fract_z
 _atom_site_occupancy
  Li  Li0  1  0.24494000  0.87503100  0.75184300  1
  Li  Li1  1  0.24639700  0.38053100  0.24659300  1
  Li  Li2  1  0.75312000  0.61830300  0.75553800  1
  Li  Li3  1  0.75287100  0.11927900  0.24842600  1
  Li  Li4  1  0.24279400  0.37761800  0.75282200  1
  Li  Li5  1  0.24454000  0.86798900  0.24706600  1
  Li  Li6  1  0.75573300  0.13463600  0.75190900  1
  Li  Li7  1  0.75831000  0.62613000  0.24628500  1
  Li  Li8  1  0.00103100  0.50368200  0.99973200  1
  Mn  Mn9  1  0.99976900  0.99404300  0.99977300  1
  Mn  Mn10  1  0.50077700  0.25990100  0.00019100  1
  Co  Co11  1  0.00000500  0.49996600  0.50007600  1
  Co  Co12  1  0.49983900  0.74800700  0.99982100  1
  Co  Co13  1  0.50413700  0.25050300  0.50274600  1
  Co  Co14  1  0.99968800  0.99973600  0.49982600  1
  Co  Co15  1  0.49563300  0.74951500  0.49729600  1
  O  O16  1  0.13672200  0.17891400  0.88925200  1
  O  O17  1  0.14283200  0.68066600  0.37733700  1
  O  O18  1  0.63129700  0.94733000  0.89106300  1
  O  O19  1  0.63989900  0.43968000  0.38396400  1
  O  O20  1  0.13185200  0.71124200  0.88903500  1
  O  O21  1  0.13242400  0.18285700  0.38928800  1
  O  O22  1  0.60076300  0.44490900  0.88923900  1
  O  O23  1  0.64152100  0.94440600  0.38570300  1
  O  O24  1  0.36004100  0.55989200  0.61660100  1
  O  O25  1  0.36996800  0.05273500  0.10865500  1
  O  O26  1  0.85780300  0.31879500  0.62258200  1
  O  O27  1  0.86737700  0.82032800  0.11137800  1
  O  O28  1  0.35763500  0.05549100  0.61370100  1
  O  O29  1  0.39904500  0.55269600  0.11100500  1
  O  O30  1  0.86685100  0.81737000  0.61060400  1
  O  O31  1  0.86438500  0.28781900  0.11065100  1
