# generated using pymatgen
data_Li6MnV3(PO4)6
_symmetry_space_group_name_H-M   'P 1'
_cell_length_a   8.70234264
_cell_length_b   8.76605018
_cell_length_c   15.05239146
_cell_angle_alpha   106.16484924
_cell_angle_beta   89.97250635
_cell_angle_gamma   61.17179248
_symmetry_Int_Tables_number   1
_chemical_formula_structural   Li6MnV3(PO4)6
_chemical_formula_sum   'Li12 Mn2 V6 P12 O48'
_cell_volume   953.73210464
_cell_formula_units_Z   2
loop_
 _symmetry_equiv_pos_site_id
 _symmetry_equiv_pos_as_xyz
  1  'x, y, z'
loop_
 _atom_site_type_symbol
 _atom_site_label
 _atom_site_symmetry_multiplicity
 _atom_site_fract_x
 _atom_site_fract_y
 _atom_site_fract_z
 _atom_site_occupancy
  Li  Li0  1  0.29769666  0.75585845  0.32217973  1
  Li  Li1  1  0.18691959  0.70937735  0.55207681  1
  Li  Li2  1  0.68362742  0.71984061  0.04987003  1
  Li  Li3  1  0.16635347  0.25491191  0.18887800  1
  Li  Li4  1  0.20873224  0.67998621  0.82957488  1
  Li  Li5  1  0.71195723  0.68056903  0.33000784  1
  Li  Li6  1  0.26610451  0.21333261  0.63198603  1
  Li  Li7  1  0.76571876  0.21499034  0.13127478  1
  Li  Li8  1  0.81078040  0.74534348  0.81782073  1
  Li  Li9  1  0.67981004  0.24470572  0.68506348  1
  Li  Li10  1  0.36073498  0.18058654  0.97915263  1
  Li  Li11  1  0.86109205  0.17932825  0.48042510  1
  Mn  Mn12  1  0.03254763  0.35340090  0.82065450  1
  Mn  Mn13  1  0.78620350  0.85254001  0.57321569  1
  V  V14  1  0.28565572  0.85846398  0.07353519  1
  V  V15  1  0.47212558  0.63934847  0.68040490  1
  V  V16  1  0.53307011  0.35809345  0.32040026  1
  V  V17  1  0.21843942  0.14023972  0.42459410  1
  V  V18  1  0.97297169  0.64128785  0.17899391  1
  V  V19  1  0.71547712  0.14023875  0.92294976  1
  P  P20  1  0.01160256  0.95126937  0.73404742  1
  P  P21  1  0.51688895  0.95671897  0.23617095  1
  P  P22  1  0.02204000  0.25357442  0.02154603  1
  P  P23  1  0.09884127  0.53854988  0.37533119  1
  P  P24  1  0.40372237  0.45723030  0.12389612  1
  P  P25  1  0.47944932  0.75217414  0.47771045  1
  P  P26  1  0.52054056  0.25725782  0.52390269  1
  P  P27  1  0.59855991  0.53920685  0.87557179  1
  P  P28  1  0.90485190  0.44983488  0.62738745  1
  P  P29  1  0.97354892  0.75821253  0.97799015  1
  P  P30  1  0.48662525  0.03671735  0.76198227  1
  P  P31  1  0.98721786  0.03961773  0.26314371  1
  O  O32  1  0.02176538  0.84236103  0.23995614  1
  O  O33  1  0.46384893  0.91892768  0.13682779  1
  O  O34  1  0.40062009  0.94550522  0.30986908  1
  O  O35  1  0.00764525  0.68160204  0.47324135  1
  O  O36  1  0.30089509  0.91463507  0.46980943  1
  O  O37  1  0.35538722  0.64853150  0.12286664  1
  O  O38  1  0.23524009  0.44571551  0.14515037  1
  O  O39  1  0.26587377  0.55147072  0.35268387  1
  O  O40  1  0.20313507  0.79226619  0.72594881  1
  O  O41  1  0.70727682  0.79617148  0.22895324  1
  O  O42  1  0.20507355  0.10029882  0.03432422  1
  O  O43  1  0.15162791  0.34135895  0.37021322  1
  O  O44  1  0.10705796  0.05033134  0.19074928  1
  O  O45  1  0.01446296  0.28955915  0.53604550  1
  O  O46  1  0.11787131  0.81295839  0.99653867  1
  O  O47  1  0.43247099  0.69254154  0.55602101  1
  O  O48  1  0.50847991  0.29842071  0.03156788  1
  O  O49  1  0.02733600  0.41069212  0.70474872  1
  O  O50  1  0.04606411  0.60816072  0.87994525  1
  O  O51  1  0.62801312  0.80248002  0.49354752  1
  O  O52  1  0.92873349  0.69340354  0.05504468  1
  O  O53  1  0.03254517  0.08523406  0.36391899  1
  O  O54  1  0.52692542  0.41625617  0.19942209  1
  O  O55  1  0.55207000  0.59867044  0.37971640  1
  O  O56  1  0.52165139  0.83958992  0.73888724  1
  O  O57  1  0.49657967  0.14710612  0.26190870  1
  O  O58  1  0.43690890  0.42160372  0.61684708  1
  O  O59  1  0.94431945  0.41596447  0.11487677  1
  O  O60  1  0.95794977  0.91063061  0.63403944  1
  O  O61  1  0.46803295  0.58844162  0.80384016  1
  O  O62  1  0.07306158  0.30356542  0.93920979  1
  O  O63  1  0.38291641  0.19218774  0.50789425  1
  O  O64  1  0.97171389  0.58276901  0.30182766  1
  O  O65  1  0.56459668  0.31247651  0.44235886  1
  O  O66  1  0.88162456  0.19361765  0.00555109  1
  O  O67  1  0.89697756  0.93992582  0.80838495  1
  O  O68  1  0.50742055  0.68251661  0.97321169  1
  O  O69  1  0.79256130  0.92213571  0.97308470  1
  O  O70  1  0.86199906  0.63891121  0.62689241  1
  O  O71  1  0.29499566  0.17967161  0.75828347  1
  O  O72  1  0.79653740  0.18321530  0.25952090  1
  O  O73  1  0.73609944  0.43882807  0.64729135  1
  O  O74  1  0.76672248  0.55074011  0.85301166  1
  O  O75  1  0.70373457  0.10821933  0.53657410  1
  O  O76  1  0.65082976  0.34178641  0.86902555  1
  O  O77  1  0.60516425  0.04764802  0.68880954  1
  O  O78  1  0.53063334  0.08494996  0.86270981  1
  O  O79  1  0.98964477  0.14096876  0.75611111  1
