# generated using pymatgen
data_Li9Mn2Co5O16
_symmetry_space_group_name_H-M   'P 1'
_cell_length_a   5.76790000
_cell_length_b   5.09003000
_cell_length_c   9.70947969
_cell_angle_alpha   81.13292939
_cell_angle_beta   90.00000000
_cell_angle_gamma   90.00000000
_symmetry_Int_Tables_number   1
_chemical_formula_structural   Li9Mn2Co5O16
_chemical_formula_sum   'Li9 Mn2 Co5 O16'
_cell_volume   281.65167441
_cell_formula_units_Z   1
loop_
 _symmetry_equiv_pos_site_id
 _symmetry_equiv_pos_as_xyz
  1  'x, y, z'
loop_
 _atom_site_type_symbol
 _atom_site_label
 _atom_site_symmetry_multiplicity
 _atom_site_fract_x
 _atom_site_fract_y
 _atom_site_fract_z
 _atom_site_occupancy
  Li  Li0  1  0.25247200  0.26222800  0.73838400  1
  Li  Li1  1  0.25247200  0.73777200  0.26161600  1
  Li  Li2  1  0.50202200  0.75989400  0.73441000  1
  Li  Li3  1  0.50202200  0.24010600  0.26559000  1
  Li  Li4  1  0.74923300  0.24681500  0.73282200  1
  Li  Li5  1  0.74923300  0.75318500  0.26717800  1
  Li  Li6  1  0.99810800  0.75017500  0.73848000  1
  Li  Li7  1  0.99810800  0.24982500  0.26152000  1
  Li  Li8  1  0.74964100  0.00000000  0.50000000  1
  Mn  Mn9  1  0.00618000  0.00000000  0.00000000  1
  Mn  Mn10  1  0.75193400  0.50000000  0.00000000  1
  Co  Co11  1  0.99037900  0.50000000  0.50000000  1
  Co  Co12  1  0.24801500  0.50000000  0.00000000  1
  Co  Co13  1  0.24929600  0.00000000  0.50000000  1
  Co  Co14  1  0.49947500  0.00000000  0.00000000  1
  Co  Co15  1  0.49697000  0.50000000  0.50000000  1
  O  O16  1  0.24666500  0.85608400  0.89060000  1
  O  O17  1  0.25482300  0.38089200  0.38428200  1
  O  O18  1  0.49941400  0.36960000  0.89313800  1
  O  O19  1  0.48452700  0.85889400  0.39170900  1
  O  O20  1  0.75704400  0.85596200  0.88922300  1
  O  O21  1  0.74237700  0.39770900  0.38227500  1
  O  O22  1  0.99715400  0.39216900  0.88620200  1
  O  O23  1  0.02021400  0.87696900  0.38469100  1
  O  O24  1  0.25482300  0.61910800  0.61571800  1
  O  O25  1  0.24666500  0.14391600  0.10940000  1
  O  O26  1  0.48452700  0.14110600  0.60829100  1
  O  O27  1  0.49941400  0.63040000  0.10686200  1
  O  O28  1  0.74237700  0.60229100  0.61772500  1
  O  O29  1  0.75704400  0.14403800  0.11077700  1
  O  O30  1  0.02021400  0.12303100  0.61530900  1
  O  O31  1  0.99715400  0.60783100  0.11379800  1
