# generated using pymatgen
data_LiCo(PO3)4
_symmetry_space_group_name_H-M   'P 1'
_cell_length_a   10.33547500
_cell_length_b   9.10993400
_cell_length_c   9.33662937
_cell_angle_alpha   88.25529705
_cell_angle_beta   90.00000000
_cell_angle_gamma   90.00000000
_symmetry_Int_Tables_number   1
_chemical_formula_structural   LiCo(PO3)4
_chemical_formula_sum   'Li4 Co4 P16 O48'
_cell_volume   878.68742116
_cell_formula_units_Z   4
loop_
 _symmetry_equiv_pos_site_id
 _symmetry_equiv_pos_as_xyz
  1  'x, y, z'
loop_
 _atom_site_type_symbol
 _atom_site_label
 _atom_site_symmetry_multiplicity
 _atom_site_fract_x
 _atom_site_fract_y
 _atom_site_fract_z
 _atom_site_occupancy
  Li  Li0  1  0.17916100  0.39900000  0.74289600  1
  Li  Li1  1  0.31495600  0.10364600  0.24564600  1
  Li  Li2  1  0.81495600  0.89635400  0.75435400  1
  Li  Li3  1  0.67916100  0.60100000  0.25710400  1
  Co  Co4  1  0.29416000  0.74068500  0.26453700  1
  Co  Co5  1  0.79416000  0.25931500  0.73546300  1
  Co  Co6  1  0.20577700  0.75396400  0.76473500  1
  Co  Co7  1  0.70577700  0.24603600  0.23526500  1
  P  P8  1  0.52614700  0.24246100  0.51930100  1
  P  P9  1  0.97428700  0.24436200  0.02006500  1
  P  P10  1  0.10956300  0.93837400  0.04407600  1
  P  P11  1  0.47428700  0.75563800  0.97993500  1
  P  P12  1  0.39869500  0.53398900  0.54411000  1
  P  P13  1  0.38793500  0.26332500  0.94915800  1
  P  P14  1  0.11285800  0.26789200  0.44868400  1
  P  P15  1  0.88793500  0.73667500  0.05084200  1
  P  P16  1  0.88755700  0.05933900  0.46136600  1
  P  P17  1  0.60956300  0.06162600  0.95592400  1
  P  P18  1  0.38755700  0.94066100  0.53863400  1
  P  P19  1  0.60421500  0.46603600  0.96180900  1
  P  P20  1  0.61285800  0.73210800  0.55131600  1
  P  P21  1  0.02614700  0.75753900  0.48069900  1
  P  P22  1  0.89869500  0.46601100  0.45589000  1
  P  P23  1  0.10421500  0.53396400  0.03819100  1
  O  O24  1  0.87680000  0.41661600  0.60985600  1
  O  O25  1  0.53895500  0.57797000  0.60187700  1
  O  O26  1  0.22294500  0.24314800  0.35169800  1
  O  O27  1  0.29121100  0.57059900  0.64736700  1
  O  O28  1  0.49730000  0.84076600  0.60457000  1
  O  O29  1  0.58531000  0.64163500  0.94117300  1
  O  O30  1  0.94831800  0.90038000  0.43599200  1
  O  O31  1  0.13103400  0.56944400  0.88050800  1
  O  O32  1  0.44355800  0.74357800  0.13892300  1
  O  O33  1  0.13034100  0.90876300  0.88802900  1
  O  O34  1  0.70470800  0.41558300  0.85825900  1
  O  O35  1  0.04932000  0.09863700  0.06066300  1
  O  O36  1  0.77163000  0.07883200  0.36461400  1
  O  O37  1  0.63034100  0.09123700  0.11197100  1
  O  O38  1  0.87972400  0.76721700  0.89500500  1
  O  O39  1  0.36737500  0.92338800  0.37902500  1
  O  O40  1  0.62338500  0.73620300  0.39328900  1
  O  O41  1  0.12338500  0.26379700  0.60671100  1
  O  O42  1  0.64226000  0.25559400  0.61558700  1
  O  O43  1  0.08531000  0.35836500  0.05882700  1
  O  O44  1  0.46118200  0.42082900  0.91763200  1
  O  O45  1  0.35975500  0.74255800  0.88146900  1
  O  O46  1  0.63103400  0.43055600  0.11949200  1
  O  O47  1  0.37972400  0.23278300  0.10499500  1
  O  O48  1  0.94355800  0.25642200  0.86107700  1
  O  O49  1  0.05593800  0.74801600  0.63994700  1
  O  O50  1  0.50033100  0.15788000  0.88065400  1
  O  O51  1  0.22687800  0.92806500  0.14170300  1
  O  O52  1  0.03895500  0.42203000  0.39812300  1
  O  O53  1  0.41662500  0.35846300  0.55549200  1
  O  O54  1  0.96118200  0.57917100  0.08236800  1
  O  O55  1  0.72687800  0.07193500  0.85829700  1
  O  O56  1  0.27163000  0.92116800  0.63538600  1
  O  O57  1  0.27564200  0.26118100  0.85140800  1
  O  O58  1  0.86737500  0.07661200  0.62097500  1
  O  O59  1  0.37680000  0.58338400  0.39014400  1
  O  O60  1  0.91662500  0.64153700  0.44450800  1
  O  O61  1  0.55593800  0.25198400  0.36005300  1
  O  O62  1  0.44831800  0.09962000  0.56400800  1
  O  O63  1  0.77564200  0.73881900  0.14859200  1
  O  O64  1  0.99730000  0.15923400  0.39543000  1
  O  O65  1  0.72294500  0.75685200  0.64830200  1
  O  O66  1  0.20470800  0.58441700  0.14174100  1
  O  O67  1  0.79121100  0.42940100  0.35263300  1
  O  O68  1  0.00033100  0.84212000  0.11934600  1
  O  O69  1  0.85975500  0.25744200  0.11853100  1
  O  O70  1  0.14226000  0.74440600  0.38441300  1
  O  O71  1  0.54932000  0.90136300  0.93933700  1
