# generated using pymatgen
data_Li2PtO6
_symmetry_space_group_name_H-M   'P 1'
_cell_length_a   5.51398806
_cell_length_b   5.51398806
_cell_length_c   3.80017361
_cell_angle_alpha   82.50928097
_cell_angle_beta   82.50928097
_cell_angle_gamma   114.21481159
_symmetry_Int_Tables_number   1
_chemical_formula_structural   Li2PtO6
_chemical_formula_sum   'Li2 Pt1 O6'
_cell_volume   102.29354184
_cell_formula_units_Z   1
loop_
 _symmetry_equiv_pos_site_id
 _symmetry_equiv_pos_as_xyz
  1  'x, y, z'
loop_
 _atom_site_type_symbol
 _atom_site_label
 _atom_site_symmetry_multiplicity
 _atom_site_fract_x
 _atom_site_fract_y
 _atom_site_fract_z
 _atom_site_occupancy
  Li  Li0  1  0.65227800  0.34772200  0.00000000  1
  Li  Li1  1  0.34772200  0.65227800  0.00000000  1
  Pt  Pt2  1  0.00000000  0.00000000  0.00000000  1
  O  O3  1  0.76456800  0.10668100  0.68218800  1
  O  O4  1  0.10668100  0.76456800  0.68218800  1
  O  O5  1  0.32060600  0.32060600  0.80375100  1
  O  O6  1  0.23543200  0.89331900  0.31781200  1
  O  O7  1  0.89331900  0.23543200  0.31781200  1
  O  O8  1  0.67939400  0.67939400  0.19624900  1
