# generated using pymatgen
data_Li4VFe3O8
_symmetry_space_group_name_H-M   'P 1'
_cell_length_a   5.97765199
_cell_length_b   5.99162696
_cell_length_c   8.48257031
_cell_angle_alpha   89.97868639
_cell_angle_beta   90.01394527
_cell_angle_gamma   90.25927459
_symmetry_Int_Tables_number   1
_chemical_formula_structural   Li4VFe3O8
_chemical_formula_sum   'Li8 V2 Fe6 O16'
_cell_volume   303.80741711
_cell_formula_units_Z   2
loop_
 _symmetry_equiv_pos_site_id
 _symmetry_equiv_pos_as_xyz
  1  'x, y, z'
loop_
 _atom_site_type_symbol
 _atom_site_label
 _atom_site_symmetry_multiplicity
 _atom_site_fract_x
 _atom_site_fract_y
 _atom_site_fract_z
 _atom_site_occupancy
  Li  Li0  1  0.24676397  0.25156511  0.24955176  1
  Li  Li1  1  0.00000398  0.99999687  0.49999231  1
  Li  Li2  1  0.50000705  0.50000005  0.99999092  1
  Li  Li3  1  0.74392487  0.24854848  0.24930091  1
  Li  Li4  1  0.50000419  0.00001629  0.49997863  1
  Li  Li5  1  0.00000788  0.50001222  0.99996992  1
  Li  Li6  1  0.25610397  0.75146388  0.75067388  1
  Li  Li7  1  0.75323071  0.74844563  0.75042989  1
  V  V8  1  -0.00000306  0.00000070  0.99999386  1
  V  V9  1  0.50000139  0.50000861  0.49999458  1
  Fe  Fe10  1  0.49998177  0.00001343  -0.00002763  1
  Fe  Fe11  1  0.00000373  0.49999939  0.49999058  1
  Fe  Fe12  1  0.25140835  0.25040535  0.74979751  1
  Fe  Fe13  1  0.74860324  0.74958812  0.25018213  1
  Fe  Fe14  1  0.25245857  0.74947247  0.24840163  1
  Fe  Fe15  1  0.74752704  0.25051990  0.75159902  1
  O  O16  1  0.23288337  0.76060752  0.00947591  1
  O  O17  1  0.99820752  0.51542677  0.26052457  1
  O  O18  1  0.99938526  0.01113322  0.76117952  1
  O  O19  1  0.25056867  0.26594620  0.50725846  1
  O  O20  1  0.49993908  0.51548466  0.24985512  1
  O  O21  1  0.77696909  0.76696310  0.00674627  1
  O  O22  1  0.50174324  0.98104005  0.24723914  1
  O  O23  1  0.25260043  0.73321785  0.49242859  1
  O  O24  1  0.74740772  0.26678541  0.50754925  1
  O  O25  1  0.49826113  0.01896721  0.75275061  1
  O  O26  1  0.22303281  0.23305354  0.99323574  1
  O  O27  1  0.50006868  0.48451599  0.75012576  1
  O  O28  1  0.74944053  0.73405754  0.49271973  1
  O  O29  1  0.00062478  0.98886845  0.23880057  1
  O  O30  1  0.00180057  0.48457606  0.73945687  1
  O  O31  1  0.76712046  0.23939493  0.99050599  1
