# generated using pymatgen
data_Li2MnN2
_symmetry_space_group_name_H-M   'P 1'
_cell_length_a   3.02619964
_cell_length_b   3.02642215
_cell_length_c   5.42321501
_cell_angle_alpha   89.99999855
_cell_angle_beta   89.99322253
_cell_angle_gamma   120.00244699
_symmetry_Int_Tables_number   1
_chemical_formula_structural   Li2MnN2
_chemical_formula_sum   'Li2 Mn1 N2'
_cell_volume   43.01340508
_cell_formula_units_Z   1
loop_
 _symmetry_equiv_pos_site_id
 _symmetry_equiv_pos_as_xyz
  1  'x, y, z'
loop_
 _atom_site_type_symbol
 _atom_site_label
 _atom_site_symmetry_multiplicity
 _atom_site_fract_x
 _atom_site_fract_y
 _atom_site_fract_z
 _atom_site_occupancy
  Li  Li0  1  0.66649010  0.33324505  0.35373712  1
  Li  Li1  1  0.33350990  0.66675495  0.64626288  1
  Mn  Mn2  1  -0.00000000  -0.00000000  -0.00000000  1
  N  N3  1  0.66679924  0.33339962  0.80068100  1
  N  N4  1  0.33320076  0.66660038  0.19931900  1
