# generated using pymatgen
data_KLiMoO4
_symmetry_space_group_name_H-M   'P 1'
_cell_length_a   9.11467026
_cell_length_b   19.32826348
_cell_length_c   19.32833532
_cell_angle_alpha   119.99988547
_cell_angle_beta   90.00000000
_cell_angle_gamma   90.00000000
_symmetry_Int_Tables_number   1
_chemical_formula_structural   KLiMoO4
_chemical_formula_sum   'K24 Li24 Mo24 O96'
_cell_volume   2948.89550497
_cell_formula_units_Z   24
loop_
 _symmetry_equiv_pos_site_id
 _symmetry_equiv_pos_as_xyz
  1  'x, y, z'
loop_
 _atom_site_type_symbol
 _atom_site_label
 _atom_site_symmetry_multiplicity
 _atom_site_fract_x
 _atom_site_fract_y
 _atom_site_fract_z
 _atom_site_occupancy
  K  K0  1  0.23069553  0.99999993  0.99999986  1
  K  K1  1  0.73069553  0.00000007  0.00000014  1
  K  K2  1  0.23983040  0.33338612  0.66669333  1
  K  K3  1  0.73983040  0.66661388  0.33330667  1
  K  K4  1  0.16810425  0.66663743  0.33331880  1
  K  K5  1  0.66810425  0.33336257  0.66668120  1
  K  K6  1  0.17541956  0.15438713  0.32537150  1
  K  K7  1  0.17541711  0.67463143  0.82901861  1
  K  K8  1  0.17541684  0.17098244  0.84561038  1
  K  K9  1  0.67541956  0.84561287  0.67462850  1
  K  K10  1  0.67541711  0.32536857  0.17098139  1
  K  K11  1  0.67541684  0.82901756  0.15438962  1
  K  K12  1  0.19940519  0.00082684  0.49693387  1
  K  K13  1  0.19940497  0.50306575  0.50389177  1
  K  K14  1  0.19940483  0.49610669  0.99917275  1
  K  K15  1  0.69940519  0.99917316  0.50306613  1
  K  K16  1  0.69940497  0.49693425  0.49610823  1
  K  K17  1  0.69940483  0.50389331  0.00082725  1
  K  K18  1  0.24282650  0.83785457  0.17644566  1
  K  K19  1  0.24282473  0.82355704  0.66141001  1
  K  K20  1  0.24282672  0.33858755  0.16214468  1
  K  K21  1  0.74282650  0.16214543  0.82355434  1
  K  K22  1  0.74282473  0.17644296  0.33858999  1
  K  K23  1  0.74282672  0.66141245  0.83785532  1
  Li  Li24  1  0.37836018  0.17168268  0.16110453  1
  Li  Li25  1  0.37836022  0.83889553  0.01057845  1
  Li  Li26  1  0.37835941  0.98942130  0.82831545  1
  Li  Li27  1  0.87836018  0.82831732  0.83889547  1
  Li  Li28  1  0.87836022  0.16110447  0.98942155  1
  Li  Li29  1  0.87835941  0.01057870  0.17168455  1
  Li  Li30  1  0.54083034  0.98929920  0.32764141  1
  Li  Li31  1  0.54083068  0.67236172  0.66165932  1
  Li  Li32  1  0.54083156  0.33833847  0.01069821  1
  Li  Li33  1  0.04083034  0.01070080  0.67235859  1
  Li  Li34  1  0.04083068  0.32763828  0.33834068  1
  Li  Li35  1  0.04083156  0.66166153  0.98930179  1
  Li  Li36  1  0.54347576  0.17152655  0.66171829  1
  Li  Li37  1  0.54347248  0.33827648  0.50980191  1
  Li  Li38  1  0.54347038  0.49019971  0.82848082  1
  Li  Li39  1  0.04347576  0.82847345  0.33828171  1
  Li  Li40  1  0.04347248  0.66172352  0.49019809  1
  Li  Li41  1  0.04347038  0.50980029  0.17151918  1
  Li  Li42  1  0.53884649  0.49096582  0.32930827  1
  Li  Li43  1  0.53884993  0.67069501  0.16166107  1
  Li  Li44  1  0.53885381  0.83834011  0.50903004  1
  Li  Li45  1  0.03884649  0.50903418  0.67069173  1
  Li  Li46  1  0.03884993  0.32930499  0.83833893  1
  Li  Li47  1  0.03885381  0.16165989  0.49096996  1
  Mo  Mo48  1  0.49538842  0.01322786  0.16696546  1
  Mo  Mo49  1  0.49538654  0.83303400  0.84626239  1
  Mo  Mo50  1  0.49538728  0.15373530  0.98676972  1
  Mo  Mo51  1  0.99538842  0.98677214  0.83303454  1
  Mo  Mo52  1  0.99538654  0.16696600  0.15373761  1
  Mo  Mo53  1  0.99538728  0.84626470  0.01323028  1
  Mo  Mo54  1  0.42575662  0.33341717  0.34516918  1
  Mo  Mo55  1  0.42575608  0.65483124  0.98824841  1
  Mo  Mo56  1  0.42576065  0.01175181  0.66658228  1
  Mo  Mo57  1  0.92575662  0.66658283  0.65483082  1
  Mo  Mo58  1  0.92575608  0.34516876  0.01175159  1
  Mo  Mo59  1  0.92576065  0.98824819  0.33341772  1
  Mo  Mo60  1  0.43577638  0.83246703  0.34347797  1
  Mo  Mo61  1  0.43577565  0.65652119  0.48899314  1
  Mo  Mo62  1  0.43577743  0.51100446  0.16752508  1
  Mo  Mo63  1  0.93577638  0.16753297  0.65652203  1
  Mo  Mo64  1  0.93577565  0.34347881  0.51100686  1
  Mo  Mo65  1  0.93577743  0.48899554  0.83247492  1
  Mo  Mo66  1  0.43214552  0.15510190  0.48673692  1
  Mo  Mo67  1  0.43214180  0.51326648  0.66836572  1
  Mo  Mo68  1  0.43214785  0.33162856  0.84489415  1
  Mo  Mo69  1  0.93214552  0.84489810  0.51326308  1
  Mo  Mo70  1  0.93214180  0.48673352  0.33163428  1
  Mo  Mo71  1  0.93214785  0.66837144  0.15510585  1
  O  O72  1  0.67841670  0.05324442  0.18642305  1
  O  O73  1  0.67842140  0.81357643  0.86682185  1
  O  O74  1  0.67842024  0.13317844  0.94675466  1
  O  O75  1  0.17841670  0.94675558  0.81357695  1
  O  O76  1  0.17842140  0.18642357  0.13317815  1
  O  O77  1  0.17842024  0.86682156  0.05324534  1
  O  O78  1  0.46587990  0.95872578  0.21924043  1
  O  O79  1  0.46588164  0.78076024  0.73948770  1
  O  O80  1  0.46588218  0.26051377  0.04127364  1
  O  O81  1  0.96587990  0.04127422  0.78075957  1
  O  O82  1  0.96588164  0.21923976  0.26051230  1
  O  O83  1  0.96588218  0.73948623  0.95872636  1
  O  O84  1  0.36698491  0.09458695  0.20002883  1
  O  O85  1  0.36698751  0.79997210  0.89455809  1
  O  O86  1  0.36698641  0.10544209  0.90541391  1
  O  O87  1  0.86698491  0.90541305  0.79997117  1
  O  O88  1  0.86698751  0.20002790  0.10544191  1
  O  O89  1  0.86698641  0.89455791  0.09458609  1
  O  O90  1  0.47675026  0.94531364  0.06166713  1
  O  O91  1  0.47675212  0.93833453  0.88364763  1
  O  O92  1  0.47675193  0.11635267  0.05468584  1
  O  O93  1  0.97675026  0.05468636  0.93833287  1
  O  O94  1  0.97675212  0.06166547  0.11635237  1
  O  O95  1  0.97675193  0.88364733  0.94531416  1
  O  O96  1  0.44191108  0.43921721  0.38215218  1
  O  O97  1  0.44191131  0.61784752  0.05706519  1
  O  O98  1  0.44191307  0.94293593  0.56078738  1
  O  O99  1  0.94191108  0.56078279  0.61784782  1
  O  O100  1  0.94191131  0.38215248  0.94293481  1
  O  O101  1  0.94191307  0.05706407  0.43921262  1
  O  O102  1  0.55659028  0.30351716  0.39520627  1
  O  O103  1  0.55659081  0.60479427  0.90831061  1
  O  O104  1  0.55659188  0.09169071  0.69648563  1
  O  O105  1  0.05659028  0.69648284  0.60479373  1
  O  O106  1  0.05659081  0.39520573  0.09168939  1
  O  O107  1  0.05659188  0.90830929  0.30351437  1
  O  O108  1  0.24477906  0.31161028  0.36505896  1
  O  O109  1  0.24477927  0.63493985  0.94655019  1
  O  O110  1  0.24478347  0.05344824  0.68839175  1
  O  O111  1  0.74477906  0.68838972  0.63494104  1
  O  O112  1  0.74477927  0.36506015  0.05344981  1
  O  O113  1  0.74478347  0.94655176  0.31160825  1
  O  O114  1  0.45661391  0.27889843  0.23851254  1
  O  O115  1  0.45661326  0.76148619  0.04038483  1
  O  O116  1  0.45661618  0.95961242  0.72110469  1
  O  O117  1  0.95661391  0.72110157  0.76148746  1
  O  O118  1  0.95661326  0.23851381  0.95961517  1
  O  O119  1  0.95661618  0.04038758  0.27889531  1
  O  O120  1  0.55966773  0.80030330  0.39463117  1
  O  O121  1  0.55966573  0.60536321  0.40567411  1
  O  O122  1  0.55966521  0.59432279  0.19968788  1
  O  O123  1  0.05966773  0.19969670  0.60536883  1
  O  O124  1  0.05966573  0.39463679  0.59432589  1
  O  O125  1  0.05966521  0.40567721  0.80031212  1
  O  O126  1  0.47285702  0.78065304  0.23749933  1
  O  O127  1  0.47285836  0.76249907  0.54315421  1
  O  O128  1  0.47285977  0.45684673  0.21934608  1
  O  O129  1  0.97285702  0.21934696  0.76250067  1
  O  O130  1  0.97285836  0.23750093  0.45684579  1
  O  O131  1  0.97285977  0.54315327  0.78065392  1
  O  O132  1  0.44996378  0.93841359  0.38295579  1
  O  O133  1  0.44996676  0.61704316  0.55546169  1
  O  O134  1  0.44996793  0.44453659  0.06157937  1
  O  O135  1  0.94996378  0.06158641  0.61704421  1
  O  O136  1  0.94996676  0.38295684  0.44453831  1
  O  O137  1  0.94996793  0.55546341  0.93842063  1
  O  O138  1  0.25126870  0.81094837  0.35920654  1
  O  O139  1  0.25127069  0.64078933  0.45174957  1
  O  O140  1  0.25126836  0.54824553  0.18903611  1
  O  O141  1  0.75126870  0.18905163  0.64079346  1
  O  O142  1  0.75127069  0.35921067  0.54825043  1
  O  O143  1  0.75126836  0.45175447  0.81096389  1
  O  O144  1  0.55328810  0.10591319  0.40206608  1
  O  O145  1  0.55328862  0.59793577  0.70384655  1
  O  O146  1  0.55328848  0.29615278  0.89408745  1
  O  O147  1  0.05328810  0.89408681  0.59793392  1
  O  O148  1  0.05328862  0.40206423  0.29615345  1
  O  O149  1  0.05328848  0.70384722  0.10591255  1
  O  O150  1  0.45928951  0.11603329  0.55257164  1
  O  O151  1  0.45928762  0.44742892  0.56346567  1
  O  O152  1  0.45928847  0.43653890  0.88396345  1
  O  O153  1  0.95928951  0.88396671  0.44742836  1
  O  O154  1  0.95928762  0.55257108  0.43653433  1
  O  O155  1  0.95928847  0.56346110  0.11603655  1
  O  O156  1  0.46385700  0.26173390  0.54003698  1
  O  O157  1  0.46385431  0.45996836  0.72170029  1
  O  O158  1  0.46385700  0.27830656  0.73826930  1
  O  O159  1  0.96385700  0.73826610  0.45996302  1
  O  O160  1  0.96385431  0.54003164  0.27829971  1
  O  O161  1  0.96385700  0.72169344  0.26173070  1
  O  O162  1  0.24611120  0.13420904  0.45164672  1
  O  O163  1  0.24610492  0.54835288  0.68256278  1
  O  O164  1  0.24610789  0.31743802  0.86579001  1
  O  O165  1  0.74611120  0.86579096  0.54835328  1
  O  O166  1  0.74610492  0.45164712  0.31743722  1
  O  O167  1  0.74610789  0.68256198  0.13420999  1
