# generated using pymatgen
data_Li6V3P8O29
_symmetry_space_group_name_H-M   'P 1'
_cell_length_a   9.83200994
_cell_length_b   9.83200994
_cell_length_c   13.93774960
_cell_angle_alpha   89.89784097
_cell_angle_beta   89.89784097
_cell_angle_gamma   60.21632077
_symmetry_Int_Tables_number   1
_chemical_formula_structural   Li6V3P8O29
_chemical_formula_sum   'Li12 V6 P16 O58'
_cell_volume   1169.36350439
_cell_formula_units_Z   2
loop_
 _symmetry_equiv_pos_site_id
 _symmetry_equiv_pos_as_xyz
  1  'x, y, z'
loop_
 _atom_site_type_symbol
 _atom_site_label
 _atom_site_symmetry_multiplicity
 _atom_site_fract_x
 _atom_site_fract_y
 _atom_site_fract_z
 _atom_site_occupancy
  Li  Li0  1  0.90699200  0.31562100  0.80996300  1
  Li  Li1  1  0.90406100  0.77410900  0.30915500  1
  Li  Li2  1  0.66512800  0.66269200  0.63378100  1
  Li  Li3  1  0.77471700  0.91406000  0.81166000  1
  Li  Li4  1  0.31797200  0.77401700  0.81255600  1
  Li  Li5  1  0.68437900  0.09300800  0.19003700  1
  Li  Li6  1  0.31952400  0.90820900  0.30934800  1
  Li  Li7  1  0.22589100  0.09593900  0.69084500  1
  Li  Li8  1  0.33730800  0.33487200  0.36621900  1
  Li  Li9  1  0.08594000  0.22528300  0.18834000  1
  Li  Li10  1  0.22598300  0.68202800  0.18744400  1
  Li  Li11  1  0.09179100  0.68047600  0.69065200  1
  V  V12  1  0.56852400  0.00229200  0.00018500  1
  V  V13  1  0.43542300  0.99988600  0.50061800  1
  V  V14  1  0.57075700  0.42924300  0.50000000  1
  V  V15  1  0.43598200  0.56401800  0.00000000  1
  V  V16  1  0.99770800  0.43147600  0.99981500  1
  V  V17  1  0.00011400  0.56457700  0.49938200  1
  P  P18  1  0.91125100  0.31822000  0.59074100  1
  P  P19  1  0.76649700  0.31797800  0.09337800  1
  P  P20  1  0.91133000  0.76738800  0.09172000  1
  P  P21  1  0.66803900  0.66765600  0.87596000  1
  P  P22  1  0.66459700  0.66811800  0.37725400  1
  P  P23  1  0.77099700  0.90894900  0.59364600  1
  P  P24  1  0.68178000  0.08874900  0.40925900  1
  P  P25  1  0.32058500  0.76860200  0.59318500  1
  P  P26  1  0.68202200  0.23350300  0.90662200  1
  P  P27  1  0.32146700  0.91151400  0.09059400  1
  P  P28  1  0.23261200  0.08867000  0.90828000  1
  P  P29  1  0.33234400  0.33196100  0.12404000  1
  P  P30  1  0.33188200  0.33540300  0.62274600  1
  P  P31  1  0.09105100  0.22900300  0.40635400  1
  P  P32  1  0.23139800  0.67941500  0.40681500  1
  P  P33  1  0.08848600  0.67853300  0.90940600  1
  O  O34  1  0.00625600  0.24178700  0.31554200  1
  O  O35  1  0.91417000  0.33867300  0.08875400  1
  O  O36  1  0.76671100  0.23803900  0.81956100  1
  O  O37  1  0.74769700  0.33808700  0.58933000  1
  O  O38  1  0.89193200  0.48511600  0.57545500  1
  O  O39  1  0.81403100  0.51256400  0.91391800  1
  O  O40  1  0.89920800  0.62026200  0.07427400  1
  O  O41  1  0.00116500  0.75657600  0.81875600  1
  O  O42  1  0.92006500  0.74479100  0.58990700  1
  O  O43  1  0.65843300  0.52647000  0.42473300  1
  O  O44  1  0.61908100  0.47896300  0.07496600  1
  O  O45  1  0.81662800  0.66686500  0.41780100  1
  O  O46  1  0.66859000  0.66751700  0.76767900  1
  O  O47  1  0.66009400  0.67345000  0.27112600  1
  O  O48  1  0.67562600  0.81357200  0.91469200  1
  O  O49  1  0.48590200  0.62575400  0.57932400  1
  O  O50  1  0.51397200  0.67408900  0.91429600  1
  O  O51  1  0.74774800  0.91695000  0.09088600  1
  O  O52  1  0.78690500  0.99777400  0.50050500  1
  O  O53  1  0.75750400  0.99598300  0.31937500  1
  O  O54  1  0.75821300  0.99374400  0.68445800  1
  O  O55  1  0.62615000  0.88617400  0.57543600  1
  O  O56  1  0.51488700  0.82064500  0.41944700  1
  O  O57  1  0.66132700  0.08583000  0.91124600  1
  O  O58  1  0.48055900  0.90192700  0.07239200  1
  O  O59  1  0.33809200  0.74649000  0.08930600  1
  O  O60  1  0.78832300  0.21167700  0.00000000  1
  O  O61  1  0.76196100  0.23328900  0.18043900  1
  O  O62  1  0.24344600  0.75972500  0.31803600  1
  O  O63  1  0.66191300  0.25230300  0.41067000  1
  O  O64  1  0.51488400  0.10806800  0.42454500  1
  O  O65  1  0.33189600  0.91994300  0.59329200  1
  O  O66  1  0.48743600  0.18596900  0.08608200  1
  O  O67  1  0.37973800  0.10079200  0.92572600  1
  O  O68  1  0.24159200  0.99995700  0.81819900  1
  O  O69  1  0.24342400  0.99883500  0.18124400  1
  O  O70  1  0.21101600  0.99974800  0.99967700  1
  O  O71  1  0.25520900  0.07993500  0.41009300  1
  O  O72  1  0.47353000  0.34156700  0.57526700  1
  O  O73  1  0.52103700  0.38091900  0.92503400  1
  O  O74  1  0.33313500  0.18337200  0.58219900  1
  O  O75  1  0.32655000  0.33990600  0.72887400  1
  O  O76  1  0.33248300  0.33141000  0.23232100  1
  O  O77  1  0.18642800  0.32437400  0.08530800  1
  O  O78  1  0.37424600  0.51409800  0.42067600  1
  O  O79  1  0.32591100  0.48602800  0.08570400  1
  O  O80  1  0.08305000  0.25225200  0.90911400  1
  O  O81  1  0.00222600  0.21309500  0.49949500  1
  O  O82  1  0.00401700  0.24249600  0.68062500  1
  O  O83  1  0.11382600  0.37385000  0.42456400  1
  O  O84  1  0.17935500  0.48511300  0.58055300  1
  O  O85  1  0.09807300  0.51944100  0.92760800  1
  O  O86  1  0.25351000  0.66190800  0.91069400  1
  O  O87  1  0.24027500  0.75655400  0.68196400  1
  O  O88  1  0.21690800  0.78309200  0.50000000  1
  O  O89  1  0.08005700  0.66810400  0.40670800  1
  O  O90  1  0.00004300  0.75840800  0.18180100  1
  O  O91  1  0.00025200  0.78898400  0.00032300  1
