# generated using pymatgen
data_Li2Fe3SnO8
_symmetry_space_group_name_H-M   'P 1'
_cell_length_a   6.00222490
_cell_length_b   6.13605521
_cell_length_c   8.65924526
_cell_angle_alpha   88.49938075
_cell_angle_beta   90.39088484
_cell_angle_gamma   89.08176167
_symmetry_Int_Tables_number   1
_chemical_formula_structural   Li2Fe3SnO8
_chemical_formula_sum   'Li4 Fe6 Sn2 O16'
_cell_volume   318.76117515
_cell_formula_units_Z   2
loop_
 _symmetry_equiv_pos_site_id
 _symmetry_equiv_pos_as_xyz
  1  'x, y, z'
loop_
 _atom_site_type_symbol
 _atom_site_label
 _atom_site_symmetry_multiplicity
 _atom_site_fract_x
 _atom_site_fract_y
 _atom_site_fract_z
 _atom_site_occupancy
  Li  Li0  1  0.99299200  0.24586200  0.11997600  1
  Li  Li1  1  0.49285400  0.74624000  0.62016200  1
  Li  Li2  1  0.00592800  0.75302800  0.88012700  1
  Li  Li3  1  0.50586000  0.25294200  0.38014600  1
  Fe  Fe4  1  0.49939700  0.00071900  0.99976200  1
  Fe  Fe5  1  0.75006500  0.24992000  0.74991400  1
  Fe  Fe6  1  0.75011300  0.74961100  0.25032400  1
  Fe  Fe7  1  0.99928700  0.50070300  0.49985500  1
  Fe  Fe8  1  0.25000000  0.74989200  0.25000000  1
  Fe  Fe9  1  0.25032300  0.24969400  0.75009500  1
  Sn  Sn10  1  0.00090100  0.00082400  0.49981400  1
  Sn  Sn11  1  0.50091700  0.50075200  0.99991100  1
  O  O12  1  0.98400900  0.53610900  0.26087500  1
  O  O13  1  0.48417100  0.03611300  0.76074000  1
  O  O14  1  0.01613800  0.46281700  0.73865000  1
  O  O15  1  0.51614800  0.96270700  0.23874600  1
  O  O16  1  0.22883400  0.74307400  0.48535400  1
  O  O17  1  0.72891200  0.24303400  0.98528300  1
  O  O18  1  0.76875700  0.74835000  0.48795000  1
  O  O19  1  0.26887900  0.24823900  0.98788600  1
  O  O20  1  0.99567100  0.97497600  0.25767600  1
  O  O21  1  0.49566200  0.47501900  0.75769400  1
  O  O22  1  0.00451100  0.02492400  0.74240400  1
  O  O23  1  0.50431300  0.52474000  0.24248600  1
  O  O24  1  0.23159300  0.25247300  0.51182000  1
  O  O25  1  0.73166200  0.75236100  0.01198500  1
  O  O26  1  0.77100000  0.25743700  0.51516300  1
  O  O27  1  0.27110300  0.75743700  0.01520100  1
