# generated using pymatgen
data_Li9Co3P8O29
_symmetry_space_group_name_H-M   'P 1'
_cell_length_a   9.83375915
_cell_length_b   9.83375915
_cell_length_c   13.74438780
_cell_angle_alpha   89.86362654
_cell_angle_beta   89.86362654
_cell_angle_gamma   59.79588178
_symmetry_Int_Tables_number   1
_chemical_formula_structural   Li9Co3P8O29
_chemical_formula_sum   'Li18 Co6 P16 O58'
_cell_volume   1148.67344162
_cell_formula_units_Z   2
loop_
 _symmetry_equiv_pos_site_id
 _symmetry_equiv_pos_as_xyz
  1  'x, y, z'
loop_
 _atom_site_type_symbol
 _atom_site_label
 _atom_site_symmetry_multiplicity
 _atom_site_fract_x
 _atom_site_fract_y
 _atom_site_fract_z
 _atom_site_occupancy
  Li  Li0  1  0.10057500  0.23843000  0.93706000  1
  Li  Li1  1  0.23843000  0.10057500  0.43706000  1
  Li  Li2  1  0.09420900  0.67572800  0.43504200  1
  Li  Li3  1  0.33475400  0.33275300  0.61970400  1
  Li  Li4  1  0.33275300  0.33475400  0.11970400  1
  Li  Li5  1  0.00141600  0.02587700  0.50087700  1
  Li  Li6  1  0.23692000  0.66360500  0.93629400  1
  Li  Li7  1  0.67572800  0.09420900  0.93504200  1
  Li  Li8  1  0.32767200  0.76942000  0.56427900  1
  Li  Li9  1  0.66360500  0.23692000  0.43629400  1
  Li  Li10  1  0.33921600  0.90053700  0.06402100  1
  Li  Li11  1  0.76942000  0.32767200  0.06427900  1
  Li  Li12  1  0.66797700  0.66539400  0.38027500  1
  Li  Li13  1  0.66539400  0.66797700  0.88027500  1
  Li  Li14  1  0.90053700  0.33921600  0.56402100  1
  Li  Li15  1  0.76445500  0.90231900  0.56279500  1
  Li  Li16  1  0.90231900  0.76445500  0.06279500  1
  Li  Li17  1  0.02587700  0.00141600  0.00087700  1
  Co  Co18  1  0.00058100  0.43660700  0.74982800  1
  Co  Co19  1  0.43805800  0.56127100  0.74875300  1
  Co  Co20  1  0.56127100  0.43805900  0.24875300  1
  Co  Co21  1  0.43660700  0.00058100  0.24982800  1
  Co  Co22  1  0.56367200  0.99871700  0.75086400  1
  Co  Co23  1  0.99871700  0.56367200  0.25086400  1
  P  P24  1  0.09270500  0.22518700  0.15672100  1
  P  P25  1  0.22518700  0.09270500  0.65672100  1
  P  P26  1  0.09141900  0.67927600  0.65441900  1
  P  P27  1  0.33145300  0.33399600  0.37317100  1
  P  P28  1  0.33399600  0.33145300  0.87317100  1
  P  P29  1  0.22408300  0.68628900  0.15610100  1
  P  P30  1  0.31674600  0.77620600  0.34446900  1
  P  P31  1  0.67927600  0.09141900  0.15441900  1
  P  P32  1  0.31618300  0.90875900  0.84432200  1
  P  P33  1  0.68628900  0.22408300  0.65610100  1
  P  P34  1  0.77620600  0.31674600  0.84446900  1
  P  P35  1  0.66641000  0.66596700  0.62669000  1
  P  P36  1  0.66596700  0.66641000  0.12669000  1
  P  P37  1  0.90875900  0.31618300  0.34432200  1
  P  P38  1  0.76943300  0.91052200  0.34429500  1
  P  P39  1  0.91052200  0.76943300  0.84429500  1
  O  O40  1  0.00339300  0.21208700  0.25139300  1
  O  O41  1  0.00280300  0.22560900  0.43421600  1
  O  O42  1  0.07521000  0.25413200  0.65462500  1
  O  O43  1  0.22560900  0.00280300  0.93421600  1
  O  O44  1  0.25413200  0.07521000  0.15462500  1
  O  O45  1  0.11036300  0.37138500  0.16714300  1
  O  O46  1  0.18890600  0.32463500  0.83263100  1
  O  O47  1  0.11308100  0.51310300  0.66540400  1
  O  O48  1  0.00697700  0.76106200  0.93283300  1
  O  O49  1  0.00070800  0.78125800  0.74939200  1
  O  O50  1  0.07486500  0.67485800  0.15678800  1
  O  O51  1  0.32463500  0.18890600  0.33263100  1
  O  O52  1  0.37138500  0.11036300  0.66714300  1
  O  O53  1  0.18316000  0.48876200  0.33719100  1
  O  O54  1  0.32632500  0.33514300  0.98318000  1
  O  O55  1  0.33514200  0.32632500  0.48318000  1
  O  O56  1  0.33117500  0.48302900  0.83461600  1
  O  O57  1  0.51310300  0.11308100  0.16540400  1
  O  O58  1  0.48876200  0.18316000  0.83719100  1
  O  O59  1  0.25239500  0.66764500  0.65268600  1
  O  O60  1  0.21512700  0.78881400  0.24950400  1
  O  O61  1  0.22403800  0.77424000  0.43298500  1
  O  O62  1  0.22698500  0.77762500  0.06647300  1
  O  O63  1  0.37014800  0.52063200  0.16520700  1
  O  O64  1  0.48302900  0.33117500  0.33461600  1
  O  O65  1  0.52063200  0.37014800  0.66520700  1
  O  O66  1  0.32688500  0.74851700  0.84373300  1
  O  O67  1  0.67485800  0.07486500  0.65678800  1
  O  O68  1  0.21208700  0.00339300  0.75139300  1
  O  O69  1  0.22768000  0.99834800  0.56794400  1
  O  O70  1  0.76106200  0.00697700  0.43283300  1
  O  O71  1  0.32863000  0.92543000  0.34592000  1
  O  O72  1  0.66764500  0.25239500  0.15268600  1
  O  O73  1  0.48121600  0.62875500  0.33422800  1
  O  O74  1  0.51186700  0.67317900  0.66338700  1
  O  O75  1  0.62875500  0.48121600  0.83422800  1
  O  O76  1  0.77424000  0.22403800  0.93298500  1
  O  O77  1  0.77762500  0.22698500  0.56647300  1
  O  O78  1  0.78881400  0.21512700  0.74950400  1
  O  O79  1  0.74851700  0.32688500  0.34373300  1
  O  O80  1  0.51309800  0.81231600  0.16692400  1
  O  O81  1  0.48077200  0.88971900  0.83441100  1
  O  O82  1  0.67317900  0.51186700  0.16338700  1
  O  O83  1  0.67182500  0.66295400  0.51668800  1
  O  O84  1  0.66295400  0.67182500  0.01668800  1
  O  O85  1  0.81231600  0.51309800  0.66692400  1
  O  O86  1  0.62500300  0.88897100  0.33406900  1
  O  O87  1  0.67006200  0.81406000  0.66496900  1
  O  O88  1  0.92543000  0.32863000  0.84592000  1
  O  O89  1  0.99834800  0.22768000  0.06794400  1
  O  O90  1  0.88971900  0.48077200  0.33441100  1
  O  O91  1  0.81406000  0.67006200  0.16496900  1
  O  O92  1  0.88897100  0.62500300  0.83406900  1
  O  O93  1  0.74925600  0.91907800  0.84603300  1
  O  O94  1  0.76892400  0.99497000  0.06602100  1
  O  O95  1  0.78125800  0.00070800  0.24939200  1
  O  O96  1  0.91907800  0.74925600  0.34603300  1
  O  O97  1  0.99497000  0.76892400  0.56602100  1
