# generated using pymatgen
data_Li4Mn3NbO8
_symmetry_space_group_name_H-M   'P 1'
_cell_length_a   6.25181525
_cell_length_b   10.60137385
_cell_length_c   6.16757950
_cell_angle_alpha   90.11235776
_cell_angle_beta   60.23533588
_cell_angle_gamma   71.65976021
_symmetry_Int_Tables_number   1
_chemical_formula_structural   Li4Mn3NbO8
_chemical_formula_sum   'Li8 Mn6 Nb2 O16'
_cell_volume   330.55667074
_cell_formula_units_Z   2
loop_
 _symmetry_equiv_pos_site_id
 _symmetry_equiv_pos_as_xyz
  1  'x, y, z'
loop_
 _atom_site_type_symbol
 _atom_site_label
 _atom_site_symmetry_multiplicity
 _atom_site_fract_x
 _atom_site_fract_y
 _atom_site_fract_z
 _atom_site_occupancy
  Li  Li0  1  0.48854800  0.24952500  0.76114100  1
  Li  Li1  1  0.51233100  0.75050200  0.23793400  1
  Li  Li2  1  0.00688500  0.75025300  0.24225000  1
  Li  Li3  1  0.99326000  0.24957400  0.75726600  1
  Li  Li4  1  0.98339800  0.76067500  0.74204800  1
  Li  Li5  1  0.01634500  0.23931000  0.25897800  1
  Li  Li6  1  0.51504100  0.26237400  0.24046400  1
  Li  Li7  1  0.48660200  0.73820900  0.75889800  1
  Mn  Mn8  1  0.49959100  0.99982200  0.49984800  1
  Mn  Mn9  1  0.49946800  0.00007300  0.00023900  1
  Mn  Mn10  1  0.50018700  0.50021000  0.49977200  1
  Mn  Mn11  1  0.50055700  0.50007300  0.99941500  1
  Mn  Mn12  1  0.99938200  0.99984400  0.50048300  1
  Mn  Mn13  1  0.00059900  0.49981300  0.99959500  1
  Nb  Nb14  1  0.00052100  0.49998300  0.49976900  1
  Nb  Nb15  1  0.99947500  0.00001800  0.00023700  1
  O  O16  1  0.77553900  0.89330300  0.61144100  1
  O  O17  1  0.72526100  0.39291100  0.11536400  1
  O  O18  1  0.27529900  0.60721000  0.88450000  1
  O  O19  1  0.22299500  0.10625000  0.38927000  1
  O  O20  1  0.22476300  0.37465800  0.15728200  1
  O  O21  1  0.22283900  0.88383100  0.63631000  1
  O  O22  1  0.77593500  0.11602200  0.36440300  1
  O  O23  1  0.77585000  0.62537200  0.84266200  1
  O  O24  1  0.24039600  0.37982500  0.60946100  1
  O  O25  1  0.24595400  0.87754800  0.09742400  1
  O  O26  1  0.75298300  0.12247300  0.90302000  1
  O  O27  1  0.76047900  0.62027900  0.39023100  1
  O  O28  1  0.77838200  0.88097600  0.11259400  1
  O  O29  1  0.75623200  0.38858700  0.64311600  1
  O  O30  1  0.24443600  0.61155600  0.35662400  1
  O  O31  1  0.22046800  0.11894400  0.88796100  1
