# generated using pymatgen
data_Li4MnCo2O7
_symmetry_space_group_name_H-M   'P 1'
_cell_length_a   5.11633491
_cell_length_b   5.11633491
_cell_length_c   18.34196859
_cell_angle_alpha   82.34067554
_cell_angle_beta   82.34067554
_cell_angle_gamma   32.85236052
_symmetry_Int_Tables_number   1
_chemical_formula_structural   Li4MnCo2O7
_chemical_formula_sum   'Li8 Mn2 Co4 O14'
_cell_volume   257.93530313
_cell_formula_units_Z   2
loop_
 _symmetry_equiv_pos_site_id
 _symmetry_equiv_pos_as_xyz
  1  'x, y, z'
loop_
 _atom_site_type_symbol
 _atom_site_label
 _atom_site_symmetry_multiplicity
 _atom_site_fract_x
 _atom_site_fract_y
 _atom_site_fract_z
 _atom_site_occupancy
  Li  Li0  1  0.50000000  0.50000000  0.50000000  1
  Li  Li1  1  0.92807200  0.92807200  0.65373400  1
  Li  Li2  1  0.36444400  0.36444400  0.79565000  1
  Li  Li3  1  0.79479700  0.79479700  0.93594300  1
  Li  Li4  1  0.20520300  0.20520300  0.06405700  1
  Li  Li5  1  0.63555600  0.63555600  0.20435000  1
  Li  Li6  1  0.07192800  0.07192800  0.34626600  1
  Li  Li7  1  0.50000000  0.50000000  0.00000000  1
  Mn  Mn8  1  0.78489000  0.78489000  0.42510200  1
  Mn  Mn9  1  0.21511000  0.21511000  0.57489800  1
  Co  Co10  1  0.64329200  0.64329200  0.72268200  1
  Co  Co11  1  0.08130600  0.08130600  0.87244100  1
  Co  Co12  1  0.91869400  0.91869400  0.12755900  1
  Co  Co13  1  0.35670800  0.35670800  0.27731800  1
  O  O14  1  0.41553600  0.41553600  0.39630600  1
  O  O15  1  0.84152900  0.84152900  0.53583400  1
  O  O16  1  0.27710400  0.27710400  0.67647800  1
  O  O17  1  0.70622100  0.70622100  0.82039100  1
  O  O18  1  0.14593500  0.14593500  0.95833000  1
  O  O19  1  0.55218700  0.55218700  0.11015700  1
  O  O20  1  0.98532400  0.98532400  0.25290100  1
  O  O21  1  0.58446400  0.58446400  0.60369400  1
  O  O22  1  0.01467600  0.01467600  0.74709900  1
  O  O23  1  0.44781300  0.44781300  0.88984300  1
  O  O24  1  0.85406500  0.85406500  0.04167000  1
  O  O25  1  0.29377900  0.29377900  0.17960900  1
  O  O26  1  0.72289600  0.72289600  0.32352200  1
  O  O27  1  0.15847100  0.15847100  0.46416600  1
