# generated using pymatgen
data_K4LiH3(SO4)4
_symmetry_space_group_name_H-M   'P 1'
_cell_length_a   7.45828100
_cell_length_b   7.45828100
_cell_length_c   31.29488900
_cell_angle_alpha   90.00000000
_cell_angle_beta   90.00000000
_cell_angle_gamma   90.00000000
_symmetry_Int_Tables_number   1
_chemical_formula_structural   K4LiH3(SO4)4
_chemical_formula_sum   'K16 Li4 H12 S16 O64'
_cell_volume   1740.80810211
_cell_formula_units_Z   4
loop_
 _symmetry_equiv_pos_site_id
 _symmetry_equiv_pos_as_xyz
  1  'x, y, z'
loop_
 _atom_site_type_symbol
 _atom_site_label
 _atom_site_symmetry_multiplicity
 _atom_site_fract_x
 _atom_site_fract_y
 _atom_site_fract_z
 _atom_site_occupancy
  K  K0  1  0.40253800  0.61097300  0.00134500  1
  K  K1  1  0.59746200  0.38902700  0.50134500  1
  K  K2  1  0.61097300  0.59746200  0.75134500  1
  K  K3  1  0.38902700  0.40253800  0.25134500  1
  K  K4  1  0.80219700  0.49937100  0.89556800  1
  K  K5  1  0.19780300  0.50062900  0.39556800  1
  K  K6  1  0.49937100  0.19780300  0.64556800  1
  K  K7  1  0.50062900  0.80219700  0.14556800  1
  K  K8  1  0.89046600  0.92515000  0.99154700  1
  K  K9  1  0.10953400  0.07485000  0.49154700  1
  K  K10  1  0.92515000  0.10953400  0.74154700  1
  K  K11  1  0.07485000  0.89046600  0.24154700  1
  K  K12  1  0.49348000  0.01423600  0.88128700  1
  K  K13  1  0.50652000  0.98576400  0.38128700  1
  K  K14  1  0.01423600  0.50652000  0.63128700  1
  K  K15  1  0.98576400  0.49348000  0.13128700  1
  Li  Li16  1  0.15171700  0.26693200  0.94093400  1
  Li  Li17  1  0.84828300  0.73306800  0.44093400  1
  Li  Li18  1  0.26693200  0.84828300  0.69093400  1
  Li  Li19  1  0.73306800  0.15171700  0.19093400  1
  H  H20  1  0.72287800  0.29811200  0.04533800  1
  H  H21  1  0.27712200  0.70188800  0.54533800  1
  H  H22  1  0.29811200  0.27712200  0.79533800  1
  H  H23  1  0.70188800  0.72287800  0.29533800  1
  H  H24  1  0.21383300  0.75862400  0.85046200  1
  H  H25  1  0.78616700  0.24137600  0.35046200  1
  H  H26  1  0.75862400  0.78616700  0.60046200  1
  H  H27  1  0.24137600  0.21383300  0.10046200  1
  H  H28  1  0.22402000  0.02857400  0.05115100  1
  H  H29  1  0.77598000  0.97142600  0.55115100  1
  H  H30  1  0.02857400  0.77598000  0.80115100  1
  H  H31  1  0.97142600  0.22402000  0.30115100  1
  S  S32  1  0.90035500  0.45986300  0.00622200  1
  S  S33  1  0.09964500  0.54013700  0.50622200  1
  S  S34  1  0.45986300  0.09964500  0.75622200  1
  S  S35  1  0.54013700  0.90035500  0.25622200  1
  S  S36  1  0.44334300  0.09001500  0.00215200  1
  S  S37  1  0.55665700  0.90998500  0.50215200  1
  S  S38  1  0.09001500  0.55665700  0.75215200  1
  S  S39  1  0.90998500  0.44334300  0.25215200  1
  S  S40  1  0.97349300  0.99487300  0.87664100  1
  S  S41  1  0.02650700  0.00512700  0.37664100  1
  S  S42  1  0.99487300  0.02650700  0.62664100  1
  S  S43  1  0.00512700  0.97349300  0.12664100  1
  S  S44  1  0.34793400  0.54271700  0.88792500  1
  S  S45  1  0.65206600  0.45728300  0.38792500  1
  S  S46  1  0.54271700  0.65206600  0.63792500  1
  S  S47  1  0.45728300  0.34793400  0.13792500  1
  O  O48  1  0.94296300  0.30391100  0.97876200  1
  O  O49  1  0.05703700  0.69608900  0.47876200  1
  O  O50  1  0.30391100  0.05703700  0.72876200  1
  O  O51  1  0.69608900  0.94296300  0.22876200  1
  O  O52  1  0.82674500  0.38297000  0.04991800  1
  O  O53  1  0.17325500  0.61703000  0.54991800  1
  O  O54  1  0.38297000  0.17325500  0.79991800  1
  O  O55  1  0.61703000  0.82674500  0.29991800  1
  O  O56  1  0.75823300  0.56970800  0.98681900  1
  O  O57  1  0.24176700  0.43029200  0.48681900  1
  O  O58  1  0.56970800  0.24176700  0.73681900  1
  O  O59  1  0.43029200  0.75823300  0.23681900  1
  O  O60  1  0.05553200  0.56564800  0.01930800  1
  O  O61  1  0.94446800  0.43435200  0.51930800  1
  O  O62  1  0.56564800  0.94446800  0.76930800  1
  O  O63  1  0.43435200  0.05553200  0.26930800  1
  O  O64  1  0.35753400  0.24561100  0.98160400  1
  O  O65  1  0.64246600  0.75438900  0.48160400  1
  O  O66  1  0.24561100  0.64246600  0.73160400  1
  O  O67  1  0.75438900  0.35753400  0.23160400  1
  O  O68  1  0.57500600  0.14025400  0.03465000  1
  O  O69  1  0.42499400  0.85974600  0.53465000  1
  O  O70  1  0.14025400  0.42499400  0.78465000  1
  O  O71  1  0.85974600  0.57500600  0.28465000  1
  O  O72  1  0.28760100  0.97529400  0.02507000  1
  O  O73  1  0.71239900  0.02470600  0.52507000  1
  O  O74  1  0.97529400  0.71239900  0.77507000  1
  O  O75  1  0.02470600  0.28760100  0.27507000  1
  O  O76  1  0.51387700  0.95959200  0.97161900  1
  O  O77  1  0.48612300  0.04040800  0.47161900  1
  O  O78  1  0.95959200  0.48612300  0.72161900  1
  O  O79  1  0.04040800  0.51387700  0.22161900  1
  O  O80  1  0.10665300  0.04924900  0.90992800  1
  O  O81  1  0.89334700  0.95075100  0.40992800  1
  O  O82  1  0.04924900  0.89334700  0.65992800  1
  O  O83  1  0.95075100  0.10665300  0.15992800  1
  O  O84  1  0.87803400  0.15075300  0.85864600  1
  O  O85  1  0.12196600  0.84924700  0.35864600  1
  O  O86  1  0.15075300  0.12196600  0.60864600  1
  O  O87  1  0.84924700  0.87803400  0.10864600  1
  O  O88  1  0.08078400  0.90241900  0.84095600  1
  O  O89  1  0.91921600  0.09758100  0.34095600  1
  O  O90  1  0.90241900  0.91921600  0.59095600  1
  O  O91  1  0.09758100  0.08078400  0.09095600  1
  O  O92  1  0.84508000  0.86356500  0.89509400  1
  O  O93  1  0.15492000  0.13643500  0.39509400  1
  O  O94  1  0.86356500  0.15492000  0.64509400  1
  O  O95  1  0.13643500  0.84508000  0.14509400  1
  O  O96  1  0.17236400  0.49055200  0.90608100  1
  O  O97  1  0.82763600  0.50944800  0.40608100  1
  O  O98  1  0.49055200  0.82763600  0.65608100  1
  O  O99  1  0.50944800  0.17236400  0.15608100  1
  O  O100  1  0.31291300  0.66054700  0.84687300  1
  O  O101  1  0.68708700  0.33945300  0.34687300  1
  O  O102  1  0.66054700  0.68708700  0.59687300  1
  O  O103  1  0.33945300  0.31291300  0.09687300  1
  O  O104  1  0.45067700  0.65666900  0.91739900  1
  O  O105  1  0.54932300  0.34333100  0.41739900  1
  O  O106  1  0.65666900  0.54932300  0.66739900  1
  O  O107  1  0.34333100  0.45067700  0.16739900  1
  O  O108  1  0.45248100  0.39004200  0.87240100  1
  O  O109  1  0.54751900  0.60995800  0.37240100  1
  O  O110  1  0.39004200  0.54751900  0.62240100  1
  O  O111  1  0.60995800  0.45248100  0.12240100  1
