# generated using pymatgen
data_LiV3Zn2O8
_symmetry_space_group_name_H-M   'P 1'
_cell_length_a   6.00141394
_cell_length_b   5.99661469
_cell_length_c   10.31823785
_cell_angle_alpha   73.21782036
_cell_angle_beta   89.84339617
_cell_angle_gamma   120.21291002
_symmetry_Int_Tables_number   1
_chemical_formula_structural   LiV3Zn2O8
_chemical_formula_sum   'Li2 V6 Zn4 O16'
_cell_volume   302.26851965
_cell_formula_units_Z   2
loop_
 _symmetry_equiv_pos_site_id
 _symmetry_equiv_pos_as_xyz
  1  'x, y, z'
loop_
 _atom_site_type_symbol
 _atom_site_label
 _atom_site_symmetry_multiplicity
 _atom_site_fract_x
 _atom_site_fract_y
 _atom_site_fract_z
 _atom_site_occupancy
  Li  Li0  1  0.30335600  0.61722900  0.06238200  1
  Li  Li1  1  0.82161500  0.63275000  0.56263000  1
  V  V2  1  0.06245700  0.62499200  0.81253900  1
  V  V3  1  0.06246800  0.62497400  0.31249900  1
  V  V4  1  0.56250900  0.62495800  0.81252700  1
  V  V5  1  0.06263500  0.12506800  0.31242200  1
  V  V6  1  0.56261900  0.12502500  0.81250000  1
  V  V7  1  0.56244200  0.62508900  0.31242200  1
  Zn  Zn8  1  0.50339500  0.00409100  0.49216600  1
  Zn  Zn9  1  0.00173200  0.00319700  0.99183700  1
  Zn  Zn10  1  0.62156900  0.24590000  0.13284700  1
  Zn  Zn11  1  0.12321900  0.24677000  0.63317800  1
  O  O12  1  0.17826200  0.37699700  0.42675900  1
  O  O13  1  0.69597100  0.39471200  0.92628100  1
  O  O14  1  0.94677700  0.87301300  0.19826200  1
  O  O15  1  0.42904000  0.85526600  0.69870000  1
  O  O16  1  0.40647300  0.36621300  0.20422400  1
  O  O17  1  0.93066000  0.38919600  0.70444800  1
  O  O18  1  0.71853400  0.88381300  0.42083000  1
  O  O19  1  0.19440400  0.86088500  0.92052100  1
  O  O20  1  0.71707700  0.41244500  0.42099700  1
  O  O21  1  0.20308500  0.40801400  0.92012000  1
  O  O22  1  0.17178300  0.87564900  0.42065400  1
  O  O23  1  0.66585100  0.86150300  0.92093200  1
  O  O24  1  0.95320500  0.37429900  0.20439600  1
  O  O25  1  0.45912000  0.38843400  0.70404100  1
  O  O26  1  0.40786800  0.83756900  0.20402200  1
  O  O27  1  0.92187600  0.84195100  0.70486500  1
