# generated using pymatgen
data_Li9Mn2Co5O16
_symmetry_space_group_name_H-M   'P 1'
_cell_length_a   5.89711100
_cell_length_b   6.44151675
_cell_length_c   7.87248978
_cell_angle_alpha   86.06599459
_cell_angle_beta   75.85911941
_cell_angle_gamma   76.88190063
_symmetry_Int_Tables_number   1
_chemical_formula_structural   Li9Mn2Co5O16
_chemical_formula_sum   'Li9 Mn2 Co5 O16'
_cell_volume   282.39054391
_cell_formula_units_Z   1
loop_
 _symmetry_equiv_pos_site_id
 _symmetry_equiv_pos_as_xyz
  1  'x, y, z'
loop_
 _atom_site_type_symbol
 _atom_site_label
 _atom_site_symmetry_multiplicity
 _atom_site_fract_x
 _atom_site_fract_y
 _atom_site_fract_z
 _atom_site_occupancy
  Li  Li0  1  0.94207500  0.87656900  0.37109000  1
  Li  Li1  1  0.67648800  0.36649200  0.87686400  1
  Li  Li2  1  0.43082300  0.87503000  0.36478500  1
  Li  Li3  1  0.80220200  0.63224000  0.12340900  1
  Li  Li4  1  0.56917700  0.12497000  0.63521500  1
  Li  Li5  1  0.32351200  0.63350800  0.12313600  1
  Li  Li6  1  0.19779800  0.36776000  0.87659100  1
  Li  Li7  1  0.05792500  0.12343100  0.62891000  1
  Li  Li8  1  0.50000000  0.00000000  0.00000000  1
  Mn  Mn9  1  0.87129500  0.75326800  0.75488400  1
  Mn  Mn10  1  0.12870500  0.24673200  0.24511600  1
  Co  Co11  1  0.62205100  0.25128700  0.24428100  1
  Co  Co12  1  0.37794900  0.74871300  0.75571900  1
  Co  Co13  1  0.24789400  0.50052300  0.49795900  1
  Co  Co14  1  0.00000000  0.00000000  0.00000000  1
  Co  Co15  1  0.75210600  0.49947700  0.50204100  1
  O  O16  1  0.15173500  0.79254000  0.56689800  1
  O  O17  1  0.91932500  0.29512900  0.08111900  1
  O  O18  1  0.66684200  0.79422100  0.58336200  1
  O  O19  1  0.01338700  0.54808300  0.31849400  1
  O  O20  1  0.78463100  0.04563500  0.80849300  1
  O  O21  1  0.52042000  0.54365200  0.32014500  1
  O  O22  1  0.38677400  0.31498000  0.07300400  1
  O  O23  1  0.26763100  0.03657800  0.81720600  1
  O  O24  1  0.73236900  0.96342200  0.18279400  1
  O  O25  1  0.47958000  0.45634800  0.67985500  1
  O  O26  1  0.21536900  0.95436500  0.19150700  1
  O  O27  1  0.61322600  0.68502000  0.92699600  1
  O  O28  1  0.33315800  0.20577900  0.41663800  1
  O  O29  1  0.08067500  0.70487100  0.91888100  1
  O  O30  1  0.98661300  0.45191700  0.68150600  1
  O  O31  1  0.84826500  0.20746000  0.43310200  1
