# generated using pymatgen
data_LiMn7O12
_symmetry_space_group_name_H-M   'P 1'
_cell_length_a   6.42400920
_cell_length_b   6.41958794
_cell_length_c   10.50740244
_cell_angle_alpha   89.61551457
_cell_angle_beta   90.33000787
_cell_angle_gamma   109.58295740
_symmetry_Int_Tables_number   1
_chemical_formula_structural   LiMn7O12
_chemical_formula_sum   'Li2 Mn14 O24'
_cell_volume   408.24346987
_cell_formula_units_Z   2
loop_
 _symmetry_equiv_pos_site_id
 _symmetry_equiv_pos_as_xyz
  1  'x, y, z'
loop_
 _atom_site_type_symbol
 _atom_site_label
 _atom_site_symmetry_multiplicity
 _atom_site_fract_x
 _atom_site_fract_y
 _atom_site_fract_z
 _atom_site_occupancy
  Li  Li0  1  0.00009600  0.00005600  0.99994300  1
  Li  Li1  1  0.50007800  0.49999700  0.49999300  1
  Mn  Mn2  1  0.50001900  0.50001400  0.00012400  1
  Mn  Mn3  1  0.75322400  0.24646400  0.25020800  1
  Mn  Mn4  1  0.24665700  0.75363300  0.74973200  1
  Mn  Mn5  1  0.99996600  0.99997000  0.49993900  1
  Mn  Mn6  1  0.25331500  0.74851400  0.25005100  1
  Mn  Mn7  1  0.74680900  0.25149000  0.74996600  1
  Mn  Mn8  1  0.50007000  0.99993900  0.99996300  1
  Mn  Mn9  1  0.99989000  0.49996100  0.49997500  1
  Mn  Mn10  1  0.00010600  0.49995800  0.99999300  1
  Mn  Mn11  1  0.49993300  0.00009600  0.49999600  1
  Mn  Mn12  1  0.75438800  0.74794000  0.24880400  1
  Mn  Mn13  1  0.24567300  0.25209100  0.75119500  1
  Mn  Mn14  1  0.25054000  0.24552800  0.25043400  1
  Mn  Mn15  1  0.74942000  0.75440900  0.74955600  1
  O  O16  1  0.66349800  0.97238400  0.15397300  1
  O  O17  1  0.15769100  0.47442400  0.65827600  1
  O  O18  1  0.78243800  0.59448600  0.08948500  1
  O  O19  1  0.27370500  0.10279100  0.59775200  1
  O  O20  1  0.40556200  0.21866400  0.09011500  1
  O  O21  1  0.89556600  0.72430300  0.59460600  1
  O  O22  1  0.06737300  0.93318000  0.24246500  1
  O  O23  1  0.56216400  0.43830300  0.74796300  1
  O  O24  1  0.25109300  0.74671300  0.43676900  1
  O  O25  1  0.74772900  0.24457300  0.93482100  1
  O  O26  1  0.47471900  0.15583300  0.34260300  1
  O  O27  1  0.96904100  0.66706400  0.84097900  1
  O  O28  1  0.03090800  0.33292900  0.15907800  1
  O  O29  1  0.52522400  0.84422500  0.65742400  1
  O  O30  1  0.25237300  0.75534700  0.06524900  1
  O  O31  1  0.74879100  0.25333300  0.56316900  1
  O  O32  1  0.43785400  0.56165400  0.25196700  1
  O  O33  1  0.93269200  0.06676500  0.75759100  1
  O  O34  1  0.72617900  0.89720700  0.40217200  1
  O  O35  1  0.21772900  0.40555000  0.91063400  1
  O  O36  1  0.10438000  0.27569700  0.40530900  1
  O  O37  1  0.59440300  0.78126900  0.90994200  1
  O  O38  1  0.84217100  0.52559400  0.34175500  1
  O  O39  1  0.33653300  0.02765400  0.84603400  1
