# generated using pymatgen
data_Li4MnCo2O7
_symmetry_space_group_name_H-M   'P 1'
_cell_length_a   3.02240700
_cell_length_b   5.99729625
_cell_length_c   14.23120483
_cell_angle_alpha   82.83503872
_cell_angle_beta   84.31586727
_cell_angle_gamma   84.96366029
_symmetry_Int_Tables_number   1
_chemical_formula_structural   Li4MnCo2O7
_chemical_formula_sum   'Li8 Mn2 Co4 O14'
_cell_volume   253.94138583
_cell_formula_units_Z   2
loop_
 _symmetry_equiv_pos_site_id
 _symmetry_equiv_pos_as_xyz
  1  'x, y, z'
loop_
 _atom_site_type_symbol
 _atom_site_label
 _atom_site_symmetry_multiplicity
 _atom_site_fract_x
 _atom_site_fract_y
 _atom_site_fract_z
 _atom_site_occupancy
  Li  Li0  1  0.85918800  0.42875000  0.78462400  1
  Li  Li1  1  0.43288900  0.70878400  0.63958900  1
  Li  Li2  1  0.00000000  0.00000000  0.50000000  1
  Li  Li3  1  0.28454700  0.14405200  0.93019800  1
  Li  Li4  1  0.71545300  0.85594800  0.06980200  1
  Li  Li5  1  0.14081200  0.57125000  0.21537600  1
  Li  Li6  1  0.56711100  0.29121600  0.36041100  1
  Li  Li7  1  0.00000000  0.50000000  0.50000000  1
  Mn  Mn8  1  0.85862700  0.92852000  0.78460500  1
  Mn  Mn9  1  0.14137300  0.07148000  0.21539500  1
  Co  Co10  1  0.43617000  0.22856200  0.63656300  1
  Co  Co11  1  0.56383000  0.77143800  0.36343700  1
  Co  Co12  1  0.71639500  0.35919000  0.07093800  1
  Co  Co13  1  0.28360500  0.64081000  0.92906200  1
  O  O14  1  0.33299300  0.68362700  0.79239400  1
  O  O15  1  0.90333300  0.97555400  0.64670200  1
  O  O16  1  0.48848200  0.24345000  0.51340800  1
  O  O17  1  0.75859800  0.40428500  0.93514800  1
  O  O18  1  0.18774600  0.11801400  0.07608900  1
  O  O19  1  0.61586900  0.82639800  0.22512100  1
  O  O20  1  0.05109000  0.55395100  0.35744600  1
  O  O21  1  0.38413100  0.17360200  0.77487900  1
  O  O22  1  0.94891000  0.44604900  0.64255400  1
  O  O23  1  0.51151800  0.75655000  0.48659200  1
  O  O24  1  0.81225400  0.88198600  0.92391100  1
  O  O25  1  0.24140200  0.59571500  0.06485200  1
  O  O26  1  0.66700700  0.31637300  0.20760600  1
  O  O27  1  0.09666700  0.02444600  0.35329800  1
