# generated using pymatgen
data_Li9Mn2Co5O16
_symmetry_space_group_name_H-M   'P 1'
_cell_length_a   5.76647300
_cell_length_b   5.86283594
_cell_length_c   8.95288923
_cell_angle_alpha   89.50994572
_cell_angle_beta   71.31459034
_cell_angle_gamma   89.82311372
_symmetry_Int_Tables_number   1
_chemical_formula_structural   Li9Mn2Co5O16
_chemical_formula_sum   'Li9 Mn2 Co5 O16'
_cell_volume   286.71414566
_cell_formula_units_Z   1
loop_
 _symmetry_equiv_pos_site_id
 _symmetry_equiv_pos_as_xyz
  1  'x, y, z'
loop_
 _atom_site_type_symbol
 _atom_site_label
 _atom_site_symmetry_multiplicity
 _atom_site_fract_x
 _atom_site_fract_y
 _atom_site_fract_z
 _atom_site_occupancy
  Li  Li0  1  0.87546000  0.74647600  0.73953600  1
  Li  Li1  1  0.12405800  0.25625500  0.25447700  1
  Li  Li2  1  0.74816200  0.99236400  0.50253100  1
  Li  Li3  1  0.00182600  0.50369700  0.00118100  1
  Li  Li4  1  0.61659500  0.25631000  0.26524400  1
  Li  Li5  1  0.49688200  0.50277700  0.00350700  1
  Li  Li6  1  0.38612000  0.74531700  0.73966200  1
  Li  Li7  1  0.25068300  0.99553500  0.49454900  1
  Li  Li8  1  0.75139400  0.50286700  0.50051800  1
  Mn  Mn9  1  0.00099000  0.99917200  0.99948100  1
  Mn  Mn10  1  0.87469300  0.25469400  0.74849600  1
  Co  Co11  1  0.24584300  0.50219700  0.50423400  1
  Co  Co12  1  0.50026500  0.99856700  0.99765200  1
  Co  Co13  1  0.12233300  0.74458000  0.25736700  1
  Co  Co14  1  0.38788700  0.25811000  0.73376300  1
  Co  Co15  1  0.62018200  0.74300100  0.25744700  1
  O  O16  1  0.74820300  0.77991700  0.00056800  1
  O  O17  1  0.00253000  0.26528100  0.52479300  1
  O  O18  1  0.63986400  0.02042400  0.74422900  1
  O  O19  1  0.87834600  0.52484200  0.24216000  1
  O  O20  1  0.47824800  0.26152500  0.51418900  1
  O  O21  1  0.37530400  0.50240300  0.24851800  1
  O  O22  1  0.24842800  0.77666300  0.99888700  1
  O  O23  1  0.11021300  0.01743100  0.76741200  1
  O  O24  1  0.02052000  0.73312300  0.49043000  1
  O  O25  1  0.25506300  0.22003100  0.99277700  1
  O  O26  1  0.88200900  0.99890400  0.23177300  1
  O  O27  1  0.10928900  0.48258600  0.76180800  1
  O  O28  1  0.75643700  0.22534900  0.98559300  1
  O  O29  1  0.62981300  0.47971300  0.75895200  1
  O  O30  1  0.48698600  0.73228300  0.49236100  1
  O  O31  1  0.37537300  0.97760600  0.24590400  1
