# generated using pymatgen
data_Li7Mn5O12
_symmetry_space_group_name_H-M   'P 1'
_cell_length_a   6.47818429
_cell_length_b   9.35237779
_cell_length_c   7.80847612
_cell_angle_alpha   71.59737572
_cell_angle_beta   89.41798342
_cell_angle_gamma   81.76182565
_symmetry_Int_Tables_number   1
_chemical_formula_structural   Li7Mn5O12
_chemical_formula_sum   'Li14 Mn10 O24'
_cell_volume   443.95250930
_cell_formula_units_Z   2
loop_
 _symmetry_equiv_pos_site_id
 _symmetry_equiv_pos_as_xyz
  1  'x, y, z'
loop_
 _atom_site_type_symbol
 _atom_site_label
 _atom_site_symmetry_multiplicity
 _atom_site_fract_x
 _atom_site_fract_y
 _atom_site_fract_z
 _atom_site_occupancy
  Li  Li0  1  0.74959200  0.26577000  0.50365600  1
  Li  Li1  1  0.25052300  0.73430600  0.49649300  1
  Li  Li2  1  0.00014900  0.50003300  0.49985100  1
  Li  Li3  1  0.49995000  0.00000500  0.50001800  1
  Li  Li4  1  0.25314300  0.24483400  0.00026500  1
  Li  Li5  1  0.74684600  0.75501700  0.99974800  1
  Li  Li6  1  0.16217600  0.66763900  0.15927900  1
  Li  Li7  1  0.65716600  0.16553900  0.15699900  1
  Li  Li8  1  0.83754200  0.33223200  0.84054800  1
  Li  Li9  1  0.34271300  0.83436300  0.84311600  1
  Li  Li10  1  0.91749200  0.42634000  0.16061400  1
  Li  Li11  1  0.42084800  0.93742900  0.16980300  1
  Li  Li12  1  0.08250100  0.57281700  0.83931400  1
  Li  Li13  1  0.57897500  0.06251700  0.82980000  1
  Mn  Mn14  1  0.49997000  0.50012500  0.99984200  1
  Mn  Mn15  1  0.99994400  0.99998500  0.00007200  1
  Mn  Mn16  1  0.41716900  0.41574700  0.67040500  1
  Mn  Mn17  1  0.91352500  0.91678700  0.67285400  1
  Mn  Mn18  1  0.58298500  0.58415300  0.32985600  1
  Mn  Mn19  1  0.08618400  0.08351100  0.32720700  1
  Mn  Mn20  1  0.16574400  0.17229600  0.66822000  1
  Mn  Mn21  1  0.66730600  0.67206800  0.67387700  1
  Mn  Mn22  1  0.83424900  0.82780900  0.33179100  1
  Mn  Mn23  1  0.33320900  0.32808400  0.32590800  1
  O  O24  1  0.22330800  0.45805300  0.08864700  1
  O  O25  1  0.72738100  0.95513900  0.09411900  1
  O  O26  1  0.77666700  0.54208300  0.91132700  1
  O  O27  1  0.27258200  0.04488000  0.90582600  1
  O  O28  1  0.30988100  0.53882700  0.42593900  1
  O  O29  1  0.81571900  0.01337100  0.41400600  1
  O  O30  1  0.69038400  0.46092700  0.57435000  1
  O  O31  1  0.18396500  0.98677000  0.58600400  1
  O  O32  1  0.89200700  0.13020600  0.76087700  1
  O  O33  1  0.38726800  0.62741200  0.76240900  1
  O  O34  1  0.10788500  0.86978300  0.23927300  1
  O  O35  1  0.61304600  0.37278300  0.23728300  1
  O  O36  1  0.96794300  0.17667500  0.08483000  1
  O  O37  1  0.46854300  0.67723900  0.08524400  1
  O  O38  1  0.03187500  0.82347600  0.91525100  1
  O  O39  1  0.53140500  0.32276200  0.91492100  1
  O  O40  1  0.05255200  0.29115700  0.42325300  1
  O  O41  1  0.56110900  0.79184100  0.42474000  1
  O  O42  1  0.94776200  0.70897200  0.57683200  1
  O  O43  1  0.43898100  0.20817400  0.57520000  1
  O  O44  1  0.14224100  0.35517800  0.73743000  1
  O  O45  1  0.64053300  0.87950400  0.74583900  1
  O  O46  1  0.85771800  0.64494600  0.26275500  1
  O  O47  1  0.35934200  0.12044100  0.25410900  1
