# generated using pymatgen
data_SrLiTi4CrO11
_symmetry_space_group_name_H-M   'P 1'
_cell_length_a   5.86114600
_cell_length_b   10.00468200
_cell_length_c   13.98079800
_cell_angle_alpha   90.00000000
_cell_angle_beta   90.00000000
_cell_angle_gamma   90.00000000
_symmetry_Int_Tables_number   1
_chemical_formula_structural   SrLiTi4CrO11
_chemical_formula_sum   'Sr4 Li4 Ti16 Cr4 O44'
_cell_volume   819.81864220
_cell_formula_units_Z   4
loop_
 _symmetry_equiv_pos_site_id
 _symmetry_equiv_pos_as_xyz
  1  'x, y, z'
loop_
 _atom_site_type_symbol
 _atom_site_label
 _atom_site_symmetry_multiplicity
 _atom_site_fract_x
 _atom_site_fract_y
 _atom_site_fract_z
 _atom_site_occupancy
  Sr  Sr0  1  0.25000000  0.10497600  0.09168300  1
  Sr  Sr1  1  0.25000000  0.39502400  0.59168300  1
  Sr  Sr2  1  0.75000000  0.60497600  0.40831700  1
  Sr  Sr3  1  0.75000000  0.89502400  0.90831700  1
  Li  Li4  1  0.25000000  0.07974600  0.54460400  1
  Li  Li5  1  0.25000000  0.42025400  0.04460400  1
  Li  Li6  1  0.75000000  0.92025400  0.45539600  1
  Li  Li7  1  0.75000000  0.57974600  0.95539600  1
  Ti  Ti8  1  0.99961500  0.66897200  0.17105600  1
  Ti  Ti9  1  0.99961500  0.83102800  0.67105600  1
  Ti  Ti10  1  0.25000000  0.06017400  0.83486000  1
  Ti  Ti11  1  0.25000000  0.61036800  0.83720700  1
  Ti  Ti12  1  0.25000000  0.88963200  0.33720700  1
  Ti  Ti13  1  0.25000000  0.43982600  0.33486000  1
  Ti  Ti14  1  0.50038500  0.66897200  0.17105600  1
  Ti  Ti15  1  0.50038500  0.83102800  0.67105600  1
  Ti  Ti16  1  0.49961500  0.16897200  0.32894400  1
  Ti  Ti17  1  0.49961500  0.33102800  0.82894400  1
  Ti  Ti18  1  0.75000000  0.11036800  0.66279300  1
  Ti  Ti19  1  0.75000000  0.38963200  0.16279300  1
  Ti  Ti20  1  0.75000000  0.56017400  0.66514000  1
  Ti  Ti21  1  0.75000000  0.93982600  0.16514000  1
  Ti  Ti22  1  0.00038500  0.16897200  0.32894400  1
  Ti  Ti23  1  0.00038500  0.33102800  0.82894400  1
  Cr  Cr24  1  0.25000000  0.76804500  0.00241900  1
  Cr  Cr25  1  0.25000000  0.73195500  0.50241900  1
  Cr  Cr26  1  0.75000000  0.23195500  0.99758100  1
  Cr  Cr27  1  0.75000000  0.26804500  0.49758100  1
  O  O28  1  0.99845700  0.49343500  0.74424000  1
  O  O29  1  0.99845700  0.00656500  0.24424000  1
  O  O30  1  0.00962900  0.32564200  0.41106900  1
  O  O31  1  0.00962900  0.17435800  0.91106900  1
  O  O32  1  0.02476400  0.81727000  0.41241100  1
  O  O33  1  0.02476400  0.68273000  0.91241100  1
  O  O34  1  0.25000000  0.74679200  0.24451800  1
  O  O35  1  0.25000000  0.24587600  0.76058500  1
  O  O36  1  0.25000000  0.25412400  0.26058500  1
  O  O37  1  0.25000000  0.60553100  0.08838700  1
  O  O38  1  0.25000000  0.75320800  0.74451800  1
  O  O39  1  0.25000000  0.89446900  0.58838700  1
  O  O40  1  0.25000000  0.94074500  0.93260400  1
  O  O41  1  0.25000000  0.42716900  0.89736600  1
  O  O42  1  0.25000000  0.55925500  0.43260400  1
  O  O43  1  0.25000000  0.07283100  0.39736600  1
  O  O44  1  0.47523600  0.81727000  0.41241100  1
  O  O45  1  0.47523600  0.68273000  0.91241100  1
  O  O46  1  0.49037100  0.32564200  0.41106900  1
  O  O47  1  0.49037100  0.17435800  0.91106900  1
  O  O48  1  0.50154300  0.00656500  0.24424000  1
  O  O49  1  0.50154300  0.49343500  0.74424000  1
  O  O50  1  0.49845700  0.50656500  0.25576000  1
  O  O51  1  0.49845700  0.99343500  0.75576000  1
  O  O52  1  0.50962900  0.82564200  0.08893100  1
  O  O53  1  0.50962900  0.67435800  0.58893100  1
  O  O54  1  0.52476400  0.31727000  0.08758900  1
  O  O55  1  0.52476400  0.18273000  0.58758900  1
  O  O56  1  0.75000000  0.57283100  0.10263400  1
  O  O57  1  0.75000000  0.75412400  0.23941500  1
  O  O58  1  0.75000000  0.05925500  0.06739600  1
  O  O59  1  0.75000000  0.10553100  0.41161300  1
  O  O60  1  0.75000000  0.24679200  0.25548200  1
  O  O61  1  0.75000000  0.25320800  0.75548200  1
  O  O62  1  0.75000000  0.39446900  0.91161300  1
  O  O63  1  0.75000000  0.44074500  0.56739600  1
  O  O64  1  0.75000000  0.74587600  0.73941500  1
  O  O65  1  0.75000000  0.92716900  0.60263400  1
  O  O66  1  0.97523600  0.18273000  0.58758900  1
  O  O67  1  0.97523600  0.31727000  0.08758900  1
  O  O68  1  0.99037100  0.67435800  0.58893100  1
  O  O69  1  0.99037100  0.82564200  0.08893100  1
  O  O70  1  0.00154300  0.99343500  0.75576000  1
  O  O71  1  0.00154300  0.50656500  0.25576000  1
