# generated using pymatgen
data_Li2VO2F
_symmetry_space_group_name_H-M   'P 1'
_cell_length_a   13.07543551
_cell_length_b   13.07543551
_cell_length_c   7.30915262
_cell_angle_alpha   89.68827719
_cell_angle_beta   89.68827719
_cell_angle_gamma   13.19508333
_symmetry_Int_Tables_number   1
_chemical_formula_structural   Li2VO2F
_chemical_formula_sum   'Li10 V5 O10 F5'
_cell_volume   285.24404807
_cell_formula_units_Z   5
loop_
 _symmetry_equiv_pos_site_id
 _symmetry_equiv_pos_as_xyz
  1  'x, y, z'
loop_
 _atom_site_type_symbol
 _atom_site_label
 _atom_site_symmetry_multiplicity
 _atom_site_fract_x
 _atom_site_fract_y
 _atom_site_fract_z
 _atom_site_occupancy
  Li  Li0  1  0.53512900  0.53512900  0.12019800  1
  Li  Li1  1  0.93190500  0.93190500  0.15888500  1
  Li  Li2  1  0.73316100  0.73316100  0.15590500  1
  Li  Li3  1  0.66240900  0.66240900  0.86412600  1
  Li  Li4  1  0.86565600  0.86565600  0.84147800  1
  Li  Li5  1  0.33254000  0.33254000  0.15815800  1
  Li  Li6  1  0.13040200  0.13040200  0.12740900  1
  Li  Li7  1  0.07417500  0.07417500  0.87014700  1
  Li  Li8  1  0.46470400  0.46470400  0.84441100  1
  Li  Li9  1  0.26622800  0.26622800  0.84086300  1
  V  V10  1  0.99719600  0.99719600  0.50161400  1
  V  V11  1  0.79998900  0.79998900  0.49882400  1
  V  V12  1  0.60386500  0.60386500  0.51874900  1
  V  V13  1  0.39861400  0.39861400  0.50076000  1
  V  V14  1  0.20118300  0.20118300  0.50168600  1
  O  O15  1  0.53292900  0.53292900  0.63350200  1
  O  O16  1  0.73439700  0.73439700  0.65324000  1
  O  O17  1  0.93205100  0.93205100  0.65571700  1
  O  O18  1  0.86658400  0.86658400  0.34489300  1
  O  O19  1  0.66615800  0.66615800  0.35742500  1
  O  O20  1  0.59951500  0.59951500  0.00318000  1
  O  O21  1  0.33302500  0.33302500  0.65458900  1
  O  O22  1  0.13417500  0.13417500  0.65671300  1
  O  O23  1  0.26708500  0.26708500  0.34436100  1
  O  O24  1  0.46571400  0.46571400  0.34612700  1
  F  F25  1  0.99565800  0.99565800  0.99910200  1
  F  F26  1  0.80107800  0.80107800  0.99970700  1
  F  F27  1  0.06754900  0.06754900  0.34576000  1
  F  F28  1  0.20378600  0.20378600  0.00188100  1
  F  F29  1  0.39894800  0.39894800  0.00058900  1
