# generated using pymatgen
data_Li5Fe2P5O18
_symmetry_space_group_name_H-M   'P 1'
_cell_length_a   6.51358900
_cell_length_b   9.30271474
_cell_length_c   10.63795759
_cell_angle_alpha   96.06091376
_cell_angle_beta   92.98230082
_cell_angle_gamma   91.16341764
_symmetry_Int_Tables_number   1
_chemical_formula_structural   Li5Fe2P5O18
_chemical_formula_sum   'Li10 Fe4 P10 O36'
_cell_volume   639.90972514
_cell_formula_units_Z   2
loop_
 _symmetry_equiv_pos_site_id
 _symmetry_equiv_pos_as_xyz
  1  'x, y, z'
loop_
 _atom_site_type_symbol
 _atom_site_label
 _atom_site_symmetry_multiplicity
 _atom_site_fract_x
 _atom_site_fract_y
 _atom_site_fract_z
 _atom_site_occupancy
  Li  Li0  1  0.98500100  0.05769400  0.87168600  1
  Li  Li1  1  0.82700600  0.12926900  0.35706000  1
  Li  Li2  1  0.12439800  0.21621300  0.66006700  1
  Li  Li3  1  0.55486300  0.27887700  0.59042500  1
  Li  Li4  1  0.34447100  0.37208400  0.86540700  1
  Li  Li5  1  0.65552900  0.62791600  0.13459300  1
  Li  Li6  1  0.44513700  0.72112300  0.40957500  1
  Li  Li7  1  0.87560200  0.78378700  0.33993300  1
  Li  Li8  1  0.17299400  0.87073100  0.64294000  1
  Li  Li9  1  0.01499900  0.94230600  0.12831400  1
  Fe  Fe10  1  0.66864100  0.23186800  0.05455700  1
  Fe  Fe11  1  0.23220300  0.35626200  0.40394400  1
  Fe  Fe12  1  0.76779700  0.64373800  0.59605600  1
  Fe  Fe13  1  0.33135900  0.76813200  0.94544300  1
  P  P14  1  0.48631400  0.05210300  0.79971600  1
  P  P15  1  0.22238200  0.00984300  0.40229500  1
  P  P16  1  0.17054700  0.26914100  0.10525400  1
  P  P17  1  0.83350400  0.41903700  0.82630200  1
  P  P18  1  0.72133300  0.41752600  0.34942000  1
  P  P19  1  0.27866700  0.58247400  0.65058000  1
  P  P20  1  0.16649600  0.58096300  0.17369800  1
  P  P21  1  0.82945300  0.73085900  0.89474600  1
  P  P22  1  0.77761800  0.99015700  0.59770500  1
  P  P23  1  0.51368600  0.94789700  0.20028400  1
  O  O24  1  0.97087100  0.01608100  0.68659500  1
  O  O25  1  0.66241200  0.07989100  0.90278600  1
  O  O26  1  0.41964300  0.02982500  0.32131600  1
  O  O27  1  0.73669100  0.11766000  0.52391700  1
  O  O28  1  0.67292800  0.06268800  0.16729200  1
  O  O29  1  0.39270500  0.18736700  0.75514100  1
  O  O30  1  0.22169300  0.15901200  0.48273200  1
  O  O31  1  0.98701900  0.17024000  0.05082100  1
  O  O32  1  0.01613600  0.32175700  0.81726600  1
  O  O33  1  0.23516100  0.24653400  0.23973900  1
  O  O34  1  0.67298000  0.37581300  0.91946300  1
  O  O35  1  0.35740500  0.25634800  0.02249600  1
  O  O36  1  0.92026200  0.33811600  0.38393400  1
  O  O37  1  0.54200800  0.35233100  0.41762500  1
  O  O38  1  0.73551500  0.44950700  0.69577700  1
  O  O39  1  0.25078100  0.42022200  0.59694800  1
  O  O40  1  0.67809900  0.39825200  0.20263600  1
  O  O41  1  0.07786500  0.42628700  0.10413200  1
  O  O42  1  0.92213500  0.57371300  0.89586800  1
  O  O43  1  0.32190100  0.60174800  0.79736400  1
  O  O44  1  0.74921900  0.57977800  0.40305200  1
  O  O45  1  0.26448500  0.55049300  0.30422300  1
  O  O46  1  0.45799200  0.64766900  0.58237500  1
  O  O47  1  0.07973800  0.66188400  0.61606600  1
  O  O48  1  0.64259500  0.74365200  0.97750400  1
  O  O49  1  0.32702000  0.62418700  0.08053700  1
  O  O50  1  0.76483900  0.75346600  0.76026100  1
  O  O51  1  0.98386400  0.67824300  0.18273400  1
  O  O52  1  0.01298100  0.82976000  0.94917900  1
  O  O53  1  0.77830700  0.84098800  0.51726800  1
  O  O54  1  0.60729500  0.81263300  0.24485900  1
  O  O55  1  0.32707200  0.93731200  0.83270800  1
  O  O56  1  0.26330900  0.88234000  0.47608300  1
  O  O57  1  0.58035700  0.97017500  0.67868400  1
  O  O58  1  0.33758800  0.92010900  0.09721400  1
  O  O59  1  0.02912900  0.98391900  0.31340500  1
