# generated using pymatgen
data_Li2MgCo3O8
_symmetry_space_group_name_H-M   'P 1'
_cell_length_a   5.74430159
_cell_length_b   5.95647941
_cell_length_c   8.20381050
_cell_angle_alpha   88.60756112
_cell_angle_beta   90.00444649
_cell_angle_gamma   89.98949210
_symmetry_Int_Tables_number   1
_chemical_formula_structural   Li2MgCo3O8
_chemical_formula_sum   'Li4 Mg2 Co6 O16'
_cell_volume   280.61716036
_cell_formula_units_Z   2
loop_
 _symmetry_equiv_pos_site_id
 _symmetry_equiv_pos_as_xyz
  1  'x, y, z'
loop_
 _atom_site_type_symbol
 _atom_site_label
 _atom_site_symmetry_multiplicity
 _atom_site_fract_x
 _atom_site_fract_y
 _atom_site_fract_z
 _atom_site_occupancy
  Li  Li0  1  0.00039100  0.49999700  0.00001000  1
  Li  Li1  1  0.50033200  0.99999300  0.50000200  1
  Li  Li2  1  0.49973800  0.50000900  0.99999100  1
  Li  Li3  1  0.99960600  0.00000100  0.50000200  1
  Mg  Mg4  1  0.00023400  0.99999800  0.99999800  1
  Mg  Mg5  1  0.50025500  0.50000100  0.50001100  1
  Co  Co6  1  0.00005800  0.50000100  0.50000100  1
  Co  Co7  1  0.74966400  0.25054400  0.74739100  1
  Co  Co8  1  0.74961800  0.74947400  0.25260600  1
  Co  Co9  1  0.49968700  0.00002500  0.99999300  1
  Co  Co10  1  0.25000900  0.74964500  0.25339900  1
  Co  Co11  1  0.25004900  0.25031400  0.74659900  1
  O  O12  1  0.49958500  0.96190000  0.25450600  1
  O  O13  1  0.00029000  0.46756100  0.73842400  1
  O  O14  1  0.00026000  0.53242500  0.26158000  1
  O  O15  1  0.49977300  0.03808900  0.74546900  1
  O  O16  1  0.99982200  0.94989600  0.24837900  1
  O  O17  1  0.49996100  0.45177900  0.74722100  1
  O  O18  1  0.50002900  0.54821600  0.25278200  1
  O  O19  1  0.99995900  0.05008800  0.75162600  1
  O  O20  1  0.76757300  0.72475200  0.47969300  1
  O  O21  1  0.26678000  0.22759500  0.97674800  1
  O  O22  1  0.23255300  0.72463600  0.47989200  1
  O  O23  1  0.73345900  0.22747200  0.97652200  1
  O  O24  1  0.26672000  0.77234400  0.02339900  1
  O  O25  1  0.76761200  0.27529500  0.52027400  1
  O  O26  1  0.73338900  0.77262100  0.02334300  1
  O  O27  1  0.23259300  0.27533000  0.52014100  1
