# generated using pymatgen
data_LiV5O7F
_symmetry_space_group_name_H-M   'P 1'
_cell_length_a   6.13716997
_cell_length_b   6.08176415
_cell_length_c   10.43627726
_cell_angle_alpha   89.56075007
_cell_angle_beta   107.09594857
_cell_angle_gamma   120.30403529
_symmetry_Int_Tables_number   1
_chemical_formula_structural   LiV5O7F
_chemical_formula_sum   'Li2 V10 O14 F2'
_cell_volume   316.74166999
_cell_formula_units_Z   2
loop_
 _symmetry_equiv_pos_site_id
 _symmetry_equiv_pos_as_xyz
  1  'x, y, z'
loop_
 _atom_site_type_symbol
 _atom_site_label
 _atom_site_symmetry_multiplicity
 _atom_site_fract_x
 _atom_site_fract_y
 _atom_site_fract_z
 _atom_site_occupancy
  Li  Li0  1  0.76062300  0.88199500  0.63929300  1
  Li  Li1  1  0.76240200  0.38479500  0.14003900  1
  V  V2  1  0.38290400  0.19706900  0.56881300  1
  V  V3  1  0.36569000  0.43062800  0.80321900  1
  V  V4  1  0.37241200  0.94305100  0.30603900  1
  V  V5  1  0.86814400  0.43061800  0.80323800  1
  V  V6  1  0.87662000  0.94304700  0.30604200  1
  V  V7  1  0.98869200  0.98690600  0.99053200  1
  V  V8  1  0.99449000  0.49873100  0.49029500  1
  V  V9  1  0.37490000  0.67916500  0.07065100  1
  V  V10  1  0.36601700  0.92662700  0.80548500  1
  V  V11  1  0.36930300  0.43421700  0.30441000  1
  O  O12  1  0.12458100  0.55876600  0.69026600  1
  O  O13  1  0.12394800  0.06034700  0.18754200  1
  O  O14  1  0.61641200  0.07095800  0.70193700  1
  O  O15  1  0.63120500  0.59409400  0.19350500  1
  O  O16  1  0.15625300  0.07079000  0.70193100  1
  O  O17  1  0.15661300  0.59411700  0.19354400  1
  O  O18  1  0.62822000  0.54969700  0.70660800  1
  O  O19  1  0.62049700  0.04064500  0.20028700  1
  O  O20  1  0.12791200  0.32603900  0.92961900  1
  O  O21  1  0.13215800  0.83761700  0.42699000  1
  O  O22  1  0.13389100  0.79330500  0.93178700  1
  O  O23  1  0.12596100  0.30051600  0.43134600  1
  O  O24  1  0.59126900  0.79341900  0.93178500  1
  O  O25  1  0.60608700  0.30067500  0.43129700  1
  F  F26  1  0.61795100  0.30517100  0.93094500  1
  F  F27  1  0.62484900  0.81699200  0.43255800  1
