# generated using pymatgen
data_Li2Mn3GaO8
_symmetry_space_group_name_H-M   'P 1'
_cell_length_a   5.90525285
_cell_length_b   8.25998436
_cell_length_c   6.00300141
_cell_angle_alpha   89.99998578
_cell_angle_beta   90.00340287
_cell_angle_gamma   89.96009707
_symmetry_Int_Tables_number   1
_chemical_formula_structural   Li2Mn3GaO8
_chemical_formula_sum   'Li4 Mn6 Ga2 O16'
_cell_volume   292.81010623
_cell_formula_units_Z   2
loop_
 _symmetry_equiv_pos_site_id
 _symmetry_equiv_pos_as_xyz
  1  'x, y, z'
loop_
 _atom_site_type_symbol
 _atom_site_label
 _atom_site_symmetry_multiplicity
 _atom_site_fract_x
 _atom_site_fract_y
 _atom_site_fract_z
 _atom_site_occupancy
  Li  Li0  1  0.23884300  0.12387200  0.99793500  1
  Li  Li1  1  0.73884600  0.62397000  0.50213900  1
  Li  Li2  1  0.76180400  0.87696400  0.99850200  1
  Li  Li3  1  0.26182100  0.37698300  0.50152700  1
  Mn  Mn4  1  0.24969600  0.74992100  0.74986500  1
  Mn  Mn5  1  0.25093600  0.74990500  0.24906600  1
  Mn  Mn6  1  0.00026800  0.00049400  0.51198200  1
  Mn  Mn7  1  0.75091700  0.25000100  0.25087600  1
  Mn  Mn8  1  0.74971400  0.24992800  0.75012500  1
  Mn  Mn9  1  0.50031600  0.50048300  0.98801500  1
  Ga  Ga10  1  0.00072000  0.49964600  0.99885800  1
  Ga  Ga11  1  0.50064900  0.99969300  0.50113500  1
  O  O12  1  0.51049000  0.26706700  0.97018100  1
  O  O13  1  0.01047500  0.76708000  0.52980100  1
  O  O14  1  0.48947200  0.73367200  0.97044900  1
  O  O15  1  0.98945800  0.23368300  0.52954700  1
  O  O16  1  0.96258000  0.25823000  0.99764000  1
  O  O17  1  0.46257000  0.75824400  0.50236800  1
  O  O18  1  0.74620600  0.48399000  0.77115400  1
  O  O19  1  0.23839400  0.98996000  0.28680600  1
  O  O20  1  0.73846000  0.48999700  0.21318700  1
  O  O21  1  0.24619600  0.98398300  0.72884200  1
  O  O22  1  0.25999600  0.50882800  0.21374800  1
  O  O23  1  0.75378000  0.01578400  0.72923000  1
  O  O24  1  0.25378500  0.51577100  0.77076800  1
  O  O25  1  0.75991400  0.00888600  0.28625600  1
  O  O26  1  0.03685900  0.74145800  0.99742100  1
  O  O27  1  0.53683600  0.24150800  0.50257600  1
