# generated using pymatgen
data_Li2Fe3SnO8
_symmetry_space_group_name_H-M   'P 1'
_cell_length_a   5.89267228
_cell_length_b   10.19383018
_cell_length_c   6.09759127
_cell_angle_alpha   106.52484098
_cell_angle_beta   60.78397306
_cell_angle_gamma   90.08904372
_symmetry_Int_Tables_number   1
_chemical_formula_structural   Li2Fe3SnO8
_chemical_formula_sum   'Li4 Fe6 Sn2 O16'
_cell_volume   302.32335112
_cell_formula_units_Z   2
loop_
 _symmetry_equiv_pos_site_id
 _symmetry_equiv_pos_as_xyz
  1  'x, y, z'
loop_
 _atom_site_type_symbol
 _atom_site_label
 _atom_site_symmetry_multiplicity
 _atom_site_fract_x
 _atom_site_fract_y
 _atom_site_fract_z
 _atom_site_occupancy
  Li  Li0  1  0.31373200  0.56152300  0.37209800  1
  Li  Li1  1  0.81655400  0.05667300  0.35676000  1
  Li  Li2  1  0.18253300  0.94186000  0.63273500  1
  Li  Li3  1  0.68425500  0.44135800  0.64289400  1
  Fe  Fe4  1  0.24854800  0.74995000  0.00010800  1
  Fe  Fe5  1  0.24907100  0.25047200  0.99904100  1
  Fe  Fe6  1  0.00432700  0.50124900  0.00289400  1
  Fe  Fe7  1  0.75161400  0.24972200  0.99883300  1
  Fe  Fe8  1  0.75321900  0.74546600  0.99902500  1
  Fe  Fe9  1  0.49585600  0.99925000  0.99796100  1
  Sn  Sn10  1  0.75032600  0.74848300  0.49872500  1
  Sn  Sn11  1  0.24968200  0.25208200  0.50098200  1
  O  O12  1  0.11227800  0.62800500  0.79216300  1
  O  O13  1  0.58904600  0.13397700  0.80183100  1
  O  O14  1  0.38984400  0.87786300  0.20286200  1
  O  O15  1  0.91184600  0.36024000  0.19861600  1
  O  O16  1  0.88895200  0.85791100  0.23011500  1
  O  O17  1  0.38454800  0.35540600  0.21911800  1
  O  O18  1  0.11977500  0.62811200  0.22777100  1
  O  O19  1  0.61373700  0.12526100  0.21838200  1
  O  O20  1  0.65431500  0.62309300  0.23166300  1
  O  O21  1  0.15842300  0.12891800  0.21797500  1
  O  O22  1  0.83370100  0.88202200  0.77681200  1
  O  O23  1  0.35084100  0.36612800  0.77636100  1
  O  O24  1  0.38188500  0.87613100  0.77706400  1
  O  O25  1  0.88469600  0.37200800  0.77765200  1
  O  O26  1  0.60916700  0.64252200  0.77141100  1
  O  O27  1  0.11722900  0.14431300  0.77814700  1
