# generated using pymatgen
data_Li5Br3O2
_symmetry_space_group_name_H-M   'P 1'
_cell_length_a   11.06927937
_cell_length_b   11.06927937
_cell_length_c   11.06927937
_cell_angle_alpha   159.34920589
_cell_angle_beta   159.34920589
_cell_angle_gamma   29.36722239
_symmetry_Int_Tables_number   1
_chemical_formula_structural   Li5Br3O2
_chemical_formula_sum   'Li5 Br3 O2'
_cell_volume   168.60056644
_cell_formula_units_Z   1
loop_
 _symmetry_equiv_pos_site_id
 _symmetry_equiv_pos_as_xyz
  1  'x, y, z'
loop_
 _atom_site_type_symbol
 _atom_site_label
 _atom_site_symmetry_multiplicity
 _atom_site_fract_x
 _atom_site_fract_y
 _atom_site_fract_z
 _atom_site_occupancy
  Li  Li0  1  0.50000000  0.50000000  0.00000000  1
  Li  Li1  1  0.68551100  0.68551100  0.00000000  1
  Li  Li2  1  0.31448900  0.31448900  0.00000000  1
  Li  Li3  1  0.09297300  0.59297300  0.50000000  1
  Li  Li4  1  0.40702700  0.90702700  0.50000000  1
  Br  Br5  1  0.00000000  0.00000000  0.00000000  1
  Br  Br6  1  0.18725100  0.18725100  0.00000000  1
  Br  Br7  1  0.81274900  0.81274900  0.00000000  1
  O  O8  1  0.59336900  0.59336900  0.00000000  1
  O  O9  1  0.40663100  0.40663100  0.00000000  1
