# generated using pymatgen
data_LiYb8Ge13
_symmetry_space_group_name_H-M   'P 1'
_cell_length_a   15.05489200
_cell_length_b   11.21946300
_cell_length_c   13.12147765
_cell_angle_alpha   69.89209522
_cell_angle_beta   90.00000000
_cell_angle_gamma   90.00000000
_symmetry_Int_Tables_number   1
_chemical_formula_structural   LiYb8Ge13
_chemical_formula_sum   'Li4 Yb32 Ge52'
_cell_volume   2081.22824529
_cell_formula_units_Z   4
loop_
 _symmetry_equiv_pos_site_id
 _symmetry_equiv_pos_as_xyz
  1  'x, y, z'
loop_
 _atom_site_type_symbol
 _atom_site_label
 _atom_site_symmetry_multiplicity
 _atom_site_fract_x
 _atom_site_fract_y
 _atom_site_fract_z
 _atom_site_occupancy
  Li  Li0  1  0.87455200  0.13979600  0.59425500  1
  Li  Li1  1  0.62544800  0.13979600  0.09425500  1
  Li  Li2  1  0.12544800  0.86020400  0.40574500  1
  Li  Li3  1  0.37455200  0.86020400  0.90574500  1
  Yb  Yb4  1  0.17427300  0.11451000  0.42392400  1
  Yb  Yb5  1  0.78387400  0.63600300  0.04486900  1
  Yb  Yb6  1  0.96856000  0.14773200  0.06400300  1
  Yb  Yb7  1  0.42794900  0.59948100  0.88429600  1
  Yb  Yb8  1  0.57205100  0.40051900  0.11570400  1
  Yb  Yb9  1  0.32572700  0.11451000  0.92392400  1
  Yb  Yb10  1  0.82572700  0.88549000  0.57607600  1
  Yb  Yb11  1  0.37049600  0.08435600  0.20782600  1
  Yb  Yb12  1  0.87569800  0.08872000  0.84323700  1
  Yb  Yb13  1  0.07205100  0.59948100  0.38429600  1
  Yb  Yb14  1  0.92794900  0.40051900  0.61570400  1
  Yb  Yb15  1  0.62950400  0.91564400  0.79217400  1
  Yb  Yb16  1  0.62430200  0.08872000  0.34323700  1
  Yb  Yb17  1  0.42922300  0.63169700  0.24455500  1
  Yb  Yb18  1  0.46856000  0.85226800  0.43599700  1
  Yb  Yb19  1  0.07077700  0.63169700  0.74455500  1
  Yb  Yb20  1  0.92922300  0.36830300  0.25544500  1
  Yb  Yb21  1  0.18529500  0.61523700  0.09118800  1
  Yb  Yb22  1  0.53144000  0.14773200  0.56400300  1
  Yb  Yb23  1  0.21612600  0.36399700  0.95513100  1
  Yb  Yb24  1  0.57077700  0.36830300  0.75544500  1
  Yb  Yb25  1  0.71612600  0.63600300  0.54486900  1
  Yb  Yb26  1  0.12430200  0.91128000  0.15676300  1
  Yb  Yb27  1  0.68529500  0.38476300  0.40881200  1
  Yb  Yb28  1  0.28387400  0.36399700  0.45513100  1
  Yb  Yb29  1  0.31470500  0.61523700  0.59118800  1
  Yb  Yb30  1  0.03144000  0.85226800  0.93599700  1
  Yb  Yb31  1  0.87049600  0.91564400  0.29217400  1
  Yb  Yb32  1  0.37569800  0.91128000  0.65676300  1
  Yb  Yb33  1  0.67427300  0.88549000  0.07607600  1
  Yb  Yb34  1  0.81470500  0.38476300  0.90881200  1
  Yb  Yb35  1  0.12950400  0.08435600  0.70782600  1
  Ge  Ge36  1  0.26174100  0.73420700  0.33604100  1
  Ge  Ge37  1  0.36923300  0.41255300  0.79625000  1
  Ge  Ge38  1  0.78407500  0.11115500  0.04793600  1
  Ge  Ge39  1  0.08451800  0.30780500  0.50165900  1
  Ge  Ge40  1  0.52428700  0.11026000  0.93854300  1
  Ge  Ge41  1  0.36432600  0.46565900  0.10556200  1
  Ge  Ge42  1  0.63567400  0.53434100  0.89443800  1
  Ge  Ge43  1  0.02428700  0.88974000  0.56145700  1
  Ge  Ge44  1  0.13076700  0.41255300  0.29625000  1
  Ge  Ge45  1  0.09917100  0.28826700  0.16577600  1
  Ge  Ge46  1  0.47402500  0.40965900  0.47329300  1
  Ge  Ge47  1  0.40082900  0.28826700  0.66577600  1
  Ge  Ge48  1  0.46788500  0.31906300  0.31859300  1
  Ge  Ge49  1  0.96788500  0.68093700  0.18140700  1
  Ge  Ge50  1  0.52597500  0.59034100  0.52670700  1
  Ge  Ge51  1  0.88547700  0.89262200  0.06755900  1
  Ge  Ge52  1  0.59917100  0.71173300  0.33422400  1
  Ge  Ge53  1  0.11452300  0.10737800  0.93244100  1
  Ge  Ge54  1  0.90082900  0.71173300  0.83422400  1
  Ge  Ge55  1  0.96035400  0.93204500  0.72202500  1
  Ge  Ge56  1  0.53964600  0.93204500  0.22202500  1
  Ge  Ge57  1  0.97402500  0.59034100  0.02670700  1
  Ge  Ge58  1  0.41548200  0.30780500  0.00165900  1
  Ge  Ge59  1  0.23825900  0.73420700  0.83604100  1
  Ge  Ge60  1  0.28407500  0.88884500  0.45206400  1
  Ge  Ge61  1  0.81242900  0.12904300  0.37874900  1
  Ge  Ge62  1  0.53211500  0.68093700  0.68140700  1
  Ge  Ge63  1  0.91548200  0.69219500  0.49834100  1
  Ge  Ge64  1  0.61452300  0.89262200  0.56755900  1
  Ge  Ge65  1  0.47571300  0.88974000  0.06145700  1
  Ge  Ge66  1  0.76174100  0.26579300  0.16395900  1
  Ge  Ge67  1  0.58451800  0.69219500  0.99834100  1
  Ge  Ge68  1  0.68757100  0.12904300  0.87874900  1
  Ge  Ge69  1  0.63076700  0.58744700  0.20375000  1
  Ge  Ge70  1  0.13567400  0.46565900  0.60556200  1
  Ge  Ge71  1  0.31242900  0.87095700  0.12125100  1
  Ge  Ge72  1  0.21592500  0.88884500  0.95206400  1
  Ge  Ge73  1  0.71592500  0.11115500  0.54793600  1
  Ge  Ge74  1  0.73668200  0.69911500  0.76985500  1
  Ge  Ge75  1  0.86432600  0.53434100  0.39443800  1
  Ge  Ge76  1  0.76331800  0.69911500  0.26985500  1
  Ge  Ge77  1  0.03964600  0.06795500  0.27797500  1
  Ge  Ge78  1  0.38547700  0.10737800  0.43244100  1
  Ge  Ge79  1  0.26331800  0.30088500  0.23014500  1
  Ge  Ge80  1  0.73825900  0.26579300  0.66395900  1
  Ge  Ge81  1  0.46035400  0.06795500  0.77797500  1
  Ge  Ge82  1  0.23668200  0.30088500  0.73014500  1
  Ge  Ge83  1  0.18757100  0.87095700  0.62125100  1
  Ge  Ge84  1  0.03211500  0.31906300  0.81859300  1
  Ge  Ge85  1  0.02597500  0.40965900  0.97329300  1
  Ge  Ge86  1  0.97571300  0.11026000  0.43854300  1
  Ge  Ge87  1  0.86923300  0.58744700  0.70375000  1
