# generated using pymatgen
data_Li9Mn2Co5O16
_symmetry_space_group_name_H-M   'P 1'
_cell_length_a   5.92090400
_cell_length_b   7.69454586
_cell_length_c   7.73202903
_cell_angle_alpha   64.51618763
_cell_angle_beta   68.17582279
_cell_angle_gamma   68.90221840
_symmetry_Int_Tables_number   1
_chemical_formula_structural   Li9Mn2Co5O16
_chemical_formula_sum   'Li9 Mn2 Co5 O16'
_cell_volume   286.66672997
_cell_formula_units_Z   1
loop_
 _symmetry_equiv_pos_site_id
 _symmetry_equiv_pos_as_xyz
  1  'x, y, z'
loop_
 _atom_site_type_symbol
 _atom_site_label
 _atom_site_symmetry_multiplicity
 _atom_site_fract_x
 _atom_site_fract_y
 _atom_site_fract_z
 _atom_site_occupancy
  Li  Li0  1  0.38204000  0.61657700  0.12686900  1
  Li  Li1  1  0.24108900  0.24915900  0.25811100  1
  Li  Li2  1  0.62935900  0.37329200  0.87912600  1
  Li  Li3  1  0.50044300  0.00439200  0.99669300  1
  Li  Li4  1  0.87363100  0.12946800  0.61420900  1
  Li  Li5  1  0.75301800  0.74706000  0.74687700  1
  Li  Li6  1  0.11066800  0.88340800  0.37977900  1
  Li  Li7  1  0.00359600  0.49781300  0.50123500  1
  Li  Li8  1  0.75056700  0.24875200  0.25084800  1
  Mn  Mn9  1  0.99685000  0.00206200  0.00143600  1
  Mn  Mn10  1  0.87730300  0.62080900  0.12693900  1
  Co  Co11  1  0.62745200  0.87707000  0.37374200  1
  Co  Co12  1  0.50858200  0.49088700  0.49932600  1
  Co  Co13  1  0.38453800  0.12757400  0.61519700  1
  Co  Co14  1  0.24790700  0.75478400  0.74089300  1
  Co  Co15  1  0.12055200  0.37171600  0.88236800  1
  O  O16  1  0.00599700  0.75626100  0.22681000  1
  O  O17  1  0.86828400  0.39550100  0.36384500  1
  O  O18  1  0.22354400  0.51045800  0.00300100  1
  O  O19  1  0.12309000  0.12515700  0.10423600  1
  O  O20  1  0.48885700  0.25669600  0.74756000  1
  O  O21  1  0.34254600  0.89211700  0.86653300  1
  O  O22  1  0.72604000  0.99121800  0.50059000  1
  O  O23  1  0.60430000  0.63915300  0.61189500  1
  O  O24  1  0.76411500  0.51117100  0.00461000  1
  O  O25  1  0.65758000  0.10017600  0.13033200  1
  O  O26  1  0.00014400  0.23640900  0.76782100  1
  O  O27  1  0.88702600  0.86715900  0.89123000  1
  O  O28  1  0.25001400  0.99551500  0.50370700  1
  O  O29  1  0.13597000  0.61414300  0.63824600  1
  O  O30  1  0.54048100  0.74234700  0.25013000  1
  O  O31  1  0.37441900  0.37169900  0.39579800  1
