# generated using pymatgen
data_NaLiMg14O15
_symmetry_space_group_name_H-M   'P 1'
_cell_length_a   4.28158800
_cell_length_b   8.53176100
_cell_length_c   8.62417100
_cell_angle_alpha   90.00000000
_cell_angle_beta   90.00000000
_cell_angle_gamma   90.00000000
_symmetry_Int_Tables_number   1
_chemical_formula_structural   NaLiMg14O15
_chemical_formula_sum   'Na1 Li1 Mg14 O15'
_cell_volume   315.03652964
_cell_formula_units_Z   1
loop_
 _symmetry_equiv_pos_site_id
 _symmetry_equiv_pos_as_xyz
  1  'x, y, z'
loop_
 _atom_site_type_symbol
 _atom_site_label
 _atom_site_symmetry_multiplicity
 _atom_site_fract_x
 _atom_site_fract_y
 _atom_site_fract_z
 _atom_site_occupancy
  Na  Na0  1  0.00000000  0.49644200  0.50000000  1
  Li  Li1  1  0.00000000  0.02243300  0.00000000  1
  Mg  Mg2  1  0.00000000  0.00200200  0.50000000  1
  Mg  Mg3  1  0.00000000  0.47777000  0.00000000  1
  Mg  Mg4  1  0.50000000  0.99889300  0.24520400  1
  Mg  Mg5  1  0.50000000  0.99889300  0.75479600  1
  Mg  Mg6  1  0.50000000  0.50123000  0.25271900  1
  Mg  Mg7  1  0.50000000  0.50123000  0.74728100  1
  Mg  Mg8  1  0.50000000  0.75432300  0.00000000  1
  Mg  Mg9  1  0.50000000  0.74804600  0.50000000  1
  Mg  Mg10  1  0.50000000  0.23892100  0.00000000  1
  Mg  Mg11  1  0.50000000  0.25219000  0.50000000  1
  Mg  Mg12  1  0.00000000  0.75162000  0.27327800  1
  Mg  Mg13  1  0.00000000  0.75162000  0.72672200  1
  Mg  Mg14  1  0.00000000  0.24434400  0.25064300  1
  Mg  Mg15  1  0.00000000  0.24434400  0.74935700  1
  O  O16  1  0.00000000  0.76282400  0.50000000  1
  O  O17  1  0.00000000  0.24831300  0.00000000  1
  O  O18  1  0.00000000  0.23658800  0.50000000  1
  O  O19  1  0.50000000  0.75033400  0.24114400  1
  O  O20  1  0.50000000  0.75033400  0.75885600  1
  O  O21  1  0.50000000  0.25111400  0.24683400  1
  O  O22  1  0.50000000  0.25111400  0.75316600  1
  O  O23  1  0.50000000  0.98868000  0.00000000  1
  O  O24  1  0.50000000  0.99693300  0.50000000  1
  O  O25  1  0.50000000  0.51286600  0.00000000  1
  O  O26  1  0.50000000  0.50346300  0.50000000  1
  O  O27  1  0.00000000  0.99242700  0.24800600  1
  O  O28  1  0.00000000  0.99242700  0.75199400  1
  O  O29  1  0.00000000  0.51414100  0.22774300  1
  O  O30  1  0.00000000  0.51414100  0.77225700  1
