# generated using pymatgen
data_Li6NiO4
_symmetry_space_group_name_H-M   'P 1'
_cell_length_a   6.59603328
_cell_length_b   8.08469092
_cell_length_c   8.09176897
_cell_angle_alpha   109.51434050
_cell_angle_beta   90.05914285
_cell_angle_gamma   90.02517375
_symmetry_Int_Tables_number   1
_chemical_formula_structural   Li6NiO4
_chemical_formula_sum   'Li24 Ni4 O16'
_cell_volume   406.72174902
_cell_formula_units_Z   4
loop_
 _symmetry_equiv_pos_site_id
 _symmetry_equiv_pos_as_xyz
  1  'x, y, z'
loop_
 _atom_site_type_symbol
 _atom_site_label
 _atom_site_symmetry_multiplicity
 _atom_site_fract_x
 _atom_site_fract_y
 _atom_site_fract_z
 _atom_site_occupancy
  Li  Li0  1  0.24889700  0.22424400  0.47724300  1
  Li  Li1  1  0.25075300  0.72523600  0.97315900  1
  Li  Li2  1  0.74979100  0.77554400  0.52330500  1
  Li  Li3  1  0.75058200  0.27488700  0.02701100  1
  Li  Li4  1  0.24996000  0.97606400  0.22390600  1
  Li  Li5  1  0.24981000  0.47380200  0.72625100  1
  Li  Li6  1  0.75148300  0.02383700  0.77617100  1
  Li  Li7  1  0.74990500  0.52637200  0.27415300  1
  Li  Li8  1  0.52950100  0.35893500  0.39000800  1
  Li  Li9  1  0.53565700  0.85853100  0.89231500  1
  Li  Li10  1  0.97025300  0.35892300  0.38837900  1
  Li  Li11  1  0.96821400  0.85890700  0.89212100  1
  Li  Li12  1  0.52975600  0.13992600  0.61291500  1
  Li  Li13  1  0.53259300  0.64109900  0.10726000  1
  Li  Li14  1  0.96781800  0.14021000  0.61090700  1
  Li  Li15  1  0.96614100  0.64201700  0.10615400  1
  Li  Li16  1  0.02834900  0.86057800  0.38726400  1
  Li  Li17  1  0.03271700  0.35876700  0.89321500  1
  Li  Li18  1  0.46890400  0.85983200  0.38908100  1
  Li  Li19  1  0.46633400  0.35832800  0.89394200  1
  Li  Li20  1  0.02942800  0.64054200  0.61038800  1
  Li  Li21  1  0.03535600  0.14134900  0.10690900  1
  Li  Li22  1  0.47058000  0.64040500  0.61151300  1
  Li  Li23  1  0.46574500  0.14168800  0.10656700  1
  Ni  Ni24  1  0.75000000  0.49432000  0.74520500  1
  Ni  Ni25  1  0.24992900  0.50579100  0.25529500  1
  Ni  Ni26  1  0.74846300  0.00518700  0.25284400  1
  Ni  Ni27  1  0.24993700  0.99462500  0.74520900  1
  O  O28  1  0.24993900  0.47239300  0.48969300  1
  O  O29  1  0.25215400  0.97539500  0.98541200  1
  O  O30  1  0.24934200  0.23629600  0.72714100  1
  O  O31  1  0.24989000  0.73875000  0.22059400  1
  O  O32  1  0.74952100  0.76423500  0.27355100  1
  O  O33  1  0.74969700  0.26133900  0.77980700  1
  O  O34  1  0.74997100  0.52735200  0.51048400  1
  O  O35  1  0.75375200  0.02437700  0.01346800  1
  O  O36  1  0.01489800  0.10567500  0.35577800  1
  O  O37  1  0.01132000  0.60569800  0.85452600  1
  O  O38  1  0.48321700  0.10570800  0.35797700  1
  O  O39  1  0.48949200  0.60531900  0.85526000  1
  O  O40  1  0.98384600  0.89424200  0.64304500  1
  O  O41  1  0.98909000  0.39482200  0.14511700  1
  O  O42  1  0.51653800  0.89419500  0.64408100  1
  O  O43  1  0.51084500  0.39407800  0.14555400  1
