# generated using pymatgen
data_Li3MnV(PO4)3
_symmetry_space_group_name_H-M   'P 1'
_cell_length_a   8.70793500
_cell_length_b   8.80660813
_cell_length_c   12.20026101
_cell_angle_alpha   89.80306155
_cell_angle_beta   88.92893804
_cell_angle_gamma   89.80096809
_symmetry_Int_Tables_number   1
_chemical_formula_structural   Li3MnV(PO4)3
_chemical_formula_sum   'Li12 Mn4 V4 P12 O48'
_cell_volume   935.43151127
_cell_formula_units_Z   4
loop_
 _symmetry_equiv_pos_site_id
 _symmetry_equiv_pos_as_xyz
  1  'x, y, z'
loop_
 _atom_site_type_symbol
 _atom_site_label
 _atom_site_symmetry_multiplicity
 _atom_site_fract_x
 _atom_site_fract_y
 _atom_site_fract_z
 _atom_site_occupancy
  Li  Li0  1  0.07631900  0.90429200  0.30238200  1
  Li  Li1  1  0.07846300  0.29572900  0.24136500  1
  Li  Li2  1  0.21095500  0.22810200  0.82132900  1
  Li  Li3  1  0.29071200  0.72697200  0.67728500  1
  Li  Li4  1  0.42043800  0.79606700  0.25792100  1
  Li  Li5  1  0.42320900  0.40567700  0.19752700  1
  Li  Li6  1  0.57973600  0.59430500  0.80274100  1
  Li  Li7  1  0.58126400  0.20485400  0.74040100  1
  Li  Li8  1  0.70999200  0.27424700  0.32298700  1
  Li  Li9  1  0.78863500  0.77268400  0.17699000  1
  Li  Li10  1  0.91566200  0.70238700  0.75993100  1
  Li  Li11  1  0.92172700  0.09713700  0.69821900  1
  Mn  Mn12  1  0.25288600  0.04292900  0.61019900  1
  Mn  Mn13  1  0.74655900  0.95774800  0.38942400  1
  Mn  Mn14  1  0.75285500  0.45750600  0.11035300  1
  Mn  Mn15  1  0.75408400  0.53392000  0.60560400  1
  V  V16  1  0.24590400  0.46851200  0.38956300  1
  V  V17  1  0.24713200  0.54177400  0.88852900  1
  V  V18  1  0.25404900  0.96911500  0.10971500  1
  V  V19  1  0.74623600  0.03160500  0.89082100  1
  P  P20  1  0.03662300  0.74895600  0.50604600  1
  P  P21  1  0.10412000  0.61239900  0.14752600  1
  P  P22  1  0.10745300  0.90159000  0.84916700  1
  P  P23  1  0.39419500  0.11124700  0.35447700  1
  P  P24  1  0.39833800  0.40421300  0.64905400  1
  P  P25  1  0.46092400  0.25295500  0.99328900  1
  P  P26  1  0.53863000  0.75007400  0.00507200  1
  P  P27  1  0.60449900  0.59699200  0.34511600  1
  P  P28  1  0.60643600  0.88759200  0.64491800  1
  P  P29  1  0.89307000  0.09681300  0.15200700  1
  P  P30  1  0.89388700  0.38808500  0.85761300  1
  P  P31  1  0.96012200  0.25161800  0.49490400  1
  O  O32  1  0.04952900  0.13614500  0.56731000  1
  O  O33  1  0.06585200  0.32777800  0.40721400  1
  O  O34  1  0.06881500  0.40599200  0.83491600  1
  O  O35  1  0.07233700  0.10034400  0.15386400  1
  O  O36  1  0.11204600  0.63969700  0.42287300  1
  O  O37  1  0.14691200  0.58641200  0.02700400  1
  O  O38  1  0.14859100  0.77764900  0.18131700  1
  O  O39  1  0.15440000  0.02520800  0.76026600  1
  O  O40  1  0.15783100  0.74013200  0.81207500  1
  O  O41  1  0.16205000  0.82802300  0.57131400  1
  O  O42  1  0.17182100  0.94980000  0.95747700  1
  O  O43  1  0.19207400  0.49144900  0.21728600  1
  O  O44  1  0.30636000  0.99153500  0.28521800  1
  O  O45  1  0.33142800  0.44947100  0.54034900  1
  O  O46  1  0.33310300  0.33542500  0.92955400  1
  O  O47  1  0.34985400  0.24451000  0.69028000  1
  O  O48  1  0.35125500  0.27650200  0.31944600  1
  O  O49  1  0.35228400  0.52769200  0.73651900  1
  O  O50  1  0.35675100  0.08855800  0.47690200  1
  O  O51  1  0.38369900  0.14203200  0.07523200  1
  O  O52  1  0.42513800  0.60138400  0.34347100  1
  O  O53  1  0.43068200  0.90511800  0.66595300  1
  O  O54  1  0.43362500  0.82802700  0.09271500  1
  O  O55  1  0.44937100  0.63723100  0.93347400  1
  O  O56  1  0.54946700  0.36529800  0.06556200  1
  O  O57  1  0.56442600  0.17444400  0.90571300  1
  O  O58  1  0.56996600  0.09305100  0.33358400  1
  O  O59  1  0.57882300  0.39841300  0.65098100  1
  O  O60  1  0.61313700  0.86156400  0.92182700  1
  O  O61  1  0.64297300  0.91003600  0.52245500  1
  O  O62  1  0.64920600  0.47247300  0.25649500  1
  O  O63  1  0.65060500  0.72185900  0.67969500  1
  O  O64  1  0.65257800  0.75730000  0.30631800  1
  O  O65  1  0.66718600  0.67084400  0.06806800  1
  O  O66  1  0.67129200  0.54694200  0.45199900  1
  O  O67  1  0.69415000  0.00739300  0.71437300  1
  O  O68  1  0.80376500  0.51006400  0.79322000  1
  O  O69  1  0.82716300  0.04935800  0.04374800  1
  O  O70  1  0.83248300  0.17252000  0.43195000  1
  O  O71  1  0.84438600  0.25613300  0.19219500  1
  O  O72  1  0.84810600  0.97198900  0.24060600  1
  O  O73  1  0.85083400  0.22280800  0.82158300  1
  O  O74  1  0.86194800  0.40448300  0.98168300  1
  O  O75  1  0.88982300  0.36205300  0.58067100  1
  O  O76  1  0.92845200  0.89763400  0.84595700  1
  O  O77  1  0.92916200  0.59537600  0.16839700  1
  O  O78  1  0.93187700  0.66998200  0.59436600  1
  O  O79  1  0.94727200  0.86377300  0.43405100  1
