# generated using pymatgen
data_Li9Mn2Co5O16
_symmetry_space_group_name_H-M   'P 1'
_cell_length_a   5.79543400
_cell_length_b   6.58084118
_cell_length_c   7.74226282
_cell_angle_alpha   86.14461811
_cell_angle_beta   80.14535046
_cell_angle_gamma   77.42264150
_symmetry_Int_Tables_number   1
_chemical_formula_structural   Li9Mn2Co5O16
_chemical_formula_sum   'Li9 Mn2 Co5 O16'
_cell_volume   283.80474339
_cell_formula_units_Z   1
loop_
 _symmetry_equiv_pos_site_id
 _symmetry_equiv_pos_as_xyz
  1  'x, y, z'
loop_
 _atom_site_type_symbol
 _atom_site_label
 _atom_site_symmetry_multiplicity
 _atom_site_fract_x
 _atom_site_fract_y
 _atom_site_fract_z
 _atom_site_occupancy
  Li  Li0  1  0.81261400  0.61785500  0.12634400  1
  Li  Li1  1  0.93821600  0.87082900  0.38261800  1
  Li  Li2  1  0.68758200  0.37996700  0.87048500  1
  Li  Li3  1  0.55741700  0.13417700  0.61990900  1
  Li  Li4  1  0.43488700  0.87137400  0.38173600  1
  Li  Li5  1  0.31710100  0.61732100  0.13063200  1
  Li  Li6  1  0.18994100  0.38195500  0.86214800  1
  Li  Li7  1  0.06438600  0.13118800  0.62531700  1
  Li  Li8  1  0.25395600  0.49766400  0.49891600  1
  Mn  Mn9  1  0.99671700  0.00019400  0.00181600  1
  Mn  Mn10  1  0.12717600  0.25624600  0.25593400  1
  Co  Co11  1  0.37509100  0.73715500  0.74315000  1
  Co  Co12  1  0.49917000  0.00136000  0.99572000  1
  Co  Co13  1  0.62411000  0.25067500  0.25210900  1
  Co  Co14  1  0.74669700  0.49979700  0.50003300  1
  Co  Co15  1  0.88127300  0.74297100  0.74011800  1
  O  O16  1  0.71996200  0.95823400  0.17214500  1
  O  O17  1  0.85191200  0.19291000  0.41822200  1
  O  O18  1  0.59288100  0.70293800  0.92508500  1
  O  O19  1  0.47397800  0.44505900  0.68884700  1
  O  O20  1  0.35010100  0.18919900  0.41403900  1
  O  O21  1  0.20577900  0.95589100  0.17842200  1
  O  O22  1  0.08556500  0.71050600  0.93748600  1
  O  O23  1  0.95518900  0.44670200  0.68179300  1
  O  O24  1  0.90669900  0.29019600  0.07772400  1
  O  O25  1  0.03643600  0.53871400  0.30953100  1
  O  O26  1  0.78825800  0.05543200  0.82874000  1
  O  O27  1  0.65370900  0.80666100  0.56458800  1
  O  O28  1  0.55153300  0.53783400  0.31656200  1
  O  O29  1  0.40026300  0.30369300  0.08429700  1
  O  O30  1  0.26875900  0.06019400  0.83516100  1
  O  O31  1  0.15264400  0.81510700  0.58037600  1
