# generated using pymatgen
data_Li2MnP2O7
_symmetry_space_group_name_H-M   'P 1'
_cell_length_a   5.21986489
_cell_length_b   7.35808538
_cell_length_c   8.37025491
_cell_angle_alpha   65.65346320
_cell_angle_beta   93.94395734
_cell_angle_gamma   98.33812770
_symmetry_Int_Tables_number   1
_chemical_formula_structural   Li2MnP2O7
_chemical_formula_sum   'Li4 Mn2 P4 O14'
_cell_volume   289.78582321
_cell_formula_units_Z   2
loop_
 _symmetry_equiv_pos_site_id
 _symmetry_equiv_pos_as_xyz
  1  'x, y, z'
loop_
 _atom_site_type_symbol
 _atom_site_label
 _atom_site_symmetry_multiplicity
 _atom_site_fract_x
 _atom_site_fract_y
 _atom_site_fract_z
 _atom_site_occupancy
  Li  Li0  1  0.29754000  0.82539500  0.56794900  1
  Li  Li1  1  0.30018700  0.86792300  0.99191600  1
  Li  Li2  1  0.69986600  0.13213900  0.00815000  1
  Li  Li3  1  0.70262600  0.17463400  0.43197800  1
  Mn  Mn4  1  0.17666800  0.27663500  0.72037200  1
  Mn  Mn5  1  0.82326500  0.72334200  0.27971600  1
  P  P6  1  0.77629000  0.86527400  0.82296700  1
  P  P7  1  0.73439400  0.54868800  0.70182500  1
  P  P8  1  0.22373900  0.13474300  0.17703300  1
  P  P9  1  0.26549800  0.45126600  0.29820100  1
  O  O10  1  0.17782500  0.66174900  0.21198100  1
  O  O11  1  0.90706800  0.69032900  0.54675300  1
  O  O12  1  0.06208600  0.95797600  0.79570200  1
  O  O13  1  0.09275800  0.30959000  0.45319800  1
  O  O14  1  0.93803300  0.04200500  0.20433500  1
  O  O15  1  0.22016500  0.36862700  0.14423800  1
  O  O16  1  0.32840000  0.14606800  0.00407300  1
  O  O17  1  0.39902200  0.03804500  0.33286700  1
  O  O18  1  0.82205300  0.33822400  0.78803100  1
  O  O19  1  0.55660400  0.45692000  0.34210000  1
  O  O20  1  0.60116300  0.96201300  0.66703700  1
  O  O21  1  0.67162500  0.85398500  0.99586900  1
  O  O22  1  0.77986800  0.63138000  0.85572000  1
  O  O23  1  0.44325200  0.54305200  0.65798700  1
