# generated using pymatgen
data_Na5LiCo2P2(CO7)2
_symmetry_space_group_name_H-M   'P 1'
_cell_length_a   8.51619124
_cell_length_b   8.51973342
_cell_length_c   8.83550849
_cell_angle_alpha   91.54024284
_cell_angle_beta   88.45111966
_cell_angle_gamma   75.28510546
_symmetry_Int_Tables_number   1
_chemical_formula_structural   Na5LiCo2P2(CO7)2
_chemical_formula_sum   'Na10 Li2 Co4 P4 C4 O28'
_cell_volume   619.43629612
_cell_formula_units_Z   2
loop_
 _symmetry_equiv_pos_site_id
 _symmetry_equiv_pos_as_xyz
  1  'x, y, z'
loop_
 _atom_site_type_symbol
 _atom_site_label
 _atom_site_symmetry_multiplicity
 _atom_site_fract_x
 _atom_site_fract_y
 _atom_site_fract_z
 _atom_site_occupancy
  Na  Na0  1  0.48775100  0.26198700  0.91437100  1
  Na  Na1  1  0.98653700  0.76383200  0.91570000  1
  Na  Na2  1  0.13284300  0.87466500  0.26483300  1
  Na  Na3  1  0.63384200  0.37467500  0.26545800  1
  Na  Na4  1  0.37546300  0.11543600  0.26613700  1
  Na  Na5  1  0.87554500  0.61598100  0.26470400  1
  Na  Na6  1  0.86191600  0.13027800  0.72833800  1
  Na  Na7  1  0.36661100  0.62611000  0.73013700  1
  Na  Na8  1  0.61973800  0.88792500  0.72838500  1
  Na  Na9  1  0.12371300  0.38333900  0.73055300  1
  Li  Li10  1  0.51293300  0.73769500  0.10599900  1
  Li  Li11  1  0.01304500  0.23620600  0.10547800  1
  Co  Co12  1  0.26359300  0.48635700  0.34317500  1
  Co  Co13  1  0.76304100  0.98765300  0.34430200  1
  Co  Co14  1  0.22957800  0.01312100  0.64642200  1
  Co  Co15  1  0.73698000  0.52020400  0.64605600  1
  P  P16  1  0.48488700  0.76445000  0.41053500  1
  P  P17  1  0.98564300  0.26510000  0.41047500  1
  P  P18  1  0.51189000  0.23814800  0.58250900  1
  P  P19  1  0.01293600  0.73680100  0.58330000  1
  C  C20  1  0.73154900  0.01884600  0.05940900  1
  C  C21  1  0.23066300  0.51940100  0.05894000  1
  C  C22  1  0.27318400  0.97680100  0.94886300  1
  C  C23  1  0.77284200  0.47714500  0.94950600  1
  O  O24  1  0.32062900  0.92882500  0.08194600  1
  O  O25  1  0.82156400  0.42838300  0.08207500  1
  O  O26  1  0.84584800  0.90717900  0.11733100  1
  O  O27  1  0.34419200  0.40586200  0.11515800  1
  O  O28  1  0.63051300  0.11787500  0.15398600  1
  O  O29  1  0.13148000  0.61877100  0.15478700  1
  O  O30  1  0.44541700  0.30436100  0.42927000  1
  O  O31  1  0.94525700  0.80428600  0.43119900  1
  O  O32  1  0.33695800  0.91337700  0.44451900  1
  O  O33  1  0.83613700  0.41262300  0.44388000  1
  O  O34  1  0.66209700  0.08907000  0.55043000  1
  O  O35  1  0.16209200  0.58785700  0.55145600  1
  O  O36  1  0.55264500  0.69642200  0.56314100  1
  O  O37  1  0.05351000  0.19802200  0.56332900  1
  O  O38  1  0.35374600  0.89937300  0.82872800  1
  O  O39  1  0.84918000  0.39680200  0.82875700  1
  O  O40  1  0.14889000  0.09903700  0.93109300  1
  O  O41  1  0.65119600  0.60218100  0.93296800  1
  O  O42  1  0.71833400  0.03155700  0.91498900  1
  O  O43  1  0.21596100  0.53388100  0.91481000  1
  O  O44  1  0.43107000  0.63596500  0.30911500  1
  O  O45  1  0.93288900  0.13531500  0.30985100  1
  O  O46  1  0.61408000  0.81809300  0.30973800  1
  O  O47  1  0.11398200  0.31916700  0.30900200  1
  O  O48  1  0.38122600  0.18329300  0.68014900  1
  O  O49  1  0.88206800  0.68307600  0.68238000  1
  O  O50  1  0.56596100  0.36919600  0.68021900  1
  O  O51  1  0.06635600  0.86799100  0.68210600  1
