# generated using pymatgen
data_Li8MnFe7(BO3)8
_symmetry_space_group_name_H-M   'P 1'
_cell_length_a   5.22367800
_cell_length_b   8.16672745
_cell_length_c   11.96030527
_cell_angle_alpha   102.84699456
_cell_angle_beta   90.58154251
_cell_angle_gamma   90.41907598
_symmetry_Int_Tables_number   1
_chemical_formula_structural   Li8MnFe7(BO3)8
_chemical_formula_sum   'Li8 Mn1 Fe7 B8 O24'
_cell_volume   497.40881716
_cell_formula_units_Z   1
loop_
 _symmetry_equiv_pos_site_id
 _symmetry_equiv_pos_as_xyz
  1  'x, y, z'
loop_
 _atom_site_type_symbol
 _atom_site_label
 _atom_site_symmetry_multiplicity
 _atom_site_fract_x
 _atom_site_fract_y
 _atom_site_fract_z
 _atom_site_occupancy
  Li  Li0  1  0.34846600  0.71975100  0.02236300  1
  Li  Li1  1  0.15140100  0.78083600  0.22792600  1
  Li  Li2  1  0.85083700  0.21941000  0.27367900  1
  Li  Li3  1  0.34766100  0.72081500  0.52211800  1
  Li  Li4  1  0.65029800  0.28041400  0.47699800  1
  Li  Li5  1  0.15095900  0.78415400  0.72659300  1
  Li  Li6  1  0.84926300  0.21769000  0.77141700  1
  Li  Li7  1  0.64678400  0.27956500  0.97770000  1
  Mn  Mn8  1  0.83195600  0.57873000  0.90833100  1
  Fe  Fe9  1  0.16906400  0.42347800  0.09351300  1
  Fe  Fe10  1  0.32850800  0.07678400  0.15646300  1
  Fe  Fe11  1  0.66205800  0.92114700  0.34243200  1
  Fe  Fe12  1  0.83756400  0.57850200  0.40790200  1
  Fe  Fe13  1  0.16968000  0.42299900  0.59262300  1
  Fe  Fe14  1  0.33815900  0.08036700  0.65898800  1
  Fe  Fe15  1  0.67566900  0.92204900  0.84110600  1
  B  B16  1  0.82647000  0.90836600  0.08422300  1
  B  B17  1  0.67361700  0.59432500  0.16816400  1
  B  B18  1  0.33011700  0.40627400  0.33292600  1
  B  B19  1  0.17052800  0.09420500  0.41812500  1
  B  B20  1  0.82913000  0.90436900  0.58131900  1
  B  B21  1  0.67039000  0.59372700  0.66615200  1
  B  B22  1  0.32992900  0.40215900  0.83248700  1
  B  B23  1  0.17118200  0.09461200  0.91684000  1
  O  O24  1  0.08882100  0.88265200  0.08804800  1
  O  O25  1  0.31311900  0.18934900  0.00808500  1
  O  O26  1  0.79265100  0.47946000  0.08060800  1
  O  O27  1  0.41103600  0.61739200  0.16255000  1
  O  O28  1  0.81916600  0.69052400  0.25733800  1
  O  O29  1  0.29223700  0.97924900  0.33110700  1
  O  O30  1  0.70828000  0.02158400  0.17145800  1
  O  O31  1  0.18518300  0.30998600  0.24259400  1
  O  O32  1  0.59056600  0.38335500  0.33878600  1
  O  O33  1  0.20762200  0.52103600  0.41935900  1
  O  O34  1  0.68196000  0.80875000  0.49188700  1
  O  O35  1  0.90974200  0.11768000  0.41196700  1
  O  O36  1  0.08969500  0.88190200  0.58742600  1
  O  O37  1  0.31639200  0.18984000  0.50804100  1
  O  O38  1  0.79221900  0.47941200  0.57997100  1
  O  O39  1  0.40834100  0.61665700  0.66153600  1
  O  O40  1  0.81369900  0.69089400  0.75608600  1
  O  O41  1  0.29193300  0.98265000  0.82929200  1
  O  O42  1  0.70692800  0.01875300  0.66865700  1
  O  O43  1  0.17924500  0.31029600  0.74266200  1
  O  O44  1  0.59008200  0.37489200  0.83563800  1
  O  O45  1  0.21498800  0.51758100  0.92096200  1
  O  O46  1  0.67966300  0.81359300  0.99373800  1
  O  O47  1  0.90674200  0.11778700  0.91181100  1
