# generated using pymatgen
data_Li9Mn2Co5O16
_symmetry_space_group_name_H-M   'P 1'
_cell_length_a   5.87825500
_cell_length_b   6.59755660
_cell_length_c   7.72908638
_cell_angle_alpha   86.25934727
_cell_angle_beta   81.45030048
_cell_angle_gamma   77.11591388
_symmetry_Int_Tables_number   1
_chemical_formula_structural   Li9Mn2Co5O16
_chemical_formula_sum   'Li9 Mn2 Co5 O16'
_cell_volume   288.79626100
_cell_formula_units_Z   1
loop_
 _symmetry_equiv_pos_site_id
 _symmetry_equiv_pos_as_xyz
  1  'x, y, z'
loop_
 _atom_site_type_symbol
 _atom_site_label
 _atom_site_symmetry_multiplicity
 _atom_site_fract_x
 _atom_site_fract_y
 _atom_site_fract_z
 _atom_site_occupancy
  Li  Li0  1  0.93156200  0.88650000  0.37318100  1
  Li  Li1  1  0.69047000  0.37817100  0.87010400  1
  Li  Li2  1  0.57349200  0.13085400  0.61419700  1
  Li  Li3  1  0.32140800  0.60581700  0.13216900  1
  Li  Li4  1  0.18225300  0.37435500  0.87704800  1
  Li  Li5  1  0.81105500  0.61901600  0.12968200  1
  Li  Li6  1  0.43309600  0.87779100  0.38118900  1
  Li  Li7  1  0.06378800  0.13123000  0.62278600  1
  Li  Li8  1  0.62685300  0.25237700  0.24945500  1
  Mn  Mn9  1  0.99298300  0.00267900  0.00460000  1
  Mn  Mn10  1  0.49755400  0.00167700  0.00401000  1
  Co  Co11  1  0.75135300  0.49548200  0.49043400  1
  Co  Co12  1  0.25883500  0.49137700  0.49648600  1
  Co  Co13  1  0.37127900  0.74630300  0.75026000  1
  Co  Co14  1  0.12354100  0.24597100  0.25103800  1
  Co  Co15  1  0.87141500  0.75217400  0.74361100  1
  O  O16  1  0.19127200  0.95426600  0.18968600  1
  O  O17  1  0.96459100  0.45422700  0.67707800  1
  O  O18  1  0.87042900  0.20224700  0.42129700  1
  O  O19  1  0.58132200  0.70047700  0.92988800  1
  O  O20  1  0.47110400  0.44261500  0.67942500  1
  O  O21  1  0.08009100  0.71026700  0.93099100  1
  O  O22  1  0.72987500  0.94220600  0.16445800  1
  O  O23  1  0.32644100  0.20233000  0.42568800  1
  O  O24  1  0.65959800  0.81402800  0.57477400  1
  O  O25  1  0.38270700  0.29000900  0.07845700  1
  O  O26  1  0.26893100  0.04841200  0.83559100  1
  O  O27  1  0.04482200  0.53529600  0.31216200  1
  O  O28  1  0.92469000  0.28924700  0.07060300  1
  O  O29  1  0.53844300  0.56622300  0.32680000  1
  O  O30  1  0.16626500  0.79604600  0.57282300  1
  O  O31  1  0.79847500  0.06033000  0.82002700  1
