# generated using pymatgen
data_Li9Mn2Co5O16
_symmetry_space_group_name_H-M   'P 1'
_cell_length_a   5.91813300
_cell_length_b   7.68161809
_cell_length_c   7.75756449
_cell_angle_alpha   64.32356687
_cell_angle_beta   68.16461274
_cell_angle_gamma   68.81544637
_symmetry_Int_Tables_number   1
_chemical_formula_structural   Li9Mn2Co5O16
_chemical_formula_sum   'Li9 Mn2 Co5 O16'
_cell_volume   286.46470959
_cell_formula_units_Z   1
loop_
 _symmetry_equiv_pos_site_id
 _symmetry_equiv_pos_as_xyz
  1  'x, y, z'
loop_
 _atom_site_type_symbol
 _atom_site_label
 _atom_site_symmetry_multiplicity
 _atom_site_fract_x
 _atom_site_fract_y
 _atom_site_fract_z
 _atom_site_occupancy
  Li  Li0  1  0.37591500  0.62327800  0.12753100  1
  Li  Li1  1  0.25114900  0.24517500  0.25691400  1
  Li  Li2  1  0.63072000  0.37226800  0.87318500  1
  Li  Li3  1  0.50042200  0.99984600  0.00601200  1
  Li  Li4  1  0.87428700  0.12710700  0.62221400  1
  Li  Li5  1  0.75176200  0.75153600  0.73566700  1
  Li  Li6  1  0.11747700  0.87629700  0.37987200  1
  Li  Li7  1  0.99534600  0.50377700  0.50174900  1
  Li  Li8  1  0.62753800  0.87468900  0.37475500  1
  Mn  Mn9  1  0.99497700  0.00001300  0.00278100  1
  Mn  Mn10  1  0.86963700  0.62737400  0.12848200  1
  Co  Co11  1  0.74751600  0.23289300  0.26232400  1
  Co  Co12  1  0.50435300  0.50683900  0.49861200  1
  Co  Co13  1  0.37580600  0.12391100  0.62495100  1
  Co  Co14  1  0.25751100  0.75774700  0.73666600  1
  Co  Co15  1  0.12412200  0.37763400  0.87136900  1
  O  O16  1  0.00002200  0.75533400  0.22556700  1
  O  O17  1  0.87147700  0.39322000  0.36096700  1
  O  O18  1  0.22060400  0.51508600  0.99294200  1
  O  O19  1  0.11496800  0.12267400  0.11406700  1
  O  O20  1  0.47744100  0.25028800  0.74011000  1
  O  O21  1  0.34777600  0.89516900  0.86839200  1
  O  O22  1  0.75512700  0.01200700  0.48994900  1
  O  O23  1  0.60483700  0.61816200  0.62920500  1
  O  O24  1  0.76340600  0.49697500  0.01526700  1
  O  O25  1  0.65679900  0.12107600  0.11449100  1
  O  O26  1  0.99909000  0.23974000  0.77026300  1
  O  O27  1  0.88273100  0.86928900  0.89354300  1
  O  O28  1  0.25423700  0.99786000  0.51916000  1
  O  O29  1  0.13396200  0.61885300  0.62771200  1
  O  O30  1  0.52998000  0.73359000  0.24391500  1
  O  O31  1  0.38900600  0.36029700  0.39136100  1
