# generated using pymatgen
data_Li9Mn2Co5O16
_symmetry_space_group_name_H-M   'P 1'
_cell_length_a   7.74910078
_cell_length_b   7.74910078
_cell_length_c   5.17678179
_cell_angle_alpha   75.53468408
_cell_angle_beta   75.53468408
_cell_angle_gamma   95.66343323
_symmetry_Int_Tables_number   1
_chemical_formula_structural   Li9Mn2Co5O16
_chemical_formula_sum   'Li9 Mn2 Co5 O16'
_cell_volume   287.12810966
_cell_formula_units_Z   1
loop_
 _symmetry_equiv_pos_site_id
 _symmetry_equiv_pos_as_xyz
  1  'x, y, z'
loop_
 _atom_site_type_symbol
 _atom_site_label
 _atom_site_symmetry_multiplicity
 _atom_site_fract_x
 _atom_site_fract_y
 _atom_site_fract_z
 _atom_site_occupancy
  Li  Li0  1  0.36702200  0.11322800  0.01547600  1
  Li  Li1  1  0.88677200  0.63297800  0.98452400  1
  Li  Li2  1  0.49131100  0.99446200  0.50234100  1
  Li  Li3  1  0.00553800  0.50868900  0.49765900  1
  Li  Li4  1  0.62415600  0.87619200  0.99958600  1
  Li  Li5  1  0.12380800  0.37584400  0.00041400  1
  Li  Li6  1  0.75845200  0.75574200  0.50424200  1
  Li  Li7  1  0.24425800  0.24154800  0.49575800  1
  Li  Li8  1  0.12568400  0.87431600  0.50000000  1
  Mn  Mn9  1  0.00130800  0.99869200  0.00000000  1
  Mn  Mn10  1  0.49843400  0.50156600  0.00000000  1
  Co  Co11  1  0.62561000  0.37439000  0.50000000  1
  Co  Co12  1  0.24867500  0.75132500  0.00000000  1
  Co  Co13  1  0.75157600  0.24842400  0.00000000  1
  Co  Co14  1  0.37162100  0.62837900  0.50000000  1
  Co  Co15  1  0.87635100  0.12364900  0.50000000  1
  O  O16  1  0.24083900  0.00043700  0.77671300  1
  O  O17  1  0.74003700  0.49749500  0.77330100  1
  O  O18  1  0.36644000  0.84988600  0.25133600  1
  O  O19  1  0.85461600  0.35785000  0.26836900  1
  O  O20  1  0.50259100  0.73961600  0.76939000  1
  O  O21  1  0.99624900  0.24104800  0.77184800  1
  O  O22  1  0.60033200  0.59980600  0.25532800  1
  O  O23  1  0.09778000  0.11331800  0.24616500  1
  O  O24  1  0.50250500  0.25996300  0.22669900  1
  O  O25  1  0.99956300  0.75916100  0.22328700  1
  O  O26  1  0.64215000  0.14538400  0.73163100  1
  O  O27  1  0.15011400  0.63356000  0.74866400  1
  O  O28  1  0.75895200  0.00375100  0.22815200  1
  O  O29  1  0.26038400  0.49740900  0.23061000  1
  O  O30  1  0.88668200  0.90222000  0.75383500  1
  O  O31  1  0.40019400  0.39966800  0.74467200  1
