# generated using pymatgen
data_Li6Zn3(PS4)4
_symmetry_space_group_name_H-M   'P 1'
_cell_length_a   9.30877000
_cell_length_b   11.60006292
_cell_length_c   23.15904076
_cell_angle_alpha   90.03856688
_cell_angle_beta   90.02668966
_cell_angle_gamma   90.03295971
_symmetry_Int_Tables_number   1
_chemical_formula_structural   Li6Zn3(PS4)4
_chemical_formula_sum   'Li24 Zn12 P16 S64'
_cell_volume   2500.76564529
_cell_formula_units_Z   4
loop_
 _symmetry_equiv_pos_site_id
 _symmetry_equiv_pos_as_xyz
  1  'x, y, z'
loop_
 _atom_site_type_symbol
 _atom_site_label
 _atom_site_symmetry_multiplicity
 _atom_site_fract_x
 _atom_site_fract_y
 _atom_site_fract_z
 _atom_site_occupancy
  Li  Li0  1  0.75020700  0.99066000  0.87568400  1
  Li  Li1  1  0.25678100  0.75868100  0.74606200  1
  Li  Li2  1  0.24203800  0.24206700  0.74949500  1
  Li  Li3  1  0.24727800  0.75687900  0.99738500  1
  Li  Li4  1  0.50146800  0.49941300  0.25032400  1
  Li  Li5  1  0.50439000  0.99686700  0.25217300  1
  Li  Li6  1  0.50280200  0.50108100  0.50033300  1
  Li  Li7  1  0.50384300  0.99924400  0.49826900  1
  Li  Li8  1  0.00660100  0.75218700  0.37422800  1
  Li  Li9  1  0.00213800  0.24972600  0.37521900  1
  Li  Li10  1  0.50774100  0.50334600  0.75100200  1
  Li  Li11  1  0.51078500  0.00179000  0.74561900  1
  Li  Li12  1  0.99801100  0.75440600  0.62242200  1
  Li  Li13  1  0.98643600  0.24961200  0.62275800  1
  Li  Li14  1  0.49937300  0.49793300  0.00031200  1
  Li  Li15  1  0.50429200  0.00056100  0.00303600  1
  Li  Li16  1  0.99646700  0.74594900  0.87621300  1
  Li  Li17  1  0.99500900  0.25093500  0.87550500  1
  Li  Li18  1  0.99725000  0.74945100  0.12871300  1
  Li  Li19  1  0.00281600  0.24735600  0.12450100  1
  Li  Li20  1  0.50781100  0.74897400  0.62325700  1
  Li  Li21  1  0.50638000  0.74891100  0.87422300  1
  Li  Li22  1  0.99165900  0.99713100  0.74891600  1
  Li  Li23  1  0.00006900  0.00290600  0.00154200  1
  Zn  Zn24  1  0.49942300  0.25020200  0.12587500  1
  Zn  Zn25  1  0.50562400  0.74946600  0.12653600  1
  Zn  Zn26  1  0.49854400  0.25008700  0.37465700  1
  Zn  Zn27  1  0.49909300  0.75101500  0.37600700  1
  Zn  Zn28  1  0.99915400  0.50065700  0.25116400  1
  Zn  Zn29  1  0.99970700  0.00028100  0.25005300  1
  Zn  Zn30  1  0.50335500  0.24916900  0.62334000  1
  Zn  Zn31  1  0.99888400  0.50101500  0.49882600  1
  Zn  Zn32  1  0.99849200  0.99987400  0.50038600  1
  Zn  Zn33  1  0.49867500  0.25038700  0.87715700  1
  Zn  Zn34  1  0.98483200  0.49997800  0.74922200  1
  Zn  Zn35  1  0.99074300  0.50002400  0.99965400  1
  P  P36  1  0.75072300  0.24983800  0.24980800  1
  P  P37  1  0.75004900  0.74927500  0.25063000  1
  P  P38  1  0.74965500  0.25093700  0.49911500  1
  P  P39  1  0.75215700  0.74582400  0.49818900  1
  P  P40  1  0.25086400  0.49971400  0.37502000  1
  P  P41  1  0.24982700  0.00049900  0.37496800  1
  P  P42  1  0.75001500  0.25114000  0.74880100  1
  P  P43  1  0.74768800  0.74953700  0.75351400  1
  P  P44  1  0.24807700  0.49727300  0.62820000  1
  P  P45  1  0.24995900  0.99754300  0.62261500  1
  P  P46  1  0.74638200  0.25074000  0.99760900  1
  P  P47  1  0.75295800  0.75302800  0.00296500  1
  P  P48  1  0.24473800  0.49971200  0.87679800  1
  P  P49  1  0.25415800  0.00027600  0.87185700  1
  P  P50  1  0.25156900  0.50105700  0.12481900  1
  P  P51  1  0.24930900  0.00352400  0.12570700  1
  S  S52  1  0.86366600  0.35857100  0.05086500  1
  S  S53  1  0.87543900  0.85483800  0.05380200  1
  S  S54  1  0.86545100  0.36075500  0.30221300  1
  S  S55  1  0.86545000  0.86086500  0.30221400  1
  S  S56  1  0.36349100  0.61260100  0.17723200  1
  S  S57  1  0.37558700  0.10614200  0.17792400  1
  S  S58  1  0.86120200  0.36432200  0.55103800  1
  S  S59  1  0.86293700  0.86091400  0.55052100  1
  S  S60  1  0.36441000  0.61094500  0.42736700  1
  S  S61  1  0.36459900  0.11213000  0.42685200  1
  S  S62  1  0.85884400  0.36211800  0.80344900  1
  S  S63  1  0.87265500  0.85569100  0.80559100  1
  S  S64  1  0.36785800  0.60522200  0.67901100  1
  S  S65  1  0.36721900  0.11234900  0.67654900  1
  S  S66  1  0.36668600  0.60690600  0.92677500  1
  S  S67  1  0.37237200  0.10538200  0.92667300  1
  S  S68  1  0.63314900  0.64642600  0.30572100  1
  S  S69  1  0.63656700  0.14636800  0.30575100  1
  S  S70  1  0.64118200  0.64288100  0.55245900  1
  S  S71  1  0.63787800  0.14529300  0.55515000  1
  S  S72  1  0.13592200  0.89730600  0.43094100  1
  S  S73  1  0.13745800  0.39523200  0.43084200  1
  S  S74  1  0.63729500  0.64099100  0.80591200  1
  S  S75  1  0.62871800  0.14738800  0.80543100  1
  S  S76  1  0.13185100  0.89666100  0.67819200  1
  S  S77  1  0.12304700  0.39061800  0.68192100  1
  S  S78  1  0.62871900  0.64599500  0.05457700  1
  S  S79  1  0.63364800  0.14863700  0.05467400  1
  S  S80  1  0.13140600  0.89854000  0.92594900  1
  S  S81  1  0.12740700  0.39485500  0.93012200  1
  S  S82  1  0.13812100  0.89672700  0.18135600  1
  S  S83  1  0.13198000  0.39897900  0.17907200  1
  S  S84  1  0.86440100  0.13842500  0.19745000  1
  S  S85  1  0.86189900  0.63617600  0.19844300  1
  S  S86  1  0.86484000  0.13958600  0.44746000  1
  S  S87  1  0.87462300  0.64070100  0.44515300  1
  S  S88  1  0.36408300  0.38835500  0.32231100  1
  S  S89  1  0.36264800  0.88778100  0.32292100  1
  S  S90  1  0.86366700  0.14348600  0.69834100  1
  S  S91  1  0.87448400  0.64772800  0.69920700  1
  S  S92  1  0.36259900  0.38866700  0.57500700  1
  S  S93  1  0.37271800  0.89629400  0.57251000  1
  S  S94  1  0.86417100  0.14134900  0.94662100  1
  S  S95  1  0.86044800  0.63939300  0.94837900  1
  S  S96  1  0.36587100  0.39022100  0.82388700  1
  S  S97  1  0.37849300  0.89668700  0.81997200  1
  S  S98  1  0.36369200  0.38903600  0.07278400  1
  S  S99  1  0.36897200  0.88802300  0.07389300  1
  S  S100  1  0.63733500  0.35495600  0.19394900  1
  S  S101  1  0.63872700  0.85500300  0.19450700  1
  S  S102  1  0.63350600  0.35428700  0.44371300  1
  S  S103  1  0.64004900  0.85325100  0.44236200  1
  S  S104  1  0.13794200  0.60424900  0.31878100  1
  S  S105  1  0.13581700  0.10468900  0.31893800  1
  S  S106  1  0.62557500  0.35428100  0.69654200  1
  S  S107  1  0.63587000  0.85084500  0.69801800  1
  S  S108  1  0.13076900  0.59921800  0.57303700  1
  S  S109  1  0.12849800  0.10525500  0.57109400  1
  S  S110  1  0.63255500  0.35862400  0.94354200  1
  S  S111  1  0.63005500  0.85455000  0.94876100  1
  S  S112  1  0.12871500  0.60204700  0.81970400  1
  S  S113  1  0.12648500  0.10459500  0.82132900  1
  S  S114  1  0.13003500  0.60513800  0.06898400  1
  S  S115  1  0.14194000  0.10632300  0.07057300  1
