# generated using pymatgen
data_NaLiFePO4F
_symmetry_space_group_name_H-M   'P 1'
_cell_length_a   6.42327400
_cell_length_b   11.16342500
_cell_length_c   11.56239500
_cell_angle_alpha   90.00000000
_cell_angle_beta   90.00000000
_cell_angle_gamma   90.00000000
_symmetry_Int_Tables_number   1
_chemical_formula_structural   NaLiFePO4F
_chemical_formula_sum   'Na8 Li8 Fe8 P8 O32 F8'
_cell_volume   829.09006136
_cell_formula_units_Z   8
loop_
 _symmetry_equiv_pos_site_id
 _symmetry_equiv_pos_as_xyz
  1  'x, y, z'
loop_
 _atom_site_type_symbol
 _atom_site_label
 _atom_site_symmetry_multiplicity
 _atom_site_fract_x
 _atom_site_fract_y
 _atom_site_fract_z
 _atom_site_occupancy
  Na  Na0  1  0.00537300  0.22273200  0.65713400  1
  Na  Na1  1  0.49462700  0.72273200  0.84286600  1
  Na  Na2  1  0.50537300  0.77726800  0.34286600  1
  Na  Na3  1  0.99462700  0.27726800  0.15713400  1
  Na  Na4  1  0.99462700  0.77726800  0.34286600  1
  Na  Na5  1  0.50537300  0.27726800  0.15713400  1
  Na  Na6  1  0.49462700  0.22273200  0.65713400  1
  Na  Na7  1  0.00537300  0.72273200  0.84286600  1
  Li  Li8  1  0.25000000  0.26950100  0.41368200  1
  Li  Li9  1  0.25000000  0.76950100  0.08631800  1
  Li  Li10  1  0.75000000  0.73049900  0.58631800  1
  Li  Li11  1  0.75000000  0.23049900  0.91368200  1
  Li  Li12  1  0.25000000  0.44426000  0.76939600  1
  Li  Li13  1  0.25000000  0.94426000  0.73060400  1
  Li  Li14  1  0.75000000  0.55574000  0.23060400  1
  Li  Li15  1  0.75000000  0.05574000  0.26939600  1
  Fe  Fe16  1  0.00000000  0.00000000  0.00000000  1
  Fe  Fe17  1  0.50000000  0.50000000  0.50000000  1
  Fe  Fe18  1  0.50000000  0.00000000  0.00000000  1
  Fe  Fe19  1  0.00000000  0.50000000  0.50000000  1
  Fe  Fe20  1  0.00000000  0.00000000  0.50000000  1
  Fe  Fe21  1  0.50000000  0.50000000  0.00000000  1
  Fe  Fe22  1  0.50000000  0.00000000  0.50000000  1
  Fe  Fe23  1  0.00000000  0.50000000  0.00000000  1
  P  P24  1  0.25000000  0.04192500  0.25880500  1
  P  P25  1  0.25000000  0.54192500  0.24119500  1
  P  P26  1  0.75000000  0.95807500  0.74119500  1
  P  P27  1  0.75000000  0.45807500  0.75880500  1
  P  P28  1  0.25000000  0.24610600  0.92308300  1
  P  P29  1  0.25000000  0.74610600  0.57691700  1
  P  P30  1  0.75000000  0.75389400  0.07691700  1
  P  P31  1  0.75000000  0.25389400  0.42308300  1
  O  O32  1  0.05051200  0.18066100  0.96618900  1
  O  O33  1  0.44948800  0.68066100  0.53381100  1
  O  O34  1  0.55051200  0.81933900  0.03381100  1
  O  O35  1  0.94948800  0.31933900  0.46618900  1
  O  O36  1  0.94948800  0.81933900  0.03381100  1
  O  O37  1  0.55051200  0.31933900  0.46618900  1
  O  O38  1  0.44948800  0.18066100  0.96618900  1
  O  O39  1  0.05051200  0.68066100  0.53381100  1
  O  O40  1  0.25000000  0.26355200  0.79189500  1
  O  O41  1  0.25000000  0.76355200  0.70810500  1
  O  O42  1  0.75000000  0.73644800  0.20810500  1
  O  O43  1  0.75000000  0.23644800  0.29189500  1
  O  O44  1  0.25000000  0.18027200  0.26214300  1
  O  O45  1  0.25000000  0.68027200  0.23785700  1
  O  O46  1  0.75000000  0.81972800  0.73785700  1
  O  O47  1  0.75000000  0.31972800  0.76214300  1
  O  O48  1  0.25000000  0.37321500  0.98270900  1
  O  O49  1  0.25000000  0.87321500  0.51729100  1
  O  O50  1  0.75000000  0.62678500  0.01729100  1
  O  O51  1  0.75000000  0.12678500  0.48270900  1
  O  O52  1  0.25000000  0.49323200  0.36781500  1
  O  O53  1  0.25000000  0.99323200  0.13218500  1
  O  O54  1  0.75000000  0.50676800  0.63218500  1
  O  O55  1  0.75000000  0.00676800  0.86781500  1
  O  O56  1  0.54931500  0.00688000  0.67909700  1
  O  O57  1  0.95068500  0.50688000  0.82090300  1
  O  O58  1  0.04931500  0.99312000  0.32090300  1
  O  O59  1  0.45068500  0.49312000  0.17909700  1
  O  O60  1  0.45068500  0.99312000  0.32090300  1
  O  O61  1  0.04931500  0.49312000  0.17909700  1
  O  O62  1  0.95068500  0.00688000  0.67909700  1
  O  O63  1  0.54931500  0.50688000  0.82090300  1
  F  F64  1  0.25000000  0.13040000  0.53042700  1
  F  F65  1  0.25000000  0.63040000  0.96957300  1
  F  F66  1  0.75000000  0.86960000  0.46957300  1
  F  F67  1  0.75000000  0.36960000  0.03042700  1
  F  F68  1  0.25000000  0.43755100  0.60705700  1
  F  F69  1  0.25000000  0.93755100  0.89294300  1
  F  F70  1  0.75000000  0.56244900  0.39294300  1
  F  F71  1  0.75000000  0.06244900  0.10705700  1
