# generated using pymatgen
data_Li9Mn2Co5O16
_symmetry_space_group_name_H-M   'P 1'
_cell_length_a   5.80188900
_cell_length_b   6.65005805
_cell_length_c   7.76415812
_cell_angle_alpha   89.85895379
_cell_angle_beta   100.28377205
_cell_angle_gamma   102.80100396
_symmetry_Int_Tables_number   1
_chemical_formula_structural   Li9Mn2Co5O16
_chemical_formula_sum   'Li9 Mn2 Co5 O16'
_cell_volume   287.21065277
_cell_formula_units_Z   1
loop_
 _symmetry_equiv_pos_site_id
 _symmetry_equiv_pos_as_xyz
  1  'x, y, z'
loop_
 _atom_site_type_symbol
 _atom_site_label
 _atom_site_symmetry_multiplicity
 _atom_site_fract_x
 _atom_site_fract_y
 _atom_site_fract_z
 _atom_site_occupancy
  Li  Li0  1  0.37873000  0.37874300  0.13415000  1
  Li  Li1  1  0.62233800  0.12448400  0.37839100  1
  Li  Li2  1  0.62439000  0.62892400  0.87288400  1
  Li  Li3  1  0.88169800  0.38275000  0.13540500  1
  Li  Li4  1  0.86837800  0.86919800  0.61753500  1
  Li  Li5  1  0.12467800  0.62379700  0.87504100  1
  Li  Li6  1  0.12680200  0.12344600  0.37945200  1
  Li  Li7  1  0.37121500  0.86722700  0.60962600  1
  Li  Li8  1  0.25252100  0.74800800  0.25080100  1
  Mn  Mn9  1  0.00333300  0.99880000  0.00431900  1
  Mn  Mn10  1  0.50199800  0.99845800  0.00428100  1
  Co  Co11  1  0.49135000  0.50415500  0.49193800  1
  Co  Co12  1  0.75367300  0.25390600  0.74440600  1
  Co  Co13  1  0.74790600  0.74771500  0.25175300  1
  Co  Co14  1  0.99894700  0.51273300  0.49100600  1
  Co  Co15  1  0.25649300  0.25816600  0.74427100  1
  O  O16  1  0.30576200  0.05845700  0.16496900  1
  O  O17  1  0.57467700  0.80031800  0.42698000  1
  O  O18  1  0.56413600  0.28895500  0.92922800  1
  O  O19  1  0.80801700  0.06547700  0.16524400  1
  O  O20  1  0.79380100  0.54752600  0.67997500  1
  O  O21  1  0.06712300  0.29092800  0.92888700  1
  O  O22  1  0.04202900  0.79287800  0.43191700  1
  O  O23  1  0.30367200  0.55442600  0.68399900  1
  O  O24  1  0.46155000  0.71750600  0.06955000  1
  O  O25  1  0.68835000  0.43576000  0.31735300  1
  O  O26  1  0.69929500  0.95107300  0.83310500  1
  O  O27  1  0.93281400  0.71769900  0.07141300  1
  O  O28  1  0.93278600  0.19917500  0.57241100  1
  O  O29  1  0.19661700  0.94287700  0.83713100  1
  O  O30  1  0.19822100  0.43325400  0.32663600  1
  O  O31  1  0.42670100  0.18317900  0.57594300  1
