# generated using pymatgen
data_Li5V3P8O29
_symmetry_space_group_name_H-M   'P 1'
_cell_length_a   9.75790900
_cell_length_b   9.76749008
_cell_length_c   14.11644277
_cell_angle_alpha   90.02768836
_cell_angle_beta   90.03642771
_cell_angle_gamma   119.52543060
_symmetry_Int_Tables_number   1
_chemical_formula_structural   Li5V3P8O29
_chemical_formula_sum   'Li10 V6 P16 O58'
_cell_volume   1170.71829540
_cell_formula_units_Z   2
loop_
 _symmetry_equiv_pos_site_id
 _symmetry_equiv_pos_as_xyz
  1  'x, y, z'
loop_
 _atom_site_type_symbol
 _atom_site_label
 _atom_site_symmetry_multiplicity
 _atom_site_fract_x
 _atom_site_fract_y
 _atom_site_fract_z
 _atom_site_occupancy
  Li  Li0  1  0.09721000  0.33528400  0.06008100  1
  Li  Li1  1  0.23457500  0.90591200  0.05904600  1
  Li  Li2  1  0.66957200  0.76760800  0.06054900  1
  Li  Li3  1  0.33615700  0.09843800  0.43998300  1
  Li  Li4  1  0.66853800  0.90522200  0.56098500  1
  Li  Li5  1  0.90664600  0.23550900  0.43999400  1
  Li  Li6  1  0.76968200  0.67054500  0.44034600  1
  Li  Li7  1  0.89880400  0.66250200  0.94154800  1
  Li  Li8  1  0.01921200  0.04247100  0.99597700  1
  Li  Li9  1  0.04450600  0.01383800  0.50152600  1
  V  V10  1  0.43500000  0.99982200  0.24918000  1
  V  V11  1  0.56555700  0.00085900  0.75424400  1
  V  V12  1  0.43293100  0.43128700  0.75100900  1
  V  V13  1  0.55833800  0.55813500  0.25037200  1
  V  V14  1  0.99937000  0.43442300  0.25035700  1
  V  V15  1  0.00189700  0.56573200  0.74458400  1
  P  P16  1  0.08749800  0.31139100  0.84029500  1
  P  P17  1  0.22220500  0.30501300  0.34237900  1
  P  P18  1  0.08600200  0.77817700  0.34007500  1
  P  P19  1  0.33244400  0.66553400  0.13177200  1
  P  P20  1  0.33765900  0.66622400  0.63192600  1
  P  P21  1  0.21968600  0.90943900  0.84185400  1
  P  P22  1  0.31079900  0.08649100  0.66021700  1
  P  P23  1  0.68541700  0.77229300  0.84161100  1
  P  P24  1  0.30495100  0.22252300  0.15660700  1
  P  P25  1  0.68620800  0.91280100  0.34428800  1
  P  P26  1  0.77817000  0.08437700  0.16028300  1
  P  P27  1  0.66554400  0.33234900  0.36919900  1
  P  P28  1  0.67361200  0.34065800  0.86754400  1
  P  P29  1  0.91123200  0.22196000  0.65785200  1
  P  P30  1  0.77280400  0.68617300  0.65896300  1
  P  P31  1  0.91302800  0.68580200  0.15651800  1
  O  O32  1  0.98990200  0.21830000  0.56781600  1
  O  O33  1  0.08042700  0.33626800  0.33939300  1
  O  O34  1  0.20218800  0.20866400  0.07376700  1
  O  O35  1  0.25958900  0.34385600  0.83251000  1
  O  O36  1  0.08227600  0.46556200  0.82687000  1
  O  O37  1  0.18811800  0.51046800  0.17059300  1
  O  O38  1  0.08216000  0.61994900  0.33154900  1
  O  O39  1  0.99799600  0.76431900  0.06572900  1
  O  O40  1  0.07669500  0.73788600  0.83356200  1
  O  O41  1  0.33696000  0.52027400  0.67960900  1
  O  O42  1  0.37684800  0.46199100  0.33237000  1
  O  O43  1  0.18743000  0.66408700  0.67893000  1
  O  O44  1  0.33816500  0.66525600  0.02578400  1
  O  O45  1  0.32893100  0.65881300  0.52711200  1
  O  O46  1  0.32123200  0.80975200  0.17086700  1
  O  O47  1  0.53131900  0.61663000  0.82827400  1
  O  O48  1  0.48616600  0.67312600  0.17565500  1
  O  O49  1  0.25748000  0.91861800  0.33952800  1
  O  O50  1  0.19941800  0.99754600  0.74974900  1
  O  O51  1  0.22643000  0.01674700  0.56921100  1
  O  O52  1  0.20043200  0.98060800  0.93132000  1
  O  O53  1  0.37455300  0.90840400  0.83043400  1
  O  O54  1  0.48832300  0.81446200  0.66917900  1
  O  O55  1  0.33901300  0.08284300  0.15871300  1
  O  O56  1  0.52861500  0.90999100  0.32778400  1
  O  O57  1  0.66324500  0.74543600  0.34228600  1
  O  O58  1  0.20103200  0.20020200  0.24982900  1
  O  O59  1  0.21035100  0.20434900  0.42579700  1
  O  O60  1  0.77849900  0.77613400  0.57078400  1
  O  O61  1  0.34515000  0.25889400  0.66932400  1
  O  O62  1  0.46435200  0.08029600  0.67281900  1
  O  O63  1  0.65473600  0.91236600  0.83675100  1
  O  O64  1  0.51059800  0.18871800  0.33000700  1
  O  O65  1  0.61947000  0.08154500  0.16949400  1
  O  O66  1  0.79240100  0.99295700  0.07886400  1
  O  O67  1  0.76740900  0.99806900  0.43490500  1
  O  O68  1  0.80052900  0.00863100  0.25777100  1
  O  O69  1  0.74217800  0.08081800  0.66260600  1
  O  O70  1  0.52556100  0.34110800  0.82116600  1
  O  O71  1  0.45979800  0.37971600  0.16586400  1
  O  O72  1  0.67335800  0.19448600  0.82592500  1
  O  O73  1  0.68007400  0.36187700  0.97199900  1
  O  O74  1  0.66581300  0.34025600  0.47515300  1
  O  O75  1  0.80933800  0.32146600  0.32973200  1
  O  O76  1  0.61687300  0.53232400  0.67108300  1
  O  O77  1  0.67212500  0.48576200  0.32484600  1
  O  O78  1  0.91777100  0.25578100  0.15990700  1
  O  O79  1  0.99916100  0.20229300  0.74968500  1
  O  O80  1  0.01550300  0.22711500  0.93077400  1
  O  O81  1  0.91127800  0.38004100  0.67329600  1
  O  O82  1  0.82001200  0.49142200  0.82273800  1
  O  O83  1  0.90941700  0.52733700  0.17374100  1
  O  O84  1  0.74605500  0.66339800  0.15886900  1
  O  O85  1  0.77409800  0.77557300  0.92986900  1
  O  O86  1  0.79552700  0.79443600  0.75049500  1
  O  O87  1  0.91429600  0.65577500  0.66239900  1
  O  O88  1  0.99549100  0.79517400  0.42125300  1
  O  O89  1  0.00984800  0.80030100  0.24248500  1
