# generated using pymatgen
data_Li4Co3Sn5O16
_symmetry_space_group_name_H-M   'P 1'
_cell_length_a   6.14226312
_cell_length_b   10.59201129
_cell_length_c   9.86462113
_cell_angle_alpha   89.47136081
_cell_angle_beta   89.75337390
_cell_angle_gamma   89.71927108
_symmetry_Int_Tables_number   1
_chemical_formula_structural   Li4Co3Sn5O16
_chemical_formula_sum   'Li8 Co6 Sn10 O32'
_cell_volume   641.74075866
_cell_formula_units_Z   2
loop_
 _symmetry_equiv_pos_site_id
 _symmetry_equiv_pos_as_xyz
  1  'x, y, z'
loop_
 _atom_site_type_symbol
 _atom_site_label
 _atom_site_symmetry_multiplicity
 _atom_site_fract_x
 _atom_site_fract_y
 _atom_site_fract_z
 _atom_site_occupancy
  Li  Li0  1  0.50415300  0.16904400  0.89083000  1
  Li  Li1  1  0.00206100  0.66850600  0.89302400  1
  Li  Li2  1  0.96404100  0.01095300  0.98546500  1
  Li  Li3  1  0.46681300  0.51099000  0.98470800  1
  Li  Li4  1  0.98637800  0.00019400  0.49896300  1
  Li  Li5  1  0.49068000  0.50175100  0.49780800  1
  Li  Li6  1  0.50091700  0.83129700  0.40477800  1
  Li  Li7  1  0.00868300  0.33511400  0.40540200  1
  Co  Co8  1  0.24622600  0.58627400  0.21598200  1
  Co  Co9  1  0.74700900  0.91260000  0.71375500  1
  Co  Co10  1  0.24419400  0.41883300  0.71065300  1
  Co  Co11  1  0.74317500  0.08452000  0.21528700  1
  Co  Co12  1  0.50554700  0.66816500  0.71318700  1
  Co  Co13  1  0.00594400  0.16852700  0.71261400  1
  Sn  Sn14  1  0.50495900  0.33044400  0.21357900  1
  Sn  Sn15  1  0.99766000  0.83152100  0.21630800  1
  Sn  Sn16  1  0.51132700  0.15930600  0.49656300  1
  Sn  Sn17  1  0.00426700  0.66254800  0.49520500  1
  Sn  Sn18  1  0.25201800  0.08408500  0.21372600  1
  Sn  Sn19  1  0.75596000  0.58430500  0.21320500  1
  Sn  Sn20  1  0.25222200  0.91241100  0.71521800  1
  Sn  Sn21  1  0.75591900  0.41287100  0.71575800  1
  Sn  Sn22  1  0.51177800  0.83366800  0.98497700  1
  Sn  Sn23  1  0.01043700  0.33346300  0.98199000  1
  O  O24  1  0.51701300  0.33393900  0.58941100  1
  O  O25  1  0.00614900  0.83339300  0.59461800  1
  O  O26  1  0.27875100  0.23965300  0.34481900  1
  O  O27  1  0.76930400  0.74214600  0.34486400  1
  O  O28  1  0.51391900  0.16145900  0.10641700  1
  O  O29  1  0.99653200  0.67145700  0.10033200  1
  O  O30  1  0.98314200  0.00591800  0.31149300  1
  O  O31  1  0.50286000  0.49814200  0.31295900  1
  O  O32  1  0.98487100  0.99191000  0.80391500  1
  O  O33  1  0.48619400  0.50313900  0.79941900  1
  O  O34  1  0.24660600  0.07380000  0.58854200  1
  O  O35  1  0.73160000  0.58603100  0.60067800  1
  O  O36  1  0.73277900  0.22961600  0.33494500  1
  O  O37  1  0.22149400  0.74683300  0.34665200  1
  O  O38  1  0.51434400  0.01627100  0.33313600  1
  O  O39  1  0.99353000  0.51662900  0.34609000  1
  O  O40  1  0.23852200  0.91973400  0.09443500  1
  O  O41  1  0.74420600  0.41969500  0.09338400  1
  O  O42  1  0.75159800  0.06822200  0.60266400  1
  O  O43  1  0.25162800  0.57237500  0.59992900  1
  O  O44  1  0.48371100  0.98542500  0.84824000  1
  O  O45  1  0.99005600  0.48830200  0.84621600  1
  O  O46  1  0.29212500  0.74772900  0.83841000  1
  O  O47  1  0.77781200  0.25790100  0.84770000  1
  O  O48  1  0.51569600  0.82779100  0.61579800  1
  O  O49  1  0.01650200  0.34129900  0.60900300  1
  O  O50  1  0.75253800  0.92781600  0.10331600  1
  O  O51  1  0.25765300  0.41431400  0.09795600  1
  O  O52  1  0.73959400  0.77034600  0.84030300  1
  O  O53  1  0.23906700  0.27131900  0.83588100  1
  O  O54  1  0.50540600  0.66531800  0.09519500  1
  O  O55  1  0.99272800  0.16098800  0.09996800  1
