# generated using pymatgen
data_LiV3OF11
_symmetry_space_group_name_H-M   'P 1'
_cell_length_a   6.29860508
_cell_length_b   7.73333072
_cell_length_c   10.65421072
_cell_angle_alpha   71.54379191
_cell_angle_beta   103.65218560
_cell_angle_gamma   110.09894423
_symmetry_Int_Tables_number   1
_chemical_formula_structural   LiV3OF11
_chemical_formula_sum   'Li2 V6 O2 F22'
_cell_volume   457.54715159
_cell_formula_units_Z   2
loop_
 _symmetry_equiv_pos_site_id
 _symmetry_equiv_pos_as_xyz
  1  'x, y, z'
loop_
 _atom_site_type_symbol
 _atom_site_label
 _atom_site_symmetry_multiplicity
 _atom_site_fract_x
 _atom_site_fract_y
 _atom_site_fract_z
 _atom_site_occupancy
  Li  Li0  1  0.42661200  0.52766700  0.81883700  1
  Li  Li1  1  0.42692200  0.02796400  0.31864900  1
  V  V2  1  0.81358000  0.02000200  0.62542000  1
  V  V3  1  0.29890000  0.23754900  0.56694200  1
  V  V4  1  0.06981300  0.06154700  0.99659800  1
  V  V5  1  0.81283300  0.51993200  0.12560400  1
  V  V6  1  0.29811000  0.73728900  0.06701500  1
  V  V7  1  0.06996400  0.56141200  0.49670100  1
  O  O8  1  0.01339900  0.76989500  0.05690700  1
  O  O9  1  0.01387200  0.27000800  0.55692700  1
  F  F10  1  0.94411000  0.54173800  0.31076000  1
  F  F11  1  0.94446600  0.04189200  0.81061400  1
  F  F12  1  0.35100300  0.51316700  0.47602900  1
  F  F13  1  0.35027500  0.01296300  0.97569900  1
  F  F14  1  0.68387600  0.27254100  0.19896200  1
  F  F15  1  0.68586000  0.77242400  0.69858300  1
  F  F16  1  0.19901600  0.31200200  0.92578600  1
  F  F17  1  0.19926200  0.81190600  0.42580600  1
  F  F18  1  0.58666900  0.62282700  0.12903500  1
  F  F19  1  0.58684700  0.12247700  0.62885600  1
  F  F20  1  0.11415300  0.47437700  0.12800700  1
  F  F21  1  0.11588200  0.97496900  0.62776900  1
  F  F22  1  0.69158200  0.49387900  0.95469600  1
  F  F23  1  0.69178500  0.99397700  0.45456100  1
  F  F24  1  0.42253000  0.30301300  0.72091100  1
  F  F25  1  0.42232100  0.80311900  0.22074900  1
  F  F26  1  0.31502700  0.70684500  0.90971700  1
  F  F27  1  0.31509900  0.20730300  0.40949300  1
  F  F28  1  0.79309200  0.52572400  0.52675100  1
  F  F29  1  0.79300000  0.02599800  0.02666100  1
  F  F30  1  0.20130600  0.58405500  0.66668700  1
  F  F31  1  0.20127000  0.08408700  0.16664500  1
