# generated using pymatgen
data_Li3MnV(PO4)3
_symmetry_space_group_name_H-M   'P 1'
_cell_length_a   10.23476436
_cell_length_b   10.23476436
_cell_length_c   10.23476436
_cell_angle_alpha   108.79327229
_cell_angle_beta   108.79327229
_cell_angle_gamma   110.83579560
_symmetry_Int_Tables_number   1
_chemical_formula_structural   Li3MnV(PO4)3
_chemical_formula_sum   'Li12 Mn4 V4 P12 O48'
_cell_volume   824.94759318
_cell_formula_units_Z   4
loop_
 _symmetry_equiv_pos_site_id
 _symmetry_equiv_pos_as_xyz
  1  'x, y, z'
loop_
 _atom_site_type_symbol
 _atom_site_label
 _atom_site_symmetry_multiplicity
 _atom_site_fract_x
 _atom_site_fract_y
 _atom_site_fract_z
 _atom_site_occupancy
  Li  Li0  1  0.24321900  0.11757000  0.61897100  1
  Li  Li1  1  0.99972200  0.49972200  0.50000000  1
  Li  Li2  1  0.37575200  0.75678100  0.87435100  1
  Li  Li3  1  0.50027800  0.00027800  0.50000000  1
  Li  Li4  1  0.88243000  0.50140000  0.12564900  1
  Li  Li5  1  0.75140000  0.12575200  0.11897100  1
  Li  Li6  1  0.49860000  0.62424800  0.38102900  1
  Li  Li7  1  0.36757000  0.24860000  0.37435100  1
  Li  Li8  1  0.74972200  0.74972200  0.00000000  1
  Li  Li9  1  0.87424800  0.99321900  0.62564900  1
  Li  Li10  1  0.25027800  0.25027800  0.00000000  1
  Li  Li11  1  0.00678100  0.63243000  0.88102900  1
  Mn  Mn12  1  0.12500000  0.87500000  0.75000000  1
  Mn  Mn13  1  0.62500000  0.87500000  0.75000000  1
  Mn  Mn14  1  0.12500000  0.37500000  0.25000000  1
  Mn  Mn15  1  0.12500000  0.87500000  0.25000000  1
  V  V16  1  0.12500000  0.37500000  0.75000000  1
  V  V17  1  0.62500000  0.37500000  0.25000000  1
  V  V18  1  0.62500000  0.87500000  0.25000000  1
  V  V19  1  0.62500000  0.37500000  0.75000000  1
  P  P20  1  0.87549700  0.75353700  0.37265300  1
  P  P21  1  0.50000000  0.50000000  0.00000000  1
  P  P22  1  0.25000000  0.75000000  0.50000000  1
  P  P23  1  0.49715500  0.12450300  0.87804000  1
  P  P24  1  0.00353700  0.13088400  0.37804000  1
  P  P25  1  0.38088400  0.50284500  0.62734700  1
  P  P26  1  0.86911600  0.24715500  0.87265300  1
  P  P27  1  0.75284500  0.62549700  0.62196000  1
  P  P28  1  0.24646300  0.61911600  0.12196000  1
  P  P29  1  0.00000000  0.00000000  0.00000000  1
  P  P30  1  0.75000000  0.25000000  0.50000000  1
  P  P31  1  0.37450300  0.99646300  0.12734700  1
  O  O32  1  0.03154000  0.17220300  0.54928200  1
  O  O33  1  0.83269300  0.58020000  0.33966900  1
  O  O34  1  0.74387800  0.28689600  0.36248000  1
  O  O35  1  0.01265400  0.88631300  0.54175100  1
  O  O36  1  0.32558400  0.36860200  0.86248000  1
  O  O37  1  0.31999900  0.08019200  0.84070300  1
  O  O38  1  0.21337700  0.75771300  0.63808800  1
  O  O39  1  0.24228700  0.88037500  0.45566400  1
  O  O40  1  0.11962500  0.57528900  0.36191200  1
  O  O41  1  0.01051100  0.27070400  0.34070300  1
  O  O42  1  0.63139800  0.49387800  0.95698100  1
  O  O43  1  0.51774200  0.96846000  0.14066400  1
  O  O44  1  0.24053000  0.49302300  0.66033100  1
  O  O45  1  0.62707900  0.26774200  0.04928200  1
  O  O46  1  0.50697700  0.16730700  0.74750700  1
  O  O47  1  0.52909700  0.98734600  0.87365900  1
  O  O48  1  0.91980800  0.76051100  0.23980700  1
  O  O49  1  0.53689600  0.67441600  0.04301900  1
  O  O50  1  0.42471100  0.78662300  0.54433600  1
  O  O51  1  0.13631300  0.09456200  0.37365900  1
  O  O52  1  0.34456200  0.47090300  0.45824900  1
  O  O53  1  0.52070400  0.68000100  0.76019300  1
  O  O54  1  0.82779700  0.37707900  0.85933600  1
  O  O55  1  0.83020000  0.99053000  0.24750700  1
  O  O56  1  0.41980000  0.75947000  0.25249300  1
  O  O57  1  0.42220300  0.37292100  0.64066400  1
  O  O58  1  0.72929600  0.06999900  0.73980700  1
  O  O59  1  0.90543800  0.27909700  0.04175100  1
  O  O60  1  0.11368700  0.65543800  0.12634100  1
  O  O61  1  0.82528900  0.96337700  0.95566400  1
  O  O62  1  0.71310400  0.07558400  0.45698100  1
  O  O63  1  0.33019200  0.98948900  0.26019300  1
  O  O64  1  0.72090300  0.76265400  0.62634100  1
  O  O65  1  0.74302300  0.58269300  0.75249300  1
  O  O66  1  0.62292100  0.48225800  0.45071800  1
  O  O67  1  0.00947000  0.25697700  0.83966900  1
  O  O68  1  0.73225800  0.78154000  0.35933600  1
  O  O69  1  0.61860200  0.25612200  0.54301900  1
  O  O70  1  0.23948900  0.47929600  0.15929700  1
  O  O71  1  0.13037500  0.17471100  0.13808800  1
  O  O72  1  0.00771300  0.86962500  0.04433600  1
  O  O73  1  0.03662300  0.99228700  0.86191200  1
  O  O74  1  0.93000100  0.66980800  0.65929700  1
  O  O75  1  0.92441600  0.38139800  0.63752000  1
  O  O76  1  0.23734600  0.86368700  0.95824900  1
  O  O77  1  0.50612200  0.46310400  0.13752000  1
  O  O78  1  0.41730700  0.16980000  0.16033100  1
  O  O79  1  0.21846000  0.57779700  0.95071800  1
