# generated using pymatgen
data_Li5Mg11(WO4)12
_symmetry_space_group_name_H-M   'P 1'
_cell_length_a   10.59218900
_cell_length_b   5.24610500
_cell_length_c   18.06000383
_cell_angle_alpha   89.92176873
_cell_angle_beta   90.00000000
_cell_angle_gamma   90.00000000
_symmetry_Int_Tables_number   1
_chemical_formula_structural   Li5Mg11(WO4)12
_chemical_formula_sum   'Li5 Mg11 W12 O48'
_cell_volume   1003.55258389
_cell_formula_units_Z   1
loop_
 _symmetry_equiv_pos_site_id
 _symmetry_equiv_pos_as_xyz
  1  'x, y, z'
loop_
 _atom_site_type_symbol
 _atom_site_label
 _atom_site_symmetry_multiplicity
 _atom_site_fract_x
 _atom_site_fract_y
 _atom_site_fract_z
 _atom_site_occupancy
  Li  Li0  1  0.00000000  0.24383600  0.29770800  1
  Li  Li1  1  0.50000000  0.25367500  0.80144400  1
  Li  Li2  1  0.00000000  0.74823400  0.19768500  1
  Li  Li3  1  0.50000000  0.75599000  0.70281500  1
  Li  Li4  1  0.00000000  0.90208900  0.75411200  1
  Mg  Mg5  1  0.50000000  0.09584000  0.24818500  1
  Mg  Mg6  1  0.32537700  0.25989700  0.97209500  1
  Mg  Mg7  1  0.67462300  0.25989700  0.97209500  1
  Mg  Mg8  1  0.82021900  0.24789800  0.47269000  1
  Mg  Mg9  1  0.17978100  0.24789800  0.47269000  1
  Mg  Mg10  1  0.00000000  0.39725300  0.75374800  1
  Mg  Mg11  1  0.50000000  0.59589600  0.24862100  1
  Mg  Mg12  1  0.33206500  0.75355300  0.52781600  1
  Mg  Mg13  1  0.66793500  0.75355300  0.52781600  1
  Mg  Mg14  1  0.82830500  0.73993300  0.02508400  1
  Mg  Mg15  1  0.17169500  0.73993300  0.02508400  1
  W  W16  1  0.00000000  0.20310000  0.94128700  1
  W  W17  1  0.27703100  0.22476600  0.65549700  1
  W  W18  1  0.72296900  0.22476600  0.65549700  1
  W  W19  1  0.77552600  0.27888600  0.15427600  1
  W  W20  1  0.22447400  0.27888600  0.15427600  1
  W  W21  1  0.50000000  0.29139100  0.43984300  1
  W  W22  1  0.00000000  0.71215800  0.55778700  1
  W  W23  1  0.72529500  0.72308100  0.84436400  1
  W  W24  1  0.27470500  0.72308100  0.84436400  1
  W  W25  1  0.77579000  0.78257100  0.34561300  1
  W  W26  1  0.22421000  0.78257100  0.34561300  1
  W  W27  1  0.50000000  0.79389700  0.05924000  1
  O  O28  1  0.86457600  0.06211500  0.37511800  1
  O  O29  1  0.13542400  0.06211500  0.37511800  1
  O  O30  1  0.50000000  0.06269000  0.98902300  1
  O  O31  1  0.87241900  0.08513400  0.21357500  1
  O  O32  1  0.12758100  0.08513400  0.21357500  1
  O  O33  1  0.26073500  0.07744300  0.07415600  1
  O  O34  1  0.73926500  0.07744300  0.07415600  1
  O  O35  1  0.35791500  0.07984600  0.46347500  1
  O  O36  1  0.64208500  0.07984600  0.46347500  1
  O  O37  1  0.86928600  0.15566400  0.70312000  1
  O  O38  1  0.13071400  0.15566400  0.70312000  1
  O  O39  1  0.00000000  0.15979000  0.83975300  1
  O  O40  1  0.50000000  0.34014200  0.33733400  1
  O  O41  1  0.37009800  0.34866300  0.20585600  1
  O  O42  1  0.62990200  0.34866300  0.20585600  1
  O  O43  1  0.14211300  0.41593000  0.96465400  1
  O  O44  1  0.85788700  0.41593000  0.96465400  1
  O  O45  1  0.76065500  0.42286400  0.57262300  1
  O  O46  1  0.23934500  0.42286400  0.57262300  1
  O  O47  1  0.37503900  0.42037900  0.71249000  1
  O  O48  1  0.62496100  0.42037900  0.71249000  1
  O  O49  1  0.00000000  0.43130800  0.49516400  1
  O  O50  1  0.36434900  0.44359200  0.87327000  1
  O  O51  1  0.63565100  0.44359200  0.87327000  1
  O  O52  1  0.86429700  0.55998100  0.12739300  1
  O  O53  1  0.13570300  0.55998100  0.12739300  1
  O  O54  1  0.50000000  0.56000100  0.51024600  1
  O  O55  1  0.87363800  0.58648200  0.28880500  1
  O  O56  1  0.12636200  0.58648200  0.28880500  1
  O  O57  1  0.25958700  0.58087600  0.42705100  1
  O  O58  1  0.74041300  0.58087600  0.42705100  1
  O  O59  1  0.35751800  0.58331600  0.03776500  1
  O  O60  1  0.64248200  0.58331600  0.03776500  1
  O  O61  1  0.86799900  0.64416400  0.79359300  1
  O  O62  1  0.13200100  0.64416400  0.79359300  1
  O  O63  1  0.00000000  0.63458900  0.65445900  1
  O  O64  1  0.50000000  0.84200800  0.16301700  1
  O  O65  1  0.37080100  0.84875500  0.29549100  1
  O  O66  1  0.62919900  0.84875500  0.29549100  1
  O  O67  1  0.86431000  0.91385200  0.53572200  1
  O  O68  1  0.13569000  0.91385200  0.53572200  1
  O  O69  1  0.76188100  0.92305300  0.92596500  1
  O  O70  1  0.23811900  0.92305300  0.92596500  1
  O  O71  1  0.37197800  0.91912500  0.78571000  1
  O  O72  1  0.62802200  0.91912500  0.78571000  1
  O  O73  1  0.00000000  0.93240600  0.01228400  1
  O  O74  1  0.36162200  0.94003800  0.62485900  1
  O  O75  1  0.63837800  0.94003800  0.62485900  1
