# generated using pymatgen
data_Li3V2(PO4)3
_symmetry_space_group_name_H-M   'P 1'
_cell_length_a   9.17321218
_cell_length_b   9.17321218
_cell_length_c   16.57890034
_cell_angle_alpha   65.01741326
_cell_angle_beta   65.01741326
_cell_angle_gamma   57.70182636
_symmetry_Int_Tables_number   1
_chemical_formula_structural   Li3V2(PO4)3
_chemical_formula_sum   'Li12 V8 P12 O48'
_cell_volume   1033.08203726
_cell_formula_units_Z   4
loop_
 _symmetry_equiv_pos_site_id
 _symmetry_equiv_pos_as_xyz
  1  'x, y, z'
loop_
 _atom_site_type_symbol
 _atom_site_label
 _atom_site_symmetry_multiplicity
 _atom_site_fract_x
 _atom_site_fract_y
 _atom_site_fract_z
 _atom_site_occupancy
  Li  Li0  1  0.47137200  0.75928400  0.85043400  1
  Li  Li1  1  0.08698200  0.24703300  0.44477300  1
  Li  Li2  1  0.63156200  0.36843800  0.75000000  1
  Li  Li3  1  0.75296700  0.91301800  0.05522700  1
  Li  Li4  1  0.24071600  0.52862800  0.64956600  1
  Li  Li5  1  0.00000000  0.50000000  0.00000000  1
  Li  Li6  1  0.75928400  0.47137200  0.35043400  1
  Li  Li7  1  0.24703300  0.08698200  0.94477300  1
  Li  Li8  1  0.36843800  0.63156200  0.25000000  1
  Li  Li9  1  0.91301800  0.75296700  0.55522700  1
  Li  Li10  1  0.52862800  0.24071600  0.14956600  1
  Li  Li11  1  0.50000000  0.00000000  0.50000000  1
  V  V12  1  0.20927800  0.70980100  0.03269400  1
  V  V13  1  0.84442800  0.80401400  0.33696300  1
  V  V14  1  0.19598600  0.15557200  0.16303700  1
  V  V15  1  0.29019900  0.79072200  0.46730600  1
  V  V16  1  0.70980100  0.20927800  0.53269400  1
  V  V17  1  0.80401400  0.84442800  0.83696300  1
  V  V18  1  0.15557200  0.19598600  0.66303700  1
  V  V19  1  0.79072200  0.29019900  0.96730600  1
  P  P20  1  0.02776700  0.96219900  0.87337700  1
  P  P21  1  0.02601700  0.56205200  0.18945800  1
  P  P22  1  0.65773400  0.59735600  0.52941900  1
  P  P23  1  0.40264400  0.34226600  0.97058100  1
  P  P24  1  0.43794800  0.97398300  0.31054200  1
  P  P25  1  0.03780100  0.97223300  0.62662300  1
  P  P26  1  0.96219900  0.02776700  0.37337700  1
  P  P27  1  0.56205200  0.02601700  0.68945800  1
  P  P28  1  0.59735600  0.65773400  0.02941900  1
  P  P29  1  0.34226600  0.40264400  0.47058100  1
  P  P30  1  0.97398300  0.43794800  0.81054200  1
  P  P31  1  0.97223300  0.03780100  0.12662300  1
  O  O32  1  0.59976600  0.91411600  0.78643100  1
  O  O33  1  0.71647100  0.94661800  0.60888200  1
  O  O34  1  0.81073400  0.99918900  0.37354800  1
  O  O35  1  0.13392000  0.94546700  0.05223100  1
  O  O36  1  0.46376700  0.69154300  0.98164800  1
  O  O37  1  0.97978500  0.89107600  0.21702500  1
  O  O38  1  0.20703000  0.87407200  0.89834100  1
  O  O39  1  0.21943000  0.54721000  0.16138100  1
  O  O40  1  0.80230600  0.67325500  0.47050700  1
  O  O41  1  0.61004900  0.97206800  0.30462300  1
  O  O42  1  0.66599400  0.51605000  0.62899800  1
  O  O43  1  0.91411600  0.59976600  0.28643100  1
  O  O44  1  0.23637900  0.52352200  0.98481100  1
  O  O45  1  0.94661800  0.71647100  0.10888200  1
  O  O46  1  0.47647800  0.76362100  0.51518900  1
  O  O47  1  0.99918900  0.81073400  0.87354800  1
  O  O48  1  0.48395000  0.33400600  0.87100200  1
  O  O49  1  0.94546700  0.13392000  0.55223100  1
  O  O50  1  0.02793200  0.38995100  0.19537700  1
  O  O51  1  0.69154300  0.46376700  0.48164800  1
  O  O52  1  0.89107600  0.97978500  0.71702500  1
  O  O53  1  0.32674500  0.19769400  0.02949300  1
  O  O54  1  0.12592800  0.79297000  0.60165900  1
  O  O55  1  0.45279000  0.78057000  0.33861900  1
  O  O56  1  0.54721000  0.21943000  0.66138100  1
  O  O57  1  0.87407200  0.20703000  0.39834100  1
  O  O58  1  0.67325500  0.80230600  0.97050700  1
  O  O59  1  0.10892400  0.02021500  0.28297500  1
  O  O60  1  0.30845700  0.53623300  0.51835200  1
  O  O61  1  0.97206800  0.61004900  0.80462300  1
  O  O62  1  0.05453300  0.86608000  0.44776900  1
  O  O63  1  0.51605000  0.66599400  0.12899800  1
  O  O64  1  0.00081100  0.18926600  0.12645200  1
  O  O65  1  0.52352200  0.23637900  0.48481100  1
  O  O66  1  0.05338200  0.28352900  0.89111800  1
  O  O67  1  0.76362100  0.47647800  0.01518900  1
  O  O68  1  0.08588400  0.40023400  0.71356900  1
  O  O69  1  0.33400600  0.48395000  0.37100200  1
  O  O70  1  0.38995100  0.02793200  0.69537700  1
  O  O71  1  0.19769400  0.32674500  0.52949300  1
  O  O72  1  0.78057000  0.45279000  0.83861900  1
  O  O73  1  0.79297000  0.12592800  0.10165900  1
  O  O74  1  0.02021500  0.10892400  0.78297500  1
  O  O75  1  0.53623300  0.30845700  0.01835200  1
  O  O76  1  0.86608000  0.05453300  0.94776900  1
  O  O77  1  0.18926600  0.00081100  0.62645200  1
  O  O78  1  0.28352900  0.05338200  0.39111800  1
  O  O79  1  0.40023400  0.08588400  0.21356900  1
