# generated using pymatgen
data_LiCoSnO4
_symmetry_space_group_name_H-M   'P 1'
_cell_length_a   6.14267370
_cell_length_b   10.46862600
_cell_length_c   6.18305100
_cell_angle_alpha   106.02675423
_cell_angle_beta   118.86605443
_cell_angle_gamma   92.26509489
_symmetry_Int_Tables_number   1
_chemical_formula_structural   LiCoSnO4
_chemical_formula_sum   'Li4 Co4 Sn4 O16'
_cell_volume   327.53872435
_cell_formula_units_Z   4
loop_
 _symmetry_equiv_pos_site_id
 _symmetry_equiv_pos_as_xyz
  1  'x, y, z'
loop_
 _atom_site_type_symbol
 _atom_site_label
 _atom_site_symmetry_multiplicity
 _atom_site_fract_x
 _atom_site_fract_y
 _atom_site_fract_z
 _atom_site_occupancy
  Li  Li0  1  0.31498000  0.43556600  0.62115600  1
  Li  Li1  1  0.81026200  0.93495400  0.62378300  1
  Li  Li2  1  0.68990100  0.56494700  0.37599000  1
  Li  Li3  1  0.18517700  0.06411100  0.37862600  1
  Co  Co4  1  0.75003500  0.25096100  0.99952000  1
  Co  Co5  1  0.00106400  0.50133500  0.99747700  1
  Co  Co6  1  0.24933200  0.75004500  0.00073100  1
  Co  Co7  1  0.50038200  0.99927000  0.00300700  1
  Sn  Sn8  1  0.25010300  0.24988000  0.99959300  1
  Sn  Sn9  1  0.74947800  0.74990600  0.00050600  1
  Sn  Sn10  1  0.24967600  0.75002000  0.50070000  1
  Sn  Sn11  1  0.74975000  0.25002600  0.49958100  1
  O  O12  1  0.91317400  0.63650900  0.79766800  1
  O  O13  1  0.40537300  0.13177000  0.79654000  1
  O  O14  1  0.83302400  0.12826700  0.22872400  1
  O  O15  1  0.33551900  0.63511700  0.22050100  1
  O  O16  1  0.16504800  0.86499200  0.78081300  1
  O  O17  1  0.66479000  0.37146300  0.76885500  1
  O  O18  1  0.09656000  0.36830400  0.20443800  1
  O  O19  1  0.58659600  0.86328400  0.20316400  1
  O  O20  1  0.38451800  0.12800900  0.23738200  1
  O  O21  1  0.88702300  0.62561200  0.23451400  1
  O  O22  1  0.62499200  0.36252300  0.24224300  1
  O  O23  1  0.11618600  0.86532200  0.25453500  1
  O  O24  1  0.38370500  0.63417100  0.74525100  1
  O  O25  1  0.87506000  0.13758500  0.75692800  1
  O  O26  1  0.61316900  0.87412600  0.76577600  1
  O  O27  1  0.11512500  0.37192700  0.76199600  1
