# generated using pymatgen
data_LiCo2(PO3)5
_symmetry_space_group_name_H-M   'P 1'
_cell_length_a   8.46434600
_cell_length_b   5.27682000
_cell_length_c   13.53180224
_cell_angle_alpha   72.25638140
_cell_angle_beta   90.00000000
_cell_angle_gamma   90.00000000
_symmetry_Int_Tables_number   1
_chemical_formula_structural   LiCo2(PO3)5
_chemical_formula_sum   'Li2 Co4 P10 O30'
_cell_volume   575.64439689
_cell_formula_units_Z   2
loop_
 _symmetry_equiv_pos_site_id
 _symmetry_equiv_pos_as_xyz
  1  'x, y, z'
loop_
 _atom_site_type_symbol
 _atom_site_label
 _atom_site_symmetry_multiplicity
 _atom_site_fract_x
 _atom_site_fract_y
 _atom_site_fract_z
 _atom_site_occupancy
  Li  Li0  1  0.00552800  0.05488100  0.46917400  1
  Li  Li1  1  0.99447200  0.05488100  0.96917400  1
  Co  Co2  1  0.68530900  0.93437800  0.96753800  1
  Co  Co3  1  0.69115900  0.06099200  0.53940100  1
  Co  Co4  1  0.31469100  0.93437800  0.46753800  1
  Co  Co5  1  0.30884100  0.06099200  0.03940100  1
  P  P6  1  0.17823300  0.36343100  0.60198100  1
  P  P7  1  0.50849100  0.49785600  0.64194400  1
  P  P8  1  0.94233900  0.00183200  0.74946500  1
  P  P9  1  0.50673300  0.49805800  0.86106000  1
  P  P10  1  0.82176700  0.36343100  0.10198100  1
  P  P11  1  0.49150900  0.49785600  0.14194400  1
  P  P12  1  0.05766100  0.00183200  0.24946500  1
  P  P13  1  0.49326700  0.49805800  0.36106000  1
  P  P14  1  0.82286500  0.64539100  0.39409200  1
  P  P15  1  0.17713500  0.64539100  0.89409200  1
  O  O16  1  0.13361700  0.06515400  0.34011800  1
  O  O17  1  0.48758100  0.20786000  0.92493200  1
  O  O18  1  0.48949400  0.79263400  0.58351700  1
  O  O19  1  0.13692200  0.36118500  0.95245900  1
  O  O20  1  0.85816900  0.65074100  0.04749500  1
  O  O21  1  0.81044600  0.17135400  0.03960100  1
  O  O22  1  0.51050600  0.79263400  0.08351700  1
  O  O23  1  0.38092600  0.34259600  0.09850600  1
  O  O24  1  0.65886200  0.35133900  0.16763500  1
  O  O25  1  0.14980000  0.93733700  0.16614800  1
  O  O26  1  0.93890500  0.25077600  0.19845500  1
  O  O27  1  0.42629000  0.48734300  0.25295700  1
  O  O28  1  0.93741200  0.75126500  0.29582300  1
  O  O29  1  0.18930000  0.84711700  0.95208700  1
  O  O30  1  0.66082700  0.64119700  0.33059400  1
  O  O31  1  0.38615000  0.66988900  0.39941700  1
  O  O32  1  0.51241900  0.20786000  0.42493200  1
  O  O33  1  0.86307800  0.36118500  0.45245900  1
  O  O34  1  0.33917300  0.64119700  0.83059400  1
  O  O35  1  0.18955400  0.17135400  0.53960100  1
  O  O36  1  0.14183100  0.65074100  0.54749500  1
  O  O37  1  0.61385000  0.66988900  0.89941700  1
  O  O38  1  0.61907400  0.34259600  0.59850600  1
  O  O39  1  0.34113800  0.35133900  0.66763500  1
  O  O40  1  0.85020000  0.93733700  0.66614800  1
  O  O41  1  0.06109500  0.25077600  0.69845500  1
  O  O42  1  0.57371000  0.48734300  0.75295700  1
  O  O43  1  0.06258800  0.75126500  0.79582300  1
  O  O44  1  0.86638300  0.06515400  0.84011800  1
  O  O45  1  0.81070000  0.84711700  0.45208700  1
