# generated using pymatgen
data_Li7Mn4CoO12
_symmetry_space_group_name_H-M   'P 1'
_cell_length_a   6.49137514
_cell_length_b   8.65699743
_cell_length_c   8.22285025
_cell_angle_alpha   89.59894597
_cell_angle_beta   89.20037905
_cell_angle_gamma   109.55056637
_symmetry_Int_Tables_number   1
_chemical_formula_structural   Li7Mn4CoO12
_chemical_formula_sum   'Li14 Mn8 Co2 O24'
_cell_volume   435.37291253
_cell_formula_units_Z   2
loop_
 _symmetry_equiv_pos_site_id
 _symmetry_equiv_pos_as_xyz
  1  'x, y, z'
loop_
 _atom_site_type_symbol
 _atom_site_label
 _atom_site_symmetry_multiplicity
 _atom_site_fract_x
 _atom_site_fract_y
 _atom_site_fract_z
 _atom_site_occupancy
  Li  Li0  1  0.33344000  0.58336100  0.75049900  1
  Li  Li1  1  0.33323700  0.08332200  0.24951700  1
  Li  Li2  1  0.33334300  0.83335900  0.00000200  1
  Li  Li3  1  0.33334800  0.33336300  0.50000500  1
  Li  Li4  1  0.33358200  0.58333500  0.24961300  1
  Li  Li5  1  0.33313500  0.08337700  0.75039300  1
  Li  Li6  1  0.64465300  0.16151700  0.99324400  1
  Li  Li7  1  0.64532000  0.66200600  0.49333600  1
  Li  Li8  1  0.02204500  0.50516400  0.00675200  1
  Li  Li9  1  0.02136900  0.00467500  0.50666100  1
  Li  Li10  1  0.65667500  0.41544700  0.24928600  1
  Li  Li11  1  0.65654600  0.91513000  0.74928900  1
  Li  Li12  1  0.01001600  0.25122200  0.75072100  1
  Li  Li13  1  0.01015400  0.75154600  0.25071800  1
  Mn  Mn14  1  0.00547600  0.00346000  0.99641900  1
  Mn  Mn15  1  0.00600100  0.50333800  0.49665000  1
  Mn  Mn16  1  0.66117500  0.66319400  0.00358100  1
  Mn  Mn17  1  0.66065100  0.16331800  0.50335000  1
  Mn  Mn18  1  0.66229900  0.41381300  0.75154100  1
  Mn  Mn19  1  0.66157800  0.91343700  0.25149100  1
  Mn  Mn20  1  0.00435300  0.25287000  0.24845100  1
  Mn  Mn21  1  0.00509900  0.75321500  0.74850500  1
  Co  Co22  1  0.33332800  0.83331900  0.50000000  1
  Co  Co23  1  0.33332600  0.33331900  0.00000200  1
  O  O24  1  0.67970100  0.92724700  0.01417400  1
  O  O25  1  0.67963300  0.42752700  0.51454100  1
  O  O26  1  0.98696900  0.73947400  0.98581100  1
  O  O27  1  0.98702800  0.23921000  0.48544900  1
  O  O28  1  0.34992400  0.33890000  0.76461800  1
  O  O29  1  0.35097800  0.83917000  0.26513900  1
  O  O30  1  0.31673100  0.32775200  0.23538600  1
  O  O31  1  0.31566700  0.82747200  0.73486100  1
  O  O32  1  0.01658300  0.26080400  0.01253300  1
  O  O33  1  0.01674800  0.76132700  0.51306100  1
  O  O34  1  0.65005100  0.40582200  0.98746000  1
  O  O35  1  0.64989200  0.90530300  0.48693800  1
  O  O36  1  0.68136300  0.65044000  0.75769400  1
  O  O37  1  0.68138600  0.15091200  0.25748100  1
  O  O38  1  0.98527300  0.51573300  0.74254000  1
  O  O39  1  0.98528700  0.01620600  0.24233000  1
  O  O40  1  0.35436700  0.58822200  0.00080900  1
  O  O41  1  0.35501100  0.08635800  0.50072000  1
  O  O42  1  0.31228900  0.07842000  0.99919700  1
  O  O43  1  0.31164100  0.58026100  0.49929000  1
  O  O44  1  0.98894600  0.47088300  0.25906800  1
  O  O45  1  0.98868500  0.97117600  0.75884900  1
  O  O46  1  0.67797900  0.69548300  0.24112500  1
  O  O47  1  0.67771200  0.19579400  0.74089800  1
