# generated using pymatgen
data_LiEr4(HCl)4
_symmetry_space_group_name_H-M   'P 1'
_cell_length_a   18.84170201
_cell_length_b   18.84170201
_cell_length_c   18.84170219
_cell_angle_alpha   11.25645753
_cell_angle_beta   11.25645753
_cell_angle_gamma   11.25645501
_symmetry_Int_Tables_number   1
_chemical_formula_structural   LiEr4(HCl)4
_chemical_formula_sum   'Li1 Er4 H4 Cl4'
_cell_volume   221.43640742
_cell_formula_units_Z   1
loop_
 _symmetry_equiv_pos_site_id
 _symmetry_equiv_pos_as_xyz
  1  'x, y, z'
loop_
 _atom_site_type_symbol
 _atom_site_label
 _atom_site_symmetry_multiplicity
 _atom_site_fract_x
 _atom_site_fract_y
 _atom_site_fract_z
 _atom_site_occupancy
  Li  Li0  1  0.00000000  0.00000000  0.00000000  1
  Er  Er1  1  0.39313300  0.39313300  0.39313300  1
  Er  Er2  1  0.89137600  0.89137600  0.89137600  1
  Er  Er3  1  0.10862400  0.10862400  0.10862400  1
  Er  Er4  1  0.60686700  0.60686700  0.60686700  1
  H  H5  1  0.43178400  0.43178400  0.43178400  1
  H  H6  1  0.93185700  0.93185700  0.93185700  1
  H  H7  1  0.06814300  0.06814300  0.06814300  1
  H  H8  1  0.56821600  0.56821600  0.56821600  1
  Cl  Cl9  1  0.80506600  0.80506600  0.80506600  1
  Cl  Cl10  1  0.30741000  0.30741000  0.30741000  1
  Cl  Cl11  1  0.69259000  0.69259000  0.69259000  1
  Cl  Cl12  1  0.19493400  0.19493400  0.19493400  1
