# generated using pymatgen
data_Li4MnCo2O7
_symmetry_space_group_name_H-M   'P 1'
_cell_length_a   4.99433900
_cell_length_b   5.89822968
_cell_length_c   8.84226592
_cell_angle_alpha   90.62579448
_cell_angle_beta   95.23823766
_cell_angle_gamma   105.98089707
_symmetry_Int_Tables_number   1
_chemical_formula_structural   Li4MnCo2O7
_chemical_formula_sum   'Li8 Mn2 Co4 O14'
_cell_volume   249.18425001
_cell_formula_units_Z   2
loop_
 _symmetry_equiv_pos_site_id
 _symmetry_equiv_pos_as_xyz
  1  'x, y, z'
loop_
 _atom_site_type_symbol
 _atom_site_label
 _atom_site_symmetry_multiplicity
 _atom_site_fract_x
 _atom_site_fract_y
 _atom_site_fract_z
 _atom_site_occupancy
  Li  Li0  1  0.42188500  0.36213800  0.84756700  1
  Li  Li1  1  0.69846900  0.92294300  0.43653000  1
  Li  Li2  1  0.85662900  0.21648100  0.70805200  1
  Li  Li3  1  0.14771200  0.78137700  0.29615500  1
  Li  Li4  1  0.28803700  0.06824900  0.56986700  1
  Li  Li5  1  0.57364400  0.64169000  0.14642300  1
  Li  Li6  1  0.00622900  0.50000600  0.99843200  1
  Li  Li7  1  0.28411600  0.57574500  0.57623300  1
  Mn  Mn8  1  0.00085800  0.99739300  0.99617100  1
  Mn  Mn9  1  0.85603000  0.71155900  0.71144700  1
  Co  Co10  1  0.57461900  0.14633100  0.14618400  1
  Co  Co11  1  0.13803300  0.29061200  0.29889300  1
  Co  Co12  1  0.42913900  0.85630000  0.85511600  1
  Co  Co13  1  0.70802900  0.43884000  0.43270000  1
  O  O14  1  0.27488200  0.28905700  0.06789300  1
  O  O15  1  0.58227600  0.88199400  0.66209400  1
  O  O16  1  0.71652700  0.15034800  0.93082900  1
  O  O17  1  0.98208000  0.74738000  0.51599100  1
  O  O18  1  0.14033900  0.01221100  0.79440800  1
  O  O19  1  0.43487500  0.59004600  0.35457500  1
  O  O20  1  0.85567900  0.45387100  0.21419200  1
  O  O21  1  0.59940100  0.41549500  0.64711500  1
  O  O22  1  0.85852900  0.97418300  0.19294300  1
  O  O23  1  0.99467400  0.25415800  0.48664600  1
  O  O24  1  0.28210600  0.83734000  0.05462600  1
  O  O25  1  0.43189900  0.11330500  0.35086700  1
  O  O26  1  0.71963300  0.70376100  0.91949300  1
  O  O27  1  0.14366800  0.56718800  0.78856100  1
