# generated using pymatgen
data_Sr2LiO12
_symmetry_space_group_name_H-M   'P 1'
_cell_length_a   4.80402616
_cell_length_b   5.35675925
_cell_length_c   8.29073949
_cell_angle_alpha   100.24156925
_cell_angle_beta   77.02248957
_cell_angle_gamma   97.69604861
_symmetry_Int_Tables_number   1
_chemical_formula_structural   Sr2LiO12
_chemical_formula_sum   'Sr2 Li1 O12'
_cell_volume   203.60686393
_cell_formula_units_Z   1
loop_
 _symmetry_equiv_pos_site_id
 _symmetry_equiv_pos_as_xyz
  1  'x, y, z'
loop_
 _atom_site_type_symbol
 _atom_site_label
 _atom_site_symmetry_multiplicity
 _atom_site_fract_x
 _atom_site_fract_y
 _atom_site_fract_z
 _atom_site_occupancy
  Sr  Sr0  1  0.81204100  0.91909200  0.75033600  1
  Sr  Sr1  1  0.18389100  0.10131500  0.21590200  1
  Li  Li2  1  0.27752000  0.46239000  0.80443000  1
  O  O3  1  0.25180200  0.87913100  0.89354300  1
  O  O4  1  0.99507400  0.24899000  0.54066700  1
  O  O5  1  0.72483800  0.08732600  0.09320500  1
  O  O6  1  0.00154500  0.74776100  0.42393500  1
  O  O7  1  0.31494000  0.08100400  0.79149800  1
  O  O8  1  0.98074900  0.44184700  0.66617900  1
  O  O9  1  0.65697300  0.95186600  0.22257600  1
  O  O10  1  0.97261700  0.54678500  0.31590200  1
  O  O11  1  0.47920500  0.56978500  0.57407400  1
  O  O12  1  0.58714100  0.53652100  0.94773400  1
  O  O13  1  0.50556000  0.38645800  0.45299200  1
  O  O14  1  0.51860500  0.53973200  0.10702600  1
