# generated using pymatgen
data_Li7V3P8O29
_symmetry_space_group_name_H-M   'P 1'
_cell_length_a   9.85033768
_cell_length_b   9.85033768
_cell_length_c   13.92347716
_cell_angle_alpha   89.81461563
_cell_angle_beta   89.81461563
_cell_angle_gamma   59.98254009
_symmetry_Int_Tables_number   1
_chemical_formula_structural   Li7V3P8O29
_chemical_formula_sum   'Li14 V6 P16 O58'
_cell_volume   1169.77169914
_cell_formula_units_Z   2
loop_
 _symmetry_equiv_pos_site_id
 _symmetry_equiv_pos_as_xyz
  1  'x, y, z'
loop_
 _atom_site_type_symbol
 _atom_site_label
 _atom_site_symmetry_multiplicity
 _atom_site_fract_x
 _atom_site_fract_y
 _atom_site_fract_z
 _atom_site_occupancy
  Li  Li0  1  0.09471500  0.23411700  0.68817800  1
  Li  Li1  1  0.09859600  0.66629200  0.18886000  1
  Li  Li2  1  0.33588300  0.33649300  0.86418600  1
  Li  Li3  1  0.23249700  0.67389600  0.68471800  1
  Li  Li4  1  0.67575700  0.08904500  0.68594700  1
  Li  Li5  1  0.32610400  0.76750300  0.31528200  1
  Li  Li6  1  0.66855000  0.23407500  0.18864000  1
  Li  Li7  1  0.33370800  0.90140400  0.81114000  1
  Li  Li8  1  0.76592500  0.33145000  0.81136000  1
  Li  Li9  1  0.66350700  0.66411700  0.13581400  1
  Li  Li10  1  0.91095500  0.32424300  0.31405300  1
  Li  Li11  1  0.76588300  0.90528500  0.31182200  1
  Li  Li12  1  0.97991000  0.96097800  0.75602500  1
  Li  Li13  1  0.03902200  0.02009000  0.24397500  1
  V  V14  1  0.43555000  0.56445000  0.50000000  1
  V  V15  1  0.56352200  0.43647800  0.00000000  1
  V  V16  1  0.43301900  0.00392300  0.00246000  1
  V  V17  1  0.56375100  0.99938100  0.50070300  1
  V  V18  1  0.00061900  0.43624900  0.49929700  1
  V  V19  1  0.99607700  0.56698100  0.99754000  1
  P  P20  1  0.08847900  0.22639600  0.90954100  1
  P  P21  1  0.22243700  0.08632300  0.40986300  1
  P  P22  1  0.08245600  0.68799800  0.40370200  1
  P  P23  1  0.33277800  0.33132500  0.62231800  1
  P  P24  1  0.32837200  0.33621800  0.12222800  1
  P  P25  1  0.22361800  0.68346600  0.90636300  1
  P  P26  1  0.31653400  0.77638200  0.09363700  1
  P  P27  1  0.68581800  0.08933700  0.90297400  1
  P  P28  1  0.31200200  0.91754400  0.59629800  1
  P  P29  1  0.68902400  0.22389200  0.40787700  1
  P  P30  1  0.77610800  0.31097600  0.59212300  1
  P  P31  1  0.66867500  0.66722200  0.37768200  1
  P  P32  1  0.66378200  0.67162800  0.87777200  1
  P  P33  1  0.91066300  0.31418200  0.09702600  1
  P  P34  1  0.77360400  0.91152100  0.09045900  1
  P  P35  1  0.91367700  0.77756300  0.59013700  1
  O  O36  1  0.99560700  0.22690200  0.18610000  1
  O  O37  1  0.08348400  0.25726400  0.40810100  1
  O  O38  1  0.23471600  0.00472300  0.68779900  1
  O  O39  1  0.25293300  0.07924600  0.90767900  1
  O  O40  1  0.10638900  0.37372300  0.91973400  1
  O  O41  1  0.19061100  0.32042500  0.58155300  1
  O  O42  1  0.08726300  0.52988300  0.42262700  1
  O  O43  1  0.00696500  0.79512200  0.66959300  1
  O  O44  1  0.07774000  0.66664000  0.91034400  1
  O  O45  1  0.33791900  0.18661500  0.07192800  1
  O  O46  1  0.38113900  0.07815000  0.41629200  1
  O  O47  1  0.18097600  0.48325500  0.07604200  1
  O  O48  1  0.33500800  0.31915300  0.73081100  1
  O  O49  1  0.31341800  0.33901100  0.22813400  1
  O  O50  1  0.32376600  0.48642100  0.58883600  1
  O  O51  1  0.52284900  0.10343400  0.91548100  1
  O  O52  1  0.48907500  0.18765700  0.58197400  1
  O  O53  1  0.24699700  0.66584900  0.40573400  1
  O  O54  1  0.21575400  0.78424600  0.00000000  1
  O  O55  1  0.22323500  0.77879900  0.18096900  1
  O  O56  1  0.22120100  0.77676500  0.81903100  1
  O  O57  1  0.37060800  0.52029100  0.91329500  1
  O  O58  1  0.47972300  0.33515200  0.08769400  1
  O  O59  1  0.33415100  0.75300300  0.59426600  1
  O  O60  1  0.53517800  0.37686700  0.41568000  1
  O  O61  1  0.66259700  0.08029400  0.41247000  1
  O  O62  1  0.19799900  0.01499200  0.50950700  1
  O  O63  1  0.20487800  0.99303500  0.33040700  1
  O  O64  1  0.76695300  0.00460000  0.17815500  1
  O  O65  1  0.33336000  0.92226000  0.08965600  1
  O  O66  1  0.47970900  0.62939200  0.08670500  1
  O  O67  1  0.66702200  0.25403400  0.90733500  1
  O  O68  1  0.51357900  0.67623400  0.41116400  1
  O  O69  1  0.62313300  0.46482200  0.58432000  1
  O  O70  1  0.78977100  0.21552600  0.68099700  1
  O  O71  1  0.78447400  0.21022900  0.31900300  1
  O  O72  1  0.79788200  0.20211800  0.50000000  1
  O  O73  1  0.74596600  0.33297800  0.09266500  1
  O  O74  1  0.51674500  0.81902400  0.92395800  1
  O  O75  1  0.47011700  0.91273700  0.57737300  1
  O  O76  1  0.66484800  0.52027700  0.91230600  1
  O  O77  1  0.66098900  0.68658200  0.77186600  1
  O  O78  1  0.68084700  0.66499200  0.26918900  1
  O  O79  1  0.81234300  0.51092500  0.41802600  1
  O  O80  1  0.62627700  0.89361100  0.08026600  1
  O  O81  1  0.67957500  0.80938900  0.41844700  1
  O  O82  1  0.91970600  0.33740300  0.58753000  1
  O  O83  1  0.00383400  0.21042500  0.00388500  1
  O  O84  1  0.99540000  0.23304700  0.82184500  1
  O  O85  1  0.89656600  0.47715100  0.08451900  1
  O  O86  1  0.81338500  0.66208100  0.92807200  1
  O  O87  1  0.92185000  0.61886100  0.58370800  1
  O  O88  1  0.74273600  0.91651600  0.59189900  1
  O  O89  1  0.77309800  0.00439300  0.81390000  1
  O  O90  1  0.78957500  0.99616600  0.99611500  1
  O  O91  1  0.92075400  0.74706700  0.09232100  1
  O  O92  1  0.99527700  0.76528400  0.31220100  1
  O  O93  1  0.98500800  0.80200100  0.49049300  1
