# generated using pymatgen
data_Li9Mn2Co5O16
_symmetry_space_group_name_H-M   'P 1'
_cell_length_a   3.01849900
_cell_length_b   6.42990832
_cell_length_c   15.48822452
_cell_angle_alpha   88.87423617
_cell_angle_beta   86.95356464
_cell_angle_gamma   76.66669328
_symmetry_Int_Tables_number   1
_chemical_formula_structural   Li9Mn2Co5O16
_chemical_formula_sum   'Li9 Mn2 Co5 O16'
_cell_volume   292.08121155
_cell_formula_units_Z   1
loop_
 _symmetry_equiv_pos_site_id
 _symmetry_equiv_pos_as_xyz
  1  'x, y, z'
loop_
 _atom_site_type_symbol
 _atom_site_label
 _atom_site_symmetry_multiplicity
 _atom_site_fract_x
 _atom_site_fract_y
 _atom_site_fract_z
 _atom_site_occupancy
  Li  Li0  1  0.68782700  0.12692700  0.56227400  1
  Li  Li1  1  0.93859300  0.62162900  0.31162500  1
  Li  Li2  1  0.18171900  0.12834300  0.05993700  1
  Li  Li3  1  0.31217300  0.87307300  0.43772600  1
  Li  Li4  1  0.55185300  0.38464300  0.18697300  1
  Li  Li5  1  0.81828100  0.87165700  0.94006300  1
  Li  Li6  1  0.44814700  0.61535700  0.81302700  1
  Li  Li7  1  0.06140700  0.37837100  0.68837500  1
  Li  Li8  1  0.50000000  0.50000000  0.00000000  1
  Mn  Mn9  1  0.74527800  0.00147700  0.75158100  1
  Mn  Mn10  1  0.25472200  0.99852300  0.24841900  1
  Co  Co11  1  0.00000000  0.50000000  0.50000000  1
  Co  Co12  1  0.62504900  0.25000200  0.37640500  1
  Co  Co13  1  0.87245200  0.73993500  0.11864500  1
  Co  Co14  1  0.12754800  0.26006500  0.88135500  1
  Co  Co15  1  0.37495100  0.74999800  0.62359500  1
  O  O16  1  0.18839300  0.04821600  0.65747400  1
  O  O17  1  0.44432600  0.54643000  0.41031800  1
  O  O18  1  0.70564400  0.03850900  0.15579900  1
  O  O19  1  0.86664600  0.79397000  0.53375400  1
  O  O20  1  0.11949400  0.29713900  0.28465200  1
  O  O21  1  0.31833700  0.80653800  0.03914100  1
  O  O22  1  0.97972200  0.53368200  0.90129500  1
  O  O23  1  0.57576500  0.29814100  0.78535100  1
  O  O24  1  0.13335400  0.20603000  0.46624600  1
  O  O25  1  0.42423500  0.70185900  0.21464900  1
  O  O26  1  0.68166300  0.19346200  0.96085900  1
  O  O27  1  0.81160700  0.95178400  0.34252600  1
  O  O28  1  0.02027800  0.46631800  0.09870500  1
  O  O29  1  0.29435600  0.96149100  0.84420100  1
  O  O30  1  0.88050600  0.70286100  0.71534800  1
  O  O31  1  0.55567400  0.45357000  0.58968200  1
