# generated using pymatgen
data_Li2Ti4Co(PO5)4
_symmetry_space_group_name_H-M   'P 1'
_cell_length_a   6.44419300
_cell_length_b   7.33110893
_cell_length_c   7.48555690
_cell_angle_alpha   89.74916706
_cell_angle_beta   89.56536103
_cell_angle_gamma   89.48344769
_symmetry_Int_Tables_number   1
_chemical_formula_structural   Li2Ti4Co(PO5)4
_chemical_formula_sum   'Li2 Ti4 Co1 P4 O20'
_cell_volume   353.61293916
_cell_formula_units_Z   1
loop_
 _symmetry_equiv_pos_site_id
 _symmetry_equiv_pos_as_xyz
  1  'x, y, z'
loop_
 _atom_site_type_symbol
 _atom_site_label
 _atom_site_symmetry_multiplicity
 _atom_site_fract_x
 _atom_site_fract_y
 _atom_site_fract_z
 _atom_site_occupancy
  Li  Li0  1  0.00000000  0.50000000  0.50000000  1
  Li  Li1  1  0.00000000  0.00000000  0.00000000  1
  Ti  Ti2  1  0.73858900  0.72744300  0.16075900  1
  Ti  Ti3  1  0.24500900  0.21594100  0.32978400  1
  Ti  Ti4  1  0.26141100  0.27255700  0.83924100  1
  Ti  Ti5  1  0.75499100  0.78405900  0.67021600  1
  Co  Co6  1  0.50000000  0.50000000  0.50000000  1
  P  P7  1  0.24774400  0.62398900  0.12621800  1
  P  P8  1  0.75271100  0.12598100  0.37609900  1
  P  P9  1  0.75225600  0.37601100  0.87378200  1
  P  P10  1  0.24728900  0.87401900  0.62390100  1
  O  O11  1  0.44288800  0.74700300  0.63053900  1
  O  O12  1  0.55752600  0.25725000  0.86919200  1
  O  O13  1  0.55711200  0.25299700  0.36946100  1
  O  O14  1  0.44247400  0.74275000  0.13080800  1
  O  O15  1  0.25213400  0.98415600  0.44735200  1
  O  O16  1  0.75218400  0.49216600  0.04423100  1
  O  O17  1  0.74786600  0.01584400  0.55264800  1
  O  O18  1  0.24781600  0.50783400  0.95576900  1
  O  O19  1  0.73300300  0.64476400  0.38648800  1
  O  O20  1  0.23316700  0.16045000  0.10850400  1
  O  O21  1  0.26699700  0.35523600  0.61351200  1
  O  O22  1  0.76683300  0.83955000  0.89149600  1
  O  O23  1  0.94284300  0.25322800  0.37760300  1
  O  O24  1  0.05448500  0.74735000  0.13522000  1
  O  O25  1  0.05715700  0.74677200  0.62239700  1
  O  O26  1  0.94551500  0.25265000  0.86478000  1
  O  O27  1  0.74883000  0.50399600  0.70342500  1
  O  O28  1  0.23922200  0.00153500  0.78667000  1
  O  O29  1  0.25117000  0.49600400  0.29657500  1
  O  O30  1  0.76077800  0.99846500  0.21333000  1
