# generated using pymatgen
data_Li2V5O10
_symmetry_space_group_name_H-M   'P 1'
_cell_length_a   5.18949098
_cell_length_b   9.94520440
_cell_length_c   8.38339376
_cell_angle_alpha   68.25582395
_cell_angle_beta   94.04387102
_cell_angle_gamma   77.33397718
_symmetry_Int_Tables_number   1
_chemical_formula_structural   Li2V5O10
_chemical_formula_sum   'Li4 V10 O20'
_cell_volume   386.56943374
_cell_formula_units_Z   2
loop_
 _symmetry_equiv_pos_site_id
 _symmetry_equiv_pos_as_xyz
  1  'x, y, z'
loop_
 _atom_site_type_symbol
 _atom_site_label
 _atom_site_symmetry_multiplicity
 _atom_site_fract_x
 _atom_site_fract_y
 _atom_site_fract_z
 _atom_site_occupancy
  Li  Li0  1  0.73095000  0.46653800  0.92813500  1
  Li  Li1  1  0.24602900  0.97493900  0.42444400  1
  Li  Li2  1  0.76903400  0.03343000  0.57195100  1
  Li  Li3  1  0.25378700  0.52506700  0.07554300  1
  V  V4  1  0.24994700  0.74994500  0.25017000  1
  V  V5  1  0.75003200  0.24997700  0.75001300  1
  V  V6  1  0.77823800  0.34851800  0.33752400  1
  V  V7  1  0.28925200  0.84979000  0.83381900  1
  V  V8  1  0.72160700  0.15107700  0.16257800  1
  V  V9  1  0.21107100  0.65048800  0.66605500  1
  V  V10  1  0.26443900  0.42976800  0.46782700  1
  V  V11  1  0.76829000  0.92250000  0.96728500  1
  V  V12  1  0.23535300  0.07034900  0.03207800  1
  V  V13  1  0.73198300  0.57737100  0.53279500  1
  O  O14  1  0.01265400  0.03678400  0.82522900  1
  O  O15  1  0.51879000  0.54772900  0.32708000  1
  O  O16  1  0.48735500  0.46328500  0.67468000  1
  O  O17  1  0.98119400  0.95228700  0.17292400  1
  O  O18  1  0.92381600  0.14272900  0.36114100  1
  O  O19  1  0.41308500  0.64230400  0.86531800  1
  O  O20  1  0.57621900  0.35708800  0.13889000  1
  O  O21  1  0.08690600  0.85784200  0.63466400  1
  O  O22  1  0.94959200  0.37354400  0.57972600  1
  O  O23  1  0.46158900  0.85621600  0.07087900  1
  O  O24  1  0.55040900  0.12646000  0.92028600  1
  O  O25  1  0.03840300  0.64386200  0.42908600  1
  O  O26  1  0.93184500  0.24514600  0.97302100  1
  O  O27  1  0.45635500  0.74533300  0.47607900  1
  O  O28  1  0.56801900  0.25488800  0.52695000  1
  O  O29  1  0.04368800  0.75471000  0.02394000  1
  O  O30  1  0.04940600  0.42692700  0.26432000  1
  O  O31  1  0.56367500  0.92383700  0.75981600  1
  O  O32  1  0.45035000  0.07301600  0.23572900  1
  O  O33  1  0.93663900  0.57625700  0.74002600  1
