# generated using pymatgen
data_Li4MnCo2O7
_symmetry_space_group_name_H-M   'P 1'
_cell_length_a   3.02797300
_cell_length_b   7.82366587
_cell_length_c   11.17700147
_cell_angle_alpha   79.58447330
_cell_angle_beta   83.02131343
_cell_angle_gamma   82.19341603
_symmetry_Int_Tables_number   1
_chemical_formula_structural   Li4MnCo2O7
_chemical_formula_sum   'Li8 Mn2 Co4 O14'
_cell_volume   256.72496347
_cell_formula_units_Z   2
loop_
 _symmetry_equiv_pos_site_id
 _symmetry_equiv_pos_as_xyz
  1  'x, y, z'
loop_
 _atom_site_type_symbol
 _atom_site_label
 _atom_site_symmetry_multiplicity
 _atom_site_fract_x
 _atom_site_fract_y
 _atom_site_fract_z
 _atom_site_occupancy
  Li  Li0  1  0.63694700  0.93265200  0.78990500  1
  Li  Li1  1  0.79020200  0.35806200  0.06669700  1
  Li  Li2  1  0.92678700  0.78586300  0.35581500  1
  Li  Li3  1  0.07321300  0.21413700  0.64418500  1
  Li  Li4  1  0.20979800  0.64193800  0.93330300  1
  Li  Li5  1  0.36305300  0.06734800  0.21009500  1
  Li  Li6  1  0.50000000  0.50000000  0.50000000  1
  Li  Li7  1  0.00000000  0.00000000  0.00000000  1
  Mn  Mn8  1  0.85112400  0.56867600  0.71673400  1
  Mn  Mn9  1  0.14887600  0.43132400  0.28326600  1
  Co  Co10  1  0.27891700  0.85778300  0.57179600  1
  Co  Co11  1  0.44058300  0.27177700  0.86286800  1
  Co  Co12  1  0.55941700  0.72822300  0.13713200  1
  Co  Co13  1  0.72108300  0.14221700  0.42820400  1
  O  O14  1  0.21399300  0.75004800  0.74356500  1
  O  O15  1  0.39121000  0.19250900  0.01888300  1
  O  O16  1  0.51474200  0.61105300  0.30643100  1
  O  O17  1  0.69146700  0.03201000  0.59760200  1
  O  O18  1  0.80565000  0.45581900  0.88507400  1
  O  O19  1  0.93981600  0.87922500  0.17518500  1
  O  O20  1  0.12859500  0.31954300  0.45479100  1
  O  O21  1  0.06018400  0.12077500  0.82481500  1
  O  O22  1  0.19435000  0.54418100  0.11492600  1
  O  O23  1  0.30853300  0.96799000  0.40239800  1
  O  O24  1  0.48525800  0.38894700  0.69356900  1
  O  O25  1  0.60879000  0.80749100  0.98111700  1
  O  O26  1  0.78600700  0.24995200  0.25643500  1
  O  O27  1  0.87140500  0.68045700  0.54520900  1
