# generated using pymatgen
data_Li7Mn2(CoO4)3
_symmetry_space_group_name_H-M   'P 1'
_cell_length_a   5.80282105
_cell_length_b   9.78108555
_cell_length_c   8.81792667
_cell_angle_alpha   114.46645101
_cell_angle_beta   108.65599691
_cell_angle_gamma   88.37532514
_symmetry_Int_Tables_number   1
_chemical_formula_structural   Li7Mn2(CoO4)3
_chemical_formula_sum   'Li14 Mn4 Co6 O24'
_cell_volume   428.45101123
_cell_formula_units_Z   2
loop_
 _symmetry_equiv_pos_site_id
 _symmetry_equiv_pos_as_xyz
  1  'x, y, z'
loop_
 _atom_site_type_symbol
 _atom_site_label
 _atom_site_symmetry_multiplicity
 _atom_site_fract_x
 _atom_site_fract_y
 _atom_site_fract_z
 _atom_site_occupancy
  Li  Li0  1  0.91797500  0.66686100  0.83555400  1
  Li  Li1  1  0.41533900  0.66649600  0.83112800  1
  Li  Li2  1  0.66661100  0.16667900  0.83333100  1
  Li  Li3  1  0.16661800  0.16668300  0.83333300  1
  Li  Li4  1  0.41707500  0.16667000  0.33337600  1
  Li  Li5  1  0.91623600  0.16670000  0.33334100  1
  Li  Li6  1  0.59462100  0.33332900  0.19329100  1
  Li  Li7  1  0.09518900  0.33046000  0.19177700  1
  Li  Li8  1  0.23815300  0.00285900  0.47491100  1
  Li  Li9  1  0.73871400  0.99997100  0.47337100  1
  Li  Li10  1  0.84619400  0.84140700  0.17035300  1
  Li  Li11  1  0.34525100  0.84069000  0.17054500  1
  Li  Li12  1  0.98810600  0.49266900  0.49616000  1
  Li  Li13  1  0.48717400  0.49195600  0.49635100  1
  Mn  Mn14  1  0.01226300  0.00317600  0.01303800  1
  Mn  Mn15  1  0.51221900  0.00338100  0.01288600  1
  Mn  Mn16  1  0.82111700  0.32993900  0.65377100  1
  Mn  Mn17  1  0.32107200  0.33013500  0.65359800  1
  Co  Co18  1  0.16669000  0.66665600  0.33333500  1
  Co  Co19  1  0.74325600  0.49623500  0.00104100  1
  Co  Co20  1  0.24246300  0.49543800  0.00052200  1
  Co  Co21  1  0.09088600  0.83789700  0.66612400  1
  Co  Co22  1  0.59008600  0.83709900  0.66562300  1
  Co  Co23  1  0.66668400  0.66666500  0.33334100  1
  O  O24  1  0.78634000  0.14881900  0.07475200  1
  O  O25  1  0.28607100  0.14865700  0.07466300  1
  O  O26  1  0.54696700  0.18449200  0.59187500  1
  O  O27  1  0.04724400  0.18466000  0.59196800  1
  O  O28  1  0.54452500  0.65098700  0.08636900  1
  O  O29  1  0.04042500  0.65114300  0.07665700  1
  O  O30  1  0.29291000  0.68217700  0.59001000  1
  O  O31  1  0.78882600  0.68234800  0.58031400  1
  O  O32  1  0.21515300  0.33642000  0.43809300  1
  O  O33  1  0.71556800  0.33664800  0.43860100  1
  O  O34  1  0.11817900  0.99694400  0.22855900  1
  O  O35  1  0.61777400  0.99673000  0.22808700  1
  O  O36  1  0.96914400  0.82469300  0.41438800  1
  O  O37  1  0.46974400  0.82234200  0.41411600  1
  O  O38  1  0.86361900  0.51099700  0.25257100  1
  O  O39  1  0.36421000  0.50863600  0.25228400  1
  O  O40  1  0.60896300  0.48261600  0.74424100  1
  O  O41  1  0.10919600  0.48265600  0.74417300  1
  O  O42  1  0.72437200  0.85070000  0.92241800  1
  O  O43  1  0.22414800  0.85065600  0.92248200  1
  O  O44  1  0.89584500  0.99216700  0.76245200  1
  O  O45  1  0.39540900  0.99272000  0.76239000  1
  O  O46  1  0.93790300  0.34059700  0.90425100  1
  O  O47  1  0.43747200  0.34114600  0.90418300  1
