# generated using pymatgen
data_LiMnV(P2O7)2
_symmetry_space_group_name_H-M   'P 1'
_cell_length_a   8.18705100
_cell_length_b   9.73771384
_cell_length_c   14.00122671
_cell_angle_alpha   108.18940117
_cell_angle_beta   89.97486572
_cell_angle_gamma   92.00620948
_symmetry_Int_Tables_number   1
_chemical_formula_structural   LiMnV(P2O7)2
_chemical_formula_sum   'Li4 Mn4 V4 P16 O56'
_cell_volume   1059.72952091
_cell_formula_units_Z   4
loop_
 _symmetry_equiv_pos_site_id
 _symmetry_equiv_pos_as_xyz
  1  'x, y, z'
loop_
 _atom_site_type_symbol
 _atom_site_label
 _atom_site_symmetry_multiplicity
 _atom_site_fract_x
 _atom_site_fract_y
 _atom_site_fract_z
 _atom_site_occupancy
  Li  Li0  1  0.35736900  0.29096200  0.03907800  1
  Li  Li1  1  0.86285000  0.96066700  0.70916300  1
  Li  Li2  1  0.86277000  0.21150000  0.45950300  1
  Li  Li3  1  0.86386400  0.71110700  0.96077400  1
  Mn  Mn4  1  0.99265800  0.26149100  0.01814400  1
  Mn  Mn5  1  0.00610800  0.75321000  0.51167600  1
  Mn  Mn6  1  0.00788600  0.00413000  0.26297300  1
  Mn  Mn7  1  0.00703400  0.50356100  0.76243200  1
  V  V8  1  0.50524600  0.49141900  0.23615100  1
  V  V9  1  0.49522600  0.98761200  0.72946600  1
  V  V10  1  0.49361100  0.23833600  0.48078000  1
  V  V11  1  0.49549300  0.73777500  0.98169800  1
  P  P12  1  0.28875000  0.73720800  0.17535000  1
  P  P13  1  0.68183600  0.46253700  0.02036800  1
  P  P14  1  0.78209500  0.76383400  0.32748700  1
  P  P15  1  0.67977600  0.96288800  0.52145500  1
  P  P16  1  0.17551500  0.28890100  0.22970700  1
  P  P17  1  0.78018000  0.01377800  0.07861400  1
  P  P18  1  0.28661800  0.48869300  0.42401000  1
  P  P19  1  0.67809000  0.21309700  0.27232600  1
  P  P20  1  0.17618300  0.78968600  0.73127300  1
  P  P21  1  0.78101200  0.51431600  0.57803700  1
  P  P22  1  0.28940400  0.98614700  0.92303200  1
  P  P23  1  0.67912100  0.71268200  0.77194500  1
  P  P24  1  0.17664900  0.03951200  0.48153100  1
  P  P25  1  0.28776200  0.23893200  0.67451100  1
  P  P26  1  0.17774700  0.54080500  0.98214500  1
  P  P27  1  0.78128400  0.26405000  0.82819600  1
  O  O28  1  0.68567500  0.88070700  0.00895700  1
  O  O29  1  0.93202100  0.96532700  0.12131600  1
  O  O30  1  0.43854300  0.77878800  0.12075600  1
  O  O31  1  0.15116000  0.66080100  0.08905600  1
  O  O32  1  0.20347500  0.85944800  0.24731400  1
  O  O33  1  0.82823000  0.87229700  0.27178200  1
  O  O34  1  0.84808900  0.44582100  0.05912200  1
  O  O35  1  0.53785500  0.43506000  0.08344800  1
  O  O36  1  0.34222300  0.61996800  0.22081000  1
  O  O37  1  0.68014900  0.63800900  0.25755300  1
  O  O38  1  0.65407300  0.83802100  0.41568000  1
  O  O39  1  0.82118800  0.11924200  0.02037200  1
  O  O40  1  0.93181800  0.71744800  0.37292000  1
  O  O41  1  0.17179500  0.89180500  0.49695800  1
  O  O42  1  0.03875500  0.30801400  0.16167600  1
  O  O43  1  0.34452000  0.32332400  0.19071000  1
  O  O44  1  0.84402000  0.94494000  0.56554900  1
  O  O45  1  0.53629000  0.94169400  0.58682500  1
  O  O46  1  0.66166200  0.35681600  0.24861900  1
  O  O47  1  0.43956100  0.53287000  0.37418000  1
  O  O48  1  0.15281300  0.41094300  0.33663900  1
  O  O49  1  0.65246900  0.08727600  0.16559300  1
  O  O50  1  0.19936100  0.60878500  0.49704700  1
  O  O51  1  0.17386300  0.14233000  0.24794200  1
  O  O52  1  0.82556400  0.62286600  0.52282200  1
  O  O53  1  0.03897900  0.81712600  0.66592200  1
  O  O54  1  0.84360500  0.19535200  0.31457700  1
  O  O55  1  0.34700200  0.82207300  0.69598200  1
  O  O56  1  0.53577800  0.18976400  0.33730900  1
  O  O57  1  0.67094600  0.85750000  0.74794100  1
  O  O58  1  0.33677600  0.37203000  0.47174600  1
  O  O59  1  0.68676500  0.38165300  0.50819200  1
  O  O60  1  0.14980900  0.91244100  0.83923800  1
  O  O61  1  0.65306200  0.58662500  0.66578600  1
  O  O62  1  0.93179800  0.46507000  0.62186700  1
  O  O63  1  0.17160800  0.64239200  0.74736900  1
  O  O64  1  0.03896200  0.06744500  0.41627700  1
  O  O65  1  0.34711100  0.07180500  0.44565200  1
  O  O66  1  0.84416000  0.69447900  0.81514300  1
  O  O67  1  0.53649600  0.69260700  0.83764700  1
  O  O68  1  0.67123300  0.10825300  0.49840000  1
  O  O69  1  0.43895300  0.27942100  0.62171600  1
  O  O70  1  0.33437600  0.87068500  0.97154900  1
  O  O71  1  0.15052600  0.16101000  0.58921000  1
  O  O72  1  0.20191200  0.35999900  0.74756000  1
  O  O73  1  0.82803700  0.37124600  0.77212600  1
  O  O74  1  0.03951400  0.56490400  0.91619500  1
  O  O75  1  0.34805300  0.57108500  0.94527900  1
  O  O76  1  0.67001100  0.60812000  0.99793100  1
  O  O77  1  0.33828200  0.12243800  0.72240400  1
  O  O78  1  0.68959900  0.13032400  0.75766500  1
  O  O79  1  0.64940500  0.33642500  0.91299500  1
  O  O80  1  0.93064500  0.21775000  0.87546900  1
  O  O81  1  0.17597100  0.39171400  0.99782700  1
  O  O82  1  0.44083800  0.02916500  0.87120900  1
  O  O83  1  0.21299900  0.11560300  0.99564800  1
