# generated using pymatgen
data_Li4V2Si(PO6)2
_symmetry_space_group_name_H-M   'P 1'
_cell_length_a   8.91937589
_cell_length_b   8.91887700
_cell_length_c   8.62414139
_cell_angle_alpha   58.05015525
_cell_angle_beta   121.95189884
_cell_angle_gamma   119.33194671
_symmetry_Int_Tables_number   1
_chemical_formula_structural   Li4V2Si(PO6)2
_chemical_formula_sum   'Li8 V4 Si2 P4 O24'
_cell_volume   472.48903764
_cell_formula_units_Z   2
loop_
 _symmetry_equiv_pos_site_id
 _symmetry_equiv_pos_as_xyz
  1  'x, y, z'
loop_
 _atom_site_type_symbol
 _atom_site_label
 _atom_site_symmetry_multiplicity
 _atom_site_fract_x
 _atom_site_fract_y
 _atom_site_fract_z
 _atom_site_occupancy
  Li  Li0  1  0.23197956  0.80938925  0.81001646  1
  Li  Li1  1  0.19071457  0.76804819  0.31015735  1
  Li  Li2  1  0.94294308  0.52698850  0.99457834  1
  Li  Li3  1  0.57857798  0.76551867  0.58552530  1
  Li  Li4  1  0.23495517  0.42192976  0.08549589  1
  Li  Li5  1  0.83945536  0.23092208  0.74313003  1
  Li  Li6  1  0.47302709  0.05717504  0.49438771  1
  Li  Li7  1  0.76892412  0.16052867  0.24313158  1
  V  V8  1  0.63886251  0.85036747  0.92619316  1
  V  V9  1  0.14983913  0.36107146  0.42606394  1
  V  V10  1  0.86703530  0.63005180  0.58556645  1
  V  V11  1  0.36954418  0.13297149  0.08522398  1
  Si  Si12  1  0.26565968  0.54869632  0.74113951  1
  Si  Si13  1  0.45141674  0.73440922  0.24125174  1
  P  P14  1  0.96724702  0.95715121  0.75098134  1
  P  P15  1  0.56655222  0.25144003  0.77698940  1
  P  P16  1  0.04272630  0.03272111  0.25099304  1
  P  P17  1  0.74850333  0.43341952  0.27694720  1
  O  O18  1  0.12888590  0.99550127  0.93207258  1
  O  O19  1  0.00451046  0.87114901  0.43219175  1
  O  O20  1  0.11394643  0.57489513  0.77454363  1
  O  O21  1  0.43572809  0.74530043  0.72082124  1
  O  O22  1  0.31304625  0.36819412  0.93809156  1
  O  O23  1  0.19252157  0.52983801  0.53250234  1
  O  O24  1  0.77796577  0.93479655  0.74096735  1
  O  O25  1  0.42514983  0.88609408  0.27457210  1
  O  O26  1  0.25477765  0.56435986  0.22075735  1
  O  O27  1  0.63190881  0.68689832  0.43813883  1
  O  O28  1  0.47016648  0.80749340  0.03256240  1
  O  O29  1  0.96181770  0.76924471  0.77258180  1
  O  O30  1  0.06542536  0.22226470  0.24082617  1
  O  O31  1  0.55927897  0.17742362  0.98113559  1
  O  O32  1  0.40028611  0.31643030  0.61295827  1
  O  O33  1  0.75897887  0.40374186  0.78825732  1
  O  O34  1  0.57752428  0.10595090  0.73407069  1
  O  O35  1  0.23034845  0.03787618  0.27227587  1
  O  O36  1  0.82237561  0.44043859  0.48126458  1
  O  O37  1  0.68366495  0.59979125  0.11297645  1
  O  O38  1  0.59611286  0.24102790  0.28809100  1
  O  O39  1  0.89401872  0.42226575  0.23417568  1
  O  O40  1  0.98876300  0.11473985  0.55819641  1
  O  O41  1  0.88483556  0.01148341  0.05818958  1
