# generated using pymatgen
data_Li9Mn2Co5O16
_symmetry_space_group_name_H-M   'P 1'
_cell_length_a   5.88402500
_cell_length_b   6.46750262
_cell_length_c   8.08978180
_cell_angle_alpha   90.95743224
_cell_angle_beta   89.76764419
_cell_angle_gamma   114.74329890
_symmetry_Int_Tables_number   1
_chemical_formula_structural   Li9Mn2Co5O16
_chemical_formula_sum   'Li9 Mn2 Co5 O16'
_cell_volume   279.55209692
_cell_formula_units_Z   1
loop_
 _symmetry_equiv_pos_site_id
 _symmetry_equiv_pos_as_xyz
  1  'x, y, z'
loop_
 _atom_site_type_symbol
 _atom_site_label
 _atom_site_symmetry_multiplicity
 _atom_site_fract_x
 _atom_site_fract_y
 _atom_site_fract_z
 _atom_site_occupancy
  Li  Li0  1  0.23574300  0.49554300  0.01012800  1
  Li  Li1  1  0.86898600  0.25227300  0.74893300  1
  Li  Li2  1  0.62057100  0.74774200  0.25437000  1
  Li  Li3  1  0.99989800  0.00736900  0.48932200  1
  Li  Li4  1  0.38022000  0.25037100  0.74425000  1
  Li  Li5  1  0.75786200  0.49100900  0.01099600  1
  Li  Li6  1  0.12738100  0.74571500  0.25227500  1
  Li  Li7  1  0.50556300  0.00791100  0.49055900  1
  Li  Li8  1  0.87483200  0.25241500  0.25219000  1
  Mn  Mn9  1  0.00297300  0.00616500  0.00502000  1
  Mn  Mn10  1  0.62946200  0.75128400  0.74919600  1
  Co  Co11  1  0.23711900  0.49086500  0.49390300  1
  Co  Co12  1  0.50987100  0.00785900  0.00483200  1
  Co  Co13  1  0.12630400  0.74852600  0.74732500  1
  Co  Co14  1  0.74581000  0.49287600  0.49663800  1
  Co  Co15  1  0.37166800  0.24984400  0.24979600  1
  O  O16  1  0.88592600  0.23697700  0.99633200  1
  O  O17  1  0.50903400  0.98907700  0.76603000  1
  O  O18  1  0.25862600  0.49282700  0.26300300  1
  O  O19  1  0.63209100  0.73967100  0.51402500  1
  O  O20  1  0.98178600  0.97373500  0.75690900  1
  O  O21  1  0.35304200  0.22668000  0.00528800  1
  O  O22  1  0.71494600  0.47807300  0.26419800  1
  O  O23  1  0.13881900  0.74131000  0.51479900  1
  O  O24  1  0.65103000  0.77407700  0.99320900  1
  O  O25  1  0.28133300  0.53133700  0.74426200  1
  O  O26  1  0.02141700  0.01113500  0.23522300  1
  O  O27  1  0.35599700  0.25568100  0.48674100  1
  O  O28  1  0.74276000  0.51174600  0.74218000  1
  O  O29  1  0.11850000  0.76001600  0.98315400  1
  O  O30  1  0.49052800  0.01064300  0.23027100  1
  O  O31  1  0.86989800  0.26924500  0.50464500  1
