# generated using pymatgen
data_Li2H6PtO6
_symmetry_space_group_name_H-M   'P 1'
_cell_length_a   5.55466748
_cell_length_b   5.55466748
_cell_length_c   4.52438300
_cell_angle_alpha   90.00000000
_cell_angle_beta   90.00000000
_cell_angle_gamma   119.99999384
_symmetry_Int_Tables_number   1
_chemical_formula_structural   Li2H6PtO6
_chemical_formula_sum   'Li2 H6 Pt1 O6'
_cell_volume   120.89439120
_cell_formula_units_Z   1
loop_
 _symmetry_equiv_pos_site_id
 _symmetry_equiv_pos_as_xyz
  1  'x, y, z'
loop_
 _atom_site_type_symbol
 _atom_site_label
 _atom_site_symmetry_multiplicity
 _atom_site_fract_x
 _atom_site_fract_y
 _atom_site_fract_z
 _atom_site_occupancy
  Li  Li0  1  0.66666700  0.33333300  0.00000000  1
  Li  Li1  1  0.33333300  0.66666700  0.00000000  1
  H  H2  1  0.30244200  0.30244200  0.43832100  1
  H  H3  1  0.69755800  0.69755800  0.56167900  1
  H  H4  1  0.69755800  0.00000000  0.43832100  1
  H  H5  1  0.30244200  0.00000000  0.56167900  1
  H  H6  1  0.00000000  0.69755800  0.43832100  1
  H  H7  1  0.00000000  0.30244200  0.56167900  1
  Pt  Pt8  1  0.00000000  0.00000000  0.00000000  1
  O  O9  1  0.31985700  0.31985700  0.22352700  1
  O  O10  1  0.68014300  0.68014300  0.77647300  1
  O  O11  1  0.68014300  0.00000000  0.22352700  1
  O  O12  1  0.31985700  0.00000000  0.77647300  1
  O  O13  1  0.00000000  0.68014300  0.22352700  1
  O  O14  1  0.00000000  0.31985700  0.77647300  1
