# generated using pymatgen
data_LiMnO2
_symmetry_space_group_name_H-M   'P 1'
_cell_length_a   2.87324300
_cell_length_b   5.30166500
_cell_length_c   10.08612800
_cell_angle_alpha   90.00000000
_cell_angle_beta   90.00000000
_cell_angle_gamma   90.00000000
_symmetry_Int_Tables_number   1
_chemical_formula_structural   LiMnO2
_chemical_formula_sum   'Li4 Mn4 O8'
_cell_volume   153.64170390
_cell_formula_units_Z   4
loop_
 _symmetry_equiv_pos_site_id
 _symmetry_equiv_pos_as_xyz
  1  'x, y, z'
loop_
 _atom_site_type_symbol
 _atom_site_label
 _atom_site_symmetry_multiplicity
 _atom_site_fract_x
 _atom_site_fract_y
 _atom_site_fract_z
 _atom_site_occupancy
  Li  Li0  1  0.25000000  0.10249400  0.60566300  1
  Li  Li1  1  0.75000000  0.89750600  0.39433700  1
  Li  Li2  1  0.25000000  0.39750600  0.10566300  1
  Li  Li3  1  0.75000000  0.60249400  0.89433700  1
  Mn  Mn4  1  0.75000000  0.60667500  0.63242900  1
  Mn  Mn5  1  0.25000000  0.39332500  0.36757100  1
  Mn  Mn6  1  0.25000000  0.10667500  0.86757100  1
  Mn  Mn7  1  0.75000000  0.89332500  0.13242900  1
  O  O8  1  0.25000000  0.45373600  0.73774500  1
  O  O9  1  0.75000000  0.54626400  0.26225500  1
  O  O10  1  0.75000000  0.95373600  0.76225500  1
  O  O11  1  0.25000000  0.04626400  0.23774500  1
  O  O12  1  0.25000000  0.74566100  0.52047200  1
  O  O13  1  0.75000000  0.25433900  0.47952800  1
  O  O14  1  0.25000000  0.75433900  0.02047200  1
  O  O15  1  0.75000000  0.24566100  0.97952800  1
