# generated using pymatgen
data_Li2V(CO3)2
_symmetry_space_group_name_H-M   'P 1'
_cell_length_a   6.49630599
_cell_length_b   8.71811282
_cell_length_c   9.93523390
_cell_angle_alpha   75.98630224
_cell_angle_beta   77.64825880
_cell_angle_gamma   97.16035764
_symmetry_Int_Tables_number   1
_chemical_formula_structural   Li2V(CO3)2
_chemical_formula_sum   'Li8 V4 C8 O24'
_cell_volume   523.98017083
_cell_formula_units_Z   4
loop_
 _symmetry_equiv_pos_site_id
 _symmetry_equiv_pos_as_xyz
  1  'x, y, z'
loop_
 _atom_site_type_symbol
 _atom_site_label
 _atom_site_symmetry_multiplicity
 _atom_site_fract_x
 _atom_site_fract_y
 _atom_site_fract_z
 _atom_site_occupancy
  Li  Li0  1  0.16677800  0.82955300  0.38090100  1
  Li  Li1  1  0.66675700  0.82945600  0.88099100  1
  Li  Li2  1  0.62023600  0.66599200  0.42045500  1
  Li  Li3  1  0.12049300  0.66625400  0.92036500  1
  Li  Li4  1  0.21429800  0.33213500  0.73070600  1
  Li  Li5  1  0.71424200  0.33208100  0.23075300  1
  Li  Li6  1  0.92277200  0.16929400  0.51941200  1
  Li  Li7  1  0.42282800  0.16930100  0.01945100  1
  V  V8  1  0.31414800  0.49981800  0.18017900  1
  V  V9  1  0.43944400  0.99975400  0.55475000  1
  V  V10  1  0.81397600  0.49992100  0.68025700  1
  V  V11  1  0.93942000  0.99980100  0.05493800  1
  C  C12  1  0.77733500  0.80204700  0.61477100  1
  C  C13  1  0.27737900  0.80191700  0.11494000  1
  C  C14  1  0.24740900  0.69831900  0.64523700  1
  C  C15  1  0.74742000  0.69821400  0.14530400  1
  C  C16  1  0.05079100  0.30157700  0.04461700  1
  C  C17  1  0.55065000  0.30144800  0.54461300  1
  C  C18  1  0.27788800  0.19783300  0.31821900  1
  C  C19  1  0.77794600  0.19788700  0.81818500  1
  O  O20  1  0.22681100  0.80282600  0.71833800  1
  O  O21  1  0.72664500  0.80254300  0.21855500  1
  O  O22  1  0.20358800  0.70122300  0.24162800  1
  O  O23  1  0.70345600  0.70141400  0.74153100  1
  O  O24  1  0.74715600  0.94869500  0.59102600  1
  O  O25  1  0.24713000  0.94860300  0.09137300  1
  O  O26  1  0.37428600  0.75054600  0.51550600  1
  O  O27  1  0.87425200  0.75035800  0.01552000  1
  O  O28  1  0.87807400  0.74479900  0.51425400  1
  O  O29  1  0.37817600  0.74486400  0.01429600  1
  O  O30  1  0.14342000  0.55202600  0.69966600  1
  O  O31  1  0.64345800  0.55191800  0.19979600  1
  O  O32  1  0.17584300  0.29977000  0.36734300  1
  O  O33  1  0.67575200  0.29976700  0.86729800  1
  O  O34  1  0.89904700  0.19838700  0.14366200  1
  O  O35  1  0.39890400  0.19807500  0.64349400  1
  O  O36  1  0.59537400  0.44791700  0.55050300  1
  O  O37  1  0.09555400  0.44802700  0.05043900  1
  O  O38  1  0.65478600  0.24784000  0.44274200  1
  O  O39  1  0.15501800  0.24799900  0.94271200  1
  O  O40  1  0.25333800  0.05130700  0.39523800  1
  O  O41  1  0.75356400  0.05131900  0.89511400  1
  O  O42  1  0.90758400  0.25355000  0.68939200  1
  O  O43  1  0.40770100  0.25345800  0.18947500  1
