# generated using pymatgen
data_Na2LiFePCO7
_symmetry_space_group_name_H-M   'P 1'
_cell_length_a   6.74927700
_cell_length_b   8.79545383
_cell_length_c   10.28040231
_cell_angle_alpha   92.48256235
_cell_angle_beta   90.14169576
_cell_angle_gamma   90.71132870
_symmetry_Int_Tables_number   1
_chemical_formula_structural   Na2LiFePCO7
_chemical_formula_sum   'Na8 Li4 Fe4 P4 C4 O28'
_cell_volume   609.65252258
_cell_formula_units_Z   4
loop_
 _symmetry_equiv_pos_site_id
 _symmetry_equiv_pos_as_xyz
  1  'x, y, z'
loop_
 _atom_site_type_symbol
 _atom_site_label
 _atom_site_symmetry_multiplicity
 _atom_site_fract_x
 _atom_site_fract_y
 _atom_site_fract_z
 _atom_site_occupancy
  Na  Na0  1  0.25267900  0.08551700  0.61932300  1
  Na  Na1  1  0.00110600  0.25879600  0.36744400  1
  Na  Na2  1  0.00292500  0.26474400  0.87919600  1
  Na  Na3  1  0.49757100  0.26435400  0.87400800  1
  Na  Na4  1  0.50365500  0.74167100  0.12569700  1
  Na  Na5  1  0.99782000  0.74020700  0.12644500  1
  Na  Na6  1  0.50539500  0.73744900  0.62562400  1
  Na  Na7  1  0.99341100  0.73733800  0.62822200  1
  Li  Li8  1  0.26289100  0.09194100  0.12305700  1
  Li  Li9  1  0.47034200  0.28341200  0.37752700  1
  Li  Li10  1  0.73814300  0.90306400  0.37818100  1
  Li  Li11  1  0.74937200  0.90061000  0.87931600  1
  Fe  Fe12  1  0.74518000  0.35220600  0.11406400  1
  Fe  Fe13  1  0.74513600  0.34832300  0.60257500  1
  Fe  Fe14  1  0.24979300  0.65205700  0.38504200  1
  Fe  Fe15  1  0.25343700  0.65185200  0.89090800  1
  P  P16  1  0.25452500  0.40289700  0.14578900  1
  P  P17  1  0.24733700  0.41502800  0.63789200  1
  P  P18  1  0.74549300  0.59085700  0.35234200  1
  P  P19  1  0.75155700  0.59028800  0.85749200  1
  C  C20  1  0.74788600  0.04858300  0.14141000  1
  C  C21  1  0.74972000  0.05016300  0.64294400  1
  C  C22  1  0.26074800  0.94862800  0.35578500  1
  C  C23  1  0.25075500  0.95010900  0.86754800  1
  O  O24  1  0.27632800  0.09343100  0.33883100  1
  O  O25  1  0.24511200  0.09317200  0.84682000  1
  O  O26  1  0.74882600  0.07394500  0.01776100  1
  O  O27  1  0.75287100  0.07786000  0.51967900  1
  O  O28  1  0.74100800  0.16303600  0.22673300  1
  O  O29  1  0.74326700  0.16390000  0.72917300  1
  O  O30  1  0.06600100  0.30379900  0.11633600  1
  O  O31  1  0.43004500  0.30179000  0.09925600  1
  O  O32  1  0.05931800  0.31821500  0.59893500  1
  O  O33  1  0.42890300  0.31894800  0.58917200  1
  O  O34  1  0.27426700  0.43430000  0.29708400  1
  O  O35  1  0.72904600  0.43182800  0.41181100  1
  O  O36  1  0.25552100  0.43780900  0.78922400  1
  O  O37  1  0.75208300  0.43791300  0.92709000  1
  O  O38  1  0.24982800  0.55727800  0.07956000  1
  O  O39  1  0.74895500  0.56710900  0.20123900  1
  O  O40  1  0.24682800  0.57181900  0.57669000  1
  O  O41  1  0.74916500  0.55888000  0.70746400  1
  O  O42  1  0.56871800  0.69566100  0.39170000  1
  O  O43  1  0.93356500  0.68270500  0.39759500  1
  O  O44  1  0.56951900  0.69066300  0.89657900  1
  O  O45  1  0.93646400  0.69148500  0.89547000  1
  O  O46  1  0.24940600  0.85347900  0.25553100  1
  O  O47  1  0.25290500  0.85100500  0.76872200  1
  O  O48  1  0.25495700  0.89257100  0.47091000  1
  O  O49  1  0.25472200  0.90154700  0.98534200  1
  O  O50  1  0.75323000  0.91263600  0.18400200  1
  O  O51  1  0.75226300  0.91312300  0.68345900  1
