# generated using pymatgen
data_Li2MnO3
_symmetry_space_group_name_H-M   'P 1'
_cell_length_a   3.02281000
_cell_length_b   3.02281000
_cell_length_c   15.20006504
_cell_angle_alpha   87.39376817
_cell_angle_beta   87.39376817
_cell_angle_gamma   56.34846700
_symmetry_Int_Tables_number   1
_chemical_formula_structural   Li2MnO3
_chemical_formula_sum   'Li4 Mn2 O6'
_cell_volume   115.46031591
_cell_formula_units_Z   2
loop_
 _symmetry_equiv_pos_site_id
 _symmetry_equiv_pos_as_xyz
  1  'x, y, z'
loop_
 _atom_site_type_symbol
 _atom_site_label
 _atom_site_symmetry_multiplicity
 _atom_site_fract_x
 _atom_site_fract_y
 _atom_site_fract_z
 _atom_site_occupancy
  Li  Li0  1  0.50000000  0.50000000  0.50000000  1
  Li  Li1  1  0.14972200  0.14972200  0.15608000  1
  Li  Li2  1  0.85027800  0.85027800  0.84392000  1
  Li  Li3  1  0.50000000  0.50000000  0.00000000  1
  Mn  Mn4  1  0.17089500  0.17089500  0.66556100  1
  Mn  Mn5  1  0.82910500  0.82910500  0.33443900  1
  O  O6  1  0.81706900  0.81706900  0.58891400  1
  O  O7  1  0.48577000  0.48577000  0.26486400  1
  O  O8  1  0.16849700  0.16849700  0.91454100  1
  O  O9  1  0.18293100  0.18293100  0.41108600  1
  O  O10  1  0.83150300  0.83150300  0.08545900  1
  O  O11  1  0.51423000  0.51423000  0.73513600  1
