# generated using pymatgen
data_Li9Fe4(PO5)4
_symmetry_space_group_name_H-M   'P 1'
_cell_length_a   4.91327400
_cell_length_b   5.64028029
_cell_length_c   15.97465330
_cell_angle_alpha   89.64614159
_cell_angle_beta   89.95973247
_cell_angle_gamma   89.74631541
_symmetry_Int_Tables_number   1
_chemical_formula_structural   Li9Fe4(PO5)4
_chemical_formula_sum   'Li9 Fe4 P4 O20'
_cell_volume   442.68058293
_cell_formula_units_Z   1
loop_
 _symmetry_equiv_pos_site_id
 _symmetry_equiv_pos_as_xyz
  1  'x, y, z'
loop_
 _atom_site_type_symbol
 _atom_site_label
 _atom_site_symmetry_multiplicity
 _atom_site_fract_x
 _atom_site_fract_y
 _atom_site_fract_z
 _atom_site_occupancy
  Li  Li0  1  0.99615400  0.64583900  0.59562300  1
  Li  Li1  1  0.00745900  0.15342200  0.90132800  1
  Li  Li2  1  0.00158200  0.17125400  0.50068600  1
  Li  Li3  1  0.50370100  0.32097500  0.79944500  1
  Li  Li4  1  0.50332400  0.33174200  0.41098100  1
  Li  Li5  1  0.49696500  0.83791200  0.09340800  1
  Li  Li6  1  0.50340000  0.34204600  0.98841600  1
  Li  Li7  1  0.49510400  0.83901400  0.51146400  1
  Li  Li8  1  0.00018700  0.68151300  0.19561500  1
  Fe  Fe9  1  0.02231200  0.15029000  0.70185700  1
  Fe  Fe10  1  0.00856800  0.66137600  0.79635100  1
  Fe  Fe11  1  0.50803400  0.33952800  0.20077300  1
  Fe  Fe12  1  0.50505400  0.84033600  0.30082300  1
  P  P13  1  0.01983600  0.17622800  0.09947400  1
  P  P14  1  0.00995700  0.66542100  0.40391000  1
  P  P15  1  0.50590700  0.33255800  0.59429700  1
  P  P16  1  0.49824900  0.82705000  0.90435800  1
  O  O17  1  0.12674100  0.35715900  0.16807800  1
  O  O18  1  0.12467900  0.76116200  0.31717100  1
  O  O19  1  0.10485500  0.34224100  0.80332500  1
  O  O20  1  0.05218400  0.80819600  0.69494400  1
  O  O21  1  0.09738600  0.40854000  0.41521000  1
  O  O22  1  0.12039200  0.92919300  0.12459300  1
  O  O23  1  0.11095700  0.25870400  0.01351100  1
  O  O24  1  0.10046500  0.82889400  0.47538000  1
  O  O25  1  0.18522600  0.32625000  0.59614400  1
  O  O26  1  0.18476200  0.84191000  0.88508500  1
  O  O27  1  0.60955300  0.24141300  0.68059600  1
  O  O28  1  0.62472300  0.67083900  0.83283800  1
  O  O29  1  0.55337900  0.16688200  0.29944300  1
  O  O30  1  0.60113300  0.66550600  0.20423300  1
  O  O31  1  0.60929100  0.58309400  0.57544800  1
  O  O32  1  0.60885900  0.08482100  0.90231900  1
  O  O33  1  0.60021300  0.16750300  0.52052200  1
  O  O34  1  0.54655600  0.69766600  0.98805600  1
  O  O35  1  0.69479400  0.18869100  0.10653600  1
  O  O36  1  0.68716800  0.68311400  0.39423400  1
