# generated using pymatgen
data_Li4MnCo2O7
_symmetry_space_group_name_H-M   'P 1'
_cell_length_a   2.97866600
_cell_length_b   9.74360902
_cell_length_c   9.78384359
_cell_angle_alpha   115.98619020
_cell_angle_beta   92.68999161
_cell_angle_gamma   97.08086922
_symmetry_Int_Tables_number   1
_chemical_formula_structural   Li4MnCo2O7
_chemical_formula_sum   'Li8 Mn2 Co4 O14'
_cell_volume   251.67428463
_cell_formula_units_Z   2
loop_
 _symmetry_equiv_pos_site_id
 _symmetry_equiv_pos_as_xyz
  1  'x, y, z'
loop_
 _atom_site_type_symbol
 _atom_site_label
 _atom_site_symmetry_multiplicity
 _atom_site_fract_x
 _atom_site_fract_y
 _atom_site_fract_z
 _atom_site_occupancy
  Li  Li0  1  0.92947200  0.85695200  0.21353700  1
  Li  Li1  1  0.20092700  0.42603700  0.36530900  1
  Li  Li2  1  0.49260500  0.00598900  0.50613000  1
  Li  Li3  1  0.77652300  0.56072000  0.63937200  1
  Li  Li4  1  0.08055000  0.14593200  0.78735000  1
  Li  Li5  1  0.35713000  0.70878300  0.92688600  1
  Li  Li6  1  0.65764500  0.29243400  0.06766300  1
  Li  Li7  1  0.16175100  0.29499000  0.57024600  1
  Mn  Mn8  1  0.98723100  0.99571400  0.99746500  1
  Mn  Mn9  1  0.56763200  0.14836500  0.29645100  1
  Co  Co10  1  0.28908600  0.57099200  0.14272500  1
  Co  Co11  1  0.86234500  0.71480000  0.42913500  1
  Co  Co12  1  0.43219000  0.85608200  0.71088600  1
  Co  Co13  1  0.71372400  0.42215500  0.84590000  1
  O  O14  1  0.42438900  0.93685900  0.10996100  1
  O  O15  1  0.76606000  0.51218900  0.25184400  1
  O  O16  1  0.04852400  0.08153400  0.38294700  1
  O  O17  1  0.34268500  0.65651400  0.53737400  1
  O  O18  1  0.61696900  0.23388300  0.69936100  1
  O  O19  1  0.86715000  0.79339900  0.81598800  1
  O  O20  1  0.15463900  0.36858500  0.96854100  1
  O  O21  1  0.38665800  0.77503000  0.31768800  1
  O  O22  1  0.67611400  0.34505600  0.45193600  1
  O  O23  1  0.99526500  0.92120200  0.60436400  1
  O  O24  1  0.27526100  0.49483900  0.76009500  1
  O  O25  1  0.55555200  0.05949100  0.88872200  1
  O  O26  1  0.80699200  0.62240100  0.02653400  1
  O  O27  1  0.07493200  0.19907200  0.18559300  1
