# generated using pymatgen
data_Li2Fe3WO8
_symmetry_space_group_name_H-M   'P 1'
_cell_length_a   8.61351143
_cell_length_b   8.56044998
_cell_length_c   8.59619342
_cell_angle_alpha   90.33009497
_cell_angle_beta   89.86914102
_cell_angle_gamma   90.28098015
_symmetry_Int_Tables_number   1
_chemical_formula_structural   Li2Fe3WO8
_chemical_formula_sum   'Li8 Fe12 W4 O32'
_cell_volume   633.82515656
_cell_formula_units_Z   4
loop_
 _symmetry_equiv_pos_site_id
 _symmetry_equiv_pos_as_xyz
  1  'x, y, z'
loop_
 _atom_site_type_symbol
 _atom_site_label
 _atom_site_symmetry_multiplicity
 _atom_site_fract_x
 _atom_site_fract_y
 _atom_site_fract_z
 _atom_site_occupancy
  Li  Li0  1  0.99859300  0.99876300  0.99646100  1
  Li  Li1  1  0.24837600  0.25596300  0.25229600  1
  Li  Li2  1  0.24864900  0.74526700  0.75622100  1
  Li  Li3  1  0.50329600  0.00389700  0.49845800  1
  Li  Li4  1  0.49834400  0.50355100  0.00373400  1
  Li  Li5  1  0.75211600  0.24583800  0.74977800  1
  Li  Li6  1  0.74739900  0.75117400  0.24825300  1
  Li  Li7  1  0.00358200  0.49573800  0.49827400  1
  Fe  Fe8  1  0.12003300  0.13599900  0.62605900  1
  Fe  Fe9  1  0.12674600  0.38089400  0.87329900  1
  Fe  Fe10  1  0.12526200  0.62360700  0.12190500  1
  Fe  Fe11  1  0.36815100  0.37350600  0.61363900  1
  Fe  Fe12  1  0.37576300  0.61373700  0.36672400  1
  Fe  Fe13  1  0.38063900  0.86342000  0.12074300  1
  Fe  Fe14  1  0.62449200  0.37250500  0.37674100  1
  Fe  Fe15  1  0.62458800  0.11835600  0.13266600  1
  Fe  Fe16  1  0.62909600  0.87528300  0.87968000  1
  Fe  Fe17  1  0.85930700  0.13000800  0.38146200  1
  Fe  Fe18  1  0.87373600  0.88258600  0.63297600  1
  Fe  Fe19  1  0.88548800  0.63164000  0.87744500  1
  W  W20  1  0.12383400  0.87538700  0.37231400  1
  W  W21  1  0.37480500  0.13033600  0.87940500  1
  W  W22  1  0.62864700  0.62069600  0.62397900  1
  W  W23  1  0.87433600  0.37588400  0.12397400  1
  O  O24  1  0.12234600  0.10193000  0.38366500  1
  O  O25  1  0.11512300  0.87865000  0.60155100  1
  O  O26  1  0.12313900  0.61339000  0.90117200  1
  O  O27  1  0.14623200  0.12619800  0.86177900  1
  O  O28  1  0.10732300  0.39122300  0.11986600  1
  O  O29  1  0.14016700  0.36494400  0.63302000  1
  O  O30  1  0.13398100  0.64484200  0.36366600  1
  O  O31  1  0.13201200  0.86277400  0.14423700  1
  O  O32  1  0.36222500  0.13243500  0.64429400  1
  O  O33  1  0.38311100  0.35230600  0.86634800  1
  O  O34  1  0.35560800  0.63529700  0.13685800  1
  O  O35  1  0.39472000  0.61645300  0.61282500  1
  O  O36  1  0.35324600  0.86798500  0.36514900  1
  O  O37  1  0.38480500  0.38581800  0.38774800  1
  O  O38  1  0.36698100  0.11414900  0.10195400  1
  O  O39  1  0.38354100  0.89438300  0.88243400  1
  O  O40  1  0.61749400  0.39606200  0.62448900  1
  O  O41  1  0.61089900  0.62421700  0.39503200  1
  O  O42  1  0.60824400  0.88059400  0.10930700  1
  O  O43  1  0.64887600  0.37233200  0.13221400  1
  O  O44  1  0.60085600  0.11215200  0.87045800  1
  O  O45  1  0.63992600  0.13429800  0.37146200  1
  O  O46  1  0.63390800  0.85491900  0.63192000  1
  O  O47  1  0.62132900  0.63717900  0.84975600  1
  O  O48  1  0.87142300  0.36578600  0.35728800  1
  O  O49  1  0.88400000  0.14863300  0.13902700  1
  O  O50  1  0.85861100  0.87100600  0.86011000  1
  O  O51  1  0.89639400  0.88261100  0.38093600  1
  O  O52  1  0.85245400  0.63633100  0.61811300  1
  O  O53  1  0.89019200  0.11311200  0.61322400  1
  O  O54  1  0.87210500  0.37934500  0.90082100  1
  O  O55  1  0.89344900  0.60475200  0.13292800  1
