# generated using pymatgen
data_Li9Mn2Co5O16
_symmetry_space_group_name_H-M   'P 1'
_cell_length_a   5.03958900
_cell_length_b   7.69547444
_cell_length_c   7.91043398
_cell_angle_alpha   98.36794353
_cell_angle_beta   99.64352629
_cell_angle_gamma   104.45832288
_symmetry_Int_Tables_number   1
_chemical_formula_structural   Li9Mn2Co5O16
_chemical_formula_sum   'Li9 Mn2 Co5 O16'
_cell_volume   287.17339946
_cell_formula_units_Z   1
loop_
 _symmetry_equiv_pos_site_id
 _symmetry_equiv_pos_as_xyz
  1  'x, y, z'
loop_
 _atom_site_type_symbol
 _atom_site_label
 _atom_site_symmetry_multiplicity
 _atom_site_fract_x
 _atom_site_fract_y
 _atom_site_fract_z
 _atom_site_occupancy
  Li  Li0  1  0.49531300  0.74554800  0.74536900  1
  Li  Li1  1  0.01289200  0.38178800  0.13254900  1
  Li  Li2  1  0.49770800  0.99294400  0.49879400  1
  Li  Li3  1  0.98405100  0.86999600  0.61704000  1
  Li  Li4  1  0.50062400  0.49948300  0.00541500  1
  Li  Li5  1  0.99736800  0.12778400  0.37772600  1
  Li  Li6  1  0.00026800  0.61907800  0.87423400  1
  Li  Li7  1  0.50735000  0.26317700  0.25178100  1
  Li  Li8  1  0.49721600  0.62270800  0.37238500  1
  Mn  Mn9  1  0.00049700  0.00194100  0.99996000  1
  Mn  Mn10  1  0.50228800  0.87081000  0.12996500  1
  Co  Co11  1  0.00038000  0.24985500  0.74820700  1
  Co  Co12  1  0.00565800  0.50475700  0.49669600  1
  Co  Co13  1  0.50493800  0.13030000  0.87204900  1
  Co  Co14  1  0.99407900  0.74359100  0.25068400  1
  Co  Co15  1  0.49651300  0.38300700  0.61644800  1
  O  O16  1  0.73714000  0.76660800  0.99891300  1
  O  O17  1  0.23939200  0.38172000  0.39409900  1
  O  O18  1  0.75543000  0.01366600  0.74377100  1
  O  O19  1  0.27001800  0.88789500  0.90205600  1
  O  O20  1  0.77109000  0.51601300  0.25112800  1
  O  O21  1  0.25326500  0.13766000  0.64030600  1
  O  O22  1  0.24761400  0.64359400  0.13086500  1
  O  O23  1  0.75979400  0.27400300  0.49514900  1
  O  O24  1  0.22789500  0.72899800  0.51115000  1
  O  O25  1  0.75023900  0.35938700  0.86248700  1
  O  O26  1  0.25926200  0.97687900  0.25163500  1
  O  O27  1  0.74533000  0.86839900  0.34433800  1
  O  O28  1  0.23628400  0.48234900  0.74691100  1
  O  O29  1  0.74519100  0.10928400  0.11348500  1
  O  O30  1  0.75271400  0.60818200  0.62205300  1
  O  O31  1  0.25219800  0.23859400  0.00235200  1
