# generated using pymatgen
data_Li3Mn3(PO4)4
_symmetry_space_group_name_H-M   'P 1'
_cell_length_a   9.90830027
_cell_length_b   9.90830027
_cell_length_c   10.49368166
_cell_angle_alpha   88.56790179
_cell_angle_beta   88.56790179
_cell_angle_gamma   40.40501264
_symmetry_Int_Tables_number   1
_chemical_formula_structural   Li3Mn3(PO4)4
_chemical_formula_sum   'Li6 Mn6 P8 O32'
_cell_volume   667.53208965
_cell_formula_units_Z   2
loop_
 _symmetry_equiv_pos_site_id
 _symmetry_equiv_pos_as_xyz
  1  'x, y, z'
loop_
 _atom_site_type_symbol
 _atom_site_label
 _atom_site_symmetry_multiplicity
 _atom_site_fract_x
 _atom_site_fract_y
 _atom_site_fract_z
 _atom_site_occupancy
  Li  Li0  1  0.97594100  0.16886400  0.44228700  1
  Li  Li1  1  0.46209100  0.53790900  0.25000000  1
  Li  Li2  1  0.83113600  0.02405900  0.05771300  1
  Li  Li3  1  0.16886400  0.97594100  0.94228700  1
  Li  Li4  1  0.02405900  0.83113600  0.55771300  1
  Li  Li5  1  0.53790900  0.46209100  0.75000000  1
  Mn  Mn6  1  0.63793400  0.67554500  0.75473500  1
  Mn  Mn7  1  0.67554500  0.63793400  0.25473500  1
  Mn  Mn8  1  0.50000000  0.00000000  0.50000000  1
  Mn  Mn9  1  0.32445500  0.36206600  0.74526500  1
  Mn  Mn10  1  0.36206600  0.32445500  0.24526500  1
  Mn  Mn11  1  0.00000000  0.50000000  0.00000000  1
  P  P12  1  0.41205200  0.74844700  0.50346500  1
  P  P13  1  0.74844700  0.41205200  0.00346500  1
  P  P14  1  0.82754000  0.78000400  0.24692600  1
  P  P15  1  0.17246000  0.21999600  0.75307400  1
  P  P16  1  0.78000400  0.82754000  0.74692600  1
  P  P17  1  0.25155300  0.58794800  0.99653500  1
  P  P18  1  0.21999600  0.17246000  0.25307400  1
  P  P19  1  0.58794800  0.25155300  0.49653500  1
  O  O20  1  0.59944500  0.56970400  0.89193900  1
  O  O21  1  0.22978200  0.28158100  0.14486700  1
  O  O22  1  0.35732300  0.95092500  0.21832400  1
  O  O23  1  0.81900300  0.21430600  0.98762800  1
  O  O24  1  0.77021800  0.71841900  0.85513300  1
  O  O25  1  0.68055700  0.80425100  0.64107800  1
  O  O26  1  0.56970400  0.59944500  0.39193900  1
  O  O27  1  0.04907500  0.64267700  0.28167600  1
  O  O28  1  0.21430600  0.81900300  0.48762800  1
  O  O29  1  0.95092500  0.35732300  0.71832400  1
  O  O30  1  0.36732700  0.47649500  0.86671900  1
  O  O31  1  0.47649500  0.36732700  0.36671900  1
  O  O32  1  0.00151300  0.29920600  0.29780100  1
  O  O33  1  0.43029600  0.40055500  0.60806100  1
  O  O34  1  0.18099700  0.78569400  0.01237200  1
  O  O35  1  0.52350500  0.63267300  0.63328100  1
  O  O36  1  0.28158100  0.22978200  0.64486700  1
  O  O37  1  0.19574900  0.31944300  0.85892200  1
  O  O38  1  0.71841900  0.77021800  0.35513300  1
  O  O39  1  0.80425100  0.68055700  0.14107800  1
  O  O40  1  0.99848700  0.70079400  0.70219900  1
  O  O41  1  0.65061100  0.05141600  0.49920500  1
  O  O42  1  0.64267700  0.04907500  0.78167600  1
  O  O43  1  0.05141600  0.65061100  0.99920500  1
  O  O44  1  0.78569400  0.18099700  0.51237200  1
  O  O45  1  0.31944300  0.19574900  0.35892200  1
  O  O46  1  0.63267300  0.52350500  0.13328100  1
  O  O47  1  0.34938900  0.94858400  0.50079500  1
  O  O48  1  0.94858400  0.34938900  0.00079500  1
  O  O49  1  0.40055500  0.43029600  0.10806100  1
  O  O50  1  0.70079400  0.99848700  0.20219900  1
  O  O51  1  0.29920600  0.00151300  0.79780100  1
