# generated using pymatgen
data_Li9Mn2Co5O16
_symmetry_space_group_name_H-M   'P 1'
_cell_length_a   5.89891900
_cell_length_b   6.44597053
_cell_length_c   8.11065988
_cell_angle_alpha   88.83264796
_cell_angle_beta   89.38212698
_cell_angle_gamma   65.89653457
_symmetry_Int_Tables_number   1
_chemical_formula_structural   Li9Mn2Co5O16
_chemical_formula_sum   'Li9 Mn2 Co5 O16'
_cell_volume   281.45265613
_cell_formula_units_Z   1
loop_
 _symmetry_equiv_pos_site_id
 _symmetry_equiv_pos_as_xyz
  1  'x, y, z'
loop_
 _atom_site_type_symbol
 _atom_site_label
 _atom_site_symmetry_multiplicity
 _atom_site_fract_x
 _atom_site_fract_y
 _atom_site_fract_z
 _atom_site_occupancy
  Li  Li0  1  0.75245000  0.50133300  0.99933200  1
  Li  Li1  1  0.13357300  0.24777300  0.24491800  1
  Li  Li2  1  0.37906000  0.75525200  0.75729400  1
  Li  Li3  1  0.99495100  0.00020400  0.49967500  1
  Li  Li4  1  0.61984700  0.24361000  0.24354400  1
  Li  Li5  1  0.24787500  0.49784100  0.00095300  1
  Li  Li6  1  0.86804700  0.75285400  0.75450600  1
  Li  Li7  1  0.50556700  0.00013100  0.49950200  1
  Li  Li8  1  0.49966700  0.00017800  0.00017500  1
  Mn  Mn9  1  0.00021500  0.00023600  0.00070100  1
  Mn  Mn10  1  0.74985800  0.49995100  0.49896900  1
  Co  Co11  1  0.37711700  0.75289100  0.24776200  1
  Co  Co12  1  0.13833100  0.24186900  0.75422600  1
  Co  Co13  1  0.86187700  0.75809700  0.24717400  1
  Co  Co14  1  0.25069700  0.49991800  0.50061400  1
  Co  Co15  1  0.62610800  0.24536000  0.75119500  1
  O  O16  1  0.11581100  0.24321200  0.98805900  1
  O  O17  1  0.49077100  0.98318700  0.25234800  1
  O  O18  1  0.74347800  0.48788100  0.73726500  1
  O  O19  1  0.40208100  0.72009100  0.49193700  1
  O  O20  1  0.98453400  0.99490100  0.23882700  1
  O  O21  1  0.65589600  0.23031400  0.98634900  1
  O  O22  1  0.24108700  0.48908900  0.73404600  1
  O  O23  1  0.87010300  0.73859600  0.48884300  1
  O  O24  1  0.34195200  0.76973600  0.01297600  1
  O  O25  1  0.76090900  0.50712200  0.26178100  1
  O  O26  1  0.01700400  0.00397600  0.76190000  1
  O  O27  1  0.63115000  0.26223800  0.50953200  1
  O  O28  1  0.25713100  0.51518400  0.26647300  1
  O  O29  1  0.88377800  0.75753800  0.01348300  1
  O  O30  1  0.50171900  0.02045800  0.74596400  1
  O  O31  1  0.09735600  0.27898100  0.50967700  1
