# generated using pymatgen
data_Li4Zn(PS4)2
_symmetry_space_group_name_H-M   'P 1'
_cell_length_a   25.59761500
_cell_length_b   10.06529200
_cell_length_c   10.17564189
_cell_angle_alpha   74.94336027
_cell_angle_beta   90.00000000
_cell_angle_gamma   90.00000000
_symmetry_Int_Tables_number   1
_chemical_formula_structural   Li4Zn(PS4)2
_chemical_formula_sum   'Li32 Zn8 P16 S64'
_cell_volume   2531.72313287
_cell_formula_units_Z   8
loop_
 _symmetry_equiv_pos_site_id
 _symmetry_equiv_pos_as_xyz
  1  'x, y, z'
loop_
 _atom_site_type_symbol
 _atom_site_label
 _atom_site_symmetry_multiplicity
 _atom_site_fract_x
 _atom_site_fract_y
 _atom_site_fract_z
 _atom_site_occupancy
  Li  Li0  1  0.29914000  0.86758500  0.88169400  1
  Li  Li1  1  0.29887500  0.38281700  0.37234400  1
  Li  Li2  1  0.05189700  0.88329400  0.86985700  1
  Li  Li3  1  0.04534900  0.37213800  0.38751600  1
  Li  Li4  1  0.79653300  0.87151000  0.88582000  1
  Li  Li5  1  0.80185100  0.38213900  0.37134100  1
  Li  Li6  1  0.54569600  0.39032100  0.37974700  1
  Li  Li7  1  0.19950200  0.11325400  0.63214700  1
  Li  Li8  1  0.94746800  0.61877900  0.13043200  1
  Li  Li9  1  0.70148400  0.11223000  0.62321400  1
  Li  Li10  1  0.44910500  0.62399100  0.12468300  1
  Li  Li11  1  0.45228700  0.12539600  0.62955100  1
  Li  Li12  1  0.29851600  0.11223000  0.12321400  1
  Li  Li13  1  0.05253200  0.61877900  0.63043200  1
  Li  Li14  1  0.80049800  0.11325400  0.13214700  1
  Li  Li15  1  0.55089500  0.62399100  0.62468300  1
  Li  Li16  1  0.54771300  0.12539600  0.12955100  1
  Li  Li17  1  0.19814900  0.38213900  0.87134100  1
  Li  Li18  1  0.20346700  0.87151000  0.38582000  1
  Li  Li19  1  0.95465100  0.37213800  0.88751600  1
  Li  Li20  1  0.94810300  0.88329400  0.36985700  1
  Li  Li21  1  0.70112500  0.38281700  0.87234400  1
  Li  Li22  1  0.70086000  0.86758500  0.38169400  1
  Li  Li23  1  0.45430400  0.39032100  0.87974700  1
  Li  Li24  1  0.33905900  0.23933200  0.76172200  1
  Li  Li25  1  0.08542600  0.73675600  0.26366500  1
  Li  Li26  1  0.83614800  0.23834100  0.76386600  1
  Li  Li27  1  0.58969700  0.24509100  0.76017100  1
  Li  Li28  1  0.16385200  0.23834100  0.26386600  1
  Li  Li29  1  0.91457400  0.73675600  0.76366500  1
  Li  Li30  1  0.66094100  0.23933200  0.26172200  1
  Li  Li31  1  0.41030300  0.24509100  0.26017100  1
  Zn  Zn32  1  0.54884300  0.87504800  0.88161200  1
  Zn  Zn33  1  0.20382100  0.62643300  0.11544700  1
  Zn  Zn34  1  0.95366200  0.12528000  0.61542300  1
  Zn  Zn35  1  0.70214600  0.62398700  0.12005700  1
  Zn  Zn36  1  0.29785400  0.62398700  0.62005700  1
  Zn  Zn37  1  0.04633800  0.12528000  0.11542300  1
  Zn  Zn38  1  0.79617900  0.62643300  0.61544700  1
  Zn  Zn39  1  0.45115700  0.87504800  0.38161200  1
  P  P40  1  0.17264300  0.49244100  0.49306900  1
  P  P41  1  0.17087900  0.00417500  0.00764200  1
  P  P42  1  0.92101300  0.50474500  0.50902000  1
  P  P43  1  0.92285900  0.99283000  0.99113600  1
  P  P44  1  0.67346000  0.49251600  0.48983500  1
  P  P45  1  0.66962100  0.99848300  0.00407100  1
  P  P46  1  0.42199900  0.50759700  0.50285300  1
  P  P47  1  0.42171100  0.00086400  0.00410600  1
  P  P48  1  0.32654000  0.49251600  0.98983500  1
  P  P49  1  0.33037900  0.99848300  0.50407100  1
  P  P50  1  0.07898700  0.50474500  0.00902000  1
  P  P51  1  0.07714100  0.99283000  0.49113600  1
  P  P52  1  0.82735700  0.49244100  0.99306900  1
  P  P53  1  0.82912100  0.00417500  0.50764200  1
  P  P54  1  0.57800100  0.50759700  0.00285300  1
  P  P55  1  0.57828900  0.00086400  0.50410600  1
  S  S56  1  0.20371400  0.83938200  0.95003900  1
  S  S57  1  0.20937000  0.33036100  0.44483400  1
  S  S58  1  0.96063500  0.83257000  0.94251900  1
  S  S59  1  0.95198600  0.33877200  0.44982900  1
  S  S60  1  0.70409600  0.83546400  0.94901400  1
  S  S61  1  0.70971800  0.33015800  0.44125900  1
  S  S62  1  0.45956000  0.84107200  0.95163900  1
  S  S63  1  0.45382100  0.34257500  0.44588400  1
  S  S64  1  0.29199900  0.55313500  0.14921300  1
  S  S65  1  0.29561500  0.04924100  0.66648500  1
  S  S66  1  0.04183300  0.55000000  0.17092900  1
  S  S67  1  0.04239900  0.05660700  0.64829400  1
  S  S68  1  0.79170600  0.55521900  0.14958400  1
  S  S69  1  0.79349000  0.05061200  0.67083900  1
  S  S70  1  0.54223000  0.55743700  0.15880800  1
  S  S71  1  0.54357900  0.05438200  0.67186000  1
  S  S72  1  0.20829400  0.55521900  0.64958400  1
  S  S73  1  0.20651000  0.05061200  0.17083900  1
  S  S74  1  0.95816700  0.55000000  0.67092900  1
  S  S75  1  0.95760100  0.05660700  0.14829400  1
  S  S76  1  0.70800100  0.55313500  0.64921300  1
  S  S77  1  0.70438500  0.04924100  0.16648500  1
  S  S78  1  0.45777000  0.55743700  0.65880800  1
  S  S79  1  0.45642100  0.05438200  0.17186000  1
  S  S80  1  0.29028200  0.33015800  0.94125900  1
  S  S81  1  0.29590400  0.83546400  0.44901400  1
  S  S82  1  0.04801400  0.33877200  0.94982900  1
  S  S83  1  0.03936500  0.83257000  0.44251900  1
  S  S84  1  0.79063000  0.33036100  0.94483400  1
  S  S85  1  0.79628600  0.83938200  0.45003900  1
  S  S86  1  0.54617900  0.34257500  0.94588400  1
  S  S87  1  0.54044000  0.84107200  0.45163900  1
  S  S88  1  0.17645500  0.66636300  0.32321200  1
  S  S89  1  0.17052200  0.16376500  0.84064500  1
  S  S90  1  0.92012500  0.66460600  0.34223500  1
  S  S91  1  0.92687100  0.16760800  0.82252100  1
  S  S92  1  0.67101200  0.66240600  0.32387300  1
  S  S93  1  0.67663400  0.16303800  0.83472600  1
  S  S94  1  0.41847500  0.67467000  0.33365900  1
  S  S95  1  0.42824400  0.17323000  0.84220400  1
  S  S96  1  0.32898800  0.66240600  0.82387300  1
  S  S97  1  0.32336600  0.16303800  0.33472600  1
  S  S98  1  0.07987500  0.66460600  0.84223500  1
  S  S99  1  0.07312900  0.16760800  0.32252100  1
  S  S100  1  0.82354500  0.66636300  0.82321200  1
  S  S101  1  0.82947800  0.16376500  0.34064500  1
  S  S102  1  0.58152500  0.67467000  0.83365900  1
  S  S103  1  0.57175600  0.17323000  0.34220400  1
  S  S104  1  0.34424800  0.44622600  0.55796600  1
  S  S105  1  0.34822700  0.93682400  0.05664600  1
  S  S106  1  0.09868200  0.44208700  0.55394000  1
  S  S107  1  0.09325700  0.94336500  0.06356100  1
  S  S108  1  0.84335300  0.44463900  0.56527600  1
  S  S109  1  0.84909000  0.94032900  0.05267900  1
  S  S110  1  0.59843100  0.44116700  0.55732300  1
  S  S111  1  0.59298700  0.94500000  0.05678100  1
  S  S112  1  0.15664700  0.44463900  0.06527600  1
  S  S113  1  0.15091000  0.94032900  0.55267900  1
  S  S114  1  0.90131800  0.44208700  0.05394000  1
  S  S115  1  0.90674300  0.94336500  0.56356100  1
  S  S116  1  0.65575200  0.44622600  0.05796600  1
  S  S117  1  0.65177300  0.93682400  0.55664600  1
  S  S118  1  0.40156900  0.44116700  0.05732300  1
  S  S119  1  0.40701300  0.94500000  0.55678100  1
