# generated using pymatgen
data_LiMg
_symmetry_space_group_name_H-M   'P 1'
_cell_length_a   5.31580883
_cell_length_b   5.31580883
_cell_length_c   5.84945538
_cell_angle_alpha   64.55451911
_cell_angle_beta   64.55451911
_cell_angle_gamma   61.39747916
_symmetry_Int_Tables_number   1
_chemical_formula_structural   LiMg
_chemical_formula_sum   'Li3 Mg3'
_cell_volume   125.70558553
_cell_formula_units_Z   3
loop_
 _symmetry_equiv_pos_site_id
 _symmetry_equiv_pos_as_xyz
  1  'x, y, z'
loop_
 _atom_site_type_symbol
 _atom_site_label
 _atom_site_symmetry_multiplicity
 _atom_site_fract_x
 _atom_site_fract_y
 _atom_site_fract_z
 _atom_site_occupancy
  Li  Li0  1  0.99821500  0.33437300  0.00055900  1
  Li  Li1  1  0.66562700  0.00178500  0.99944100  1
  Li  Li2  1  0.50241200  0.49758800  0.50000000  1
  Mg  Mg3  1  0.33310000  0.66690000  0.00000000  1
  Mg  Mg4  1  0.16641600  0.16577100  0.49878100  1
  Mg  Mg5  1  0.83422900  0.83358400  0.50121900  1
