# generated using pymatgen
data_Li4VCr2Ni3(PO4)6
_symmetry_space_group_name_H-M   'P 1'
_cell_length_a   8.39312900
_cell_length_b   8.50364161
_cell_length_c   8.62482318
_cell_angle_alpha   62.02977785
_cell_angle_beta   62.45127213
_cell_angle_gamma   62.90979828
_symmetry_Int_Tables_number   1
_chemical_formula_structural   Li4VCr2Ni3(PO4)6
_chemical_formula_sum   'Li4 V1 Cr2 Ni3 P6 O24'
_cell_volume   459.12905506
_cell_formula_units_Z   1
loop_
 _symmetry_equiv_pos_site_id
 _symmetry_equiv_pos_as_xyz
  1  'x, y, z'
loop_
 _atom_site_type_symbol
 _atom_site_label
 _atom_site_symmetry_multiplicity
 _atom_site_fract_x
 _atom_site_fract_y
 _atom_site_fract_z
 _atom_site_occupancy
  Li  Li0  1  0.74442000  0.14955000  0.35591700  1
  Li  Li1  1  0.28491200  0.84857900  0.64795600  1
  Li  Li2  1  0.64326100  0.28710900  0.84859200  1
  Li  Li3  1  0.85629000  0.64321200  0.30103300  1
  V  V4  1  0.85310100  0.84982800  0.85279600  1
  Cr  Cr5  1  0.00983600  0.99695300  0.00317400  1
  Cr  Cr6  1  0.49257800  0.50157800  0.49916300  1
  Ni  Ni7  1  0.35740400  0.35587900  0.35027400  1
  Ni  Ni8  1  0.14273800  0.14790400  0.14635700  1
  Ni  Ni9  1  0.64500100  0.64878200  0.65248700  1
  P  P10  1  0.05677000  0.74370200  0.44918400  1
  P  P11  1  0.44315600  0.04747200  0.75077700  1
  P  P12  1  0.75037300  0.44196000  0.04403400  1
  P  P13  1  0.24695900  0.54944400  0.96029900  1
  P  P14  1  0.55424500  0.95946000  0.25029100  1
  P  P15  1  0.94214800  0.24590100  0.53784200  1
  O  O16  1  0.46899300  0.89744300  0.68329700  1
  O  O17  1  0.68438000  0.46721100  0.89398800  1
  O  O18  1  0.90092000  0.67230000  0.48490100  1
  O  O19  1  0.06210200  0.90617600  0.25790400  1
  O  O20  1  0.01545900  0.81179300  0.60468400  1
  O  O21  1  0.25240200  0.59080200  0.43511800  1
  O  O22  1  0.24545000  0.07405700  0.90114000  1
  O  O23  1  0.45569300  0.23605000  0.58862000  1
  O  O24  1  0.16851700  0.40192600  0.00133700  1
  O  O25  1  0.60349900  0.42702900  0.24144200  1
  O  O26  1  0.10009900  0.76070600  0.91658300  1
  O  O27  1  0.39694600  0.01960200  0.17799000  1
  O  O28  1  0.60129500  0.99129900  0.82808300  1
  O  O29  1  0.89986100  0.24010000  0.07344600  1
  O  O30  1  0.40567100  0.56330100  0.76398700  1
  O  O31  1  0.82022800  0.60274900  0.99508100  1
  O  O32  1  0.55885100  0.76107100  0.40818900  1
  O  O33  1  0.76219700  0.91615100  0.10053000  1
  O  O34  1  0.74736500  0.41127800  0.56135000  1
  O  O35  1  0.94790900  0.18155100  0.39771600  1
  O  O36  1  0.91289200  0.09903600  0.74497700  1
  O  O37  1  0.11395800  0.29542600  0.48858100  1
  O  O38  1  0.30298300  0.52919700  0.11259800  1
  O  O39  1  0.54913800  0.10343400  0.31128400  1
