# generated using pymatgen
data_Li9Mn2Co5O16
_symmetry_space_group_name_H-M   'P 1'
_cell_length_a   6.57825894
_cell_length_b   6.57825894
_cell_length_c   15.43793166
_cell_angle_alpha   88.26817942
_cell_angle_beta   88.26817942
_cell_angle_gamma   25.70193352
_symmetry_Int_Tables_number   1
_chemical_formula_structural   Li9Mn2Co5O16
_chemical_formula_sum   'Li9 Mn2 Co5 O16'
_cell_volume   289.58842126
_cell_formula_units_Z   1
loop_
 _symmetry_equiv_pos_site_id
 _symmetry_equiv_pos_as_xyz
  1  'x, y, z'
loop_
 _atom_site_type_symbol
 _atom_site_label
 _atom_site_symmetry_multiplicity
 _atom_site_fract_x
 _atom_site_fract_y
 _atom_site_fract_z
 _atom_site_occupancy
  Li  Li0  1  0.68897300  0.68897300  0.94100800  1
  Li  Li1  1  0.06074800  0.06074800  0.80429100  1
  Li  Li2  1  0.43688400  0.43688400  0.68237600  1
  Li  Li3  1  0.31297300  0.31297300  0.06559000  1
  Li  Li4  1  0.93851000  0.93851000  0.19520100  1
  Li  Li5  1  0.55697000  0.55697000  0.31153400  1
  Li  Li6  1  0.81689500  0.81689500  0.55692000  1
  Li  Li7  1  0.19030500  0.19030500  0.44368400  1
  Li  Li8  1  0.49690100  0.49690100  0.50132400  1
  Mn  Mn9  1  0.00063500  0.00063500  0.99976700  1
  Mn  Mn10  1  0.74752600  0.74752600  0.74877900  1
  Co  Co11  1  0.37375400  0.37375400  0.87473700  1
  Co  Co12  1  0.11140000  0.11140000  0.61539300  1
  Co  Co13  1  0.88143300  0.88143300  0.37928600  1
  Co  Co14  1  0.25372300  0.25372300  0.25136500  1
  Co  Co15  1  0.62806400  0.62806400  0.12839800  1
  O  O16  1  0.53030000  0.53030000  0.91861800  1
  O  O17  1  0.89303300  0.89303300  0.78421100  1
  O  O18  1  0.27465600  0.27465600  0.66823500  1
  O  O19  1  0.14682400  0.14682400  0.03323000  1
  O  O20  1  0.77934900  0.77934900  0.16209900  1
  O  O21  1  0.40215100  0.40215100  0.28450200  1
  O  O22  1  0.65653600  0.65653600  0.53694800  1
  O  O23  1  0.01303600  0.01303600  0.40080400  1
  O  O24  1  0.85552700  0.85552700  0.96903400  1
  O  O25  1  0.21747700  0.21747700  0.83207500  1
  O  O26  1  0.60478100  0.60478100  0.71514000  1
  O  O27  1  0.47511400  0.47511400  0.08239600  1
  O  O28  1  0.10034200  0.10034200  0.21692800  1
  O  O29  1  0.73554600  0.73554600  0.34010500  1
  O  O30  1  0.97408500  0.97408500  0.59664500  1
  O  O31  1  0.34555100  0.34555100  0.45938000  1
