# generated using pymatgen
data_Li2V3CoO8
_symmetry_space_group_name_H-M   'P 1'
_cell_length_a   5.92939391
_cell_length_b   5.94078367
_cell_length_c   10.27594203
_cell_angle_alpha   106.62503205
_cell_angle_beta   89.94633267
_cell_angle_gamma   60.02824269
_symmetry_Int_Tables_number   1
_chemical_formula_structural   Li2V3CoO8
_chemical_formula_sum   'Li4 V6 Co2 O16'
_cell_volume   295.91140915
_cell_formula_units_Z   2
loop_
 _symmetry_equiv_pos_site_id
 _symmetry_equiv_pos_as_xyz
  1  'x, y, z'
loop_
 _atom_site_type_symbol
 _atom_site_label
 _atom_site_symmetry_multiplicity
 _atom_site_fract_x
 _atom_site_fract_y
 _atom_site_fract_z
 _atom_site_occupancy
  Li  Li0  1  0.32463100  0.36156500  0.55954500  1
  Li  Li1  1  0.81317900  0.36297700  0.06060900  1
  Li  Li2  1  0.75317700  0.50277300  0.75035700  1
  Li  Li3  1  0.24389900  0.50329600  0.25051600  1
  V  V4  1  0.76393200  0.00101800  0.75245700  1
  V  V5  1  0.24129700  0.00631800  0.24571700  1
  V  V6  1  0.99593300  0.99907900  0.50313400  1
  V  V7  1  0.50579300  0.00035300  0.00362600  1
  V  V8  1  0.25336700  0.00461600  0.74547600  1
  V  V9  1  0.73646800  0.99886500  0.25268400  1
  Co  Co10  1  0.18185800  0.63847900  0.93974900  1
  Co  Co11  1  0.67990500  0.63883900  0.44267800  1
  O  O12  1  0.12028400  0.77413800  0.62947800  1
  O  O13  1  0.60547900  0.77433000  0.12931300  1
  O  O14  1  0.39443500  0.22442500  0.87000200  1
  O  O15  1  0.88060400  0.22435800  0.37015700  1
  O  O16  1  0.67715000  0.21301200  0.61843100  1
  O  O17  1  0.15163800  0.21093400  0.13199300  1
  O  O18  1  0.88504100  0.21162900  0.85499900  1
  O  O19  1  0.40207500  0.21313300  0.35436700  1
  O  O20  1  0.13717900  0.21134600  0.63260900  1
  O  O21  1  0.60924200  0.21362700  0.11781700  1
  O  O22  1  0.37437700  0.79218900  0.87415700  1
  O  O23  1  0.87786600  0.77867500  0.37509400  1
  O  O24  1  0.62254100  0.78443000  0.64241700  1
  O  O25  1  0.09202900  0.78471100  0.14365300  1
  O  O26  1  0.84241600  0.77813800  0.87397600  1
  O  O27  1  0.33420600  0.79274100  0.37498700  1
