# generated using pymatgen
data_Li6V3P8O29
_symmetry_space_group_name_H-M   'P 1'
_cell_length_a   9.84950200
_cell_length_b   9.85434312
_cell_length_c   13.94599040
_cell_angle_alpha   90.20354899
_cell_angle_beta   90.01937113
_cell_angle_gamma   119.94136906
_symmetry_Int_Tables_number   1
_chemical_formula_structural   Li6V3P8O29
_chemical_formula_sum   'Li12 V6 P16 O58'
_cell_volume   1172.93567765
_cell_formula_units_Z   2
loop_
 _symmetry_equiv_pos_site_id
 _symmetry_equiv_pos_as_xyz
  1  'x, y, z'
loop_
 _atom_site_type_symbol
 _atom_site_label
 _atom_site_symmetry_multiplicity
 _atom_site_fract_x
 _atom_site_fract_y
 _atom_site_fract_z
 _atom_site_occupancy
  Li  Li0  1  0.67788700  0.90497000  0.56087000  1
  Li  Li1  1  0.22706100  0.31957000  0.56044800  1
  Li  Li2  1  0.33807500  0.66984200  0.88541700  1
  Li  Li3  1  0.08506500  0.31163400  0.06056700  1
  Li  Li4  1  0.22372600  0.90764300  0.06052500  1
  Li  Li5  1  0.90411500  0.22646700  0.44007200  1
  Li  Li6  1  0.09218000  0.77244700  0.56024800  1
  Li  Li7  1  0.90735300  0.68741300  0.94106200  1
  Li  Li8  1  0.66712400  0.33169600  0.11523500  1
  Li  Li9  1  0.77072500  0.67611700  0.43863400  1
  Li  Li10  1  0.32218100  0.09326200  0.43982000  1
  Li  Li11  1  0.31335900  0.22584500  0.93923800  1
  V  V12  1  0.99948200  0.42989300  0.25128600  1
  V  V13  1  0.99961500  0.56453800  0.75082000  1
  V  V14  1  0.57198300  0.00087700  0.75239300  1
  V  V15  1  0.43636200  0.99894300  0.24828700  1
  V  V16  1  0.56976700  0.57240100  0.24718000  1
  V  V17  1  0.43752300  0.43618500  0.75032900  1
  P  P18  1  0.68351600  0.77157600  0.84125200  1
  P  P19  1  0.68204800  0.91444900  0.34191100  1
  P  P20  1  0.23527400  0.32072900  0.34129600  1
  P  P21  1  0.33288500  0.66596300  0.12687200  1
  P  P22  1  0.33309200  0.66540700  0.62731100  1
  P  P23  1  0.09024100  0.31938300  0.84369200  1
  P  P24  1  0.91276800  0.23166700  0.65963200  1
  P  P25  1  0.23076700  0.91050000  0.84275900  1
  P  P26  1  0.77085100  0.08576900  0.15625300  1
  P  P27  1  0.08753600  0.76817900  0.34149800  1
  P  P28  1  0.90887300  0.67794800  0.15852700  1
  P  P29  1  0.66580200  0.33293600  0.37276100  1
  P  P30  1  0.66869900  0.33548900  0.87257500  1
  P  P31  1  0.76911600  0.68171600  0.65674600  1
  P  P32  1  0.32022100  0.08606200  0.65886600  1
  P  P33  1  0.32044900  0.23059600  0.15714200  1
  O  O34  1  0.75594100  0.75661000  0.56602700  1
  O  O35  1  0.66710900  0.75033800  0.33981800  1
  O  O36  1  0.76697600  0.00066000  0.06910800  1
  O  O37  1  0.65770100  0.91472200  0.83587000  1
  O  O38  1  0.51574300  0.62613900  0.82646400  1
  O  O39  1  0.47986700  0.67032400  0.17009200  1
  O  O40  1  0.38563500  0.47733900  0.32263000  1
  O  O41  1  0.24189100  0.24484500  0.06853100  1
  O  O42  1  0.25503400  0.33527100  0.84027500  1
  O  O43  1  0.48487500  0.81282800  0.66578700  1
  O  O44  1  0.52180200  0.90254300  0.32545600  1
  O  O45  1  0.33120700  0.51373000  0.66910200  1
  O  O46  1  0.32848800  0.66868600  0.01933800  1
  O  O47  1  0.32521700  0.65945900  0.52070300  1
  O  O48  1  0.18474900  0.51605100  0.16521700  1
  O  O49  1  0.37238400  0.88637100  0.82638400  1
  O  O50  1  0.33155700  0.81858600  0.16625200  1
  O  O51  1  0.08719200  0.33738700  0.34161600  1
  O  O52  1  0.00150400  0.21223100  0.75106300  1
  O  O53  1  0.00161900  0.24278900  0.56939900  1
  O  O54  1  0.00620800  0.24869300  0.93395600  1
  O  O55  1  0.11245200  0.48614200  0.82503600  1
  O  O56  1  0.18309000  0.66662700  0.67024100  1
  O  O57  1  0.91828600  0.25672200  0.16323900  1
  O  O58  1  0.09346900  0.61653300  0.32107900  1
  O  O59  1  0.25096500  0.91403000  0.34132300  1
  O  O60  1  0.79261300  0.00709400  0.25322500  1
  O  O61  1  0.75782600  0.00062700  0.43342800  1
  O  O62  1  0.24266600  0.99658900  0.56864300  1
  O  O63  1  0.74928300  0.08223200  0.65991800  1
  O  O64  1  0.89990600  0.37953100  0.67543600  1
  O  O65  1  0.08077800  0.74850500  0.84363000  1
  O  O66  1  0.81395700  0.32603100  0.33413200  1
  O  O67  1  0.88784600  0.51301900  0.17356800  1
  O  O68  1  0.99943900  0.75695200  0.06977400  1
  O  O69  1  0.99770300  0.75435400  0.43143800  1
  O  O70  1  0.99912000  0.78761800  0.24963700  1
  O  O71  1  0.91771800  0.66716500  0.65876900  1
  O  O72  1  0.66837700  0.19173000  0.82959600  1
  O  O73  1  0.62673100  0.11059200  0.17367800  1
  O  O74  1  0.81996800  0.48760400  0.83388200  1
  O  O75  1  0.66618300  0.34177000  0.97996300  1
  O  O76  1  0.66150200  0.32791300  0.47954400  1
  O  O77  1  0.67126200  0.48494800  0.33298800  1
  O  O78  1  0.47618900  0.09005000  0.67897100  1
  O  O79  1  0.51389300  0.18305900  0.32947400  1
  O  O80  1  0.74381200  0.65934800  0.16260300  1
  O  O81  1  0.78639700  0.79301300  0.74600300  1
  O  O82  1  0.76693200  0.76133300  0.92615700  1
  O  O83  1  0.62117400  0.52219900  0.67479400  1
  O  O84  1  0.51818200  0.33840100  0.83317200  1
  O  O85  1  0.48605900  0.37241700  0.17397900  1
  O  O86  1  0.33282100  0.08071100  0.15641500  1
  O  O87  1  0.24560300  0.00399200  0.93168400  1
  O  O88  1  0.21160700  0.99904700  0.75084400  1
  O  O89  1  0.33821100  0.25008800  0.65869100  1
  O  O90  1  0.24498100  0.24216400  0.43117500  1
  O  O91  1  0.21277300  0.21166500  0.24925700  1
