# generated using pymatgen
data_Li4Fe3Sb(PO4)4
_symmetry_space_group_name_H-M   'P 1'
_cell_length_a   6.30598900
_cell_length_b   4.77075800
_cell_length_c   10.75394888
_cell_angle_alpha   88.28914375
_cell_angle_beta   90.00000000
_cell_angle_gamma   90.00000000
_symmetry_Int_Tables_number   1
_chemical_formula_structural   Li4Fe3Sb(PO4)4
_chemical_formula_sum   'Li4 Fe3 Sb1 P4 O16'
_cell_volume   323.38131403
_cell_formula_units_Z   1
loop_
 _symmetry_equiv_pos_site_id
 _symmetry_equiv_pos_as_xyz
  1  'x, y, z'
loop_
 _atom_site_type_symbol
 _atom_site_label
 _atom_site_symmetry_multiplicity
 _atom_site_fract_x
 _atom_site_fract_y
 _atom_site_fract_z
 _atom_site_occupancy
  Li  Li0  1  0.24885100  0.99285000  0.99192100  1
  Li  Li1  1  0.75114900  0.99285000  0.99192100  1
  Li  Li2  1  0.75242300  0.50670800  0.50526900  1
  Li  Li3  1  0.24757700  0.50670800  0.50526900  1
  Fe  Fe4  1  0.00000000  0.46531000  0.78671000  1
  Fe  Fe5  1  0.50000000  0.51730800  0.20524300  1
  Fe  Fe6  1  0.50000000  0.96868300  0.72456800  1
  Sb  Sb7  1  0.00000000  0.07498000  0.28854700  1
  P  P8  1  0.50000000  0.08686700  0.41804200  1
  P  P9  1  0.50000000  0.41111000  0.90300800  1
  P  P10  1  0.00000000  0.57357700  0.07840300  1
  P  P11  1  0.00000000  0.92266100  0.60876700  1
  O  O12  1  0.50000000  0.19842300  0.55191200  1
  O  O13  1  0.31164800  0.23692700  0.34724600  1
  O  O14  1  0.68835200  0.23692700  0.34724600  1
  O  O15  1  0.00000000  0.24488500  0.60694700  1
  O  O16  1  0.00000000  0.24933900  0.07052200  1
  O  O17  1  0.30302400  0.28482200  0.83355300  1
  O  O18  1  0.69697600  0.28482200  0.83355300  1
  O  O19  1  0.50000000  0.27876500  0.03745200  1
  O  O20  1  0.00000000  0.71554600  0.94567400  1
  O  O21  1  0.79334500  0.68235600  0.14320900  1
  O  O22  1  0.20665500  0.68235600  0.14320900  1
  O  O23  1  0.50000000  0.73387500  0.90064800  1
  O  O24  1  0.50000000  0.76760800  0.40837200  1
  O  O25  1  0.80098200  0.78765800  0.67466600  1
  O  O26  1  0.19901800  0.78765800  0.67466600  1
  O  O27  1  0.00000000  0.80841900  0.47345700  1
