# generated using pymatgen
data_Li4Co3O7
_symmetry_space_group_name_H-M   'P 1'
_cell_length_a   5.07191700
_cell_length_b   5.86733849
_cell_length_c   8.66449192
_cell_angle_alpha   91.32802654
_cell_angle_beta   95.19417500
_cell_angle_gamma   106.61957218
_symmetry_Int_Tables_number   1
_chemical_formula_structural   Li4Co3O7
_chemical_formula_sum   'Li8 Co6 O14'
_cell_volume   245.73209709
_cell_formula_units_Z   2
loop_
 _symmetry_equiv_pos_site_id
 _symmetry_equiv_pos_as_xyz
  1  'x, y, z'
loop_
 _atom_site_type_symbol
 _atom_site_label
 _atom_site_symmetry_multiplicity
 _atom_site_fract_x
 _atom_site_fract_y
 _atom_site_fract_z
 _atom_site_occupancy
  Li  Li0  1  0.50000000  0.50000000  0.00000000  1
  Li  Li1  1  0.07823100  0.64517300  0.14033000  1
  Li  Li2  1  0.92176900  0.35482700  0.85967000  1
  Li  Li3  1  0.35651700  0.21175800  0.71652500  1
  Li  Li4  1  0.64348300  0.78824200  0.28347500  1
  Li  Li5  1  0.21393900  0.92816600  0.42637700  1
  Li  Li6  1  0.78606100  0.07183400  0.57362300  1
  Li  Li7  1  0.50000000  0.00000000  0.00000000  1
  Co  Co8  1  0.92332000  0.85988300  0.86056400  1
  Co  Co9  1  0.07668000  0.14011700  0.13943600  1
  Co  Co10  1  0.64132300  0.28272300  0.27815700  1
  Co  Co11  1  0.21364100  0.43148900  0.42980200  1
  Co  Co12  1  0.78635900  0.56851100  0.57019800  1
  Co  Co13  1  0.35867700  0.71727700  0.72184300  1
  O  O14  1  0.81797100  0.84261800  0.05960300  1
  O  O15  1  0.33871600  0.98805900  0.21235200  1
  O  O16  1  0.19638800  0.69281900  0.91259500  1
  O  O17  1  0.65225100  0.55642200  0.78975400  1
  O  O18  1  0.94349100  0.11965400  0.34323100  1
  O  O19  1  0.51183600  0.26364000  0.49813800  1
  O  O20  1  0.07367700  0.39805900  0.63597600  1
  O  O21  1  0.18202900  0.15738200  0.94039700  1
  O  O22  1  0.80361200  0.30718100  0.08740500  1
  O  O23  1  0.66128400  0.01194100  0.78764800  1
  O  O24  1  0.05650900  0.88034600  0.65676900  1
  O  O25  1  0.34774900  0.44357800  0.21024600  1
  O  O26  1  0.92632300  0.60194100  0.36402400  1
  O  O27  1  0.48816400  0.73636000  0.50186200  1
