# generated using pymatgen
data_Li9Mn2Co5O16
_symmetry_space_group_name_H-M   'P 1'
_cell_length_a   2.87508046
_cell_length_b   39.11277224
_cell_length_c   2.96217818
_cell_angle_alpha   86.24400733
_cell_angle_beta   119.03201475
_cell_angle_gamma   87.89369252
_symmetry_Int_Tables_number   1
_chemical_formula_structural   Li9Mn2Co5O16
_chemical_formula_sum   'Li9 Mn2 Co5 O16'
_cell_volume   289.72513071
_cell_formula_units_Z   1
loop_
 _symmetry_equiv_pos_site_id
 _symmetry_equiv_pos_as_xyz
  1  'x, y, z'
loop_
 _atom_site_type_symbol
 _atom_site_label
 _atom_site_symmetry_multiplicity
 _atom_site_fract_x
 _atom_site_fract_y
 _atom_site_fract_z
 _atom_site_occupancy
  Li  Li0  1  0.23371100  0.06729400  0.53471600  1
  Li  Li1  1  0.75962300  0.18656900  0.70581500  1
  Li  Li2  1  0.24766200  0.31255600  0.80788000  1
  Li  Li3  1  0.76005000  0.43529600  0.95539700  1
  Li  Li4  1  0.24318400  0.56478400  0.05115300  1
  Li  Li5  1  0.74835800  0.68792900  0.18464500  1
  Li  Li6  1  0.25195400  0.81197000  0.31587700  1
  Li  Li7  1  0.75641600  0.93451300  0.44734500  1
  Li  Li8  1  0.50108600  0.12456300  0.12673400  1
  Mn  Mn9  1  0.99810600  0.99910100  0.99531300  1
  Mn  Mn10  1  0.00172700  0.50015600  0.50360900  1
  Co  Co11  1  0.99865300  0.25069800  0.24800500  1
  Co  Co12  1  0.50167100  0.37457900  0.37792100  1
  Co  Co13  1  0.49754700  0.62568200  0.62077500  1
  Co  Co14  1  0.99945400  0.75008300  0.74899000  1
  Co  Co15  1  0.50222500  0.87423100  0.87868000  1
  O  O16  1  0.61270600  0.02613600  0.25154900  1
  O  O17  1  0.12635500  0.15728400  0.40999500  1
  O  O18  1  0.62052300  0.27937400  0.52042100  1
  O  O19  1  0.12913200  0.40404700  0.66231100  1
  O  O20  1  0.60405700  0.52906000  0.73717300  1
  O  O21  1  0.12687300  0.65427700  0.90802300  1
  O  O22  1  0.62744000  0.77893000  0.03381000  1
  O  O23  1  0.12768300  0.90388900  0.15925400  1
  O  O24  1  0.87371400  0.09240200  0.83983100  1
  O  O25  1  0.37568000  0.22341000  0.97477000  1
  O  O26  1  0.87136400  0.34607500  0.08880300  1
  O  O27  1  0.39920600  0.47142600  0.26983800  1
  O  O28  1  0.87066400  0.59628000  0.33760800  1
  O  O29  1  0.37152600  0.72124600  0.46429900  1
  O  O30  1  0.87304500  0.84573900  0.59182900  1
  O  O31  1  0.38860500  0.97042000  0.74763000  1
