# generated using pymatgen
data_Li9Mn7O16
_symmetry_space_group_name_H-M   'P 1'
_cell_length_a   5.36353200
_cell_length_b   6.02884968
_cell_length_c   10.13292851
_cell_angle_alpha   86.89254313
_cell_angle_beta   102.08139181
_cell_angle_gamma   110.69581741
_symmetry_Int_Tables_number   1
_chemical_formula_structural   Li9Mn7O16
_chemical_formula_sum   'Li9 Mn7 O16'
_cell_volume   299.65501648
_cell_formula_units_Z   1
loop_
 _symmetry_equiv_pos_site_id
 _symmetry_equiv_pos_as_xyz
  1  'x, y, z'
loop_
 _atom_site_type_symbol
 _atom_site_label
 _atom_site_symmetry_multiplicity
 _atom_site_fract_x
 _atom_site_fract_y
 _atom_site_fract_z
 _atom_site_occupancy
  Li  Li0  1  0.98997700  0.86654400  0.12065400  1
  Li  Li1  1  0.00167300  0.62283400  0.37347000  1
  Li  Li2  1  0.50000000  0.00000000  0.00000000  1
  Li  Li3  1  0.49131300  0.75291800  0.24889400  1
  Li  Li4  1  0.01002300  0.13345600  0.87934600  1
  Li  Li5  1  0.50868700  0.24708200  0.75110600  1
  Li  Li6  1  0.99832700  0.37716600  0.62653000  1
  Li  Li7  1  0.50000000  0.50000000  0.50000000  1
  Li  Li8  1  0.50000000  0.50000000  0.00000000  1
  Mn  Mn9  1  0.99948500  0.37481200  0.12370800  1
  Mn  Mn10  1  0.00051500  0.62518800  0.87629200  1
  Mn  Mn11  1  0.99933400  0.12417700  0.37395400  1
  Mn  Mn12  1  0.00066600  0.87582300  0.62604600  1
  Mn  Mn13  1  0.49972600  0.25335300  0.24687900  1
  Mn  Mn14  1  0.50000000  0.00000000  0.50000000  1
  Mn  Mn15  1  0.50027400  0.74664700  0.75312100  1
  O  O16  1  0.21823100  0.67485500  0.05802600  1
  O  O17  1  0.22391100  0.42512200  0.30610800  1
  O  O18  1  0.76498700  0.78717700  0.92194600  1
  O  O19  1  0.76553600  0.52571600  0.18221200  1
  O  O20  1  0.22809400  0.92731700  0.81220500  1
  O  O21  1  0.72376200  0.04829600  0.68273000  1
  O  O22  1  0.22179500  0.17616900  0.55979300  1
  O  O23  1  0.72420500  0.29878300  0.43246100  1
  O  O24  1  0.77190600  0.07268300  0.18779500  1
  O  O25  1  0.77820500  0.82383100  0.44020700  1
  O  O26  1  0.23501300  0.21282300  0.07805400  1
  O  O27  1  0.27623800  0.95170400  0.31727000  1
  O  O28  1  0.78176900  0.32514500  0.94197400  1
  O  O29  1  0.23446400  0.47428400  0.81778800  1
  O  O30  1  0.77608900  0.57487800  0.69389200  1
  O  O31  1  0.27579500  0.70121700  0.56753900  1
