# generated using pymatgen
data_LiMnP2O7
_symmetry_space_group_name_H-M   'P 1'
_cell_length_a   8.37461700
_cell_length_b   7.16960800
_cell_length_c   9.75548989
_cell_angle_alpha   67.53505716
_cell_angle_beta   90.00000000
_cell_angle_gamma   90.00000000
_symmetry_Int_Tables_number   1
_chemical_formula_structural   LiMnP2O7
_chemical_formula_sum   'Li4 Mn4 P8 O28'
_cell_volume   541.29593787
_cell_formula_units_Z   4
loop_
 _symmetry_equiv_pos_site_id
 _symmetry_equiv_pos_as_xyz
  1  'x, y, z'
loop_
 _atom_site_type_symbol
 _atom_site_label
 _atom_site_symmetry_multiplicity
 _atom_site_fract_x
 _atom_site_fract_y
 _atom_site_fract_z
 _atom_site_occupancy
  Li  Li0  1  0.88733100  0.17127200  0.25265700  1
  Li  Li1  1  0.61266900  0.17127200  0.75265700  1
  Li  Li2  1  0.38733100  0.82872800  0.24734300  1
  Li  Li3  1  0.11266900  0.82872800  0.74734300  1
  Mn  Mn4  1  0.50297900  0.23575900  0.25211800  1
  Mn  Mn5  1  0.99702100  0.23575900  0.75211800  1
  Mn  Mn6  1  0.00297900  0.76424100  0.24788200  1
  Mn  Mn7  1  0.49702100  0.76424100  0.74788200  1
  P  P8  1  0.22576600  0.59003200  0.54614200  1
  P  P9  1  0.27423400  0.59003200  0.04614200  1
  P  P10  1  0.80795000  0.82094400  0.94991500  1
  P  P11  1  0.30795000  0.17905600  0.55008500  1
  P  P12  1  0.77423400  0.40996800  0.45385800  1
  P  P13  1  0.72576600  0.40996800  0.95385800  1
  P  P14  1  0.69205000  0.82094400  0.44991500  1
  P  P15  1  0.19205000  0.17905600  0.05008500  1
  O  O16  1  0.33600200  0.40294800  0.55034500  1
  O  O17  1  0.32845800  0.71336400  0.60647700  1
  O  O18  1  0.83600200  0.59705200  0.94965500  1
  O  O19  1  0.42640900  0.51151200  0.13819400  1
  O  O20  1  0.92640900  0.48848800  0.36180600  1
  O  O21  1  0.67154200  0.28663600  0.39352300  1
  O  O22  1  0.16399800  0.40294800  0.05034500  1
  O  O23  1  0.57359100  0.48848800  0.86180600  1
  O  O24  1  0.32504800  0.19393900  0.38965200  1
  O  O25  1  0.69091800  0.28511600  0.11977600  1
  O  O26  1  0.82845800  0.28663600  0.89352300  1
  O  O27  1  0.07359100  0.51151200  0.63819400  1
  O  O28  1  0.35845400  0.10969600  0.11052500  1
  O  O29  1  0.17495200  0.19393900  0.88965200  1
  O  O30  1  0.55615100  0.93833100  0.34544500  1
  O  O31  1  0.80908200  0.28511600  0.61977600  1
  O  O32  1  0.05615100  0.06166900  0.15455500  1
  O  O33  1  0.85845400  0.89030400  0.38947500  1
  O  O34  1  0.67495200  0.80606100  0.61034800  1
  O  O35  1  0.94384900  0.93833100  0.84544500  1
  O  O36  1  0.19091800  0.71488400  0.38022400  1
  O  O37  1  0.44384900  0.06166900  0.65455500  1
  O  O38  1  0.82504800  0.80606100  0.11034800  1
  O  O39  1  0.64154600  0.89030400  0.88947500  1
  O  O40  1  0.66399800  0.59705200  0.44965500  1
  O  O41  1  0.17154200  0.71336400  0.10647700  1
  O  O42  1  0.30908200  0.71488400  0.88022400  1
  O  O43  1  0.14154600  0.10969600  0.61052500  1
