# generated using pymatgen
data_LiTa2CuO6
_symmetry_space_group_name_H-M   'P 1'
_cell_length_a   5.58850162
_cell_length_b   5.58850162
_cell_length_c   5.58850156
_cell_angle_alpha   55.79481994
_cell_angle_beta   55.79481994
_cell_angle_gamma   55.79481389
_symmetry_Int_Tables_number   1
_chemical_formula_structural   LiTa2CuO6
_chemical_formula_sum   'Li1 Ta2 Cu1 O6'
_cell_volume   111.38147793
_cell_formula_units_Z   1
loop_
 _symmetry_equiv_pos_site_id
 _symmetry_equiv_pos_as_xyz
  1  'x, y, z'
loop_
 _atom_site_type_symbol
 _atom_site_label
 _atom_site_symmetry_multiplicity
 _atom_site_fract_x
 _atom_site_fract_y
 _atom_site_fract_z
 _atom_site_occupancy
  Li  Li0  1  0.20824200  0.20824200  0.20824200  1
  Ta  Ta1  1  0.49756500  0.49756500  0.49756500  1
  Ta  Ta2  1  0.99289800  0.99289800  0.99289800  1
  Cu  Cu3  1  0.73471400  0.73471400  0.73471400  1
  O  O4  1  0.13778100  0.36495200  0.76499300  1
  O  O5  1  0.36495200  0.76499300  0.13778100  1
  O  O6  1  0.76499300  0.13778100  0.36495200  1
  O  O7  1  0.62612500  0.25534900  0.87737900  1
  O  O8  1  0.25534900  0.87737900  0.62612500  1
  O  O9  1  0.87737900  0.62612500  0.25534900  1
