# generated using pymatgen
data_Li2MnCrO4
_symmetry_space_group_name_H-M   'P 1'
_cell_length_a   5.84955268
_cell_length_b   6.00950232
_cell_length_c   5.90577809
_cell_angle_alpha   60.73582875
_cell_angle_beta   90.00003248
_cell_angle_gamma   119.12374750
_symmetry_Int_Tables_number   1
_chemical_formula_structural   Li2MnCrO4
_chemical_formula_sum   'Li4 Mn2 Cr2 O8'
_cell_volume   150.30449138
_cell_formula_units_Z   2
loop_
 _symmetry_equiv_pos_site_id
 _symmetry_equiv_pos_as_xyz
  1  'x, y, z'
loop_
 _atom_site_type_symbol
 _atom_site_label
 _atom_site_symmetry_multiplicity
 _atom_site_fract_x
 _atom_site_fract_y
 _atom_site_fract_z
 _atom_site_occupancy
  Li  Li0  1  0.50000000  0.00000000  0.00000100  1
  Li  Li1  1  0.00000000  0.00000000  0.00000100  1
  Li  Li2  1  0.50000000  0.50000000  0.50000100  1
  Li  Li3  1  0.00000000  0.50000000  0.50000100  1
  Mn  Mn4  1  0.00000000  0.49999900  0.00000100  1
  Mn  Mn5  1  0.50000200  0.50000300  0.00000000  1
  Cr  Cr6  1  0.00000000  0.99999800  0.50000300  1
  Cr  Cr7  1  0.49999800  0.99999900  0.49998800  1
  O  O8  1  0.73658500  0.47357500  0.23923000  1
  O  O9  1  0.23698700  0.47357500  0.23923100  1
  O  O10  1  0.26341600  0.52642500  0.76077100  1
  O  O11  1  0.76301300  0.52642500  0.76077100  1
  O  O12  1  0.75548100  0.01096500  0.73074300  1
  O  O13  1  0.25573000  0.01146100  0.73048600  1
  O  O14  1  0.24451900  0.98903500  0.26925800  1
  O  O15  1  0.74427100  0.98853900  0.26951500  1
