# generated using pymatgen
data_Li2MnN2
_symmetry_space_group_name_H-M   'P 1'
_cell_length_a   6.45984987
_cell_length_b   11.81650196
_cell_length_c   4.93085900
_cell_angle_alpha   90.00000037
_cell_angle_beta   87.16193711
_cell_angle_gamma   23.84942930
_symmetry_Int_Tables_number   1
_chemical_formula_structural   Li2MnN2
_chemical_formula_sum   'Li6 Mn3 N6'
_cell_volume   151.04064164
_cell_formula_units_Z   3
loop_
 _symmetry_equiv_pos_site_id
 _symmetry_equiv_pos_as_xyz
  1  'x, y, z'
loop_
 _atom_site_type_symbol
 _atom_site_label
 _atom_site_symmetry_multiplicity
 _atom_site_fract_x
 _atom_site_fract_y
 _atom_site_fract_z
 _atom_site_occupancy
  Li  Li0  1  0.68181826  0.97453514  0.81280459  1
  Li  Li1  1  0.68181826  0.34364660  0.81280459  1
  Li  Li2  1  0.31818174  0.02546486  0.18719541  1
  Li  Li3  1  0.31818174  0.65635340  0.18719541  1
  Li  Li4  1  0.18649613  0.90675244  0.71950555  1
  Li  Li5  1  0.81350387  0.09324756  0.28049445  1
  Mn  Mn6  1  0.00000000  0.50000000  -0.00000000  1
  Mn  Mn7  1  1.00000000  0.40551598  0.50000000  1
  Mn  Mn8  1  0.00000000  0.59448402  0.50000000  1
  N  N9  1  0.61500924  0.83504017  0.79418840  1
  N  N10  1  0.61500924  0.54994959  0.79418840  1
  N  N11  1  0.38499076  0.16495983  0.20581160  1
  N  N12  1  0.38499076  0.45005041  0.20581160  1
  N  N13  1  0.53446401  0.73276750  0.33665960  1
  N  N14  1  0.46553599  0.26723250  0.66334040  1
