# generated using pymatgen
data_Li9Mn2Co5O16
_symmetry_space_group_name_H-M   'P 1'
_cell_length_a   5.91841900
_cell_length_b   7.70448581
_cell_length_c   7.78317738
_cell_angle_alpha   97.46062342
_cell_angle_beta   112.30838967
_cell_angle_gamma   111.88658277
_symmetry_Int_Tables_number   1
_chemical_formula_structural   Li9Mn2Co5O16
_chemical_formula_sum   'Li9 Mn2 Co5 O16'
_cell_volume   289.05234952
_cell_formula_units_Z   1
loop_
 _symmetry_equiv_pos_site_id
 _symmetry_equiv_pos_as_xyz
  1  'x, y, z'
loop_
 _atom_site_type_symbol
 _atom_site_label
 _atom_site_symmetry_multiplicity
 _atom_site_fract_x
 _atom_site_fract_y
 _atom_site_fract_z
 _atom_site_occupancy
  Li  Li0  1  0.50917500  0.37851800  0.12990500  1
  Li  Li1  1  0.48945100  0.87035600  0.61921900  1
  Li  Li2  1  0.50011300  0.74894100  0.24957100  1
  Li  Li3  1  0.49720600  0.25041500  0.74713600  1
  Li  Li4  1  0.50904000  0.12865800  0.38139500  1
  Li  Li5  1  0.49185500  0.62127000  0.86755600  1
  Li  Li6  1  0.50043400  0.49948500  0.50305500  1
  Li  Li7  1  0.49978000  0.00060600  0.00259500  1
  Li  Li8  1  0.00128500  0.49766900  0.49888000  1
  Mn  Mn9  1  0.99582200  0.99892100  0.00060700  1
  Mn  Mn10  1  0.00412200  0.37697800  0.12792600  1
  Co  Co11  1  0.99616100  0.87276000  0.62087100  1
  Co  Co12  1  0.99457300  0.74321500  0.25697600  1
  Co  Co13  1  0.00122600  0.25969000  0.74360600  1
  Co  Co14  1  0.00468400  0.13239200  0.38231500  1
  Co  Co15  1  0.00268200  0.62484800  0.86644200  1
  O  O16  1  0.21625500  0.11679600  0.87460700  1
  O  O17  1  0.23129500  0.60843000  0.35152300  1
  O  O18  1  0.22890000  0.49236700  0.99979800  1
  O  O19  1  0.23103000  0.99604900  0.49157400  1
  O  O20  1  0.21863200  0.87524100  0.11727900  1
  O  O21  1  0.24075200  0.36161900  0.62395000  1
  O  O22  1  0.22440500  0.24066600  0.23017800  1
  O  O23  1  0.22682100  0.75529800  0.75404100  1
  O  O24  1  0.76837000  0.63939100  0.37339100  1
  O  O25  1  0.78165300  0.13505500  0.89713300  1
  O  O26  1  0.76741400  0.00350000  0.50645200  1
  O  O27  1  0.77919800  0.49722400  0.00784300  1
  O  O28  1  0.76598100  0.37401700  0.63897100  1
  O  O29  1  0.77288600  0.88279600  0.12188700  1
  O  O30  1  0.76875800  0.76657600  0.76685900  1
  O  O31  1  0.78004300  0.25025100  0.24645800  1
