# generated using pymatgen
data_BaLi4O3
_symmetry_space_group_name_H-M   'P 1'
_cell_length_a   5.45192661
_cell_length_b   5.45192661
_cell_length_c   13.70745700
_cell_angle_alpha   90.00000000
_cell_angle_beta   90.00000000
_cell_angle_gamma   115.47656686
_symmetry_Int_Tables_number   1
_chemical_formula_structural   BaLi4O3
_chemical_formula_sum   'Ba4 Li16 O12'
_cell_volume   367.81532317
_cell_formula_units_Z   4
loop_
 _symmetry_equiv_pos_site_id
 _symmetry_equiv_pos_as_xyz
  1  'x, y, z'
loop_
 _atom_site_type_symbol
 _atom_site_label
 _atom_site_symmetry_multiplicity
 _atom_site_fract_x
 _atom_site_fract_y
 _atom_site_fract_z
 _atom_site_occupancy
  Ba  Ba0  1  0.97885100  0.02114900  0.65656200  1
  Ba  Ba1  1  0.52114900  0.47885100  0.15656200  1
  Ba  Ba2  1  0.02115000  0.97885000  0.34343800  1
  Ba  Ba3  1  0.47885100  0.52114900  0.84343800  1
  Li  Li4  1  0.16394600  0.83605400  0.82239300  1
  Li  Li5  1  0.33605400  0.66394600  0.32239300  1
  Li  Li6  1  0.79774100  0.20225900  0.84012400  1
  Li  Li7  1  0.70225900  0.29774100  0.34012400  1
  Li  Li8  1  0.80908600  0.54089700  0.50628500  1
  Li  Li9  1  0.04089700  0.30908600  0.00628500  1
  Li  Li10  1  0.95910300  0.69091400  0.99371500  1
  Li  Li11  1  0.19091400  0.45910300  0.49371500  1
  Li  Li12  1  0.54089700  0.80908600  0.49371500  1
  Li  Li13  1  0.30908600  0.04089700  0.99371500  1
  Li  Li14  1  0.69091400  0.95910300  0.00628500  1
  Li  Li15  1  0.45910300  0.19091400  0.50628500  1
  Li  Li16  1  0.66394600  0.33605400  0.67760700  1
  Li  Li17  1  0.83605400  0.16394600  0.17760700  1
  Li  Li18  1  0.29774100  0.70225900  0.65987600  1
  Li  Li19  1  0.20225900  0.79774100  0.15987600  1
  O  O20  1  0.49144400  0.00855600  0.75000000  1
  O  O21  1  0.50855600  0.99144400  0.25000000  1
  O  O22  1  0.31139300  0.68860700  0.00886100  1
  O  O23  1  0.18860700  0.81139300  0.50886100  1
  O  O24  1  0.49531300  0.50468700  0.60097500  1
  O  O25  1  0.00468700  0.99531300  0.10097500  1
  O  O26  1  0.99144400  0.50855600  0.75000000  1
  O  O27  1  0.00855600  0.49144400  0.25000000  1
  O  O28  1  0.81139300  0.18860700  0.49113900  1
  O  O29  1  0.68860700  0.31139300  0.99113900  1
  O  O30  1  0.99531300  0.00468700  0.89902500  1
  O  O31  1  0.50468700  0.49531300  0.39902500  1
