# generated using pymatgen
data_Li9Mn2Co5O16
_symmetry_space_group_name_H-M   'P 1'
_cell_length_a   5.18026800
_cell_length_b   7.72322014
_cell_length_c   7.73671562
_cell_angle_alpha   96.03726390
_cell_angle_beta   104.34318332
_cell_angle_gamma   104.05318193
_symmetry_Int_Tables_number   1
_chemical_formula_structural   Li9Mn2Co5O16
_chemical_formula_sum   'Li9 Mn2 Co5 O16'
_cell_volume   286.37297074
_cell_formula_units_Z   1
loop_
 _symmetry_equiv_pos_site_id
 _symmetry_equiv_pos_as_xyz
  1  'x, y, z'
loop_
 _atom_site_type_symbol
 _atom_site_label
 _atom_site_symmetry_multiplicity
 _atom_site_fract_x
 _atom_site_fract_y
 _atom_site_fract_z
 _atom_site_occupancy
  Li  Li0  1  0.50000000  0.50000000  0.00000000  1
  Li  Li1  1  0.50259800  0.11794800  0.87135800  1
  Li  Li2  1  0.50663100  0.76089300  0.75618600  1
  Li  Li3  1  0.49965900  0.37011600  0.61870800  1
  Li  Li4  1  0.50000000  0.00000000  0.50000000  1
  Li  Li5  1  0.50034100  0.62988400  0.38129200  1
  Li  Li6  1  0.49336900  0.23910700  0.24381400  1
  Li  Li7  1  0.49740200  0.88205200  0.12864200  1
  Li  Li8  1  0.00000000  0.00000000  0.00000000  1
  Mn  Mn9  1  0.99358800  0.62869300  0.87753600  1
  Mn  Mn10  1  0.00641200  0.37130700  0.12246400  1
  Co  Co11  1  0.00206500  0.24884600  0.75049200  1
  Co  Co12  1  0.99178400  0.88258900  0.63032300  1
  Co  Co13  1  0.00000000  0.50000000  0.50000000  1
  Co  Co14  1  0.00821600  0.11741100  0.36967700  1
  Co  Co15  1  0.99793500  0.75115400  0.24950800  1
  O  O16  1  0.23341400  0.61292400  0.10917600  1
  O  O17  1  0.21420100  0.25993500  0.99456500  1
  O  O18  1  0.23374100  0.85632800  0.86820900  1
  O  O19  1  0.19915700  0.49812600  0.74804200  1
  O  O20  1  0.24635100  0.12341700  0.62058500  1
  O  O21  1  0.20159400  0.74035400  0.49521700  1
  O  O22  1  0.24922400  0.37197000  0.35528700  1
  O  O23  1  0.22014300  0.98905500  0.25738100  1
  O  O24  1  0.76658600  0.38707600  0.89082400  1
  O  O25  1  0.77985700  0.01094500  0.74261900  1
  O  O26  1  0.75077600  0.62803000  0.64471300  1
  O  O27  1  0.79840600  0.25964600  0.50478300  1
  O  O28  1  0.75364900  0.87658300  0.37941500  1
  O  O29  1  0.80084300  0.50187400  0.25195800  1
  O  O30  1  0.76625900  0.14367200  0.13179100  1
  O  O31  1  0.78579900  0.74006500  0.00543500  1
