# generated using pymatgen
data_Li9Mn2Co5O16
_symmetry_space_group_name_H-M   'P 1'
_cell_length_a   9.85944839
_cell_length_b   9.85944839
_cell_length_c   10.21547767
_cell_angle_alpha   84.69058443
_cell_angle_beta   84.69058443
_cell_angle_gamma   16.89809388
_symmetry_Int_Tables_number   1
_chemical_formula_structural   Li9Mn2Co5O16
_chemical_formula_sum   'Li9 Mn2 Co5 O16'
_cell_volume   287.37959959
_cell_formula_units_Z   1
loop_
 _symmetry_equiv_pos_site_id
 _symmetry_equiv_pos_as_xyz
  1  'x, y, z'
loop_
 _atom_site_type_symbol
 _atom_site_label
 _atom_site_symmetry_multiplicity
 _atom_site_fract_x
 _atom_site_fract_y
 _atom_site_fract_z
 _atom_site_occupancy
  Li  Li0  1  0.36653500  0.36653500  0.93075200  1
  Li  Li1  1  0.13333400  0.13333400  0.81764900  1
  Li  Li2  1  0.87186100  0.87186100  0.68861200  1
  Li  Li3  1  0.62779600  0.62779600  0.56211600  1
  Li  Li4  1  0.37461200  0.37461200  0.43990300  1
  Li  Li5  1  0.12739400  0.12739400  0.31888200  1
  Li  Li6  1  0.86712400  0.86712400  0.18907500  1
  Li  Li7  1  0.62985900  0.62985900  0.06128400  1
  Li  Li8  1  0.75182900  0.75182900  0.87376700  1
  Mn  Mn9  1  0.99725700  0.99725700  0.99875600  1
  Mn  Mn10  1  0.25240700  0.25240700  0.63225700  1
  Co  Co11  1  0.50150000  0.50150000  0.74301400  1
  Co  Co12  1  0.00270300  0.00270300  0.50245700  1
  Co  Co13  1  0.75065700  0.75065700  0.37002000  1
  Co  Co14  1  0.49900400  0.49900400  0.25330900  1
  Co  Co15  1  0.24500600  0.24500600  0.10647400  1
  O  O16  1  0.44204500  0.44204500  0.07938600  1
  O  O17  1  0.18736100  0.18736100  0.97775800  1
  O  O18  1  0.94524700  0.94524700  0.84745000  1
  O  O19  1  0.69521700  0.69521700  0.70797800  1
  O  O20  1  0.44302400  0.44302400  0.58694900  1
  O  O21  1  0.19623200  0.19623200  0.47196000  1
  O  O22  1  0.94476800  0.94476800  0.33691100  1
  O  O23  1  0.69255700  0.69255700  0.21777300  1
  O  O24  1  0.30886800  0.30886800  0.76675800  1
  O  O25  1  0.06090200  0.06090200  0.66094700  1
  O  O26  1  0.80604300  0.80604300  0.53905500  1
  O  O27  1  0.55983100  0.55983100  0.40985900  1
  O  O28  1  0.30862400  0.30862400  0.28964900  1
  O  O29  1  0.04892500  0.04892500  0.15727200  1
  O  O30  1  0.80675600  0.80675600  0.04011300  1
  O  O31  1  0.55472300  0.55472300  0.92185300  1
