# generated using pymatgen
data_LiMg5
_symmetry_space_group_name_H-M   'P 1'
_cell_length_a   5.94438043
_cell_length_b   5.94438043
_cell_length_c   7.44423153
_cell_angle_alpha   75.97560828
_cell_angle_beta   75.97560828
_cell_angle_gamma   31.56144855
_symmetry_Int_Tables_number   1
_chemical_formula_structural   LiMg5
_chemical_formula_sum   'Li1 Mg5'
_cell_volume   133.24489081
_cell_formula_units_Z   1
loop_
 _symmetry_equiv_pos_site_id
 _symmetry_equiv_pos_as_xyz
  1  'x, y, z'
loop_
 _atom_site_type_symbol
 _atom_site_label
 _atom_site_symmetry_multiplicity
 _atom_site_fract_x
 _atom_site_fract_y
 _atom_site_fract_z
 _atom_site_occupancy
  Li  Li0  1  0.61103700  0.61103700  0.27780400  1
  Mg  Mg1  1  0.00033700  0.00033700  0.00391100  1
  Mg  Mg2  1  0.33222200  0.33222200  0.33319000  1
  Mg  Mg3  1  0.94594200  0.94594200  0.60747600  1
  Mg  Mg4  1  0.66626800  0.66626800  0.66538000  1
  Mg  Mg5  1  0.27752700  0.27752700  0.94557200  1
