# generated using pymatgen
data_Li9Mn2Co5O16
_symmetry_space_group_name_H-M   'P 1'
_cell_length_a   5.93415500
_cell_length_b   7.70033490
_cell_length_c   7.76091088
_cell_angle_alpha   65.14853403
_cell_angle_beta   67.66383619
_cell_angle_gamma   68.39615340
_symmetry_Int_Tables_number   1
_chemical_formula_structural   Li9Mn2Co5O16
_chemical_formula_sum   'Li9 Mn2 Co5 O16'
_cell_volume   288.32382763
_cell_formula_units_Z   1
loop_
 _symmetry_equiv_pos_site_id
 _symmetry_equiv_pos_as_xyz
  1  'x, y, z'
loop_
 _atom_site_type_symbol
 _atom_site_label
 _atom_site_symmetry_multiplicity
 _atom_site_fract_x
 _atom_site_fract_y
 _atom_site_fract_z
 _atom_site_occupancy
  Li  Li0  1  0.37740100  0.62163000  0.13154600  1
  Li  Li1  1  0.24833800  0.25185600  0.25185800  1
  Li  Li2  1  0.61884500  0.37993400  0.86507200  1
  Li  Li3  1  0.50249400  0.99817600  0.99754600  1
  Li  Li4  1  0.87068200  0.13043900  0.62240100  1
  Li  Li5  1  0.75186900  0.74959700  0.74901300  1
  Li  Li6  1  0.13278000  0.86628000  0.38215600  1
  Li  Li7  1  0.99435800  0.50214500  0.50288600  1
  Li  Li8  1  0.49965800  0.49908100  0.49981300  1
  Mn  Mn9  1  0.00101700  0.00063600  0.99845200  1
  Mn  Mn10  1  0.74726800  0.25188200  0.25029000  1
  Co  Co11  1  0.87827900  0.61800700  0.13301000  1
  Co  Co12  1  0.61637500  0.86674800  0.37691300  1
  Co  Co13  1  0.37702000  0.13260000  0.62280100  1
  Co  Co14  1  0.26324800  0.74229100  0.74606400  1
  Co  Co15  1  0.13160200  0.38626000  0.86036500  1
  O  O16  1  0.99333700  0.76406800  0.23451000  1
  O  O17  1  0.86975100  0.37549300  0.35679700  1
  O  O18  1  0.23939300  0.50151800  0.99474600  1
  O  O19  1  0.09728700  0.13387600  0.11462600  1
  O  O20  1  0.48188600  0.24191200  0.74988900  1
  O  O21  1  0.34490500  0.88517900  0.88014300  1
  O  O22  1  0.74217200  0.01434900  0.47897100  1
  O  O23  1  0.60672400  0.64067600  0.63149600  1
  O  O24  1  0.75855100  0.48692900  0.01930100  1
  O  O25  1  0.65647900  0.12240300  0.12479800  1
  O  O26  1  0.00563800  0.23330700  0.76423300  1
  O  O27  1  0.89413800  0.86899700  0.88818300  1
  O  O28  1  0.26263100  0.99636700  0.50907800  1
  O  O29  1  0.11644000  0.61751600  0.64283300  1
  O  O30  1  0.51547300  0.76063200  0.25203600  1
  O  O31  1  0.40396300  0.35921800  0.36816700  1
