# generated using pymatgen
data_Li2CrFe3O8
_symmetry_space_group_name_H-M   'P 1'
_cell_length_a   8.45243116
_cell_length_b   8.42521705
_cell_length_c   8.42732847
_cell_angle_alpha   89.70906414
_cell_angle_beta   90.07012411
_cell_angle_gamma   90.10614999
_symmetry_Int_Tables_number   1
_chemical_formula_structural   Li2CrFe3O8
_chemical_formula_sum   'Li8 Cr4 Fe12 O32'
_cell_volume   600.13091233
_cell_formula_units_Z   4
loop_
 _symmetry_equiv_pos_site_id
 _symmetry_equiv_pos_as_xyz
  1  'x, y, z'
loop_
 _atom_site_type_symbol
 _atom_site_label
 _atom_site_symmetry_multiplicity
 _atom_site_fract_x
 _atom_site_fract_y
 _atom_site_fract_z
 _atom_site_occupancy
  Li  Li0  1  0.00168100  0.99740600  0.99999200  1
  Li  Li1  1  0.24841400  0.25036000  0.25129100  1
  Li  Li2  1  0.24833700  0.75154400  0.75044700  1
  Li  Li3  1  0.50056300  0.99825900  0.49919300  1
  Li  Li4  1  0.50142700  0.50019600  0.99982300  1
  Li  Li5  1  0.74884700  0.25087200  0.75049100  1
  Li  Li6  1  0.74796400  0.74989200  0.25211800  1
  Li  Li7  1  0.00125700  0.50088100  0.49858600  1
  Cr  Cr8  1  0.12463500  0.87250300  0.37594200  1
  Cr  Cr9  1  0.37384200  0.12557000  0.87585600  1
  Cr  Cr10  1  0.62427500  0.62766500  0.62355600  1
  Cr  Cr11  1  0.87596100  0.37538900  0.12535700  1
  Fe  Fe12  1  0.12673600  0.12091600  0.62015700  1
  Fe  Fe13  1  0.12649400  0.37633400  0.87519500  1
  Fe  Fe14  1  0.12541000  0.62896900  0.12817000  1
  Fe  Fe15  1  0.37571800  0.37661100  0.62784200  1
  Fe  Fe16  1  0.37382000  0.62616700  0.37613200  1
  Fe  Fe17  1  0.37277000  0.87404600  0.12367000  1
  Fe  Fe18  1  0.62736000  0.37730900  0.37726800  1
  Fe  Fe19  1  0.62519000  0.12308000  0.12626800  1
  Fe  Fe20  1  0.62106800  0.87311500  0.87152700  1
  Fe  Fe21  1  0.87788700  0.12389900  0.37345800  1
  Fe  Fe22  1  0.87630100  0.87404800  0.62297200  1
  Fe  Fe23  1  0.87386800  0.62489300  0.87550200  1
  O  O24  1  0.11675300  0.11092300  0.38492100  1
  O  O25  1  0.11331000  0.88464300  0.61460600  1
  O  O26  1  0.11546900  0.61191500  0.89294100  1
  O  O27  1  0.15624700  0.13041800  0.87113000  1
  O  O28  1  0.09409400  0.38008300  0.12084200  1
  O  O29  1  0.13549400  0.36030200  0.64056700  1
  O  O30  1  0.13596900  0.63346900  0.36157400  1
  O  O31  1  0.13464300  0.86359500  0.13677900  1
  O  O32  1  0.36883400  0.13545700  0.64695600  1
  O  O33  1  0.36734300  0.35394800  0.87026100  1
  O  O34  1  0.36552100  0.63169000  0.13916600  1
  O  O35  1  0.38781200  0.61623600  0.61212400  1
  O  O36  1  0.36418200  0.85486500  0.36501600  1
  O  O37  1  0.38745900  0.39560200  0.38308200  1
  O  O38  1  0.38343300  0.11813100  0.10363700  1
  O  O39  1  0.38186200  0.89721400  0.88268000  1
  O  O40  1  0.61713800  0.39789500  0.61783700  1
  O  O41  1  0.61468400  0.61821300  0.39485500  1
  O  O42  1  0.61369700  0.88732200  0.10890000  1
  O  O43  1  0.65664400  0.37022800  0.12918600  1
  O  O44  1  0.59450100  0.12045500  0.87982100  1
  O  O45  1  0.63504800  0.14144500  0.36188500  1
  O  O46  1  0.63399300  0.85461200  0.63093600  1
  O  O47  1  0.63276000  0.63228500  0.85319800  1
  O  O48  1  0.86775800  0.36647600  0.35234000  1
  O  O49  1  0.86664100  0.14666700  0.13067500  1
  O  O50  1  0.86110300  0.86736500  0.85533700  1
  O  O51  1  0.88475700  0.88399600  0.39215900  1
  O  O52  1  0.86152600  0.64000800  0.63454000  1
  O  O53  1  0.88547100  0.10791000  0.61710700  1
  O  O54  1  0.88439000  0.38273600  0.89771300  1
  O  O55  1  0.88163500  0.60411200  0.11655900  1
