# generated using pymatgen
data_LiC12
_symmetry_space_group_name_H-M   'P 1'
_cell_length_a   4.29938990
_cell_length_b   4.29938990
_cell_length_c   14.71071800
_cell_angle_alpha   90.00000000
_cell_angle_beta   90.00000000
_cell_angle_gamma   119.97186704
_symmetry_Int_Tables_number   1
_chemical_formula_structural   LiC12
_chemical_formula_sum   'Li2 C24'
_cell_volume   235.55981954
_cell_formula_units_Z   2
loop_
 _symmetry_equiv_pos_site_id
 _symmetry_equiv_pos_as_xyz
  1  'x, y, z'
loop_
 _atom_site_type_symbol
 _atom_site_label
 _atom_site_symmetry_multiplicity
 _atom_site_fract_x
 _atom_site_fract_y
 _atom_site_fract_z
 _atom_site_occupancy
  Li  Li0  1  0.83339700  0.83339700  0.75000000  1
  Li  Li1  1  0.16660300  0.16660300  0.25000000  1
  C  C2  1  0.83297300  0.16643500  0.12189600  1
  C  C3  1  0.83297300  0.16643500  0.37810400  1
  C  C4  1  0.50037800  0.16697300  0.12180900  1
  C  C5  1  0.50037800  0.16697300  0.37819100  1
  C  C6  1  0.83356500  0.16702700  0.62189600  1
  C  C7  1  0.83356500  0.16702700  0.87810400  1
  C  C8  1  0.83302700  0.49962200  0.62180900  1
  C  C9  1  0.83302700  0.49962200  0.87819100  1
  C  C10  1  0.16643500  0.83297300  0.12189600  1
  C  C11  1  0.16643500  0.83297300  0.37810400  1
  C  C12  1  0.83350200  0.83350200  0.12186800  1
  C  C13  1  0.83350200  0.83350200  0.37813200  1
  C  C14  1  0.16702700  0.83356500  0.62189600  1
  C  C15  1  0.16702700  0.83356500  0.87810400  1
  C  C16  1  0.16649800  0.16649800  0.62186800  1
  C  C17  1  0.16649800  0.16649800  0.87813200  1
  C  C18  1  0.49977200  0.49977200  0.12190900  1
  C  C19  1  0.49977200  0.49977200  0.37809100  1
  C  C20  1  0.16697300  0.50037800  0.12180900  1
  C  C21  1  0.16697300  0.50037800  0.37819100  1
  C  C22  1  0.50022800  0.50022800  0.62190900  1
  C  C23  1  0.50022800  0.50022800  0.87809100  1
  C  C24  1  0.49962200  0.83302700  0.62180900  1
  C  C25  1  0.49962200  0.83302700  0.87819100  1
