# generated using pymatgen
data_Li9Mn2Co5O16
_symmetry_space_group_name_H-M   'P 1'
_cell_length_a   11.33505300
_cell_length_b   5.18389500
_cell_length_c   5.21193958
_cell_angle_alpha   67.51091001
_cell_angle_beta   90.00000000
_cell_angle_gamma   90.00000000
_symmetry_Int_Tables_number   1
_chemical_formula_structural   Li9Mn2Co5O16
_chemical_formula_sum   'Li9 Mn2 Co5 O16'
_cell_volume   282.96238949
_cell_formula_units_Z   1
loop_
 _symmetry_equiv_pos_site_id
 _symmetry_equiv_pos_as_xyz
  1  'x, y, z'
loop_
 _atom_site_type_symbol
 _atom_site_label
 _atom_site_symmetry_multiplicity
 _atom_site_fract_x
 _atom_site_fract_y
 _atom_site_fract_z
 _atom_site_occupancy
  Li  Li0  1  0.12474100  0.50000000  0.00000000  1
  Li  Li1  1  0.24716200  0.50000000  0.50000000  1
  Li  Li2  1  0.37516800  0.50000000  0.00000000  1
  Li  Li3  1  0.50344800  0.50000000  0.50000000  1
  Li  Li4  1  0.62539800  0.50000000  0.00000000  1
  Li  Li5  1  0.75297200  0.50000000  0.50000000  1
  Li  Li6  1  0.87304100  0.50000000  0.00000000  1
  Li  Li7  1  0.99628600  0.50000000  0.50000000  1
  Li  Li8  1  0.87450000  0.00000000  0.50000000  1
  Mn  Mn9  1  0.99931200  0.00000000  0.00000000  1
  Mn  Mn10  1  0.37507900  0.00000000  0.50000000  1
  Co  Co11  1  0.12344900  0.00000000  0.50000000  1
  Co  Co12  1  0.24956700  0.00000000  0.00000000  1
  Co  Co13  1  0.50218100  0.00000000  0.00000000  1
  Co  Co14  1  0.62796000  0.00000000  0.50000000  1
  Co  Co15  1  0.74989700  0.00000000  0.00000000  1
  O  O16  1  0.12435900  0.23293900  0.77102200  1
  O  O17  1  0.24842200  0.22885000  0.26871100  1
  O  O18  1  0.37568500  0.23022800  0.78059500  1
  O  O19  1  0.50269000  0.22875000  0.27073400  1
  O  O20  1  0.62710800  0.23069400  0.77744100  1
  O  O21  1  0.74279100  0.20511700  0.23973700  1
  O  O22  1  0.87342800  0.23684600  0.78231300  1
  O  O23  1  0.00543700  0.21121200  0.24314700  1
  O  O24  1  0.12435900  0.76706100  0.22897800  1
  O  O25  1  0.24842200  0.77115000  0.73128900  1
  O  O26  1  0.37568500  0.76977200  0.21940500  1
  O  O27  1  0.50269000  0.77125000  0.72926600  1
  O  O28  1  0.62710800  0.76930600  0.22255900  1
  O  O29  1  0.74279100  0.79488300  0.76026300  1
  O  O30  1  0.87342800  0.76315400  0.21768700  1
  O  O31  1  0.00543700  0.78878800  0.75685300  1
