# generated using pymatgen
data_LiMnF3
_symmetry_space_group_name_H-M   'P 1'
_cell_length_a   3.25814200
_cell_length_b   4.91663000
_cell_length_c   7.67298100
_cell_angle_alpha   90.00000000
_cell_angle_beta   90.00000000
_cell_angle_gamma   90.00000000
_symmetry_Int_Tables_number   1
_chemical_formula_structural   LiMnF3
_chemical_formula_sum   'Li2 Mn2 F6'
_cell_volume   122.91408651
_cell_formula_units_Z   2
loop_
 _symmetry_equiv_pos_site_id
 _symmetry_equiv_pos_as_xyz
  1  'x, y, z'
loop_
 _atom_site_type_symbol
 _atom_site_label
 _atom_site_symmetry_multiplicity
 _atom_site_fract_x
 _atom_site_fract_y
 _atom_site_fract_z
 _atom_site_occupancy
  Li  Li0  1  0.50000000  0.03283500  0.75000000  1
  Li  Li1  1  0.50000000  0.96716600  0.25000000  1
  Mn  Mn2  1  0.00000000  0.50000000  0.00000000  1
  Mn  Mn3  1  0.00000000  0.50000000  0.50000000  1
  F  F4  1  0.50000000  0.24919300  0.42527100  1
  F  F5  1  0.50000000  0.24919300  0.07472900  1
  F  F6  1  0.00000000  0.26436400  0.75000000  1
  F  F7  1  0.00000000  0.73563600  0.25000000  1
  F  F8  1  0.50000000  0.75080700  0.92527100  1
  F  F9  1  0.50000000  0.75080700  0.57472900  1
