# generated using pymatgen
data_Li4MnCo2O7
_symmetry_space_group_name_H-M   'P 1'
_cell_length_a   4.99350800
_cell_length_b   5.06063582
_cell_length_c   10.62187848
_cell_angle_alpha   84.14799067
_cell_angle_beta   80.20619989
_cell_angle_gamma   72.73595018
_symmetry_Int_Tables_number   1
_chemical_formula_structural   Li4MnCo2O7
_chemical_formula_sum   'Li8 Mn2 Co4 O14'
_cell_volume   252.21151628
_cell_formula_units_Z   2
loop_
 _symmetry_equiv_pos_site_id
 _symmetry_equiv_pos_as_xyz
  1  'x, y, z'
loop_
 _atom_site_type_symbol
 _atom_site_label
 _atom_site_symmetry_multiplicity
 _atom_site_fract_x
 _atom_site_fract_y
 _atom_site_fract_z
 _atom_site_occupancy
  Li  Li0  1  0.07587000  0.49869800  0.85098700  1
  Li  Li1  1  0.64717400  0.50181100  0.70614100  1
  Li  Li2  1  0.22690900  0.48786100  0.56723400  1
  Li  Li3  1  0.77758000  0.49620600  0.43761200  1
  Li  Li4  1  0.35320900  0.50262500  0.28588200  1
  Li  Li5  1  0.91805200  0.50874400  0.15043100  1
  Li  Li6  1  0.50389100  0.50101400  0.99986300  1
  Li  Li7  1  0.70807100  0.00261800  0.57199000  1
  Mn  Mn8  1  0.00336400  0.99573100  0.00030300  1
  Mn  Mn9  1  0.58030600  0.99611000  0.85192300  1
  Co  Co10  1  0.14143000  0.00204300  0.70894600  1
  Co  Co11  1  0.27983100  0.00696600  0.43579900  1
  Co  Co12  1  0.85325900  0.00455700  0.28971800  1
  Co  Co13  1  0.43450500  0.99603800  0.14385200  1
  O  O14  1  0.76347600  0.75877900  0.99196900  1
  O  O15  1  0.33496100  0.76966600  0.84385200  1
  O  O16  1  0.87415200  0.79089900  0.72781900  1
  O  O17  1  0.44557600  0.76105300  0.56032900  1
  O  O18  1  0.04730600  0.78349300  0.41817100  1
  O  O19  1  0.61278600  0.77401700  0.27916000  1
  O  O20  1  0.19818000  0.76429700  0.13461000  1
  O  O21  1  0.38646300  0.23002000  0.72475000  1
  O  O22  1  0.97870000  0.23595900  0.57989200  1
  O  O23  1  0.50092000  0.22991300  0.42886400  1
  O  O24  1  0.09019800  0.23265900  0.29221200  1
  O  O25  1  0.67300400  0.22773200  0.15262700  1
  O  O26  1  0.28265600  0.20585700  0.99598200  1
  O  O27  1  0.80817200  0.23463300  0.86907900  1
