# generated using pymatgen
data_Li7V3P8O29
_symmetry_space_group_name_H-M   'P 1'
_cell_length_a   9.83785727
_cell_length_b   9.86905837
_cell_length_c   13.94750286
_cell_angle_alpha   90.68236979
_cell_angle_beta   90.76021792
_cell_angle_gamma   60.24909400
_symmetry_Int_Tables_number   1
_chemical_formula_structural   Li7V3P8O29
_chemical_formula_sum   'Li14 V6 P16 O58'
_cell_volume   1175.55121982
_cell_formula_units_Z   2
loop_
 _symmetry_equiv_pos_site_id
 _symmetry_equiv_pos_as_xyz
  1  'x, y, z'
loop_
 _atom_site_type_symbol
 _atom_site_label
 _atom_site_symmetry_multiplicity
 _atom_site_fract_x
 _atom_site_fract_y
 _atom_site_fract_z
 _atom_site_occupancy
  Li  Li0  1  0.90807300  0.32351500  0.56261900  1
  Li  Li1  1  0.67783700  0.67610700  0.38971500  1
  Li  Li2  1  0.66990700  0.68135300  0.88803800  1
  Li  Li3  1  0.76562800  0.31737600  0.06387900  1
  Li  Li4  1  0.32140200  0.90887400  0.06433400  1
  Li  Li5  1  0.65816600  0.23925300  0.44116300  1
  Li  Li6  1  0.31613800  0.76879200  0.56404900  1
  Li  Li7  1  0.66857400  0.10133600  0.93411500  1
  Li  Li8  1  0.24235700  0.65482200  0.94090700  1
  Li  Li9  1  0.10273400  0.66601600  0.43516600  1
  Li  Li10  1  0.23096900  0.09571000  0.44185000  1
  Li  Li11  1  0.09469900  0.22858000  0.94469800  1
  Li  Li12  1  0.99169700  0.93218800  0.01559800  1
  Li  Li13  1  0.93414300  0.99161300  0.51815900  1
  V  V14  1  0.56284900  0.43593000  0.25010500  1
  V  V15  1  0.43751700  0.56351200  0.74928600  1
  V  V16  1  0.56729900  0.99798700  0.74650100  1
  V  V17  1  0.43814600  0.00052400  0.24869700  1
  V  V18  1  0.99721600  0.56664200  0.24654900  1
  V  V19  1  0.00244600  0.43892400  0.74858400  1
  P  P20  1  0.91619500  0.78100100  0.83743100  1
  P  P21  1  0.78318700  0.91387300  0.33709200  1
  P  P22  1  0.90874800  0.32002200  0.34393000  1
  P  P23  1  0.66441400  0.66153300  0.12893500  1
  P  P24  1  0.66833500  0.66084900  0.62962800  1
  P  P25  1  0.77502300  0.32300200  0.84284400  1
  P  P26  1  0.68843100  0.22663100  0.65866000  1
  P  P27  1  0.31949000  0.90766700  0.84413600  1
  P  P28  1  0.68746300  0.08535300  0.15079500  1
  P  P29  1  0.32295400  0.77254700  0.34410900  1
  P  P30  1  0.22572200  0.68763700  0.15960400  1
  P  P31  1  0.33082100  0.33637200  0.37031200  1
  P  P32  1  0.33310200  0.33669400  0.87067600  1
  P  P33  1  0.08390800  0.68865200  0.65137100  1
  P  P34  1  0.22456600  0.08598400  0.65889800  1
  P  P35  1  0.08349900  0.22761900  0.15883600  1
  O  O36  1  0.01345000  0.77261700  0.55875000  1
  O  O37  1  0.92565400  0.74673400  0.34144000  1
  O  O38  1  0.77530300  0.01748300  0.05873100  1
  O  O39  1  0.75067700  0.92097900  0.84436000  1
  O  O40  1  0.90437200  0.62894600  0.82939000  1
  O  O41  1  0.81088700  0.66471900  0.17405400  1
  O  O42  1  0.89157000  0.48378800  0.33027600  1
  O  O43  1  0.99166500  0.23082300  0.07001600  1
  O  O44  1  0.92194200  0.34106000  0.84743300  1
  O  O45  1  0.67596200  0.80191100  0.66852400  1
  O  O46  1  0.63414100  0.89906700  0.33391100  1
  O  O47  1  0.81269900  0.50806600  0.67370900  1
  O  O48  1  0.66735000  0.65424700  0.02141200  1
  O  O49  1  0.67218800  0.64157800  0.52220700  1
  O  O50  1  0.67409000  0.50774600  0.16930300  1
  O  O51  1  0.48380200  0.88748900  0.83229600  1
  O  O52  1  0.51307800  0.80510000  0.16650000  1
  O  O53  1  0.74384500  0.33788600  0.34572600  1
  O  O54  1  0.79703500  0.21662800  0.75012900  1
  O  O55  1  0.77838100  0.22184400  0.56896300  1
  O  O56  1  0.76038200  0.24240800  0.93001100  1
  O  O57  1  0.62911500  0.48743700  0.82761600  1
  O  O58  1  0.51228500  0.66940600  0.66802100  1
  O  O59  1  0.66503900  0.25181200  0.16364300  1
  O  O60  1  0.48786000  0.62770900  0.32732600  1
  O  O61  1  0.33827800  0.91940800  0.34881600  1
  O  O62  1  0.80219600  0.98306700  0.23725200  1
  O  O63  1  0.78876600  0.01627400  0.41616200  1
  O  O64  1  0.21726400  0.99822800  0.57036400  1
  O  O65  1  0.66710600  0.08595500  0.66242200  1
  O  O66  1  0.53446800  0.38328800  0.66860500  1
  O  O67  1  0.33530000  0.74339800  0.84424300  1
  O  O68  1  0.47881300  0.33976400  0.32575400  1
  O  O69  1  0.38331400  0.53495400  0.16646000  1
  O  O70  1  0.21490500  0.78017200  0.07022100  1
  O  O71  1  0.24429200  0.75397600  0.43112300  1
  O  O72  1  0.21470600  0.79424200  0.25130100  1
  O  O73  1  0.25160300  0.66294500  0.66196500  1
  O  O74  1  0.48285700  0.18794300  0.83919300  1
  O  O75  1  0.53344300  0.08572700  0.16013200  1
  O  O76  1  0.33639800  0.48393800  0.82805900  1
  O  O77  1  0.30678500  0.35896200  0.97624300  1
  O  O78  1  0.34559700  0.33691000  0.47682400  1
  O  O79  1  0.17992900  0.48726700  0.33236300  1
  O  O80  1  0.37336500  0.09508300  0.66870100  1
  O  O81  1  0.32618900  0.19243300  0.32930000  1
  O  O82  1  0.08622500  0.66158500  0.16462300  1
  O  O83  1  0.98534200  0.80219000  0.73805700  1
  O  O84  1  0.02107200  0.77897000  0.91728800  1
  O  O85  1  0.08085900  0.53498900  0.66259800  1
  O  O86  1  0.18624100  0.33566900  0.82083300  1
  O  O87  1  0.09036500  0.37941900  0.17125600  1
  O  O88  1  0.24546000  0.08174100  0.15883100  1
  O  O89  1  0.23516300  0.99949800  0.93304600  1
  O  O90  1  0.21106100  0.99580100  0.75241000  1
  O  O91  1  0.07682900  0.24983000  0.66163700  1
  O  O92  1  0.00189200  0.23875800  0.43279800  1
  O  O93  1  0.99431600  0.21284100  0.25199400  1
