# generated using pymatgen
data_Li5Fe8(BO3)8
_symmetry_space_group_name_H-M   'P 1'
_cell_length_a   5.21135400
_cell_length_b   5.25573875
_cell_length_c   20.26928172
_cell_angle_alpha   90.85428272
_cell_angle_beta   90.11342825
_cell_angle_gamma   119.60163737
_symmetry_Int_Tables_number   1
_chemical_formula_structural   Li5Fe8(BO3)8
_chemical_formula_sum   'Li5 Fe8 B8 O24'
_cell_volume   482.62447533
_cell_formula_units_Z   1
loop_
 _symmetry_equiv_pos_site_id
 _symmetry_equiv_pos_as_xyz
  1  'x, y, z'
loop_
 _atom_site_type_symbol
 _atom_site_label
 _atom_site_symmetry_multiplicity
 _atom_site_fract_x
 _atom_site_fract_y
 _atom_site_fract_z
 _atom_site_occupancy
  Li  Li0  1  0.67434500  0.65054400  0.33068300  1
  Li  Li1  1  0.64883100  0.67508200  0.08367600  1
  Li  Li2  1  0.67373900  0.65107600  0.82914400  1
  Li  Li3  1  0.34035400  0.34930900  0.45807800  1
  Li  Li4  1  0.33327200  0.34396600  0.95392600  1
  Fe  Fe5  1  0.00913700  0.67184000  0.19157700  1
  Fe  Fe6  1  0.99548700  0.67133600  0.69063500  1
  Fe  Fe7  1  0.31486000  0.00628800  0.06625700  1
  Fe  Fe8  1  0.32469800  0.99841700  0.56731200  1
  Fe  Fe9  1  0.67990800  0.00539200  0.44080700  1
  Fe  Fe10  1  0.67951600  0.00752800  0.93988000  1
  Fe  Fe11  1  0.00936600  0.32000600  0.31278900  1
  Fe  Fe12  1  0.00954100  0.31988100  0.81086100  1
  B  B13  1  0.99604700  0.33667300  0.06499100  1
  B  B14  1  0.99891800  0.33922200  0.56472300  1
  B  B15  1  0.66907900  0.00706800  0.18765100  1
  B  B16  1  0.66239300  0.00283100  0.68674300  1
  B  B17  1  0.34275600  0.99941500  0.31334700  1
  B  B18  1  0.34398600  0.99910800  0.81265200  1
  B  B19  1  0.00334000  0.66510900  0.44020600  1
  B  B20  1  0.00415900  0.66879600  0.93852200  1
  O  O21  1  0.90145700  0.27176800  0.20946800  1
  O  O22  1  0.89451200  0.27227800  0.70680500  1
  O  O23  1  0.74225700  0.07339500  0.04995400  1
  O  O24  1  0.97258500  0.57898100  0.08750000  1
  O  O25  1  0.72652400  0.10511100  0.54612700  1
  O  O26  1  0.01081800  0.59889400  0.58626000  1
  O  O27  1  0.39921400  0.98650400  0.17164700  1
  O  O28  1  0.73741600  0.65774000  0.43133100  1
  O  O29  1  0.39577200  0.99100200  0.66707900  1
  O  O30  1  0.73254500  0.65499000  0.93212500  1
  O  O31  1  0.70091200  0.76379100  0.18044300  1
  O  O32  1  0.68709500  0.75772200  0.68666700  1
  O  O33  1  0.35539100  0.26365000  0.31621700  1
  O  O34  1  0.35432300  0.26254000  0.81553700  1
  O  O35  1  0.27157000  0.36332200  0.05662000  1
  O  O36  1  0.58551700  0.97158100  0.33185400  1
  O  O37  1  0.24938900  0.31725600  0.55792200  1
  O  O38  1  0.58760300  0.97309100  0.83094200  1
  O  O39  1  0.02865600  0.42107900  0.42357400  1
  O  O40  1  0.02470700  0.42062000  0.92226900  1
  O  O41  1  0.25225500  0.92043700  0.46438800  1
  O  O42  1  0.25226400  0.92609900  0.95995700  1
  O  O43  1  0.07711000  0.74506000  0.29273300  1
  O  O44  1  0.08071000  0.74473700  0.79109900  1
