# generated using pymatgen
data_Li9Mn2Co5O16
_symmetry_space_group_name_H-M   'P 1'
_cell_length_a   5.01261400
_cell_length_b   7.79858542
_cell_length_c   7.91734239
_cell_angle_alpha   99.32091639
_cell_angle_beta   100.09804168
_cell_angle_gamma   102.46692216
_symmetry_Int_Tables_number   1
_chemical_formula_structural   Li9Mn2Co5O16
_chemical_formula_sum   'Li9 Mn2 Co5 O16'
_cell_volume   291.02187764
_cell_formula_units_Z   1
loop_
 _symmetry_equiv_pos_site_id
 _symmetry_equiv_pos_as_xyz
  1  'x, y, z'
loop_
 _atom_site_type_symbol
 _atom_site_label
 _atom_site_symmetry_multiplicity
 _atom_site_fract_x
 _atom_site_fract_y
 _atom_site_fract_z
 _atom_site_occupancy
  Li  Li0  1  0.50276900  0.74992800  0.75178300  1
  Li  Li1  1  0.99128200  0.37364600  0.11665400  1
  Li  Li2  1  0.50888900  0.00404600  0.50336200  1
  Li  Li3  1  0.00989400  0.88246200  0.62871600  1
  Li  Li4  1  0.49358700  0.49474100  0.99404200  1
  Li  Li5  1  0.00570100  0.12747700  0.38228900  1
  Li  Li6  1  0.99242000  0.61517300  0.87225500  1
  Li  Li7  1  0.49614600  0.25149300  0.24974200  1
  Li  Li8  1  0.00280400  0.25016500  0.75335900  1
  Mn  Mn9  1  0.99807100  0.00021100  0.99766200  1
  Mn  Mn10  1  0.50155600  0.62577400  0.37834100  1
  Co  Co11  1  0.49211900  0.87606100  0.11785900  1
  Co  Co12  1  0.00354200  0.49699600  0.50151300  1
  Co  Co13  1  0.50114400  0.13176700  0.86905700  1
  Co  Co14  1  0.99643100  0.75063200  0.24672200  1
  Co  Co15  1  0.50850200  0.37073000  0.63582900  1
  O  O16  1  0.76121700  0.76583100  0.00685900  1
  O  O17  1  0.24190400  0.39221000  0.37562400  1
  O  O18  1  0.75926400  0.00315200  0.77924200  1
  O  O19  1  0.23887400  0.88421900  0.88207000  1
  O  O20  1  0.75078500  0.51265100  0.26196400  1
  O  O21  1  0.28227500  0.13927200  0.63310800  1
  O  O22  1  0.24728900  0.64434700  0.12234700  1
  O  O23  1  0.72679700  0.26452400  0.50777300  1
  O  O24  1  0.25237800  0.74362600  0.48985800  1
  O  O25  1  0.73472300  0.36817400  0.87212300  1
  O  O26  1  0.22521400  0.99369300  0.22582800  1
  O  O27  1  0.74790700  0.86263500  0.36976900  1
  O  O28  1  0.27284500  0.48811000  0.73082100  1
  O  O29  1  0.74790400  0.10658200  0.12025200  1
  O  O30  1  0.75881500  0.60338900  0.62467100  1
  O  O31  1  0.24695600  0.22627700  0.99850300  1
