# generated using pymatgen
data_LiSO4
_symmetry_space_group_name_H-M   'P 1'
_cell_length_a   5.27427377
_cell_length_b   5.27427377
_cell_length_c   8.85322900
_cell_angle_alpha   90.00000000
_cell_angle_beta   90.00000000
_cell_angle_gamma   119.99999706
_symmetry_Int_Tables_number   1
_chemical_formula_structural   LiSO4
_chemical_formula_sum   'Li2 S2 O8'
_cell_volume   213.28370651
_cell_formula_units_Z   2
loop_
 _symmetry_equiv_pos_site_id
 _symmetry_equiv_pos_as_xyz
  1  'x, y, z'
loop_
 _atom_site_type_symbol
 _atom_site_label
 _atom_site_symmetry_multiplicity
 _atom_site_fract_x
 _atom_site_fract_y
 _atom_site_fract_z
 _atom_site_occupancy
  Li  Li0  1  0.66666700  0.33333300  0.18412600  1
  Li  Li1  1  0.33333300  0.66666700  0.68412600  1
  S  S2  1  0.66666700  0.33333300  0.79345400  1
  S  S3  1  0.33333300  0.66666700  0.29345400  1
  O  O4  1  0.94155500  0.34987200  0.74231500  1
  O  O5  1  0.40831700  0.05844500  0.74231500  1
  O  O6  1  0.05844500  0.65012800  0.24231500  1
  O  O7  1  0.65012800  0.59168300  0.74231500  1
  O  O8  1  0.59168300  0.94155500  0.24231500  1
  O  O9  1  0.34987200  0.40831700  0.24231500  1
  O  O10  1  0.66666700  0.33333300  0.96237300  1
  O  O11  1  0.33333300  0.66666700  0.46237300  1
