# generated using pymatgen
data_Li6MnV3(PO4)6
_symmetry_space_group_name_H-M   'P 1'
_cell_length_a   8.64378500
_cell_length_b   8.64378500
_cell_length_c   12.70958752
_cell_angle_alpha   74.00261231
_cell_angle_beta   74.00261231
_cell_angle_gamma   94.70648134
_symmetry_Int_Tables_number   1
_chemical_formula_structural   Li6MnV3(PO4)6
_chemical_formula_sum   'Li12 Mn2 V6 P12 O48'
_cell_volume   864.55070866
_cell_formula_units_Z   2
loop_
 _symmetry_equiv_pos_site_id
 _symmetry_equiv_pos_as_xyz
  1  'x, y, z'
loop_
 _atom_site_type_symbol
 _atom_site_label
 _atom_site_symmetry_multiplicity
 _atom_site_fract_x
 _atom_site_fract_y
 _atom_site_fract_z
 _atom_site_occupancy
  Li  Li0  1  0.00125200  0.99874800  0.50000000  1
  Li  Li1  1  0.99582900  0.00417100  0.00000000  1
  Li  Li2  1  0.71261300  0.29050500  0.24870100  1
  Li  Li3  1  0.49989900  0.50038800  0.37308700  1
  Li  Li4  1  0.70949500  0.28738700  0.75129900  1
  Li  Li5  1  0.49917000  0.49907900  0.12455800  1
  Li  Li6  1  0.28696500  0.71303500  0.50000000  1
  Li  Li7  1  0.50092100  0.50083000  0.87544200  1
  Li  Li8  1  0.49961200  0.50010100  0.62691300  1
  Li  Li9  1  0.28798600  0.71201400  0.00000000  1
  Li  Li10  1  0.00720900  0.00040300  0.24992800  1
  Li  Li11  1  0.99959700  0.99279100  0.75007200  1
  Mn  Mn12  1  0.62576300  0.94312100  0.69046700  1
  Mn  Mn13  1  0.05687900  0.37423700  0.30953300  1
  V  V14  1  0.94250500  0.62194800  0.44522400  1
  V  V15  1  0.94366100  0.62085300  0.94596200  1
  V  V16  1  0.61970900  0.94229300  0.19425200  1
  V  V17  1  0.37805200  0.05749500  0.55477600  1
  V  V18  1  0.37914700  0.05633900  0.05403800  1
  V  V19  1  0.05770700  0.38029100  0.80574800  1
  P  P20  1  0.71299600  0.28700400  0.50000000  1
  P  P21  1  0.86120200  0.66574300  0.19292600  1
  P  P22  1  0.66195900  0.86275000  0.44420700  1
  P  P23  1  0.71243300  0.28756700  0.00000000  1
  P  P24  1  0.86927700  0.66217200  0.69256500  1
  P  P25  1  0.66080600  0.86230700  0.94108500  1
  P  P26  1  0.33782800  0.13072300  0.30743500  1
  P  P27  1  0.13725000  0.33804100  0.55579300  1
  P  P28  1  0.28438500  0.71114000  0.25003900  1
  P  P29  1  0.33425700  0.13879800  0.80707400  1
  P  P30  1  0.13769300  0.33919400  0.05891500  1
  P  P31  1  0.28886000  0.71561500  0.74996100  1
  O  O32  1  0.99293000  0.65622300  0.57895900  1
  O  O33  1  0.94454500  0.61437900  0.28909900  1
  O  O34  1  0.73661700  0.17097500  0.61042500  1
  O  O35  1  0.98792000  0.66123800  0.08008100  1
  O  O36  1  0.82902500  0.26338300  0.38957500  1
  O  O37  1  0.84421500  0.84372300  0.43191000  1
  O  O38  1  0.73619000  0.46052000  0.51204500  1
  O  O39  1  0.84038600  0.84952200  0.17297700  1
  O  O40  1  0.95336400  0.59851900  0.78865700  1
  O  O41  1  0.73840500  0.17305200  0.10904900  1
  O  O42  1  0.82694800  0.26159500  0.89095100  1
  O  O43  1  0.84367800  0.84282800  0.92710300  1
  O  O44  1  0.70368600  0.54551500  0.22667300  1
  O  O45  1  0.60000400  0.95157600  0.53877400  1
  O  O46  1  0.66235500  0.98693200  0.32942400  1
  O  O47  1  0.53948000  0.26381000  0.48795500  1
  O  O48  1  0.73595800  0.46327200  0.00921000  1
  O  O49  1  0.54464500  0.70384100  0.47832600  1
  O  O50  1  0.85826700  0.84621400  0.67636300  1
  O  O51  1  0.70740300  0.54874900  0.72627000  1
  O  O52  1  0.60131800  0.95162000  0.03465800  1
  O  O53  1  0.45125100  0.29259700  0.27373000  1
  O  O54  1  0.66259000  0.98643000  0.82474500  1
  O  O55  1  0.53672800  0.26404200  0.99079000  1
  O  O56  1  0.46168200  0.73302200  0.25694800  1
  O  O57  1  0.34377700  0.00707000  0.42104100  1
  O  O58  1  0.54303100  0.70356500  0.97600400  1
  O  O59  1  0.40148100  0.04663600  0.21134300  1
  O  O60  1  0.29615900  0.45535500  0.52167400  1
  O  O61  1  0.15627700  0.15578500  0.56809000  1
  O  O62  1  0.45448500  0.29631400  0.77332700  1
  O  O63  1  0.25787400  0.53517700  0.24079100  1
  O  O64  1  0.46482300  0.74212600  0.75920900  1
  O  O65  1  0.33876200  0.01208000  0.91991900  1
  O  O66  1  0.38562100  0.05545500  0.71090100  1
  O  O67  1  0.29643500  0.45696900  0.02399600  1
  O  O68  1  0.15378600  0.14173300  0.32363700  1
  O  O69  1  0.17372400  0.73934900  0.35932100  1
  O  O70  1  0.25899100  0.82644900  0.14104500  1
  O  O71  1  0.04842400  0.39999600  0.46122600  1
  O  O72  1  0.15717200  0.15632200  0.07289700  1
  O  O73  1  0.26697800  0.53831800  0.74305200  1
  O  O74  1  0.15047800  0.15961400  0.82702300  1
  O  O75  1  0.17355100  0.74100900  0.85895500  1
  O  O76  1  0.01357000  0.33741000  0.17525500  1
  O  O77  1  0.26065100  0.82627600  0.64067900  1
  O  O78  1  0.04838000  0.39868200  0.96534200  1
  O  O79  1  0.01306800  0.33764500  0.67057600  1
