# generated using pymatgen
data_Li5Fe3(SbO5)2
_symmetry_space_group_name_H-M   'P 1'
_cell_length_a   5.33157949
_cell_length_b   15.01273164
_cell_length_c   5.41095192
_cell_angle_alpha   86.50673433
_cell_angle_beta   99.72630167
_cell_angle_gamma   92.99842999
_symmetry_Int_Tables_number   1
_chemical_formula_structural   Li5Fe3(SbO5)2
_chemical_formula_sum   'Li10 Fe6 Sb4 O20'
_cell_volume   425.69382462
_cell_formula_units_Z   2
loop_
 _symmetry_equiv_pos_site_id
 _symmetry_equiv_pos_as_xyz
  1  'x, y, z'
loop_
 _atom_site_type_symbol
 _atom_site_label
 _atom_site_symmetry_multiplicity
 _atom_site_fract_x
 _atom_site_fract_y
 _atom_site_fract_z
 _atom_site_occupancy
  Li  Li0  1  0.24989100  0.25436900  0.25451400  1
  Li  Li1  1  0.75208200  0.74763700  0.74699600  1
  Li  Li2  1  0.70090300  0.20752100  0.02445000  1
  Li  Li3  1  0.19558400  0.69998200  0.53043400  1
  Li  Li4  1  0.81833100  0.29992900  0.45859500  1
  Li  Li5  1  0.30371900  0.79808200  0.97107600  1
  Li  Li6  1  0.90829900  0.40074400  0.01654500  1
  Li  Li7  1  0.38970600  0.90506000  0.48886400  1
  Li  Li8  1  0.59567800  0.10726400  0.50729800  1
  Li  Li9  1  0.11225100  0.59047300  0.00783300  1
  Fe  Fe10  1  0.00099700  0.49944200  0.50124000  1
  Fe  Fe11  1  0.95006500  0.94431600  0.74786300  1
  Fe  Fe12  1  0.04880300  0.05384000  0.25127100  1
  Fe  Fe13  1  0.50398200  0.99956800  0.99172800  1
  Fe  Fe14  1  0.45045700  0.44570000  0.25524900  1
  Fe  Fe15  1  0.55479500  0.55611900  0.74892800  1
  Sb  Sb16  1  0.36770800  0.35500400  0.76137400  1
  Sb  Sb17  1  0.85415000  0.84963600  0.25212900  1
  Sb  Sb18  1  0.14184700  0.14749000  0.74785500  1
  Sb  Sb19  1  0.64561500  0.65182100  0.24360200  1
  O  O20  1  0.67524800  0.43623200  0.64335000  1
  O  O21  1  0.15151500  0.91612100  0.13284900  1
  O  O22  1  0.85499300  0.06651400  0.86764600  1
  O  O23  1  0.34970100  0.58665800  0.36696000  1
  O  O24  1  0.23268600  0.47892600  0.87617000  1
  O  O25  1  0.72232500  0.96002200  0.36600200  1
  O  O26  1  0.26403400  0.02830800  0.62735500  1
  O  O27  1  0.77627700  0.54245600  0.12984300  1
  O  O28  1  0.01526700  0.25273500  0.88530300  1
  O  O29  1  0.55358200  0.77237500  0.36049200  1
  O  O30  1  0.43960700  0.20823000  0.62380900  1
  O  O31  1  0.94525000  0.73146500  0.13171000  1
  O  O32  1  0.36265500  0.11378000  0.08699400  1
  O  O33  1  0.86579600  0.62878200  0.58311100  1
  O  O34  1  0.10794500  0.38849800  0.36214800  1
  O  O35  1  0.63459500  0.87625800  0.91162600  1
  O  O36  1  0.57587500  0.33156800  0.13655800  1
  O  O37  1  0.06087300  0.82845300  0.59692400  1
  O  O38  1  0.92569500  0.16372100  0.40498400  1
  O  O39  1  0.44121700  0.67489900  0.89832200  1
