# generated using pymatgen
data_Li4MnCo2O7
_symmetry_space_group_name_H-M   'P 1'
_cell_length_a   5.93342501
_cell_length_b   6.56909318
_cell_length_c   7.78150173
_cell_angle_alpha   115.56903323
_cell_angle_beta   111.91146547
_cell_angle_gamma   76.09761351
_symmetry_Int_Tables_number   1
_chemical_formula_structural   Li4MnCo2O7
_chemical_formula_sum   'Li8 Mn2 Co4 O14'
_cell_volume   252.69411388
_cell_formula_units_Z   2
loop_
 _symmetry_equiv_pos_site_id
 _symmetry_equiv_pos_as_xyz
  1  'x, y, z'
loop_
 _atom_site_type_symbol
 _atom_site_label
 _atom_site_symmetry_multiplicity
 _atom_site_fract_x
 _atom_site_fract_y
 _atom_site_fract_z
 _atom_site_occupancy
  Li  Li0  1  0.21006564  0.43049293  0.13885253  1
  Li  Li1  1  0.92857100  0.85714300  0.28571400  1
  Li  Li2  1  0.64707736  0.28379207  0.43257547  1
  Li  Li3  1  0.35471386  0.71561415  0.56103496  1
  Li  Li4  1  0.06883908  0.14705448  0.71175881  1
  Li  Li5  1  0.78830392  0.56723152  0.85967019  1
  Li  Li6  1  0.50242914  0.99867185  0.01039404  1
  Li  Li7  1  0.42857100  0.85714300  0.28571400  1
  Mn  Mn8  1  0.00098012  0.00067719  0.00017337  1
  Mn  Mn9  1  0.85616288  0.71360881  0.57125563  1
  Co  Co10  1  0.70661818  0.44305064  0.14408617  1
  Co  Co11  1  0.15052482  0.27123436  0.42734183  1
  Co  Co12  1  0.56747103  0.14270625  0.70849667  1
  Co  Co13  1  0.28967197  0.57157975  0.86293233  1
  O  O14  1  0.88873469  0.26643037  0.93218860  1
  O  O15  1  0.60985426  0.69467226  0.07071288  1
  O  O16  1  0.28656723  0.13645804  0.19616939  1
  O  O17  1  0.02686425  0.57182837  0.37314256  1
  O  O18  1  0.74782594  0.99345285  0.51847901  1
  O  O19  1  0.45155829  0.42900312  0.64831272  1
  O  O20  1  0.15247616  0.85452604  0.78575396  1
  O  O21  1  0.57057577  0.57782696  0.37525861  1
  O  O22  1  0.24728774  0.01961374  0.50071512  1
  O  O23  1  0.96840831  0.44785463  0.63923940  1
  O  O24  1  0.70466684  0.85975996  0.78567504  1
  O  O25  1  0.40558471  0.28528288  0.92311628  1
  O  O26  1  0.10931706  0.72083315  0.05294999  1
  O  O27  1  0.83027875  0.14245763  0.19828644  1
