# generated using pymatgen
data_Li2MnVP2(HO5)2
_symmetry_space_group_name_H-M   'P 1'
_cell_length_a   5.41805800
_cell_length_b   7.36922537
_cell_length_c   14.30211483
_cell_angle_alpha   92.80170590
_cell_angle_beta   94.51886708
_cell_angle_gamma   105.43095508
_symmetry_Int_Tables_number   1
_chemical_formula_structural   Li2MnVP2(HO5)2
_chemical_formula_sum   'Li6 Mn3 V3 P6 H6 O30'
_cell_volume   547.29163668
_cell_formula_units_Z   3
loop_
 _symmetry_equiv_pos_site_id
 _symmetry_equiv_pos_as_xyz
  1  'x, y, z'
loop_
 _atom_site_type_symbol
 _atom_site_label
 _atom_site_symmetry_multiplicity
 _atom_site_fract_x
 _atom_site_fract_y
 _atom_site_fract_z
 _atom_site_occupancy
  Li  Li0  1  0.84918900  0.42269600  0.24948700  1
  Li  Li1  1  0.81585900  0.24335700  0.41695900  1
  Li  Li2  1  0.51992800  0.09354300  0.91521600  1
  Li  Li3  1  0.48211000  0.90621100  0.08467800  1
  Li  Li4  1  0.18321800  0.75668000  0.58288300  1
  Li  Li5  1  0.15034600  0.57728500  0.75069400  1
  Mn  Mn6  1  0.66641200  0.16656000  0.66674500  1
  Mn  Mn7  1  0.66710800  0.66667600  0.66634700  1
  Mn  Mn8  1  0.33258400  0.33288600  0.33406200  1
  V  V9  1  0.99998800  0.50017400  0.00003400  1
  V  V10  1  0.00097200  0.00067600  0.99952300  1
  V  V11  1  0.33364800  0.83341300  0.33326900  1
  P  P12  1  0.80732400  0.67201600  0.44048400  1
  P  P13  1  0.85966200  0.99432200  0.22574600  1
  P  P14  1  0.46856600  0.33795800  0.10791700  1
  P  P15  1  0.53119900  0.66275100  0.89232100  1
  P  P16  1  0.14242800  0.00876200  0.77254300  1
  P  P17  1  0.19066700  0.32421200  0.56101900  1
  H  H18  1  0.93669700  0.21773000  0.87811100  1
  H  H19  1  0.72492500  0.45677900  0.78638800  1
  H  H20  1  0.39068100  0.11728600  0.45292100  1
  H  H21  1  0.60830600  0.87631500  0.54670900  1
  H  H22  1  0.27702500  0.54957900  0.21446400  1
  H  H23  1  0.06250900  0.78258800  0.12131500  1
  O  O24  1  0.86468700  0.05162400  0.12335200  1
  O  O25  1  0.94011700  0.17228700  0.29516300  1
  O  O26  1  0.96565000  0.14170700  0.75804700  1
  O  O27  1  0.89962800  0.21746900  0.56623100  1
  O  O28  1  0.89858900  0.22058500  0.94481400  1
  O  O29  1  0.75584600  0.44180100  0.10057800  1
  O  O30  1  0.72593100  0.49437200  0.37093700  1
  O  O31  1  0.80134500  0.61329300  0.54309100  1
  O  O32  1  0.77342200  0.45866400  0.72078800  1
  O  O33  1  0.37752700  0.15870900  0.03749600  1
  O  O34  1  0.46417900  0.27765900  0.21030800  1
  O  O35  1  0.43702300  0.11748300  0.38693500  1
  O  O36  1  0.70368200  0.52844000  0.90844000  1
  O  O37  1  0.62915100  0.80375800  0.42382300  1
  O  O38  1  0.43337900  0.11649100  0.76747100  1
  O  O39  1  0.57255600  0.88398700  0.23141200  1
  O  O40  1  0.36687500  0.19091900  0.57503800  1
  O  O41  1  0.29563400  0.47218800  0.09241300  1
  O  O42  1  0.56010800  0.87443400  0.61224500  1
  O  O43  1  0.53507000  0.72278000  0.78997400  1
  O  O44  1  0.62304400  0.84235900  0.96249000  1
  O  O45  1  0.22948500  0.54897800  0.28033600  1
  O  O46  1  0.19433800  0.38189000  0.45783700  1
  O  O47  1  0.27339500  0.50110000  0.63040800  1
  O  O48  1  0.24412500  0.55872800  0.89992500  1
  O  O49  1  0.10218000  0.78008100  0.05486600  1
  O  O50  1  0.09411800  0.78228200  0.43472600  1
  O  O51  1  0.03812600  0.86255000  0.24253500  1
  O  O52  1  0.06060300  0.83156000  0.70325200  1
  O  O53  1  0.13883300  0.95136700  0.87523500  1
