# generated using pymatgen
data_Li4MnCo2O7
_symmetry_space_group_name_H-M   'P 1'
_cell_length_a   6.59876346
_cell_length_b   6.59876346
_cell_length_c   14.49183513
_cell_angle_alpha   69.00752353
_cell_angle_beta   69.00752353
_cell_angle_gamma   25.54404753
_symmetry_Int_Tables_number   1
_chemical_formula_structural   Li4MnCo2O7
_chemical_formula_sum   'Li8 Mn2 Co4 O14'
_cell_volume   253.07932875
_cell_formula_units_Z   2
loop_
 _symmetry_equiv_pos_site_id
 _symmetry_equiv_pos_as_xyz
  1  'x, y, z'
loop_
 _atom_site_type_symbol
 _atom_site_label
 _atom_site_symmetry_multiplicity
 _atom_site_fract_x
 _atom_site_fract_y
 _atom_site_fract_z
 _atom_site_occupancy
  Li  Li0  1  0.28604000  0.28604000  0.06598200  1
  Li  Li1  1  0.85625900  0.85625900  0.22263200  1
  Li  Li2  1  0.42694800  0.42694800  0.36167400  1
  Li  Li3  1  0.71503000  0.71503000  0.92549100  1
  Li  Li4  1  0.14952900  0.14952900  0.77892800  1
  Li  Li5  1  0.99331000  0.99331000  0.50622400  1
  Li  Li6  1  0.57384900  0.57384900  0.63908000  1
  Li  Li7  1  0.28656200  0.28656200  0.57200500  1
  Mn  Mn8  1  0.99915100  0.99915100  0.99952100  1
  Mn  Mn9  1  0.14390200  0.14390200  0.28754100  1
  Co  Co10  1  0.57193000  0.57193000  0.14302300  1
  Co  Co11  1  0.72413500  0.72413500  0.43852400  1
  Co  Co12  1  0.84925000  0.84925000  0.70631600  1
  Co  Co13  1  0.42530900  0.42530900  0.85069900  1
  O  O14  1  0.43392500  0.43392500  0.09332700  1
  O  O15  1  0.01382800  0.01382800  0.24681300  1
  O  O16  1  0.58209000  0.58209000  0.37983000  1
  O  O17  1  0.86845700  0.86845700  0.96046600  1
  O  O18  1  0.29157500  0.29157500  0.81886100  1
  O  O19  1  0.14532400  0.14532400  0.52590000  1
  O  O20  1  0.72100800  0.72100800  0.68402200  1
  O  O21  1  0.13023800  0.13023800  0.03637700  1
  O  O22  1  0.71039300  0.71039300  0.19224600  1
  O  O23  1  0.27283700  0.27283700  0.32545800  1
  O  O24  1  0.56104100  0.56104100  0.90559400  1
  O  O25  1  0.99092700  0.99092700  0.75805300  1
  O  O26  1  0.85237800  0.85237800  0.45937600  1
  O  O27  1  0.42477600  0.42477600  0.61603600  1
