# generated using pymatgen
data_Li7Mn5O12
_symmetry_space_group_name_H-M   'P 1'
_cell_length_a   6.04120441
_cell_length_b   10.18606386
_cell_length_c   7.81084385
_cell_angle_alpha   82.61215406
_cell_angle_beta   75.80911638
_cell_angle_gamma   103.61798406
_symmetry_Int_Tables_number   1
_chemical_formula_structural   Li7Mn5O12
_chemical_formula_sum   'Li14 Mn10 O24'
_cell_volume   443.94010660
_cell_formula_units_Z   2
loop_
 _symmetry_equiv_pos_site_id
 _symmetry_equiv_pos_as_xyz
  1  'x, y, z'
loop_
 _atom_site_type_symbol
 _atom_site_label
 _atom_site_symmetry_multiplicity
 _atom_site_fract_x
 _atom_site_fract_y
 _atom_site_fract_z
 _atom_site_occupancy
  Li  Li0  1  0.49309600  0.99577200  0.00215200  1
  Li  Li1  1  0.50717000  0.50410700  0.99817200  1
  Li  Li2  1  0.07144800  0.24232600  0.16004700  1
  Li  Li3  1  0.08792100  0.75073500  0.16427200  1
  Li  Li4  1  0.92958400  0.25749500  0.84128900  1
  Li  Li5  1  0.91068700  0.74902900  0.83473300  1
  Li  Li6  1  0.58716400  0.25846200  0.15909300  1
  Li  Li7  1  0.58133600  0.75994700  0.16165300  1
  Li  Li8  1  0.41257200  0.24112200  0.84139800  1
  Li  Li9  1  0.42024800  0.74059500  0.83928900  1
  Li  Li10  1  0.25203600  0.25357100  0.49996500  1
  Li  Li11  1  0.26489100  0.75945000  0.50137000  1
  Li  Li12  1  0.74796700  0.24649000  0.50139500  1
  Li  Li13  1  0.73545600  0.74059800  0.49671700  1
  Mn  Mn14  1  0.00003800  0.49989100  0.99976500  1
  Mn  Mn15  1  0.00062400  0.00012400  0.99963000  1
  Mn  Mn16  1  0.16220200  0.49659400  0.32925600  1
  Mn  Mn17  1  0.17039100  0.99894600  0.32915000  1
  Mn  Mn18  1  0.83576100  0.00235200  0.67036300  1
  Mn  Mn19  1  0.83062000  0.50152400  0.67122400  1
  Mn  Mn20  1  0.65695400  0.49774900  0.32985200  1
  Mn  Mn21  1  0.65921300  0.99826800  0.32681900  1
  Mn  Mn22  1  0.34244700  0.00220000  0.66971600  1
  Mn  Mn23  1  0.34122900  0.50228900  0.67347900  1
  O  O24  1  0.79842200  0.11464600  0.08728200  1
  O  O25  1  0.79508600  0.61194500  0.09433600  1
  O  O26  1  0.20202000  0.38554800  0.91317300  1
  O  O27  1  0.20491600  0.88821600  0.90496400  1
  O  O28  1  0.25400600  0.10777200  0.08552200  1
  O  O29  1  0.25357200  0.60568100  0.08652700  1
  O  O30  1  0.74592400  0.39149000  0.91503100  1
  O  O31  1  0.74611800  0.89444200  0.91273300  1
  O  O32  1  0.96837300  0.11514500  0.42636700  1
  O  O33  1  0.92705600  0.60125900  0.41314200  1
  O  O34  1  0.03191600  0.38506900  0.57383400  1
  O  O35  1  0.07206600  0.89849400  0.58732900  1
  O  O36  1  0.46783900  0.11631600  0.42502800  1
  O  O37  1  0.46477400  0.61532000  0.42153900  1
  O  O38  1  0.53216900  0.38410100  0.57481600  1
  O  O39  1  0.53484100  0.88471100  0.57776600  1
  O  O40  1  0.14132600  0.11780100  0.76167000  1
  O  O41  1  0.13812500  0.61778300  0.76275000  1
  O  O42  1  0.85899900  0.38239000  0.23804400  1
  O  O43  1  0.86214800  0.88250700  0.23752200  1
  O  O44  1  0.60495300  0.10703700  0.73764300  1
  O  O45  1  0.64671900  0.62426100  0.74354800  1
  O  O46  1  0.39421600  0.39246600  0.26254400  1
  O  O47  1  0.35336000  0.87596600  0.25609200  1
