# generated using pymatgen
data_Li9Mn2Co5O16
_symmetry_space_group_name_H-M   'P 1'
_cell_length_a   5.90419400
_cell_length_b   6.45216570
_cell_length_c   7.84112525
_cell_angle_alpha   86.01656165
_cell_angle_beta   75.95128486
_cell_angle_gamma   76.93812394
_symmetry_Int_Tables_number   1
_chemical_formula_structural   Li9Mn2Co5O16
_chemical_formula_sum   'Li9 Mn2 Co5 O16'
_cell_volume   282.24087452
_cell_formula_units_Z   1
loop_
 _symmetry_equiv_pos_site_id
 _symmetry_equiv_pos_as_xyz
  1  'x, y, z'
loop_
 _atom_site_type_symbol
 _atom_site_label
 _atom_site_symmetry_multiplicity
 _atom_site_fract_x
 _atom_site_fract_y
 _atom_site_fract_z
 _atom_site_occupancy
  Li  Li0  1  0.06338200  0.12018300  0.62784300  1
  Li  Li1  1  0.80207400  0.62855400  0.11889600  1
  Li  Li2  1  0.56202400  0.12019700  0.62810000  1
  Li  Li3  1  0.93432800  0.88101400  0.37320000  1
  Li  Li4  1  0.68409900  0.36980800  0.88135500  1
  Li  Li5  1  0.44054200  0.87864600  0.37141900  1
  Li  Li6  1  0.32129600  0.62910500  0.11868200  1
  Li  Li7  1  0.19236000  0.37121300  0.88039100  1
  Li  Li8  1  0.49969300  0.00034300  0.99972100  1
  Mn  Mn9  1  0.99982100  0.00075700  0.00008200  1
  Mn  Mn10  1  0.25020200  0.49917500  0.49998700  1
  Co  Co11  1  0.75071100  0.50071800  0.50034000  1
  Co  Co12  1  0.61732900  0.24909600  0.24285200  1
  Co  Co13  1  0.38188200  0.75283000  0.75739800  1
  Co  Co14  1  0.12880000  0.24862800  0.24727500  1
  Co  Co15  1  0.87406700  0.74941500  0.75363900  1
  O  O16  1  0.27129200  0.04628500  0.81450800  1
  O  O17  1  0.04266200  0.54367100  0.33454700  1
  O  O18  1  0.80416600  0.04059300  0.82414900  1
  O  O19  1  0.14847400  0.79226500  0.56871500  1
  O  O20  1  0.89144100  0.29690500  0.06441000  1
  O  O21  1  0.64655200  0.79127700  0.56696900  1
  O  O22  1  0.52167000  0.54838100  0.31739300  1
  O  O23  1  0.38775500  0.30885700  0.07727500  1
  O  O24  1  0.85199800  0.21272000  0.42986100  1
  O  O25  1  0.60936000  0.68800700  0.91971300  1
  O  O26  1  0.35555100  0.20273600  0.43477100  1
  O  O27  1  0.72845600  0.95439000  0.18596600  1
  O  O28  1  0.45832200  0.45588000  0.66754200  1
  O  O29  1  0.19314100  0.95985500  0.17517100  1
  O  O30  1  0.10736200  0.70554200  0.93738400  1
  O  O31  1  0.97919300  0.45295400  0.68044600  1
