# generated using pymatgen
data_Li10Zn7(PS4)8
_symmetry_space_group_name_H-M   'P 1'
_cell_length_a   9.20507700
_cell_length_b   11.62177234
_cell_length_c   11.63148538
_cell_angle_alpha   90.01986231
_cell_angle_beta   90.03891478
_cell_angle_gamma   90.02754412
_symmetry_Int_Tables_number   1
_chemical_formula_structural   Li10Zn7(PS4)8
_chemical_formula_sum   'Li10 Zn7 P8 S32'
_cell_volume   1244.32776663
_cell_formula_units_Z   1
loop_
 _symmetry_equiv_pos_site_id
 _symmetry_equiv_pos_as_xyz
  1  'x, y, z'
loop_
 _atom_site_type_symbol
 _atom_site_label
 _atom_site_symmetry_multiplicity
 _atom_site_fract_x
 _atom_site_fract_y
 _atom_site_fract_z
 _atom_site_occupancy
  Li  Li0  1  0.75158500  0.99890100  0.24491700  1
  Li  Li1  1  0.49457500  0.00041400  0.99671800  1
  Li  Li2  1  0.49922400  0.00012700  0.50313300  1
  Li  Li3  1  0.00596400  0.25268300  0.24817400  1
  Li  Li4  1  0.00340200  0.74857600  0.24904800  1
  Li  Li5  1  0.49624700  0.50039200  0.99983900  1
  Li  Li6  1  0.49948500  0.49971700  0.50038200  1
  Li  Li7  1  0.99920600  0.24771400  0.75125400  1
  Li  Li8  1  0.00222200  0.75080400  0.75167100  1
  Li  Li9  1  0.00555200  0.99995700  0.99718400  1
  Zn  Zn10  1  0.00736900  0.99899900  0.50269300  1
  Zn  Zn11  1  0.49477000  0.25085100  0.25062500  1
  Zn  Zn12  1  0.49391800  0.74785600  0.24759200  1
  Zn  Zn13  1  0.99893100  0.49922200  0.00020500  1
  Zn  Zn14  1  0.00099600  0.50060900  0.49996400  1
  Zn  Zn15  1  0.49872100  0.24957600  0.75147400  1
  Zn  Zn16  1  0.49887000  0.75204500  0.75090500  1
  P  P17  1  0.75263600  0.25031300  0.99632900  1
  P  P18  1  0.74692500  0.74947300  0.00487900  1
  P  P19  1  0.74754300  0.25001700  0.49887500  1
  P  P20  1  0.75290300  0.75075200  0.49998500  1
  P  P21  1  0.24962100  0.00367800  0.25156400  1
  P  P22  1  0.24939400  0.50010700  0.25032100  1
  P  P23  1  0.25042500  0.99595700  0.74870900  1
  P  P24  1  0.24980900  0.49990000  0.74977200  1
  S  S25  1  0.86574400  0.63981400  0.39498500  1
  S  S26  1  0.86327700  0.36134300  0.10442600  1
  S  S27  1  0.63423600  0.85377600  0.89198500  1
  S  S28  1  0.63511700  0.14606400  0.61037900  1
  S  S29  1  0.86360400  0.14071800  0.89557500  1
  S  S30  1  0.86498000  0.86260600  0.60415400  1
  S  S31  1  0.63548600  0.35441500  0.38703700  1
  S  S32  1  0.62985200  0.64291400  0.11230100  1
  S  S33  1  0.86458300  0.64071800  0.89977600  1
  S  S34  1  0.86661400  0.35906400  0.60155100  1
  S  S35  1  0.62833200  0.35489400  0.89218200  1
  S  S36  1  0.63449400  0.64821000  0.60920000  1
  S  S37  1  0.13342700  0.10459300  0.14422300  1
  S  S38  1  0.13575200  0.89583800  0.36151900  1
  S  S39  1  0.36657800  0.89189900  0.14741000  1
  S  S40  1  0.37173800  0.10943300  0.35763500  1
  S  S41  1  0.13602200  0.60382900  0.13836000  1
  S  S42  1  0.13555700  0.39615500  0.36212900  1
  S  S43  1  0.36996600  0.88885400  0.64266900  1
  S  S44  1  0.36434500  0.11010600  0.85209300  1
  S  S45  1  0.13871200  0.10446200  0.63775400  1
  S  S46  1  0.13758400  0.89393500  0.85673800  1
  S  S47  1  0.36317700  0.38876800  0.14594200  1
  S  S48  1  0.36337200  0.61120000  0.35540900  1
  S  S49  1  0.13447500  0.60422200  0.63872800  1
  S  S50  1  0.13463300  0.39597400  0.86087600  1
  S  S51  1  0.36477400  0.38859100  0.64576400  1
  S  S52  1  0.36491800  0.61149200  0.85321600  1
  S  S53  1  0.87031000  0.13871500  0.39533000  1
  S  S54  1  0.86869700  0.85803300  0.10595200  1
  S  S55  1  0.63005500  0.85376100  0.38836500  1
  S  S56  1  0.62929800  0.14696600  0.11012900  1
