# generated using pymatgen
data_Li4MnCo2O7
_symmetry_space_group_name_H-M   'P 1'
_cell_length_a   5.91705770
_cell_length_b   6.56705440
_cell_length_c   7.73161936
_cell_angle_alpha   115.58486878
_cell_angle_beta   111.81371994
_cell_angle_gamma   75.85784949
_symmetry_Int_Tables_number   1
_chemical_formula_structural   Li4MnCo2O7
_chemical_formula_sum   'Li8 Mn2 Co4 O14'
_cell_volume   250.30677081
_cell_formula_units_Z   2
loop_
 _symmetry_equiv_pos_site_id
 _symmetry_equiv_pos_as_xyz
  1  'x, y, z'
loop_
 _atom_site_type_symbol
 _atom_site_label
 _atom_site_symmetry_multiplicity
 _atom_site_fract_x
 _atom_site_fract_y
 _atom_site_fract_z
 _atom_site_occupancy
  Li  Li0  1  0.20667884  0.42520291  0.13433355  1
  Li  Li1  1  0.92334335  0.85234608  0.28255318  1
  Li  Li2  1  0.64724715  0.29006742  0.42496510  1
  Li  Li3  1  0.35463777  0.71139630  0.56903678  1
  Li  Li4  1  0.07207168  0.14626770  0.71280761  1
  Li  Li5  1  0.78421484  0.56766141  0.86518935  1
  Li  Li6  1  0.50797875  0.00812333  0.00925933  1
  Li  Li7  1  0.71516088  0.42933000  0.14482024  1
  Mn  Mn8  1  0.99773024  0.00359391  0.00108251  1
  Mn  Mn9  1  0.85513408  0.70912379  0.56969016  1
  Co  Co10  1  0.44119189  0.84572254  0.28096811  1
  Co  Co11  1  0.13830806  0.28271650  0.42127672  1
  Co  Co12  1  0.56929599  0.15739311  0.72496958  1
  Co  Co13  1  0.28982609  0.56991573  0.85995750  1
  O  O14  1  0.89213676  0.26039704  0.92512515  1
  O  O15  1  0.59232547  0.72202770  0.07733905  1
  O  O16  1  0.29577044  0.13539392  0.19791052  1
  O  O17  1  0.03209031  0.56942986  0.37724181  1
  O  O18  1  0.74558501  0.98523681  0.50862764  1
  O  O19  1  0.44800374  0.43134555  0.65285378  1
  O  O20  1  0.15623237  0.84235678  0.78548879  1
  O  O21  1  0.55750627  0.58942606  0.37825587  1
  O  O22  1  0.26132960  0.01419246  0.49142631  1
  O  O23  1  0.96068328  0.44408702  0.63625701  1
  O  O24  1  0.70543406  0.86375164  0.79097725  1
  O  O25  1  0.38913579  0.29115147  0.91210708  1
  O  O26  1  0.11975613  0.72064060  0.06189820  1
  O  O27  1  0.84119117  0.13170236  0.20358183  1
