# generated using pymatgen
data_Li9Mn2Co5O16
_symmetry_space_group_name_H-M   'P 1'
_cell_length_a   5.17104100
_cell_length_b   5.90356844
_cell_length_c   10.03357211
_cell_angle_alpha   88.27466332
_cell_angle_beta   100.72885887
_cell_angle_gamma   108.35408471
_symmetry_Int_Tables_number   1
_chemical_formula_structural   Li9Mn2Co5O16
_chemical_formula_sum   'Li9 Mn2 Co5 O16'
_cell_volume   285.50333720
_cell_formula_units_Z   1
loop_
 _symmetry_equiv_pos_site_id
 _symmetry_equiv_pos_as_xyz
  1  'x, y, z'
loop_
 _atom_site_type_symbol
 _atom_site_label
 _atom_site_symmetry_multiplicity
 _atom_site_fract_x
 _atom_site_fract_y
 _atom_site_fract_z
 _atom_site_occupancy
  Li  Li0  1  0.50053100  0.12539600  0.37435200  1
  Li  Li1  1  0.50261100  0.37085100  0.62446200  1
  Li  Li2  1  0.50869000  0.63153600  0.88176700  1
  Li  Li3  1  0.50416800  0.87016900  0.11883100  1
  Li  Li4  1  0.49738900  0.62914900  0.37553800  1
  Li  Li5  1  0.49946900  0.87460400  0.62564800  1
  Li  Li6  1  0.49583200  0.12983100  0.88116900  1
  Li  Li7  1  0.49131000  0.36846400  0.11823300  1
  Li  Li8  1  0.00000000  0.00000000  0.00000000  1
  Mn  Mn9  1  0.00436600  0.24795100  0.24764500  1
  Mn  Mn10  1  0.99563400  0.75204900  0.75235500  1
  Co  Co11  1  0.00000000  0.50000000  0.50000000  1
  Co  Co12  1  0.99183100  0.75304900  0.23849400  1
  Co  Co13  1  0.00000000  0.00000000  0.50000000  1
  Co  Co14  1  0.00816900  0.24695100  0.76150600  1
  Co  Co15  1  0.00000000  0.50000000  0.00000000  1
  O  O16  1  0.76824900  0.95220400  0.30950500  1
  O  O17  1  0.78303700  0.20560500  0.56635700  1
  O  O18  1  0.77143500  0.45187600  0.81500500  1
  O  O19  1  0.75963300  0.68816200  0.07403100  1
  O  O20  1  0.79081100  0.42805800  0.31905200  1
  O  O21  1  0.76554600  0.70678900  0.56906800  1
  O  O22  1  0.77157100  0.92400000  0.80464800  1
  O  O23  1  0.77809200  0.21437500  0.06876200  1
  O  O24  1  0.23445400  0.29321100  0.43093200  1
  O  O25  1  0.20918900  0.57194200  0.68094800  1
  O  O26  1  0.22190800  0.78562500  0.93123800  1
  O  O27  1  0.22842900  0.07600000  0.19535200  1
  O  O28  1  0.21696300  0.79439500  0.43364300  1
  O  O29  1  0.23175100  0.04779600  0.69049500  1
  O  O30  1  0.24036700  0.31183800  0.92596900  1
  O  O31  1  0.22856500  0.54812400  0.18499500  1
