# generated using pymatgen
data_Li6Zn3(PS4)4
_symmetry_space_group_name_H-M   'P 1'
_cell_length_a   9.33523410
_cell_length_b   11.60831412
_cell_length_c   23.14778419
_cell_angle_alpha   89.91307795
_cell_angle_beta   90.05461148
_cell_angle_gamma   90.00801212
_symmetry_Int_Tables_number   1
_chemical_formula_structural   Li6Zn3(PS4)4
_chemical_formula_sum   'Li24 Zn12 P16 S64'
_cell_volume   2508.43636537
_cell_formula_units_Z   4
loop_
 _symmetry_equiv_pos_site_id
 _symmetry_equiv_pos_as_xyz
  1  'x, y, z'
loop_
 _atom_site_type_symbol
 _atom_site_label
 _atom_site_symmetry_multiplicity
 _atom_site_fract_x
 _atom_site_fract_y
 _atom_site_fract_z
 _atom_site_occupancy
  Li  Li0  1  0.74725431  0.99430586  0.87376785  1
  Li  Li1  1  0.25060689  0.75390631  0.74882456  1
  Li  Li2  1  0.24836221  0.24563251  0.74799028  1
  Li  Li3  1  0.24907470  0.74269668  0.99946488  1
  Li  Li4  1  0.50316340  0.49820102  0.25109562  1
  Li  Li5  1  0.50085641  0.99944164  0.25087462  1
  Li  Li6  1  0.50044237  0.49804704  0.49979848  1
  Li  Li7  1  0.50497793  0.00220648  0.49966570  1
  Li  Li8  1  0.00164166  0.74985195  0.37550378  1
  Li  Li9  1  0.00369929  0.25109999  0.37452586  1
  Li  Li10  1  0.51086599  0.50201189  0.74893985  1
  Li  Li11  1  0.50479452  0.00091354  0.74798483  1
  Li  Li12  1  0.99457394  0.75251404  0.62297077  1
  Li  Li13  1  0.99273489  0.24941745  0.62310663  1
  Li  Li14  1  0.50478420  0.49759059  0.99986514  1
  Li  Li15  1  0.49887643  0.00129466  0.00195803  1
  Li  Li16  1  0.99170250  0.74656494  0.87412170  1
  Li  Li17  1  0.00068175  0.25180352  0.87687088  1
  Li  Li18  1  0.99932401  0.74784768  0.12679427  1
  Li  Li19  1  0.99878004  0.25079052  0.12536146  1
  Li  Li20  1  0.50612572  0.24802462  0.62347274  1
  Li  Li21  1  0.50650662  0.74847331  0.87538855  1
  Li  Li22  1  0.99455525  0.99884551  0.74804351  1
  Li  Li23  1  0.99371629  0.49875790  0.99995202  1
  Zn  Zn24  1  0.49939762  0.25186015  0.12468763  1
  Zn  Zn25  1  0.50653836  0.74799874  0.12674383  1
  Zn  Zn26  1  0.50006351  0.25099996  0.37574893  1
  Zn  Zn27  1  0.49883223  0.75016225  0.37529191  1
  Zn  Zn28  1  0.00013217  0.50029635  0.25026895  1
  Zn  Zn29  1  0.99851208  0.00097624  0.25082476  1
  Zn  Zn30  1  0.50501051  0.75177655  0.62370199  1
  Zn  Zn31  1  0.99781823  0.49859160  0.50005537  1
  Zn  Zn32  1  0.99908040  0.00148749  0.49958645  1
  Zn  Zn33  1  0.50112170  0.25143421  0.87586397  1
  Zn  Zn34  1  0.98807138  0.49937529  0.75035931  1
  Zn  Zn35  1  0.99835380  0.00080951  0.00198064  1
  P  P36  1  0.74989566  0.24950731  0.24983703  1
  P  P37  1  0.75042423  0.74996426  0.25035897  1
  P  P38  1  0.75104364  0.24612649  0.49870210  1
  P  P39  1  0.75007410  0.75003068  0.49956273  1
  P  P40  1  0.25010635  0.50013812  0.37499185  1
  P  P41  1  0.25033187  0.99979301  0.37499240  1
  P  P42  1  0.75268291  0.25413165  0.74916232  1
  P  P43  1  0.74650038  0.74650350  0.75183567  1
  P  P44  1  0.24886910  0.50122987  0.62382858  1
  P  P45  1  0.24972207  0.99454981  0.62704526  1
  P  P46  1  0.74643436  0.24767451  0.00189208  1
  P  P47  1  0.75267802  0.75712328  0.99868834  1
  P  P48  1  0.24733698  0.49646885  0.87623934  1
  P  P49  1  0.25224140  0.00403695  0.87316204  1
  P  P50  1  0.25354309  0.50486902  0.12529189  1
  P  P51  1  0.24731463  0.99975118  0.12482175  1
  S  S52  1  0.86410534  0.35350747  0.05178736  1
  S  S53  1  0.86964086  0.86215576  0.05379750  1
  S  S54  1  0.86465330  0.36098644  0.30159085  1
  S  S55  1  0.86540361  0.86083541  0.30228581  1
  S  S56  1  0.37075418  0.61159336  0.17858771  1
  S  S57  1  0.36618132  0.10853236  0.17586814  1
  S  S58  1  0.86318896  0.36047750  0.55086863  1
  S  S59  1  0.86249342  0.86267743  0.55124447  1
  S  S60  1  0.36452740  0.61129782  0.42700746  1
  S  S61  1  0.36454308  0.11104005  0.42687517  1
  S  S62  1  0.86709697  0.36003720  0.80472242  1
  S  S63  1  0.86722036  0.85693019  0.80242613  1
  S  S64  1  0.36861749  0.61203922  0.67720181  1
  S  S65  1  0.36701579  0.10589638  0.67777719  1
  S  S66  1  0.36970644  0.60504730  0.92595995  1
  S  S67  1  0.36923557  0.10909584  0.92709824  1
  S  S68  1  0.63532511  0.64671564  0.30592727  1
  S  S69  1  0.63454755  0.14653706  0.30546926  1
  S  S70  1  0.63720650  0.64503911  0.55550499  1
  S  S71  1  0.63948372  0.14383429  0.55302849  1
  S  S72  1  0.13608080  0.89616369  0.43077430  1
  S  S73  1  0.13600051  0.39668094  0.43086904  1
  S  S74  1  0.63048681  0.64338794  0.80419171  1
  S  S75  1  0.63254986  0.14661601  0.80616030  1
  S  S76  1  0.12844252  0.88983843  0.67940219  1
  S  S77  1  0.12860348  0.39772175  0.68092399  1
  S  S78  1  0.63273214  0.65197473  0.05307206  1
  S  S79  1  0.62860931  0.14263551  0.05557327  1
  S  S80  1  0.12966800  0.89836727  0.92849209  1
  S  S81  1  0.13094388  0.39482789  0.92839508  1
  S  S82  1  0.13355994  0.89632430  0.18030410  1
  S  S83  1  0.13586457  0.40010008  0.17962256  1
  S  S84  1  0.86424228  0.13816025  0.19774239  1
  S  S85  1  0.86273221  0.63797937  0.19811371  1
  S  S86  1  0.87204984  0.14036955  0.44581350  1
  S  S87  1  0.86497434  0.63893543  0.44778089  1
  S  S88  1  0.36346639  0.38844691  0.32286204  1
  S  S89  1  0.36399186  0.88823384  0.32276525  1
  S  S90  1  0.86747176  0.14571582  0.69905542  1
  S  S91  1  0.86990775  0.64356190  0.69838571  1
  S  S92  1  0.36432345  0.39376515  0.57447987  1
  S  S93  1  0.37018419  0.89085701  0.57338807  1
  S  S94  1  0.86529891  0.13631787  0.94811272  1
  S  S95  1  0.86587353  0.64757494  0.94844155  1
  S  S96  1  0.37262743  0.39222609  0.82199656  1
  S  S97  1  0.37150233  0.89470600  0.82293524  1
  S  S98  1  0.36540364  0.39197874  0.07294341  1
  S  S99  1  0.36762384  0.88711452  0.07339740  1
  S  S100  1  0.63578706  0.35364156  0.19384145  1
  S  S101  1  0.63801884  0.85564518  0.19443275  1
  S  S102  1  0.63808456  0.35347832  0.44311914  1
  S  S103  1  0.63495359  0.85357751  0.44384337  1
  S  S104  1  0.13549113  0.60433918  0.31914963  1
  S  S105  1  0.13709785  0.10403154  0.31862643  1
  S  S106  1  0.62692365  0.35304065  0.69838556  1
  S  S107  1  0.63586015  0.85292097  0.69523417  1
  S  S108  1  0.12717038  0.60524643  0.57140682  1
  S  S109  1  0.13348641  0.09919230  0.57199175  1
  S  S110  1  0.63695029  0.35223775  0.94455576  1
  S  S111  1  0.62701305  0.86111275  0.94708728  1
  S  S112  1  0.13190971  0.60282835  0.81913314  1
  S  S113  1  0.12429128  0.10465196  0.82195246  1
  S  S114  1  0.13244055  0.60583111  0.07089758  1
  S  S115  1  0.13812588  0.10546321  0.06844432  1
