# generated using pymatgen
data_Li2FeP2O7
_symmetry_space_group_name_H-M   'P 1'
_cell_length_a   6.54358942
_cell_length_b   10.82319528
_cell_length_c   8.95354107
_cell_angle_alpha   103.79141798
_cell_angle_beta   75.43645352
_cell_angle_gamma   73.93505034
_symmetry_Int_Tables_number   1
_chemical_formula_structural   Li2FeP2O7
_chemical_formula_sum   'Li8 Fe4 P8 O28'
_cell_volume   556.49964140
_cell_formula_units_Z   4
loop_
 _symmetry_equiv_pos_site_id
 _symmetry_equiv_pos_as_xyz
  1  'x, y, z'
loop_
 _atom_site_type_symbol
 _atom_site_label
 _atom_site_symmetry_multiplicity
 _atom_site_fract_x
 _atom_site_fract_y
 _atom_site_fract_z
 _atom_site_occupancy
  Li  Li0  1  0.83489200  0.37697200  0.96041100  1
  Li  Li1  1  0.83386200  0.87737400  0.95888100  1
  Li  Li2  1  0.16627000  0.62239900  0.04111700  1
  Li  Li3  1  0.16452500  0.12298100  0.03996800  1
  Li  Li4  1  0.45718100  0.72155600  0.76060100  1
  Li  Li5  1  0.45930100  0.22130900  0.75902200  1
  Li  Li6  1  0.54039200  0.27890200  0.24078700  1
  Li  Li7  1  0.54292200  0.77822300  0.23943200  1
  Fe  Fe8  1  0.23971800  0.63002800  0.36527100  1
  Fe  Fe9  1  0.75993300  0.87018600  0.63495800  1
  Fe  Fe10  1  0.23851700  0.13049200  0.36579300  1
  Fe  Fe11  1  0.76160800  0.36949000  0.63408100  1
  P  P12  1  0.75231900  0.58159500  0.39763700  1
  P  P13  1  0.75145200  0.08147800  0.39864300  1
  P  P14  1  0.24855000  0.41866500  0.60118400  1
  P  P15  1  0.24783200  0.91851600  0.60242800  1
  P  P16  1  0.82918400  0.62809700  0.87408200  1
  P  P17  1  0.82908000  0.12886000  0.87413300  1
  P  P18  1  0.17104900  0.37112800  0.12573200  1
  P  P19  1  0.17068400  0.87168500  0.12608200  1
  O  O20  1  0.55165900  0.64264000  0.34609000  1
  O  O21  1  0.55266600  0.14108800  0.34464900  1
  O  O22  1  0.44732300  0.35912700  0.65523800  1
  O  O23  1  0.44841000  0.85727200  0.65400400  1
  O  O24  1  0.89130800  0.67589300  0.41380700  1
  O  O25  1  0.88978400  0.17612200  0.41465300  1
  O  O26  1  0.11041500  0.32393700  0.58491500  1
  O  O27  1  0.10857100  0.82441300  0.58613300  1
  O  O28  1  0.72498100  0.74624000  0.81765300  1
  O  O29  1  0.72988900  0.24523600  0.81371600  1
  O  O30  1  0.27024800  0.25448000  0.18580000  1
  O  O31  1  0.27446700  0.75379300  0.18300600  1
  O  O32  1  0.28010600  0.47993700  0.13869300  1
  O  O33  1  0.27803700  0.98126600  0.13920600  1
  O  O34  1  0.72199100  0.51844300  0.86075300  1
  O  O35  1  0.72045700  0.01983900  0.86125900  1
  O  O36  1  0.16019700  0.81474000  0.95518100  1
  O  O37  1  0.16374500  0.31254300  0.95422600  1
  O  O38  1  0.83593400  0.18783300  0.04569600  1
  O  O39  1  0.84000600  0.68466400  0.04494900  1
  O  O40  1  0.31705000  0.45943200  0.45004200  1
  O  O41  1  0.31372800  0.96091900  0.45239300  1
  O  O42  1  0.68665400  0.53930300  0.54780100  1
  O  O43  1  0.68305100  0.04079800  0.54986100  1
  O  O44  1  0.09411700  0.55648500  0.75626800  1
  O  O45  1  0.09592300  0.05480800  0.76051700  1
  O  O46  1  0.90442000  0.44523200  0.23974000  1
  O  O47  1  0.90559100  0.94358200  0.24351000  1
