# generated using pymatgen
data_Li2TiV3O8
_symmetry_space_group_name_H-M   'P 1'
_cell_length_a   5.91867617
_cell_length_b   9.57008075
_cell_length_c   5.96677865
_cell_angle_alpha   90.01697114
_cell_angle_beta   119.89929257
_cell_angle_gamma   89.65929698
_symmetry_Int_Tables_number   1
_chemical_formula_structural   Li2TiV3O8
_chemical_formula_sum   'Li4 Ti2 V6 O16'
_cell_volume   292.98192675
_cell_formula_units_Z   2
loop_
 _symmetry_equiv_pos_site_id
 _symmetry_equiv_pos_as_xyz
  1  'x, y, z'
loop_
 _atom_site_type_symbol
 _atom_site_label
 _atom_site_symmetry_multiplicity
 _atom_site_fract_x
 _atom_site_fract_y
 _atom_site_fract_z
 _atom_site_occupancy
  Li  Li0  1  0.66086400  0.89417500  0.33413400  1
  Li  Li1  1  0.32820300  0.39478200  0.66714900  1
  Li  Li2  1  0.01286900  0.99417000  0.00506900  1
  Li  Li3  1  0.00653300  0.49434200  0.99449200  1
  Ti  Ti4  1  0.68074700  0.49566500  0.34178000  1
  Ti  Ti5  1  0.33360500  0.99635600  0.66397600  1
  V  V6  1  0.82768500  0.21214100  0.16970200  1
  V  V7  1  0.65615900  0.71351300  0.82744100  1
  V  V8  1  0.17425600  0.71106400  0.34244100  1
  V  V9  1  0.82635400  0.21258600  0.65621400  1
  V  V10  1  0.17721500  0.72264000  0.82937900  1
  V  V11  1  0.34861400  0.22240900  0.17346100  1
  O  O12  1  0.83763000  0.59439500  0.16889300  1
  O  O13  1  0.66606900  0.09499700  0.83215000  1
  O  O14  1  0.51475300  0.34244200  0.03834700  1
  O  O15  1  0.46943000  0.84646900  0.96066000  1
  O  O16  1  0.63657800  0.10117300  0.31782700  1
  O  O17  1  0.32730600  0.60260200  0.68768900  1
  O  O18  1  0.01848800  0.30705300  0.00797900  1
  O  O19  1  0.00288700  0.80635300  0.98687600  1
  O  O20  1  0.34057900  0.59822900  0.17271900  1
  O  O21  1  0.16556600  0.09680100  0.82485000  1
  O  O22  1  0.95656000  0.34178400  0.47681400  1
  O  O23  1  0.48031700  0.84169000  0.52505200  1
  O  O24  1  0.51279200  0.34282800  0.47527200  1
  O  O25  1  0.03796000  0.84069900  0.52286300  1
  O  O26  1  0.16572500  0.09388900  0.33759600  1
  O  O27  1  0.83455400  0.59259400  0.65917500  1
