# generated using pymatgen
data_Li3MnV(PO4)3
_symmetry_space_group_name_H-M   'P 1'
_cell_length_a   10.22740220
_cell_length_b   10.22740220
_cell_length_c   10.22740179
_cell_angle_alpha   109.29413827
_cell_angle_beta   109.29413827
_cell_angle_gamma   109.29413680
_symmetry_Int_Tables_number   1
_chemical_formula_structural   Li3MnV(PO4)3
_chemical_formula_sum   'Li12 Mn4 V4 P12 O48'
_cell_volume   828.87519015
_cell_formula_units_Z   4
loop_
 _symmetry_equiv_pos_site_id
 _symmetry_equiv_pos_as_xyz
  1  'x, y, z'
loop_
 _atom_site_type_symbol
 _atom_site_label
 _atom_site_symmetry_multiplicity
 _atom_site_fract_x
 _atom_site_fract_y
 _atom_site_fract_z
 _atom_site_occupancy
  Li  Li0  1  0.62437300  0.87300900  0.24962600  1
  Li  Li1  1  0.37976400  0.25626800  0.12860900  1
  Li  Li2  1  0.75037400  0.37562700  0.12699100  1
  Li  Li3  1  0.87300900  0.24962600  0.62437300  1
  Li  Li4  1  0.25626800  0.12860900  0.37976400  1
  Li  Li5  1  0.12860900  0.37976400  0.25626800  1
  Li  Li6  1  0.87139100  0.62023600  0.74373200  1
  Li  Li7  1  0.74373200  0.87139100  0.62023600  1
  Li  Li8  1  0.12699100  0.75037400  0.37562700  1
  Li  Li9  1  0.24962600  0.62437300  0.87300900  1
  Li  Li10  1  0.62023600  0.74373200  0.87139100  1
  Li  Li11  1  0.37562700  0.12699100  0.75037400  1
  Mn  Mn12  1  0.50000000  0.50000000  0.00000000  1
  Mn  Mn13  1  0.00000000  0.50000000  0.50000000  1
  Mn  Mn14  1  0.50000000  0.50000000  0.50000000  1
  Mn  Mn15  1  0.50000000  0.00000000  0.50000000  1
  V  V16  1  0.50000000  0.00000000  0.00000000  1
  V  V17  1  0.00000000  0.00000000  0.00000000  1
  V  V18  1  0.00000000  0.50000000  0.00000000  1
  V  V19  1  0.00000000  0.00000000  0.50000000  1
  P  P20  1  0.24477500  0.87203800  0.12085400  1
  P  P21  1  0.87914600  0.75522500  0.12796200  1
  P  P22  1  0.62368800  0.24636400  0.37284600  1
  P  P23  1  0.87203800  0.12085400  0.24477500  1
  P  P24  1  0.37284600  0.62368800  0.24636400  1
  P  P25  1  0.75363600  0.62715400  0.37631200  1
  P  P26  1  0.24636400  0.37284600  0.62368800  1
  P  P27  1  0.12796200  0.87914600  0.75522500  1
  P  P28  1  0.62715400  0.37631200  0.75363600  1
  P  P29  1  0.37631200  0.75363600  0.62715400  1
  P  P30  1  0.12085400  0.24477500  0.87203800  1
  P  P31  1  0.75522500  0.12796200  0.87914600  1
  O  O32  1  0.40979200  0.61882500  0.10732000  1
  O  O33  1  0.19941000  0.00334900  0.10809700  1
  O  O34  1  0.10809700  0.19941000  0.00334900  1
  O  O35  1  0.38611300  0.88544000  0.08872600  1
  O  O36  1  0.70839500  0.71620000  0.09126600  1
  O  O37  1  0.70053200  0.98957300  0.10941900  1
  O  O38  1  0.59478000  0.20667100  0.20190600  1
  O  O39  1  0.61882500  0.10732000  0.40979200  1
  O  O40  1  0.49039400  0.28251700  0.37808700  1
  O  O41  1  0.37808700  0.49039400  0.28251700  1
  O  O42  1  0.01042700  0.89058100  0.29946800  1
  O  O43  1  0.89058100  0.29946800  0.01042700  1
  O  O44  1  0.61455200  0.49727600  0.20347000  1
  O  O45  1  0.00334900  0.10809700  0.19941000  1
  O  O46  1  0.88544000  0.08872600  0.38611300  1
  O  O47  1  0.90873400  0.29160500  0.28380000  1
  O  O48  1  0.28380000  0.90873400  0.29160500  1
  O  O49  1  0.91127400  0.61388700  0.11456000  1
  O  O50  1  0.79653000  0.38544800  0.50272400  1
  O  O51  1  0.50272400  0.79653000  0.38544800  1
  O  O52  1  0.71748300  0.62191300  0.50960600  1
  O  O53  1  0.89268000  0.59020800  0.38117500  1
  O  O54  1  0.20667100  0.20190600  0.59478000  1
  O  O55  1  0.20190600  0.59478000  0.20667100  1
  O  O56  1  0.79809400  0.40522000  0.79332900  1
  O  O57  1  0.79332900  0.79809400  0.40522000  1
  O  O58  1  0.10732000  0.40979200  0.61882500  1
  O  O59  1  0.28251700  0.37808700  0.49039400  1
  O  O60  1  0.49727600  0.20347000  0.61455200  1
  O  O61  1  0.20347000  0.61455200  0.49727600  1
  O  O62  1  0.08872600  0.38611300  0.88544000  1
  O  O63  1  0.71620000  0.09126600  0.70839500  1
  O  O64  1  0.09126600  0.70839500  0.71620000  1
  O  O65  1  0.11456000  0.91127400  0.61388700  1
  O  O66  1  0.99665100  0.89190300  0.80059000  1
  O  O67  1  0.38544800  0.50272400  0.79653000  1
  O  O68  1  0.10941900  0.70053200  0.98957300  1
  O  O69  1  0.98957300  0.10941900  0.70053200  1
  O  O70  1  0.62191300  0.50960600  0.71748300  1
  O  O71  1  0.50960600  0.71748300  0.62191300  1
  O  O72  1  0.38117500  0.89268000  0.59020800  1
  O  O73  1  0.40522000  0.79332900  0.79809400  1
  O  O74  1  0.29946800  0.01042700  0.89058100  1
  O  O75  1  0.29160500  0.28380000  0.90873400  1
  O  O76  1  0.61388700  0.11456000  0.91127400  1
  O  O77  1  0.89190300  0.80059000  0.99665100  1
  O  O78  1  0.80059000  0.99665100  0.89190300  1
  O  O79  1  0.59020800  0.38117500  0.89268000  1
