# generated using pymatgen
data_Li8Mn3Fe5(BO3)8
_symmetry_space_group_name_H-M   'P 1'
_cell_length_a   5.22927800
_cell_length_b   5.23047096
_cell_length_c   20.76279881
_cell_angle_alpha   90.88932835
_cell_angle_beta   90.93524973
_cell_angle_gamma   119.74412042
_symmetry_Int_Tables_number   1
_chemical_formula_structural   Li8Mn3Fe5(BO3)8
_chemical_formula_sum   'Li8 Mn3 Fe5 B8 O24'
_cell_volume   492.82692200
_cell_formula_units_Z   1
loop_
 _symmetry_equiv_pos_site_id
 _symmetry_equiv_pos_as_xyz
  1  'x, y, z'
loop_
 _atom_site_type_symbol
 _atom_site_label
 _atom_site_symmetry_multiplicity
 _atom_site_fract_x
 _atom_site_fract_y
 _atom_site_fract_z
 _atom_site_occupancy
  Li  Li0  1  0.67896800  0.65266000  0.33352500  1
  Li  Li1  1  0.64998300  0.67624500  0.08419900  1
  Li  Li2  1  0.67874200  0.65057000  0.83366700  1
  Li  Li3  1  0.65260000  0.67883800  0.58326800  1
  Li  Li4  1  0.34918200  0.33862900  0.20856100  1
  Li  Li5  1  0.33581400  0.34704300  0.45900800  1
  Li  Li6  1  0.34838400  0.33550100  0.70810400  1
  Li  Li7  1  0.33786400  0.34735500  0.95917500  1
  Mn  Mn8  1  0.66928000  0.00261500  0.94165300  1
  Mn  Mn9  1  0.00124600  0.32287500  0.31694800  1
  Mn  Mn10  1  0.00309300  0.32474000  0.81601100  1
  Fe  Fe11  1  0.67192700  0.99789000  0.44209800  1
  Fe  Fe12  1  0.32245500  0.99412000  0.06669100  1
  Fe  Fe13  1  0.31686100  0.99772800  0.56657900  1
  Fe  Fe14  1  0.01175100  0.67285400  0.19108800  1
  Fe  Fe15  1  0.99822400  0.67475000  0.69144300  1
  B  B16  1  0.99915600  0.34272400  0.06352900  1
  B  B17  1  0.99783800  0.33892800  0.56297400  1
  B  B18  1  0.66516400  0.00340500  0.18782700  1
  B  B19  1  0.66779800  0.00719800  0.68726800  1
  B  B20  1  0.34016500  0.99661200  0.31318300  1
  B  B21  1  0.34074700  0.99726100  0.81220300  1
  B  B22  1  0.00646300  0.66860800  0.43862700  1
  B  B23  1  0.00460100  0.66596800  0.93819200  1
  O  O24  1  0.92798400  0.25387500  0.20754600  1
  O  O25  1  0.93230100  0.25411500  0.70721500  1
  O  O26  1  0.74256200  0.07372800  0.04928000  1
  O  O27  1  0.97253100  0.58713300  0.08269400  1
  O  O28  1  0.74344400  0.07112000  0.54791400  1
  O  O29  1  0.97562900  0.58400000  0.58272500  1
  O  O30  1  0.41565200  0.03117100  0.17301800  1
  O  O31  1  0.73186700  0.64849400  0.43233300  1
  O  O32  1  0.41875800  0.03036200  0.67222700  1
  O  O33  1  0.72858300  0.63774400  0.93101200  1
  O  O34  1  0.64619500  0.73209100  0.18135600  1
  O  O35  1  0.64840700  0.73267300  0.68123200  1
  O  O36  1  0.37247100  0.27402200  0.30589500  1
  O  O37  1  0.37314000  0.27411500  0.80520900  1
  O  O38  1  0.27109900  0.36529500  0.05659800  1
  O  O39  1  0.57705200  0.96421600  0.33400400  1
  O  O40  1  0.27318800  0.36307400  0.55654600  1
  O  O41  1  0.57726800  0.96351400  0.83306800  1
  O  O42  1  0.03057400  0.41976900  0.42350900  1
  O  O43  1  0.04052500  0.42367000  0.92269500  1
  O  O44  1  0.25320700  0.93270900  0.45840800  1
  O  O45  1  0.24564400  0.93289100  0.95905200  1
  O  O46  1  0.06709800  0.74810400  0.29760500  1
  O  O47  1  0.06771400  0.74819800  0.79683600  1
