# generated using pymatgen
data_Li9Mn7O16
_symmetry_space_group_name_H-M   'P 1'
_cell_length_a   5.09681800
_cell_length_b   6.48079870
_cell_length_c   9.38756400
_cell_angle_alpha   97.78929020
_cell_angle_beta   99.52807123
_cell_angle_gamma   96.65896014
_symmetry_Int_Tables_number   1
_chemical_formula_structural   Li9Mn7O16
_chemical_formula_sum   'Li9 Mn7 O16'
_cell_volume   299.93102447
_cell_formula_units_Z   1
loop_
 _symmetry_equiv_pos_site_id
 _symmetry_equiv_pos_as_xyz
  1  'x, y, z'
loop_
 _atom_site_type_symbol
 _atom_site_label
 _atom_site_symmetry_multiplicity
 _atom_site_fract_x
 _atom_site_fract_y
 _atom_site_fract_z
 _atom_site_occupancy
  Li  Li0  1  0.74490400  0.93518000  0.05973300  1
  Li  Li1  1  0.73501800  0.43779700  0.58184000  1
  Li  Li2  1  0.26629200  0.80513000  0.17459700  1
  Li  Li3  1  0.25280300  0.31022200  0.69043900  1
  Li  Li4  1  0.74719700  0.68977800  0.30956100  1
  Li  Li5  1  0.73370800  0.19487000  0.82540300  1
  Li  Li6  1  0.25509600  0.06482000  0.94026700  1
  Li  Li7  1  0.26498200  0.56220300  0.41816000  1
  Li  Li8  1  0.50000000  0.50000000  0.00000000  1
  Mn  Mn9  1  0.99754200  0.62555900  0.88597900  1
  Mn  Mn10  1  0.00245800  0.37444100  0.11402100  1
  Mn  Mn11  1  0.00752800  0.12576100  0.37053100  1
  Mn  Mn12  1  0.50000000  0.00000000  0.50000000  1
  Mn  Mn13  1  0.99247200  0.87423900  0.62946900  1
  Mn  Mn14  1  0.50918300  0.25262900  0.23535300  1
  Mn  Mn15  1  0.49081700  0.74737100  0.76464700  1
  O  O16  1  0.85589000  0.88378500  0.84724600  1
  O  O17  1  0.88762700  0.39340000  0.31353600  1
  O  O18  1  0.34432100  0.77177200  0.96719200  1
  O  O19  1  0.36355200  0.26573300  0.47066800  1
  O  O20  1  0.89600600  0.64123800  0.07649800  1
  O  O21  1  0.86212100  0.14031600  0.59155100  1
  O  O22  1  0.35417800  0.01091500  0.72091000  1
  O  O23  1  0.36803800  0.51206600  0.21565600  1
  O  O24  1  0.64582200  0.98908500  0.27909000  1
  O  O25  1  0.63196200  0.48793400  0.78434400  1
  O  O26  1  0.13787900  0.85968400  0.40844900  1
  O  O27  1  0.10399400  0.35876200  0.92350200  1
  O  O28  1  0.63644800  0.73426700  0.52933200  1
  O  O29  1  0.65567900  0.22822800  0.03280800  1
  O  O30  1  0.14411000  0.11621500  0.15275400  1
  O  O31  1  0.11237300  0.60660000  0.68646400  1
