# generated using pymatgen
data_Li9Mn2Co5O16
_symmetry_space_group_name_H-M   'P 1'
_cell_length_a   5.08522300
_cell_length_b   5.90734563
_cell_length_c   10.08280274
_cell_angle_alpha   105.84037955
_cell_angle_beta   101.10355554
_cell_angle_gamma   90.92967759
_symmetry_Int_Tables_number   1
_chemical_formula_structural   Li9Mn2Co5O16
_chemical_formula_sum   'Li9 Mn2 Co5 O16'
_cell_volume   285.17238975
_cell_formula_units_Z   1
loop_
 _symmetry_equiv_pos_site_id
 _symmetry_equiv_pos_as_xyz
  1  'x, y, z'
loop_
 _atom_site_type_symbol
 _atom_site_label
 _atom_site_symmetry_multiplicity
 _atom_site_fract_x
 _atom_site_fract_y
 _atom_site_fract_z
 _atom_site_occupancy
  Li  Li0  1  0.49587900  0.75685400  0.01139300  1
  Li  Li1  1  0.24951900  0.36716400  0.74754500  1
  Li  Li2  1  0.48853500  0.25886100  0.00519100  1
  Li  Li3  1  0.25175400  0.88119100  0.74705900  1
  Li  Li4  1  0.75017700  0.11442100  0.25236500  1
  Li  Li5  1  0.75121000  0.63926000  0.25438700  1
  Li  Li6  1  0.99870700  0.49120500  0.49259400  1
  Li  Li7  1  0.01452500  0.98644300  0.49068600  1
  Li  Li8  1  0.24835200  0.87256800  0.24964700  1
  Mn  Mn9  1  0.99811200  0.00352400  0.00545400  1
  Mn  Mn10  1  0.74820400  0.62855900  0.75003700  1
  Co  Co11  1  0.49272600  0.23554100  0.48823100  1
  Co  Co12  1  0.99858300  0.50941200  0.00457800  1
  Co  Co13  1  0.74366900  0.12627800  0.74557600  1
  Co  Co14  1  0.50622000  0.74320300  0.49626100  1
  Co  Co15  1  0.26052500  0.38166200  0.25390000  1
  O  O16  1  0.34320500  0.07537700  0.12228400  1
  O  O17  1  0.09876100  0.70210500  0.88355200  1
  O  O18  1  0.33936000  0.55155500  0.11593500  1
  O  O19  1  0.09643500  0.17127500  0.87277900  1
  O  O20  1  0.62576500  0.42160200  0.36982400  1
  O  O21  1  0.62354200  0.92937500  0.39058300  1
  O  O22  1  0.85293200  0.80740900  0.63024000  1
  O  O23  1  0.85846200  0.33935400  0.63652300  1
  O  O24  1  0.65045100  0.44916100  0.87193700  1
  O  O25  1  0.39320400  0.07297500  0.63377300  1
  O  O26  1  0.64456300  0.92160000  0.86905200  1
  O  O27  1  0.40546600  0.57133800  0.62369700  1
  O  O28  1  0.87680800  0.82827900  0.11712300  1
  O  O29  1  0.88921800  0.30137800  0.10919000  1
  O  O30  1  0.14794500  0.19353500  0.38383200  1
  O  O31  1  0.15718300  0.66754000  0.37477100  1
