# generated using pymatgen
data_Li2CoNi3O8
_symmetry_space_group_name_H-M   'P 1'
_cell_length_a   8.07811930
_cell_length_b   8.14561361
_cell_length_c   8.03755617
_cell_angle_alpha   90.29988479
_cell_angle_beta   89.29205615
_cell_angle_gamma   90.14250518
_symmetry_Int_Tables_number   1
_chemical_formula_structural   Li2CoNi3O8
_chemical_formula_sum   'Li8 Co4 Ni12 O32'
_cell_volume   528.83198358
_cell_formula_units_Z   4
loop_
 _symmetry_equiv_pos_site_id
 _symmetry_equiv_pos_as_xyz
  1  'x, y, z'
loop_
 _atom_site_type_symbol
 _atom_site_label
 _atom_site_symmetry_multiplicity
 _atom_site_fract_x
 _atom_site_fract_y
 _atom_site_fract_z
 _atom_site_occupancy
  Li  Li0  1  0.99754000  0.00378400  0.99761500  1
  Li  Li1  1  0.25297900  0.24507000  0.25353800  1
  Li  Li2  1  0.24667900  0.74492000  0.74677600  1
  Li  Li3  1  0.49488600  0.00387700  0.49433800  1
  Li  Li4  1  0.50303800  0.50206900  0.00133700  1
  Li  Li5  1  0.75230500  0.24741900  0.75656000  1
  Li  Li6  1  0.75007000  0.74702300  0.24772300  1
  Li  Li7  1  0.00269000  0.50648900  0.50076000  1
  Co  Co8  1  0.12166000  0.87471200  0.37143500  1
  Co  Co9  1  0.37357500  0.12373700  0.87324000  1
  Co  Co10  1  0.62564600  0.62587500  0.62477400  1
  Co  Co11  1  0.88036200  0.37399900  0.13107500  1
  Ni  Ni12  1  0.12397800  0.12577500  0.62610600  1
  Ni  Ni13  1  0.12918000  0.37467400  0.87814100  1
  Ni  Ni14  1  0.12663700  0.62348400  0.12413800  1
  Ni  Ni15  1  0.37927500  0.37388000  0.62887000  1
  Ni  Ni16  1  0.37554300  0.62495500  0.37289000  1
  Ni  Ni17  1  0.36986800  0.87434500  0.11874700  1
  Ni  Ni18  1  0.63015500  0.37434100  0.38013900  1
  Ni  Ni19  1  0.62395100  0.12478200  0.12547900  1
  Ni  Ni20  1  0.61907700  0.87570100  0.87028300  1
  Ni  Ni21  1  0.87550300  0.12675300  0.37815000  1
  Ni  Ni22  1  0.86954300  0.87731200  0.62152400  1
  Ni  Ni23  1  0.87603400  0.62466900  0.87614500  1
  O  O24  1  0.10750200  0.11109200  0.39248700  1
  O  O25  1  0.10076100  0.87795500  0.60943500  1
  O  O26  1  0.12275600  0.60371600  0.89287400  1
  O  O27  1  0.13821500  0.14282900  0.85951800  1
  O  O28  1  0.11821900  0.38998100  0.11340000  1
  O  O29  1  0.14722500  0.37491700  0.64428700  1
  O  O30  1  0.13145300  0.64378000  0.35559300  1
  O  O31  1  0.13641700  0.85702100  0.13138100  1
  O  O32  1  0.36622200  0.14494000  0.63686100  1
  O  O33  1  0.36416400  0.35915600  0.86313200  1
  O  O34  1  0.35874200  0.64262500  0.12998000  1
  O  O35  1  0.39461300  0.60552400  0.61800600  1
  O  O36  1  0.35599700  0.87316300  0.35135400  1
  O  O37  1  0.39816000  0.37603500  0.39554500  1
  O  O38  1  0.37660800  0.10291900  0.10868000  1
  O  O39  1  0.38593000  0.88822200  0.88256600  1
  O  O40  1  0.61448300  0.38849100  0.61660600  1
  O  O41  1  0.62172100  0.60380300  0.39367900  1
  O  O42  1  0.60256000  0.87649900  0.10321500  1
  O  O43  1  0.64635700  0.37260300  0.14767800  1
  O  O44  1  0.60837700  0.10667800  0.88772000  1
  O  O45  1  0.64268400  0.14285000  0.36370200  1
  O  O46  1  0.63367200  0.86247400  0.63442700  1
  O  O47  1  0.62720500  0.64559700  0.85391500  1
  O  O48  1  0.86356500  0.35878400  0.37046000  1
  O  O49  1  0.87174500  0.14309300  0.14603400  1
  O  O50  1  0.85158900  0.87317900  0.85452100  1
  O  O51  1  0.88353700  0.89445700  0.38725700  1
  O  O52  1  0.85428300  0.64764500  0.62532100  1
  O  O53  1  0.88053700  0.10785000  0.61194200  1
  O  O54  1  0.89762400  0.37667100  0.89451500  1
  O  O55  1  0.89690300  0.60595200  0.12426500  1
