# generated using pymatgen
data_CsLi5Mn(P2O7)2
_symmetry_space_group_name_H-M   'P 1'
_cell_length_a   5.17244500
_cell_length_b   12.73003800
_cell_length_c   19.99365700
_cell_angle_alpha   90.00000000
_cell_angle_beta   90.00000000
_cell_angle_gamma   90.00000000
_symmetry_Int_Tables_number   1
_chemical_formula_structural   CsLi5Mn(P2O7)2
_chemical_formula_sum   'Cs4 Li20 Mn4 P16 O56'
_cell_volume   1316.49077055
_cell_formula_units_Z   4
loop_
 _symmetry_equiv_pos_site_id
 _symmetry_equiv_pos_as_xyz
  1  'x, y, z'
loop_
 _atom_site_type_symbol
 _atom_site_label
 _atom_site_symmetry_multiplicity
 _atom_site_fract_x
 _atom_site_fract_y
 _atom_site_fract_z
 _atom_site_occupancy
  Cs  Cs0  1  0.00000000  0.75000000  0.80673100  1
  Cs  Cs1  1  0.50000000  0.25000000  0.69326900  1
  Cs  Cs2  1  0.00000000  0.25000000  0.19326900  1
  Cs  Cs3  1  0.50000000  0.75000000  0.30673100  1
  Li  Li4  1  0.96634300  0.99885400  0.69977500  1
  Li  Li5  1  0.53365700  0.49885400  0.80022500  1
  Li  Li6  1  0.46634300  0.00114600  0.80022500  1
  Li  Li7  1  0.03365700  0.50114600  0.69977500  1
  Li  Li8  1  0.03365700  0.00114600  0.30022500  1
  Li  Li9  1  0.46634300  0.50114600  0.19977500  1
  Li  Li10  1  0.53365700  0.99885400  0.19977500  1
  Li  Li11  1  0.96634300  0.49885400  0.30022500  1
  Li  Li12  1  0.97745800  0.89939500  0.59083300  1
  Li  Li13  1  0.52254200  0.39939500  0.90916700  1
  Li  Li14  1  0.47745800  0.10060500  0.90916700  1
  Li  Li15  1  0.02254200  0.60060500  0.59083300  1
  Li  Li16  1  0.02254200  0.10060500  0.40916700  1
  Li  Li17  1  0.47745800  0.60060500  0.09083300  1
  Li  Li18  1  0.52254200  0.89939500  0.09083300  1
  Li  Li19  1  0.97745800  0.39939500  0.40916700  1
  Li  Li20  1  0.00000000  0.50000000  0.00000000  1
  Li  Li21  1  0.50000000  0.00000000  0.50000000  1
  Li  Li22  1  0.50000000  0.50000000  0.50000000  1
  Li  Li23  1  0.00000000  0.00000000  0.00000000  1
  Mn  Mn24  1  0.00000000  0.75000000  0.02550800  1
  Mn  Mn25  1  0.50000000  0.25000000  0.47449200  1
  Mn  Mn26  1  0.00000000  0.25000000  0.97449200  1
  Mn  Mn27  1  0.50000000  0.75000000  0.52550800  1
  P  P28  1  0.48261200  0.63539300  0.94504900  1
  P  P29  1  0.01738800  0.13539300  0.55495100  1
  P  P30  1  0.98261200  0.36460700  0.55495100  1
  P  P31  1  0.51738800  0.86460700  0.94504900  1
  P  P32  1  0.51738800  0.36460700  0.05495100  1
  P  P33  1  0.98261200  0.86460700  0.44504900  1
  P  P34  1  0.01738800  0.63539300  0.44504900  1
  P  P35  1  0.48261200  0.13539300  0.05495100  1
  P  P36  1  0.48103400  0.86513900  0.67499200  1
  P  P37  1  0.01896600  0.36513900  0.82500800  1
  P  P38  1  0.98103400  0.13486100  0.82500800  1
  P  P39  1  0.51896600  0.63486100  0.67499200  1
  P  P40  1  0.51896600  0.13486100  0.32500800  1
  P  P41  1  0.98103400  0.63486100  0.17499200  1
  P  P42  1  0.01896600  0.86513900  0.17499200  1
  P  P43  1  0.48103400  0.36513900  0.32500800  1
  O  O44  1  0.65874000  0.64220700  0.00749700  1
  O  O45  1  0.84126000  0.14220700  0.49250300  1
  O  O46  1  0.15874000  0.35779300  0.49250300  1
  O  O47  1  0.34126000  0.85779300  0.00749700  1
  O  O48  1  0.34126000  0.35779300  0.99250300  1
  O  O49  1  0.15874000  0.85779300  0.50749700  1
  O  O50  1  0.84126000  0.64220700  0.50749700  1
  O  O51  1  0.65874000  0.14220700  0.99250300  1
  O  O52  1  0.19638700  0.62333500  0.96513000  1
  O  O53  1  0.30361300  0.12333500  0.53487000  1
  O  O54  1  0.69638700  0.37666500  0.53487000  1
  O  O55  1  0.80361300  0.87666500  0.96513000  1
  O  O56  1  0.80361300  0.37666500  0.03487000  1
  O  O57  1  0.69638700  0.87666500  0.46513000  1
  O  O58  1  0.30361300  0.62333500  0.46513000  1
  O  O59  1  0.19638700  0.12333500  0.03487000  1
  O  O60  1  0.19171000  0.88637400  0.66968900  1
  O  O61  1  0.30829000  0.38637400  0.83031100  1
  O  O62  1  0.69171000  0.11362600  0.83031100  1
  O  O63  1  0.80829000  0.61362600  0.66968900  1
  O  O64  1  0.80829000  0.11362600  0.33031100  1
  O  O65  1  0.69171000  0.61362600  0.16968900  1
  O  O66  1  0.30829000  0.88637400  0.16968900  1
  O  O67  1  0.19171000  0.38637400  0.33031100  1
  O  O68  1  0.88300700  0.85471700  0.10671800  1
  O  O69  1  0.61699300  0.35471700  0.39328200  1
  O  O70  1  0.38300700  0.14528300  0.39328200  1
  O  O71  1  0.11699300  0.64528300  0.10671800  1
  O  O72  1  0.11699300  0.14528300  0.89328200  1
  O  O73  1  0.38300700  0.64528300  0.60671800  1
  O  O74  1  0.61699300  0.85471700  0.60671800  1
  O  O75  1  0.88300700  0.35471700  0.89328200  1
  O  O76  1  0.12476900  0.06175800  0.77716800  1
  O  O77  1  0.37523100  0.56175800  0.72283200  1
  O  O78  1  0.62476900  0.93824200  0.72283200  1
  O  O79  1  0.87523100  0.43824200  0.77716800  1
  O  O80  1  0.87523100  0.93824200  0.22283200  1
  O  O81  1  0.62476900  0.43824200  0.27716800  1
  O  O82  1  0.37523100  0.06175800  0.27716800  1
  O  O83  1  0.12476900  0.56175800  0.22283200  1
  O  O84  1  0.50000000  0.75000000  0.90702600  1
  O  O85  1  0.00000000  0.25000000  0.59297400  1
  O  O86  1  0.50000000  0.25000000  0.09297400  1
  O  O87  1  0.00000000  0.75000000  0.40702600  1
  O  O88  1  0.57508400  0.55699000  0.89333600  1
  O  O89  1  0.92491600  0.05699000  0.60666400  1
  O  O90  1  0.07508400  0.44301000  0.60666400  1
  O  O91  1  0.42491600  0.94301000  0.89333600  1
  O  O92  1  0.42491600  0.44301000  0.10666400  1
  O  O93  1  0.07508400  0.94301000  0.39333600  1
  O  O94  1  0.92491600  0.55699000  0.39333600  1
  O  O95  1  0.57508400  0.05699000  0.10666400  1
  O  O96  1  0.50000000  0.75000000  0.71221600  1
  O  O97  1  0.00000000  0.25000000  0.78778400  1
  O  O98  1  0.50000000  0.25000000  0.28778400  1
  O  O99  1  0.00000000  0.75000000  0.21221600  1
