# generated using pymatgen
data_Li4Ga4P4O17F3
_symmetry_space_group_name_H-M   'P 1'
_cell_length_a   6.83389800
_cell_length_b   7.45447484
_cell_length_c   7.64523963
_cell_angle_alpha   116.41460738
_cell_angle_beta   90.82227371
_cell_angle_gamma   90.68762967
_symmetry_Int_Tables_number   1
_chemical_formula_structural   Li4Ga4P4O17F3
_chemical_formula_sum   'Li4 Ga4 P4 O17 F3'
_cell_volume   348.70138311
_cell_formula_units_Z   1
loop_
 _symmetry_equiv_pos_site_id
 _symmetry_equiv_pos_as_xyz
  1  'x, y, z'
loop_
 _atom_site_type_symbol
 _atom_site_label
 _atom_site_symmetry_multiplicity
 _atom_site_fract_x
 _atom_site_fract_y
 _atom_site_fract_z
 _atom_site_occupancy
  Li  Li0  1  0.34592400  0.93765800  0.72195200  1
  Li  Li1  1  0.84430700  0.43329800  0.21899200  1
  Li  Li2  1  0.15649100  0.56526300  0.78196700  1
  Li  Li3  1  0.65503400  0.06785000  0.28118200  1
  Ga  Ga4  1  0.00124200  0.99991400  0.00115600  1
  Ga  Ga5  1  0.49771800  0.50503600  0.49699500  1
  Ga  Ga6  1  0.25468600  0.74783500  0.25346700  1
  Ga  Ga7  1  0.74808700  0.25039000  0.74937800  1
  P  P8  1  0.39614200  0.28238100  0.04261500  1
  P  P9  1  0.89588800  0.78308800  0.54488500  1
  P  P10  1  0.10231200  0.21743700  0.45574600  1
  P  P11  1  0.60546600  0.71597000  0.95538400  1
  O  O12  1  0.26567300  0.10214800  0.02377500  1
  O  O13  1  0.76703400  0.60207200  0.52515500  1
  O  O14  1  0.23363800  0.39723000  0.47649200  1
  O  O15  1  0.73553900  0.89630900  0.97435900  1
  O  O16  1  0.54932800  0.33482400  0.21405900  1
  O  O17  1  0.04827100  0.83935600  0.71762100  1
  O  O18  1  0.94998500  0.16277800  0.28272000  1
  O  O19  1  0.45153200  0.65978800  0.78544300  1
  O  O20  1  0.27413000  0.46236800  0.06586600  1
  O  O21  1  0.77269200  0.96381200  0.56948200  1
  O  O22  1  0.22404600  0.03652500  0.42864700  1
  O  O23  1  0.72705500  0.53518200  0.93139300  1
  O  O24  1  0.50515100  0.19272300  0.84526800  1
  O  O25  1  0.00411100  0.69426700  0.34702300  1
  O  O26  1  0.99340400  0.30588400  0.65312600  1
  O  O27  1  0.49870100  0.80760700  0.15488700  1
  O  O28  1  0.39537500  0.72787600  0.46390500  1
  F  F29  1  0.89988300  0.22858200  0.96354900  1
  F  F30  1  0.10163900  0.77127900  0.03781000  1
  F  F31  1  0.59951500  0.27327100  0.53569700  1
