# generated using pymatgen
data_Li9Mn2Co5O16
_symmetry_space_group_name_H-M   'P 1'
_cell_length_a   10.15436330
_cell_length_b   10.15436330
_cell_length_c   5.12132187
_cell_angle_alpha   79.25084952
_cell_angle_beta   79.25084952
_cell_angle_gamma   33.74233392
_symmetry_Int_Tables_number   1
_chemical_formula_structural   Li9Mn2Co5O16
_chemical_formula_sum   'Li9 Mn2 Co5 O16'
_cell_volume   287.69368860
_cell_formula_units_Z   1
loop_
 _symmetry_equiv_pos_site_id
 _symmetry_equiv_pos_as_xyz
  1  'x, y, z'
loop_
 _atom_site_type_symbol
 _atom_site_label
 _atom_site_symmetry_multiplicity
 _atom_site_fract_x
 _atom_site_fract_y
 _atom_site_fract_z
 _atom_site_occupancy
  Li  Li0  1  0.74212600  0.26066100  0.50639000  1
  Li  Li1  1  0.37851400  0.37851400  0.75262400  1
  Li  Li2  1  0.26066100  0.74212600  0.50639000  1
  Li  Li3  1  0.87862800  0.87862800  0.75406400  1
  Li  Li4  1  0.12478700  0.12478700  0.24985400  1
  Li  Li5  1  0.62418000  0.62418000  0.24270500  1
  Li  Li6  1  0.49886400  0.00394400  0.99943800  1
  Li  Li7  1  0.00394400  0.49886400  0.99943800  1
  Li  Li8  1  0.50145700  0.50145700  0.99974600  1
  Mn  Mn9  1  0.00145000  0.00145000  0.00002700  1
  Mn  Mn10  1  0.25123500  0.25123500  0.49978800  1
  Co  Co11  1  0.62057000  0.14099100  0.24979300  1
  Co  Co12  1  0.86538500  0.38216600  0.75584800  1
  Co  Co13  1  0.14099100  0.62057000  0.24979300  1
  Co  Co14  1  0.75216600  0.75216600  0.49909000  1
  Co  Co15  1  0.38216600  0.86538500  0.75584800  1
  O  O16  1  0.06115500  0.06115500  0.65169800  1
  O  O17  1  0.71130700  0.17194400  0.89312100  1
  O  O18  1  0.57161400  0.57161400  0.62082400  1
  O  O19  1  0.17194400  0.71130700  0.89312100  1
  O  O20  1  0.42689800  0.96022400  0.38786200  1
  O  O21  1  0.96022400  0.42689800  0.38786200  1
  O  O22  1  0.81403900  0.81403900  0.15520500  1
  O  O23  1  0.31306300  0.31306300  0.14932200  1
  O  O24  1  0.43356500  0.43356500  0.37540600  1
  O  O25  1  0.06866900  0.55466100  0.60307600  1
  O  O26  1  0.94077300  0.94077300  0.35090100  1
  O  O27  1  0.55466100  0.06866900  0.60307600  1
  O  O28  1  0.83105200  0.29821800  0.09714900  1
  O  O29  1  0.29821800  0.83105200  0.09714900  1
  O  O30  1  0.18948400  0.18948400  0.84079100  1
  O  O31  1  0.68950100  0.68950100  0.85560000  1
