# generated using pymatgen
data_RbLiMoO5
_symmetry_space_group_name_H-M   'P 1'
_cell_length_a   7.93763600
_cell_length_b   11.06544500
_cell_length_c   12.98107700
_cell_angle_alpha   90.00000000
_cell_angle_beta   90.00000000
_cell_angle_gamma   90.00000000
_symmetry_Int_Tables_number   1
_chemical_formula_structural   RbLiMoO5
_chemical_formula_sum   'Rb8 Li8 Mo8 O40'
_cell_volume   1140.17309680
_cell_formula_units_Z   8
loop_
 _symmetry_equiv_pos_site_id
 _symmetry_equiv_pos_as_xyz
  1  'x, y, z'
loop_
 _atom_site_type_symbol
 _atom_site_label
 _atom_site_symmetry_multiplicity
 _atom_site_fract_x
 _atom_site_fract_y
 _atom_site_fract_z
 _atom_site_occupancy
  Rb  Rb0  1  0.80840000  0.70340200  0.37170700  1
  Rb  Rb1  1  0.30840000  0.29659800  0.12829300  1
  Rb  Rb2  1  0.19160000  0.79659800  0.87170700  1
  Rb  Rb3  1  0.69160000  0.20340200  0.62829300  1
  Rb  Rb4  1  0.19160000  0.29659800  0.62829300  1
  Rb  Rb5  1  0.69160000  0.70340200  0.87170700  1
  Rb  Rb6  1  0.80840000  0.20340200  0.12829300  1
  Rb  Rb7  1  0.30840000  0.79659800  0.37170700  1
  Li  Li8  1  0.98402700  0.41703400  0.32354700  1
  Li  Li9  1  0.48402700  0.58296600  0.17645300  1
  Li  Li10  1  0.01597300  0.08296600  0.82354700  1
  Li  Li11  1  0.51597300  0.91703400  0.67645300  1
  Li  Li12  1  0.01597300  0.58296600  0.67645300  1
  Li  Li13  1  0.51597300  0.41703400  0.82354700  1
  Li  Li14  1  0.98402700  0.91703400  0.17645300  1
  Li  Li15  1  0.48402700  0.08296600  0.32354700  1
  Mo  Mo16  1  0.06277300  0.62325100  0.12593600  1
  Mo  Mo17  1  0.56277400  0.37674900  0.37406400  1
  Mo  Mo18  1  0.93722600  0.87674900  0.62593600  1
  Mo  Mo19  1  0.43722700  0.12325100  0.87406400  1
  Mo  Mo20  1  0.93722600  0.37674900  0.87406400  1
  Mo  Mo21  1  0.43722700  0.62325100  0.62593600  1
  Mo  Mo22  1  0.06277300  0.12325100  0.37406400  1
  Mo  Mo23  1  0.56277400  0.87674900  0.12593600  1
  O  O24  1  0.94133500  0.51190000  0.19784200  1
  O  O25  1  0.44133500  0.48810000  0.30215800  1
  O  O26  1  0.05866500  0.98810000  0.69784200  1
  O  O27  1  0.55866500  0.01190000  0.80215800  1
  O  O28  1  0.05866500  0.48810000  0.80215800  1
  O  O29  1  0.55866500  0.51190000  0.69784200  1
  O  O30  1  0.94133500  0.01190000  0.30215800  1
  O  O31  1  0.44133500  0.98810000  0.19784200  1
  O  O32  1  0.96686600  0.66200000  0.00777600  1
  O  O33  1  0.46686600  0.33800000  0.49222400  1
  O  O34  1  0.03313400  0.83800000  0.50777600  1
  O  O35  1  0.53313400  0.16200000  0.99222400  1
  O  O36  1  0.03313400  0.33800000  0.99222400  1
  O  O37  1  0.53313400  0.66200000  0.50777600  1
  O  O38  1  0.96686600  0.16200000  0.49222400  1
  O  O39  1  0.46686600  0.83800000  0.00777600  1
  O  O40  1  0.07353100  0.75823400  0.20446300  1
  O  O41  1  0.57353100  0.24176600  0.29553700  1
  O  O42  1  0.92646900  0.74176600  0.70446300  1
  O  O43  1  0.42646900  0.25823400  0.79553700  1
  O  O44  1  0.92646900  0.24176600  0.79553700  1
  O  O45  1  0.42646900  0.75823400  0.70446300  1
  O  O46  1  0.07353100  0.25823400  0.29553700  1
  O  O47  1  0.57353100  0.74176600  0.20446300  1
  O  O48  1  0.27375900  0.56727500  0.10285900  1
  O  O49  1  0.77375900  0.43272500  0.39714100  1
  O  O50  1  0.72624100  0.93272500  0.60285900  1
  O  O51  1  0.22624100  0.06727500  0.89714100  1
  O  O52  1  0.72624100  0.43272500  0.89714100  1
  O  O53  1  0.22624100  0.56727500  0.60285900  1
  O  O54  1  0.27375900  0.06727500  0.39714100  1
  O  O55  1  0.77375900  0.93272500  0.10285900  1
  O  O56  1  0.14519700  0.54369900  0.39606600  1
  O  O57  1  0.64519700  0.45630100  0.10393400  1
  O  O58  1  0.85480300  0.95630100  0.89606600  1
  O  O59  1  0.35480300  0.04369900  0.60393400  1
  O  O60  1  0.85480300  0.45630100  0.60393400  1
  O  O61  1  0.35480300  0.54369900  0.89606600  1
  O  O62  1  0.14519700  0.04369900  0.10393400  1
  O  O63  1  0.64519700  0.95630100  0.39606600  1
