# generated using pymatgen
data_Li3Cr5O8
_symmetry_space_group_name_H-M   'P 1'
_cell_length_a   6.11324058
_cell_length_b   10.68219375
_cell_length_c   5.98739449
_cell_angle_alpha   87.23604855
_cell_angle_beta   59.96407574
_cell_angle_gamma   105.87007286
_symmetry_Int_Tables_number   1
_chemical_formula_structural   Li3Cr5O8
_chemical_formula_sum   'Li6 Cr10 O16'
_cell_volume   317.44071553
_cell_formula_units_Z   2
loop_
 _symmetry_equiv_pos_site_id
 _symmetry_equiv_pos_as_xyz
  1  'x, y, z'
loop_
 _atom_site_type_symbol
 _atom_site_label
 _atom_site_symmetry_multiplicity
 _atom_site_fract_x
 _atom_site_fract_y
 _atom_site_fract_z
 _atom_site_occupancy
  Li  Li0  1  0.99616700  0.25046500  0.24997000  1
  Li  Li1  1  0.00390400  0.74959500  0.74950500  1
  Li  Li2  1  0.00189700  0.25058500  0.74953900  1
  Li  Li3  1  0.99842200  0.74960000  0.25064300  1
  Li  Li4  1  0.49833800  0.24985700  0.74647300  1
  Li  Li5  1  0.50191000  0.75012900  0.25311100  1
  Cr  Cr6  1  0.00019200  0.49988700  0.49982300  1
  Cr  Cr7  1  0.99944700  0.00010100  0.50027200  1
  Cr  Cr8  1  0.49973100  0.99989600  0.00031300  1
  Cr  Cr9  1  0.49979400  0.00006700  0.50024200  1
  Cr  Cr10  1  0.50024500  0.50005800  0.99992700  1
  Cr  Cr11  1  0.49570200  0.24796800  0.24645800  1
  Cr  Cr12  1  0.50387800  0.75189900  0.75380300  1
  Cr  Cr13  1  0.99967700  0.99983300  0.00023400  1
  Cr  Cr14  1  0.00056700  0.50010700  0.99951700  1
  Cr  Cr15  1  0.49999800  0.49993600  0.50003100  1
  O  O16  1  0.25514800  0.38954100  0.88241100  1
  O  O17  1  0.25600200  0.89093300  0.38278300  1
  O  O18  1  0.74359500  0.10919500  0.61762300  1
  O  O19  1  0.74542100  0.61045400  0.11726700  1
  O  O20  1  0.28736200  0.37761300  0.36717900  1
  O  O21  1  0.28509300  0.87830000  0.86903300  1
  O  O22  1  0.75206100  0.38899700  0.88847600  1
  O  O23  1  0.75031600  0.88880400  0.39122500  1
  O  O24  1  0.75659300  0.39248000  0.38082100  1
  O  O25  1  0.75689700  0.89306800  0.88292600  1
  O  O26  1  0.24237200  0.10693500  0.11728600  1
  O  O27  1  0.24403000  0.60743100  0.61845200  1
  O  O28  1  0.24932200  0.11126000  0.60943200  1
  O  O29  1  0.24867300  0.61104800  0.11119600  1
  O  O30  1  0.71441300  0.12165500  0.13139700  1
  O  O31  1  0.71283400  0.62230200  0.63263300  1
