# generated using pymatgen
data_Li7Mn5O12
_symmetry_space_group_name_H-M   'P 1'
_cell_length_a   2.98445772
_cell_length_b   10.19494977
_cell_length_c   15.21523425
_cell_angle_alpha   72.85910905
_cell_angle_beta   87.16240433
_cell_angle_gamma   91.76891049
_symmetry_Int_Tables_number   1
_chemical_formula_structural   Li7Mn5O12
_chemical_formula_sum   'Li14 Mn10 O24'
_cell_volume   441.33820997
_cell_formula_units_Z   2
loop_
 _symmetry_equiv_pos_site_id
 _symmetry_equiv_pos_as_xyz
  1  'x, y, z'
loop_
 _atom_site_type_symbol
 _atom_site_label
 _atom_site_symmetry_multiplicity
 _atom_site_fract_x
 _atom_site_fract_y
 _atom_site_fract_z
 _atom_site_occupancy
  Li  Li0  1  0.99999900  0.00000100  0.33331700  1
  Li  Li1  1  0.49999800  0.00000400  0.83333200  1
  Li  Li2  1  0.49020200  0.24139300  0.32832200  1
  Li  Li3  1  0.99017900  0.24137800  0.82832300  1
  Li  Li4  1  0.50978700  0.75859300  0.33834000  1
  Li  Li5  1  0.00982900  0.75862500  0.83834600  1
  Li  Li6  1  0.99805300  0.74632900  0.16745500  1
  Li  Li7  1  0.49804000  0.74632200  0.66746000  1
  Li  Li8  1  0.00194200  0.25365400  0.49922300  1
  Li  Li9  1  0.50195100  0.25367700  0.99921400  1
  Li  Li10  1  0.01004300  0.24241200  0.17264200  1
  Li  Li11  1  0.51004600  0.24238700  0.67265100  1
  Li  Li12  1  0.98995300  0.75757400  0.49402500  1
  Li  Li13  1  0.48995300  0.75761700  0.99401600  1
  Mn  Mn14  1  0.00014300  0.50007300  0.33329600  1
  Mn  Mn15  1  0.00880500  0.99624200  0.99637400  1
  Mn  Mn16  1  0.99105300  0.00375000  0.67029700  1
  Mn  Mn17  1  0.00142300  0.50156600  0.99997900  1
  Mn  Mn18  1  0.99860900  0.49843100  0.66668600  1
  Mn  Mn19  1  0.49999500  0.50002400  0.83329600  1
  Mn  Mn20  1  0.50879400  0.99623400  0.49635500  1
  Mn  Mn21  1  0.49102000  0.00374800  0.17033400  1
  Mn  Mn22  1  0.50139100  0.50155000  0.49998000  1
  Mn  Mn23  1  0.49856700  0.49841800  0.16669000  1
  O  O24  1  0.03474300  0.10757500  0.43138100  1
  O  O25  1  0.53471800  0.10761600  0.93140700  1
  O  O26  1  0.96528000  0.89239200  0.23527500  1
  O  O27  1  0.46529600  0.89239100  0.73525400  1
  O  O28  1  0.46099500  0.61787300  0.24704400  1
  O  O29  1  0.96100100  0.61786900  0.74703800  1
  O  O30  1  0.53906100  0.38214900  0.41962500  1
  O  O31  1  0.03906900  0.38215400  0.91962600  1
  O  O32  1  0.01467400  0.10513000  0.09051000  1
  O  O33  1  0.51469400  0.10510800  0.59047500  1
  O  O34  1  0.48532400  0.89487500  0.07619300  1
  O  O35  1  0.98534900  0.89484700  0.57615900  1
  O  O36  1  0.49110900  0.11753600  0.24248700  1
  O  O37  1  0.99109600  0.11751700  0.74246500  1
  O  O38  1  0.50891900  0.88246400  0.42418000  1
  O  O39  1  0.00891500  0.88249600  0.92419700  1
  O  O40  1  0.96158300  0.61665800  0.08238300  1
  O  O41  1  0.46158800  0.61666100  0.58237400  1
  O  O42  1  0.53839300  0.38336200  0.08432000  1
  O  O43  1  0.03840200  0.38336200  0.58431400  1
  O  O44  1  0.96368200  0.61993800  0.41295300  1
  O  O45  1  0.46367100  0.61994500  0.91295600  1
  O  O46  1  0.03632500  0.38004200  0.25371400  1
  O  O47  1  0.53634100  0.38003800  0.75371000  1
