# generated using pymatgen
data_Li9Mn2Co5O16
_symmetry_space_group_name_H-M   'P 1'
_cell_length_a   2.95648200
_cell_length_b   5.10074591
_cell_length_c   19.67380242
_cell_angle_alpha   91.95933704
_cell_angle_beta   93.07201053
_cell_angle_gamma   104.85173186
_symmetry_Int_Tables_number   1
_chemical_formula_structural   Li9Mn2Co5O16
_chemical_formula_sum   'Li9 Mn2 Co5 O16'
_cell_volume   286.00919561
_cell_formula_units_Z   1
loop_
 _symmetry_equiv_pos_site_id
 _symmetry_equiv_pos_as_xyz
  1  'x, y, z'
loop_
 _atom_site_type_symbol
 _atom_site_label
 _atom_site_symmetry_multiplicity
 _atom_site_fract_x
 _atom_site_fract_y
 _atom_site_fract_z
 _atom_site_occupancy
  Li  Li0  1  0.95402100  0.19460500  0.68943700  1
  Li  Li1  1  0.56739000  0.31570700  0.81338500  1
  Li  Li2  1  0.18801800  0.43255900  0.93829800  1
  Li  Li3  1  0.81198200  0.56744100  0.06170200  1
  Li  Li4  1  0.43261000  0.68429300  0.18661500  1
  Li  Li5  1  0.04597900  0.80539500  0.31056300  1
  Li  Li6  1  0.71386100  0.94182500  0.44578400  1
  Li  Li7  1  0.28613900  0.05817500  0.55421600  1
  Li  Li8  1  0.00000000  0.50000000  0.50000000  1
  Mn  Mn9  1  0.61768000  0.62712700  0.62232500  1
  Mn  Mn10  1  0.38232000  0.37287300  0.37767500  1
  Co  Co11  1  0.24759400  0.74414400  0.75125900  1
  Co  Co12  1  0.87833800  0.87426700  0.87527200  1
  Co  Co13  1  0.50000000  0.00000000  0.00000000  1
  Co  Co14  1  0.12166200  0.12573300  0.12472800  1
  Co  Co15  1  0.75240600  0.25585600  0.24874100  1
  O  O16  1  0.24610600  0.87036500  0.65919200  1
  O  O17  1  0.94040000  0.01203900  0.78373700  1
  O  O18  1  0.52307000  0.13891900  0.91032100  1
  O  O19  1  0.17983800  0.26129500  0.03352800  1
  O  O20  1  0.75937500  0.38866200  0.15857300  1
  O  O21  1  0.42577000  0.50873700  0.28218700  1
  O  O22  1  0.99992500  0.61608500  0.40079100  1
  O  O23  1  0.65840500  0.78290400  0.53997700  1
  O  O24  1  0.57423000  0.49126300  0.71781300  1
  O  O25  1  0.24062500  0.61133800  0.84142700  1
  O  O26  1  0.82016200  0.73870500  0.96647200  1
  O  O27  1  0.47693000  0.86108100  0.08967900  1
  O  O28  1  0.05960000  0.98796100  0.21626300  1
  O  O29  1  0.75389400  0.12963500  0.34080800  1
  O  O30  1  0.34159500  0.21709600  0.46002300  1
  O  O31  1  0.00007500  0.38391500  0.59920900  1
