# generated using pymatgen
data_LiV5O7F
_symmetry_space_group_name_H-M   'P 1'
_cell_length_a   6.07214962
_cell_length_b   10.49213176
_cell_length_c   6.07161927
_cell_angle_alpha   89.12055661
_cell_angle_beta   119.42375589
_cell_angle_gamma   73.77996700
_symmetry_Int_Tables_number   1
_chemical_formula_structural   LiV5O7F
_chemical_formula_sum   'Li2 V10 O14 F2'
_cell_volume   318.08577268
_cell_formula_units_Z   2
loop_
 _symmetry_equiv_pos_site_id
 _symmetry_equiv_pos_as_xyz
  1  'x, y, z'
loop_
 _atom_site_type_symbol
 _atom_site_label
 _atom_site_symmetry_multiplicity
 _atom_site_fract_x
 _atom_site_fract_y
 _atom_site_fract_z
 _atom_site_occupancy
  Li  Li0  1  0.76275500  0.37589900  0.86134200  1
  Li  Li1  1  0.76359100  0.87535900  0.36106400  1
  V  V2  1  0.36981000  0.68442800  0.44384900  1
  V  V3  1  0.36873100  0.18301300  0.94292500  1
  V  V4  1  0.87175200  0.68440600  0.94578600  1
  V  V5  1  0.87403900  0.18297900  0.44819000  1
  V  V6  1  0.36922100  0.43785900  0.19300300  1
  V  V7  1  0.99229000  0.50170900  0.50602600  1
  V  V8  1  0.99150000  0.00051500  0.00804800  1
  V  V9  1  0.37599300  0.69293200  0.93107700  1
  V  V10  1  0.37849700  0.18857500  0.43294800  1
  V  V11  1  0.36792800  0.93874500  0.69343400  1
  O  O12  1  0.12392800  0.06513400  0.81065800  1
  O  O13  1  0.12490700  0.56804000  0.30748800  1
  O  O14  1  0.15806700  0.80128000  0.57179100  1
  O  O15  1  0.16256200  0.29874400  0.07583000  1
  O  O16  1  0.61853100  0.57980800  0.80156400  1
  O  O17  1  0.62218900  0.07859200  0.29861200  1
  O  O18  1  0.62727900  0.80102500  0.04064900  1
  O  O19  1  0.62595200  0.29856500  0.53896000  1
  O  O20  1  0.12701700  0.07215400  0.32933600  1
  O  O21  1  0.12386900  0.57405700  0.82609800  1
  O  O22  1  0.59902800  0.07244700  0.80103900  1
  O  O23  1  0.59986600  0.57412000  0.30174500  1
  O  O24  1  0.12901700  0.29970100  0.57113400  1
  O  O25  1  0.12880200  0.80110000  0.07005300  1
  F  F26  1  0.62098500  0.80988500  0.56856400  1
  F  F27  1  0.62189900  0.30892400  0.06878900  1
