# generated using pymatgen
data_Li5V3P8O29
_symmetry_space_group_name_H-M   'P 1'
_cell_length_a   9.83839900
_cell_length_b   9.83900949
_cell_length_c   14.12351600
_cell_angle_alpha   89.57079527
_cell_angle_beta   89.59355340
_cell_angle_gamma   60.03292794
_symmetry_Int_Tables_number   1
_chemical_formula_structural   Li5V3P8O29
_chemical_formula_sum   'Li10 V6 P16 O58'
_cell_volume   1184.34392608
_cell_formula_units_Z   2
loop_
 _symmetry_equiv_pos_site_id
 _symmetry_equiv_pos_as_xyz
  1  'x, y, z'
loop_
 _atom_site_type_symbol
 _atom_site_label
 _atom_site_symmetry_multiplicity
 _atom_site_fract_x
 _atom_site_fract_y
 _atom_site_fract_z
 _atom_site_occupancy
  Li  Li0  1  0.32048200  0.90895200  0.43757000  1
  Li  Li1  1  0.67356200  0.67676300  0.11077300  1
  Li  Li2  1  0.31229600  0.77387100  0.94049100  1
  Li  Li3  1  0.91886600  0.30152200  0.93904400  1
  Li  Li4  1  0.22105200  0.68396500  0.55800500  1
  Li  Li5  1  0.77508400  0.31456800  0.44203300  1
  Li  Li6  1  0.08775700  0.68788300  0.06135000  1
  Li  Li7  1  0.68564200  0.22368300  0.05403000  1
  Li  Li8  1  0.68629600  0.08726200  0.56193300  1
  Li  Li9  1  0.09458600  0.22863700  0.55911900  1
  V  V10  1  0.42890500  0.56848200  0.74727700  1
  V  V11  1  0.56500400  0.43034400  0.25146400  1
  V  V12  1  0.99526400  0.56955100  0.25386500  1
  V  V13  1  0.00108700  0.43403200  0.75108000  1
  V  V14  1  0.57002800  0.99748300  0.75490600  1
  V  V15  1  0.43252500  0.00386600  0.24513300  1
  P  P16  1  0.77242500  0.91431000  0.16102100  1
  P  P17  1  0.91301900  0.77041500  0.66194700  1
  P  P18  1  0.32164600  0.91460000  0.65660300  1
  P  P19  1  0.66294600  0.66590300  0.87207300  1
  P  P20  1  0.66269000  0.66443900  0.37057100  1
  P  P21  1  0.32291600  0.76948200  0.15898700  1
  P  P22  1  0.22829100  0.68356500  0.34071500  1
  P  P23  1  0.90656300  0.32329000  0.15775400  1
  P  P24  1  0.08704900  0.67903500  0.84368000  1
  P  P25  1  0.76765400  0.32310000  0.66006900  1
  P  P26  1  0.67670000  0.23292400  0.83959800  1
  P  P27  1  0.33688800  0.32907100  0.62935800  1
  P  P28  1  0.33038500  0.33812100  0.12943500  1
  P  P29  1  0.67973900  0.08492000  0.34424900  1
  P  P30  1  0.08733700  0.23182400  0.33960000  1
  P  P31  1  0.23103400  0.08430900  0.83989300  1
  O  O32  1  0.75348300  0.01628600  0.43655000  1
  O  O33  1  0.74421200  0.91767000  0.66415900  1
  O  O34  1  0.01368000  0.74728100  0.93633400  1
  O  O35  1  0.91979100  0.74940600  0.15897800  1
  O  O36  1  0.62871500  0.88799700  0.17570000  1
  O  O37  1  0.66342200  0.81557000  0.82695500  1
  O  O38  1  0.48025900  0.90480900  0.67743500  1
  O  O39  1  0.24121300  0.98887600  0.92409700  1
  O  O40  1  0.34635100  0.91113400  0.15826800  1
  O  O41  1  0.81217400  0.66196200  0.32590300  1
  O  O42  1  0.90172400  0.62108400  0.67688100  1
  O  O43  1  0.51430800  0.81359100  0.33105100  1
  O  O44  1  0.66157200  0.67301500  0.97837600  1
  O  O45  1  0.66558000  0.65081600  0.47543700  1
  O  O46  1  0.51151100  0.67191200  0.83486500  1
  O  O47  1  0.88458400  0.48938200  0.17257900  1
  O  O48  1  0.81264500  0.51551400  0.83498200  1
  O  O49  1  0.33656900  0.75049100  0.65733500  1
  O  O50  1  0.21414300  0.79051800  0.25000700  1
  O  O51  1  0.24858100  0.75444600  0.42938100  1
  O  O52  1  0.24938000  0.74887200  0.07165500  1
  O  O53  1  0.48772900  0.62016200  0.17703600  1
  O  O54  1  0.66674200  0.51128900  0.32753100  1
  O  O55  1  0.25350400  0.66224700  0.83408900  1
  O  O56  1  0.61844800  0.48282200  0.67841300  1
  O  O57  1  0.91610400  0.33921000  0.66104000  1
  O  O58  1  0.99034700  0.79294600  0.75767700  1
  O  O59  1  0.00382800  0.77137400  0.57781100  1
  O  O60  1  0.99803300  0.24263300  0.42919500  1
  O  O61  1  0.08793800  0.65976400  0.33857500  1
  O  O62  1  0.38227100  0.52418100  0.31994900  1
  O  O63  1  0.73909500  0.33886000  0.16281600  1
  O  O64  1  0.32861700  0.48494500  0.66629400  1
  O  O65  1  0.51797600  0.37914400  0.82262100  1
  O  O66  1  0.75780500  0.23810500  0.92791200  1
  O  O67  1  0.75636600  0.24624000  0.57112700  1
  O  O68  1  0.78911800  0.21251500  0.74993000  1
  O  O69  1  0.66049200  0.25457700  0.33463500  1
  O  O70  1  0.17864300  0.48504000  0.16851200  1
  O  O71  1  0.10018600  0.51830900  0.82270200  1
  O  O72  1  0.48006000  0.33878200  0.17466200  1
  O  O73  1  0.34500400  0.34037400  0.02488900  1
  O  O74  1  0.34872200  0.32111300  0.52378700  1
  O  O75  1  0.48799800  0.18168100  0.67385800  1
  O  O76  1  0.10214100  0.37865200  0.32379800  1
  O  O77  1  0.18861700  0.32429900  0.66745100  1
  O  O78  1  0.65935700  0.08448100  0.83415800  1
  O  O79  1  0.79340100  0.99054300  0.25749700  1
  O  O80  1  0.75603300  0.01440900  0.07843400  1
  O  O81  1  0.52169200  0.09413000  0.32599600  1
  O  O82  1  0.33638700  0.18693000  0.17198300  1
  O  O83  1  0.38289400  0.09429800  0.82268300  1
  O  O84  1  0.08584800  0.25121600  0.84015000  1
  O  O85  1  0.98527600  0.24744600  0.06767400  1
  O  O86  1  0.99439200  0.21719500  0.24907700  1
  O  O87  1  0.24891800  0.08125500  0.33727500  1
  O  O88  1  0.24785500  0.00176700  0.56610400  1
  O  O89  1  0.20838900  0.00733000  0.74416100  1
