# generated using pymatgen
data_Li2Mn3FeO8
_symmetry_space_group_name_H-M   'P 1'
_cell_length_a   5.85340213
_cell_length_b   5.85433771
_cell_length_c   9.48662769
_cell_angle_alpha   89.83140145
_cell_angle_beta   90.15624046
_cell_angle_gamma   61.23887538
_symmetry_Int_Tables_number   1
_chemical_formula_structural   Li2Mn3FeO8
_chemical_formula_sum   'Li4 Mn6 Fe2 O16'
_cell_volume   284.97663121
_cell_formula_units_Z   2
loop_
 _symmetry_equiv_pos_site_id
 _symmetry_equiv_pos_as_xyz
  1  'x, y, z'
loop_
 _atom_site_type_symbol
 _atom_site_label
 _atom_site_symmetry_multiplicity
 _atom_site_fract_x
 _atom_site_fract_y
 _atom_site_fract_z
 _atom_site_occupancy
  Li  Li0  1  0.65943400  0.67529700  0.88929600  1
  Li  Li1  1  0.32481500  0.34044200  0.38926600  1
  Li  Li2  1  0.00791600  0.00089100  0.99854200  1
  Li  Li3  1  0.99958000  0.99161300  0.49857100  1
  Mn  Mn4  1  0.17005400  0.16739300  0.71313500  1
  Mn  Mn5  1  0.16945000  0.65844700  0.71481200  1
  Mn  Mn6  1  0.66045000  0.17050400  0.71641700  1
  Mn  Mn7  1  0.34138600  0.83071000  0.21491100  1
  Mn  Mn8  1  0.82948400  0.33969700  0.21653400  1
  Mn  Mn9  1  0.83231500  0.83025300  0.21315600  1
  Fe  Fe10  1  0.33754300  0.32834000  0.99494400  1
  Fe  Fe11  1  0.67167200  0.66254800  0.49493100  1
  O  O12  1  0.64981300  0.69865000  0.10142200  1
  O  O13  1  0.30165300  0.34997800  0.60141700  1
  O  O14  1  0.01793800  0.97155300  0.31316100  1
  O  O15  1  0.02839400  0.98193400  0.81309600  1
  O  O16  1  0.32211100  0.83923700  0.60229000  1
  O  O17  1  0.84198400  0.31586300  0.60185000  1
  O  O18  1  0.16936600  0.15926900  0.10590900  1
  O  O19  1  0.84096800  0.83029000  0.60581500  1
  O  O20  1  0.16052500  0.67818500  0.10223300  1
  O  O21  1  0.68384800  0.15822900  0.10196900  1
  O  O22  1  0.51195100  0.52701300  0.33538400  1
  O  O23  1  0.52478600  0.96280200  0.33383700  1
  O  O24  1  0.95786900  0.52587000  0.33287000  1
  O  O25  1  0.03720300  0.47497500  0.83377600  1
  O  O26  1  0.47430600  0.04218100  0.83283600  1
  O  O27  1  0.47288300  0.48814000  0.83546100  1
