# generated using pymatgen
data_LiMn2(BO3)2
_symmetry_space_group_name_H-M   'P 1'
_cell_length_a   5.30893000
_cell_length_b   6.13714583
_cell_length_c   15.53622810
_cell_angle_alpha   80.94070387
_cell_angle_beta   87.42292415
_cell_angle_gamma   86.99428227
_symmetry_Int_Tables_number   1
_chemical_formula_structural   LiMn2(BO3)2
_chemical_formula_sum   'Li4 Mn8 B8 O24'
_cell_volume   498.84842668
_cell_formula_units_Z   4
loop_
 _symmetry_equiv_pos_site_id
 _symmetry_equiv_pos_as_xyz
  1  'x, y, z'
loop_
 _atom_site_type_symbol
 _atom_site_label
 _atom_site_symmetry_multiplicity
 _atom_site_fract_x
 _atom_site_fract_y
 _atom_site_fract_z
 _atom_site_occupancy
  Li  Li0  1  0.41044100  0.14225600  0.59925600  1
  Li  Li1  1  0.90618200  0.64187500  0.84910900  1
  Li  Li2  1  0.90900100  0.63855400  0.34967900  1
  Li  Li3  1  0.09654400  0.36745300  0.14818300  1
  Mn  Mn4  1  0.09352100  0.07249800  0.84033900  1
  Mn  Mn5  1  0.41045100  0.43359500  0.90899100  1
  Mn  Mn6  1  0.40990000  0.43312900  0.41000100  1
  Mn  Mn7  1  0.91080700  0.93661500  0.65952700  1
  Mn  Mn8  1  0.08843800  0.07145300  0.33985300  1
  Mn  Mn9  1  0.59145500  0.57553600  0.59024200  1
  Mn  Mn10  1  0.58546300  0.57285500  0.08636400  1
  Mn  Mn11  1  0.90786000  0.93635500  0.15745700  1
  B  B12  1  0.58016100  0.23561200  0.75300800  1
  B  B13  1  0.42356500  0.75873200  0.74803400  1
  B  B14  1  0.92624300  0.27580400  0.99640100  1
  B  B15  1  0.92362600  0.25681200  0.49821500  1
  B  B16  1  0.07764500  0.73510500  0.50307700  1
  B  B17  1  0.07305600  0.72826300  0.00172600  1
  B  B18  1  0.57666600  0.25397400  0.25174700  1
  B  B19  1  0.42167800  0.74852000  0.24810900  1
  O  O20  1  0.32223400  0.64647700  0.99010900  1
  O  O21  1  0.47225400  0.19982100  0.83874200  1
  O  O22  1  0.94070200  0.83741900  0.93555400  1
  O  O23  1  0.04661400  0.34465600  0.91417400  1
  O  O24  1  0.16525800  0.80212000  0.75927700  1
  O  O25  1  0.82582800  0.14293300  0.74226900  1
  O  O26  1  0.06849600  0.14456800  0.56348300  1
  O  O27  1  0.56753900  0.64378900  0.81255900  1
  O  O28  1  0.04308100  0.34156800  0.41755900  1
  O  O29  1  0.54258500  0.84690800  0.66763300  1
  O  O30  1  0.66584800  0.30006700  0.50915300  1
  O  O31  1  0.56451200  0.64443900  0.31652000  1
  O  O32  1  0.44723100  0.33548500  0.68470200  1
  O  O33  1  0.32215300  0.64012600  0.49286800  1
  O  O34  1  0.46625600  0.20073900  0.33662000  1
  O  O35  1  0.96751100  0.70349100  0.58844000  1
  O  O36  1  0.43099100  0.35689000  0.18641300  1
  O  O37  1  0.94498100  0.83427800  0.43440500  1
  O  O38  1  0.16475600  0.80194100  0.25965100  1
  O  O39  1  0.83170400  0.18802000  0.23695500  1
  O  O40  1  0.96374600  0.67158500  0.08701900  1
  O  O41  1  0.05822700  0.16576600  0.06421700  1
  O  O42  1  0.54826400  0.80976800  0.16749600  1
  O  O43  1  0.67431600  0.34490200  0.00497400  1
