# generated using pymatgen
data_Li3V4O8
_symmetry_space_group_name_H-M   'P 1'
_cell_length_a   5.90704582
_cell_length_b   10.67985350
_cell_length_c   5.90101415
_cell_angle_alpha   89.79695400
_cell_angle_beta   60.30372481
_cell_angle_gamma   74.02336294
_symmetry_Int_Tables_number   1
_chemical_formula_structural   Li3V4O8
_chemical_formula_sum   'Li6 V8 O16'
_cell_volume   306.93291258
_cell_formula_units_Z   2
loop_
 _symmetry_equiv_pos_site_id
 _symmetry_equiv_pos_as_xyz
  1  'x, y, z'
loop_
 _atom_site_type_symbol
 _atom_site_label
 _atom_site_symmetry_multiplicity
 _atom_site_fract_x
 _atom_site_fract_y
 _atom_site_fract_z
 _atom_site_occupancy
  Li  Li0  1  0.99948800  0.25002900  0.25078000  1
  Li  Li1  1  0.00058700  0.75001800  0.74914200  1
  Li  Li2  1  0.14644000  0.03400200  0.18333500  1
  Li  Li3  1  0.14684500  0.53413800  0.68261600  1
  Li  Li4  1  0.85303500  0.46586600  0.31745200  1
  Li  Li5  1  0.85390700  0.96606000  0.81645600  1
  V  V6  1  0.49992100  0.49994300  0.99999900  1
  V  V7  1  0.49966100  0.00003000  0.49998800  1
  V  V8  1  0.49929200  0.25027700  0.25086800  1
  V  V9  1  0.50070700  0.74973700  0.74935500  1
  V  V10  1  0.49943700  0.25116800  0.75172000  1
  V  V11  1  0.50064500  0.74875400  0.24824500  1
  V  V12  1  0.00040000  0.24967900  0.75021200  1
  V  V13  1  0.99951600  0.75045300  0.24993000  1
  O  O14  1  0.28022200  0.35109800  0.61993500  1
  O  O15  1  0.28069500  0.85069300  0.11872800  1
  O  O16  1  0.71954000  0.14924800  0.88121400  1
  O  O17  1  0.71985800  0.64882200  0.37998100  1
  O  O18  1  0.25707300  0.13269900  0.38872400  1
  O  O19  1  0.25772900  0.63207300  0.88855800  1
  O  O20  1  0.72492900  0.12981400  0.40080900  1
  O  O21  1  0.72751100  0.62887300  0.89709200  1
  O  O22  1  0.25109500  0.13716500  0.86660900  1
  O  O23  1  0.25015200  0.63689800  0.36644700  1
  O  O24  1  0.27252300  0.37097100  0.10287000  1
  O  O25  1  0.27514000  0.87015300  0.59921000  1
  O  O26  1  0.74988100  0.36311200  0.63347200  1
  O  O27  1  0.74890500  0.86292000  0.13345400  1
  O  O28  1  0.74195100  0.36802900  0.11159000  1
  O  O29  1  0.74291600  0.86728100  0.61120800  1
