# generated using pymatgen
data_Li2MnV(PO4)3
_symmetry_space_group_name_H-M   'P 1'
_cell_length_a   8.33060800
_cell_length_b   8.36564264
_cell_length_c   8.88923902
_cell_angle_alpha   90.01581963
_cell_angle_beta   116.53391302
_cell_angle_gamma   119.37331904
_symmetry_Int_Tables_number   1
_chemical_formula_structural   Li2MnV(PO4)3
_chemical_formula_sum   'Li4 Mn2 V2 P6 O24'
_cell_volume   463.47683506
_cell_formula_units_Z   2
loop_
 _symmetry_equiv_pos_site_id
 _symmetry_equiv_pos_as_xyz
  1  'x, y, z'
loop_
 _atom_site_type_symbol
 _atom_site_label
 _atom_site_symmetry_multiplicity
 _atom_site_fract_x
 _atom_site_fract_y
 _atom_site_fract_z
 _atom_site_occupancy
  Li  Li0  1  0.94519400  0.26176300  0.87272300  1
  Li  Li1  1  0.18884800  0.92411400  0.85255400  1
  Li  Li2  1  0.05072100  0.73513700  0.12732300  1
  Li  Li3  1  0.40263900  0.32599200  0.14368200  1
  Mn  Mn4  1  0.28927800  0.15120700  0.43633400  1
  Mn  Mn5  1  0.70547300  0.84738400  0.56425800  1
  V  V6  1  0.31785000  0.65389000  0.95542700  1
  V  V7  1  0.69716600  0.34299900  0.04347000  1
  P  P8  1  0.80261700  0.54000400  0.75349300  1
  P  P9  1  0.21291700  0.25572900  0.75149300  1
  P  P10  1  0.50149600  0.96573400  0.74224600  1
  P  P11  1  0.49586900  0.03775700  0.24794300  1
  P  P12  1  0.78015200  0.74159200  0.24936400  1
  P  P13  1  0.20963000  0.46128100  0.25441100  1
  O  O14  1  0.74561400  0.51493200  0.90527100  1
  O  O15  1  0.88332700  0.74850800  0.75015700  1
  O  O16  1  0.00170800  0.52062800  0.82454800  1
  O  O17  1  0.29382700  0.46975100  0.80612700  1
  O  O18  1  0.37072100  0.21438400  0.90231000  1
  O  O19  1  0.68438500  0.16521100  0.88644100  1
  O  O20  1  0.61620800  0.39019500  0.58414400  1
  O  O21  1  0.99643300  0.12818100  0.74058200  1
  O  O22  1  0.19822900  0.20880600  0.57947200  1
  O  O23  1  0.35463000  0.83868100  0.81320700  1
  O  O24  1  0.62197400  0.88087200  0.72609800  1
  O  O25  1  0.36497600  0.98892300  0.57064000  1
  O  O26  1  0.63101700  0.01429100  0.41534800  1
  O  O27  1  0.37599000  0.12623400  0.26349500  1
  O  O28  1  0.64048800  0.17634800  0.17793300  1
  O  O29  1  0.80649800  0.78948900  0.42865600  1
  O  O30  1  0.98817300  0.86208600  0.25016300  1
  O  O31  1  0.39938400  0.62086200  0.41765900  1
  O  O32  1  0.30951200  0.84581400  0.09543500  1
  O  O33  1  0.60732400  0.77862000  0.11039100  1
  O  O34  1  0.68582200  0.52430300  0.18580500  1
  O  O35  1  0.01423200  0.48198800  0.18851000  1
  O  O36  1  0.14677600  0.25934900  0.27299800  1
  O  O37  1  0.25783000  0.46678700  0.09842000  1
