# generated using pymatgen
data_Li9Mn2Co5O16
_symmetry_space_group_name_H-M   'P 1'
_cell_length_a   6.52344100
_cell_length_b   6.67916241
_cell_length_c   7.76304797
_cell_angle_alpha   74.23837521
_cell_angle_beta   65.21528936
_cell_angle_gamma   71.29301046
_symmetry_Int_Tables_number   1
_chemical_formula_structural   Li9Mn2Co5O16
_chemical_formula_sum   'Li9 Mn2 Co5 O16'
_cell_volume   287.14059269
_cell_formula_units_Z   1
loop_
 _symmetry_equiv_pos_site_id
 _symmetry_equiv_pos_as_xyz
  1  'x, y, z'
loop_
 _atom_site_type_symbol
 _atom_site_label
 _atom_site_symmetry_multiplicity
 _atom_site_fract_x
 _atom_site_fract_y
 _atom_site_fract_z
 _atom_site_occupancy
  Li  Li0  1  0.06262500  0.43832600  0.81478500  1
  Li  Li1  1  0.68739600  0.81044600  0.93416100  1
  Li  Li2  1  0.31866600  0.18573200  0.05733600  1
  Li  Li3  1  0.94320400  0.56301900  0.18230500  1
  Li  Li4  1  0.18874400  0.32151500  0.43897700  1
  Li  Li5  1  0.79992300  0.68596500  0.57333800  1
  Li  Li6  1  0.44312100  0.05619400  0.68598400  1
  Li  Li7  1  0.55771200  0.93876300  0.31214200  1
  Li  Li8  1  0.37546400  0.62677000  0.87743300  1
  Mn  Mn9  1  0.99879800  0.99399300  0.99834400  1
  Mn  Mn10  1  0.25106100  0.74631000  0.24795400  1
  Co  Co11  1  0.74277300  0.25953400  0.75288700  1
  Co  Co12  1  0.13094500  0.86820300  0.63123700  1
  Co  Co13  1  0.50026000  0.50449000  0.50652800  1
  Co  Co14  1  0.87403200  0.12853200  0.37811800  1
  Co  Co15  1  0.62561100  0.37699300  0.12108500  1
  O  O16  1  0.08136500  0.14250700  0.73454400  1
  O  O17  1  0.71574700  0.51115200  0.85936400  1
  O  O18  1  0.31816400  0.90329000  0.98799300  1
  O  O19  1  0.95378500  0.26187400  0.09198100  1
  O  O20  1  0.20450000  0.01456200  0.33947900  1
  O  O21  1  0.84049300  0.39772500  0.47087000  1
  O  O22  1  0.45297800  0.78388700  0.59025500  1
  O  O23  1  0.56765100  0.65925000  0.23383700  1
  O  O24  1  0.02793300  0.74046900  0.91041200  1
  O  O25  1  0.67467600  0.09056200  0.02482000  1
  O  O26  1  0.29630500  0.48418100  0.16454900  1
  O  O27  1  0.92696800  0.84698000  0.26429000  1
  O  O28  1  0.16188100  0.60833800  0.51870600  1
  O  O29  1  0.79826900  0.97627400  0.64667700  1
  O  O30  1  0.42499100  0.34305300  0.76266500  1
  O  O31  1  0.55395900  0.23110800  0.38694400  1
