# generated using pymatgen
data_Li5Mn2CoO8
_symmetry_space_group_name_H-M   'P 1'
_cell_length_a   2.89593894
_cell_length_b   10.19735574
_cell_length_c   9.78050947
_cell_angle_alpha   100.57881310
_cell_angle_beta   89.06457391
_cell_angle_gamma   90.97001476
_symmetry_Int_Tables_number   1
_chemical_formula_structural   Li5Mn2CoO8
_chemical_formula_sum   'Li10 Mn4 Co2 O16'
_cell_volume   283.85196814
_cell_formula_units_Z   2
loop_
 _symmetry_equiv_pos_site_id
 _symmetry_equiv_pos_as_xyz
  1  'x, y, z'
loop_
 _atom_site_type_symbol
 _atom_site_label
 _atom_site_symmetry_multiplicity
 _atom_site_fract_x
 _atom_site_fract_y
 _atom_site_fract_z
 _atom_site_occupancy
  Li  Li0  1  0.49994000  0.24999600  0.99999900  1
  Li  Li1  1  0.00007400  0.24997700  0.49997700  1
  Li  Li2  1  0.49286300  0.14060400  0.25446600  1
  Li  Li3  1  0.98564900  0.14060000  0.75441900  1
  Li  Li4  1  0.01451000  0.35944500  0.24556800  1
  Li  Li5  1  0.50712100  0.35942700  0.74549600  1
  Li  Li6  1  0.50043600  0.62112400  0.24371900  1
  Li  Li7  1  0.00592600  0.62054100  0.74389000  1
  Li  Li8  1  0.99424900  0.87949700  0.25610100  1
  Li  Li9  1  0.49963200  0.87890800  0.75626400  1
  Mn  Mn10  1  0.49225500  0.01046800  0.50883300  1
  Mn  Mn11  1  0.50866800  0.48957900  0.49133900  1
  Mn  Mn12  1  0.99593200  0.01037000  0.00863300  1
  Mn  Mn13  1  0.00316700  0.48950500  0.99122000  1
  Co  Co14  1  0.49989300  0.75000800  0.99998800  1
  Co  Co15  1  0.00010100  0.74998600  0.49998700  1
  O  O16  1  0.99923500  0.17252200  0.12171800  1
  O  O17  1  0.49395000  0.17247300  0.62180600  1
  O  O18  1  0.50629300  0.32756200  0.37822400  1
  O  O19  1  0.00044200  0.32746600  0.87822800  1
  O  O20  1  0.49648000  0.44615700  0.10514900  1
  O  O21  1  0.00196200  0.44597500  0.60522700  1
  O  O22  1  0.99852000  0.05397700  0.39486200  1
  O  O23  1  0.50291700  0.05385000  0.89485000  1
  O  O24  1  0.01899500  0.68297600  0.11066100  1
  O  O25  1  0.52174400  0.68302200  0.61093000  1
  O  O26  1  0.47841900  0.81696300  0.38907300  1
  O  O27  1  0.98077100  0.81705600  0.88931200  1
  O  O28  1  0.48673800  0.94052000  0.11476500  1
  O  O29  1  0.98269800  0.94044500  0.61458300  1
  O  O30  1  0.01766100  0.55950900  0.38548600  1
  O  O31  1  0.51276000  0.55949400  0.88522700  1
