# generated using pymatgen
data_Li2Mn3NbO8
_symmetry_space_group_name_H-M   'P 1'
_cell_length_a   5.88178416
_cell_length_b   6.07279049
_cell_length_c   9.00118032
_cell_angle_alpha   89.30111491
_cell_angle_beta   90.00258220
_cell_angle_gamma   89.99052898
_symmetry_Int_Tables_number   1
_chemical_formula_structural   Li2Mn3NbO8
_chemical_formula_sum   'Li4 Mn6 Nb2 O16'
_cell_volume   321.48782319
_cell_formula_units_Z   2
loop_
 _symmetry_equiv_pos_site_id
 _symmetry_equiv_pos_as_xyz
  1  'x, y, z'
loop_
 _atom_site_type_symbol
 _atom_site_label
 _atom_site_symmetry_multiplicity
 _atom_site_fract_x
 _atom_site_fract_y
 _atom_site_fract_z
 _atom_site_occupancy
  Li  Li0  1  0.99473700  0.25391100  0.13341900  1
  Li  Li1  1  0.50530900  0.75388200  0.63342700  1
  Li  Li2  1  0.00526900  0.74610800  0.86659200  1
  Li  Li3  1  0.49468600  0.24614200  0.36657800  1
  Mn  Mn4  1  0.50001500  0.99993400  0.00003300  1
  Mn  Mn5  1  0.75184500  0.74863300  0.24824800  1
  Mn  Mn6  1  0.24798300  0.25142300  0.75169500  1
  Mn  Mn7  1  0.00006800  0.49987700  0.50002600  1
  Mn  Mn8  1  0.25192000  0.75136000  0.25166800  1
  Mn  Mn9  1  0.74818400  0.24867900  0.74832500  1
  Nb  Nb10  1  0.00000100  0.00000700  0.49999200  1
  Nb  Nb11  1  0.50003200  0.49998900  0.00000800  1
  O  O12  1  0.00315000  0.53683600  0.27255400  1
  O  O13  1  0.49688800  0.03681800  0.77257400  1
  O  O14  1  0.99684500  0.46320800  0.72744800  1
  O  O15  1  0.50308900  0.96321200  0.22740500  1
  O  O16  1  0.24178500  0.77715000  0.49952500  1
  O  O17  1  0.71672100  0.24145000  0.00442800  1
  O  O18  1  0.78328000  0.74151700  0.50441000  1
  O  O19  1  0.25815900  0.27721700  0.99950800  1
  O  O20  1  0.99944900  0.97026500  0.26700800  1
  O  O21  1  0.50051600  0.47022700  0.76703400  1
  O  O22  1  0.00053800  0.02974700  0.73300000  1
  O  O23  1  0.49949500  0.52977200  0.23298300  1
  O  O24  1  0.21671900  0.25846400  0.49559100  1
  O  O25  1  0.74181000  0.72278700  0.00048300  1
  O  O26  1  0.75824100  0.22287000  0.50047600  1
  O  O27  1  0.28326700  0.75851500  0.99556300  1
