# generated using pymatgen
data_Li7Mn5O12
_symmetry_space_group_name_H-M   'P 1'
_cell_length_a   5.94181970
_cell_length_b   7.69511540
_cell_length_c   9.96267288
_cell_angle_alpha   78.87524298
_cell_angle_beta   93.43958205
_cell_angle_gamma   81.95837340
_symmetry_Int_Tables_number   1
_chemical_formula_structural   Li7Mn5O12
_chemical_formula_sum   'Li14 Mn10 O24'
_cell_volume   440.79102937
_cell_formula_units_Z   2
loop_
 _symmetry_equiv_pos_site_id
 _symmetry_equiv_pos_as_xyz
  1  'x, y, z'
loop_
 _atom_site_type_symbol
 _atom_site_label
 _atom_site_symmetry_multiplicity
 _atom_site_fract_x
 _atom_site_fract_y
 _atom_site_fract_z
 _atom_site_occupancy
  Li  Li0  1  0.33326400  0.66668400  0.00000600  1
  Li  Li1  1  0.83339500  0.66665800  0.00000000  1
  Li  Li2  1  0.46007100  0.16635400  0.25396100  1
  Li  Li3  1  0.96012600  0.16636300  0.25395100  1
  Li  Li4  1  0.20654800  0.16696800  0.74605200  1
  Li  Li5  1  0.70659100  0.16698400  0.74603700  1
  Li  Li6  1  0.11457000  0.51703900  0.24094000  1
  Li  Li7  1  0.61460700  0.51694100  0.24096500  1
  Li  Li8  1  0.05209800  0.81630300  0.75905900  1
  Li  Li9  1  0.55205700  0.81638400  0.75903700  1
  Li  Li10  1  0.36728100  0.50713800  0.75723000  1
  Li  Li11  1  0.86729500  0.50712500  0.75722100  1
  Li  Li12  1  0.29935400  0.82620800  0.24277400  1
  Li  Li13  1  0.79940200  0.82619200  0.24277000  1
  Mn  Mn14  1  0.58344900  0.66673200  0.49998800  1
  Mn  Mn15  1  0.99740200  0.99012600  0.00370800  1
  Mn  Mn16  1  0.16926600  0.34322000  0.99630500  1
  Mn  Mn17  1  0.25093700  0.99927000  0.50225300  1
  Mn  Mn18  1  0.91570700  0.33402200  0.49778400  1
  Mn  Mn19  1  0.08323500  0.66669600  0.49991100  1
  Mn  Mn20  1  0.49745600  0.99001700  0.00372800  1
  Mn  Mn21  1  0.66920200  0.34331900  0.99627900  1
  Mn  Mn22  1  0.75095400  0.99904900  0.50205500  1
  Mn  Mn23  1  0.41567800  0.33422800  0.49796800  1
  O  O24  1  0.23732600  0.08255300  0.10488000  1
  O  O25  1  0.73729200  0.08257500  0.10485500  1
  O  O26  1  0.42937000  0.25075900  0.89515200  1
  O  O27  1  0.92933300  0.25078900  0.89512300  1
  O  O28  1  0.45736700  0.09411100  0.61918000  1
  O  O29  1  0.95733100  0.09411700  0.61911700  1
  O  O30  1  0.20932200  0.23919700  0.38087700  1
  O  O31  1  0.70931600  0.23919200  0.38083000  1
  O  O32  1  0.41975600  0.39890100  0.10822100  1
  O  O33  1  0.91974700  0.39890400  0.10824100  1
  O  O34  1  0.24691700  0.93443800  0.89176700  1
  O  O35  1  0.74690000  0.93443700  0.89177800  1
  O  O36  1  0.12437800  0.42511500  0.61489700  1
  O  O37  1  0.62443400  0.42515400  0.61491100  1
  O  O38  1  0.04229500  0.90820900  0.38509900  1
  O  O39  1  0.54224400  0.90820200  0.38506300  1
  O  O40  1  0.05199700  0.77101400  0.11720700  1
  O  O41  1  0.55200700  0.77094100  0.11722400  1
  O  O42  1  0.11466200  0.56231000  0.88280600  1
  O  O43  1  0.61466500  0.56239800  0.88278300  1
  O  O44  1  0.29158400  0.75820800  0.62032400  1
  O  O45  1  0.79160600  0.75820000  0.62030700  1
  O  O46  1  0.37510700  0.57512900  0.37970900  1
  O  O47  1  0.87509600  0.57512800  0.37966800  1
