# generated using pymatgen
data_Li4Co5NiO12
_symmetry_space_group_name_H-M   'P 1'
_cell_length_a   5.02605476
_cell_length_b   10.82659111
_cell_length_c   8.59546488
_cell_angle_alpha   112.34285174
_cell_angle_beta   89.27609489
_cell_angle_gamma   84.97428503
_symmetry_Int_Tables_number   1
_chemical_formula_structural   Li4Co5NiO12
_chemical_formula_sum   'Li8 Co10 Ni2 O24'
_cell_volume   430.40950329
_cell_formula_units_Z   2
loop_
 _symmetry_equiv_pos_site_id
 _symmetry_equiv_pos_as_xyz
  1  'x, y, z'
loop_
 _atom_site_type_symbol
 _atom_site_label
 _atom_site_symmetry_multiplicity
 _atom_site_fract_x
 _atom_site_fract_y
 _atom_site_fract_z
 _atom_site_occupancy
  Li  Li0  1  0.04092000  0.74550000  0.20501900  1
  Li  Li1  1  0.54306200  0.74710200  0.70906500  1
  Li  Li2  1  0.46303400  0.25414600  0.96515500  1
  Li  Li3  1  0.95652800  0.25347300  0.46380900  1
  Li  Li4  1  0.53661900  0.74574900  0.03471200  1
  Li  Li5  1  0.04386100  0.74665000  0.53611900  1
  Li  Li6  1  0.95903700  0.25451300  0.79487100  1
  Li  Li7  1  0.45716200  0.25287700  0.29081700  1
  Co  Co8  1  0.24989400  0.49994400  0.24995000  1
  Co  Co9  1  0.75024400  0.50001200  0.74996400  1
  Co  Co10  1  0.25065500  0.50002000  0.91480000  1
  Co  Co11  1  0.75050500  0.50070300  0.41518300  1
  Co  Co12  1  0.74952200  0.49971900  0.08501000  1
  Co  Co13  1  0.24964900  0.49944700  0.58482300  1
  Co  Co14  1  0.50263100  0.99868100  0.16932900  1
  Co  Co15  1  0.99783300  0.00098000  0.66993000  1
  Co  Co16  1  0.49736300  0.00125000  0.83078800  1
  Co  Co17  1  0.00184100  0.99909300  0.33032800  1
  Ni  Ni18  1  0.49955300  0.00040400  0.50036400  1
  Ni  Ni19  1  0.00022600  0.99979600  0.99965600  1
  O  O20  1  0.91644900  0.60516500  0.30394800  1
  O  O21  1  0.41646100  0.60478200  0.80351300  1
  O  O22  1  0.08377800  0.39483300  0.69615300  1
  O  O23  1  0.58366400  0.39510900  0.19618900  1
  O  O24  1  0.34188600  0.10271200  0.05087800  1
  O  O25  1  0.83837400  0.10231600  0.55025600  1
  O  O26  1  0.65819600  0.89714700  0.94922200  1
  O  O27  1  0.16114500  0.89786200  0.44999200  1
  O  O28  1  0.29966800  0.10586800  0.73438500  1
  O  O29  1  0.79983700  0.10487900  0.23487700  1
  O  O30  1  0.19996300  0.89370000  0.12940900  1
  O  O31  1  0.69929200  0.89585500  0.63195400  1
  O  O32  1  0.79995800  0.10623000  0.87088200  1
  O  O33  1  0.30033400  0.10437400  0.36799700  1
  O  O34  1  0.70012800  0.89437700  0.26615600  1
  O  O35  1  0.20022600  0.89501000  0.76490500  1
  O  O36  1  0.12339900  0.39498600  0.03559400  1
  O  O37  1  0.62382800  0.39530900  0.53561000  1
  O  O38  1  0.62102500  0.39335200  0.85887200  1
  O  O39  1  0.12094700  0.39336400  0.35896800  1
  O  O40  1  0.37877600  0.60642600  0.14070200  1
  O  O41  1  0.87950800  0.60670700  0.64120300  1
  O  O42  1  0.87638600  0.60488100  0.96451700  1
  O  O43  1  0.37663500  0.60469900  0.46412600  1
