# generated using pymatgen
data_LiCr2(PO4)3
_symmetry_space_group_name_H-M   'P 1'
_cell_length_a   8.50593647
_cell_length_b   8.50593605
_cell_length_c   8.56145733
_cell_angle_alpha   60.12172828
_cell_angle_beta   60.12172994
_cell_angle_gamma   60.55708654
_symmetry_Int_Tables_number   1
_chemical_formula_structural   LiCr2(PO4)3
_chemical_formula_sum   'Li2 Cr4 P6 O24'
_cell_volume   440.63146005
_cell_formula_units_Z   2
loop_
 _symmetry_equiv_pos_site_id
 _symmetry_equiv_pos_as_xyz
  1  'x, y, z'
loop_
 _atom_site_type_symbol
 _atom_site_label
 _atom_site_symmetry_multiplicity
 _atom_site_fract_x
 _atom_site_fract_y
 _atom_site_fract_z
 _atom_site_occupancy
  Li  Li0  1  0.00000000  0.50000000  0.50000000  1
  Li  Li1  1  0.50000000  -0.00000000  -0.00000000  1
  Cr  Cr2  1  0.36343133  0.86251650  0.85268417  1
  Cr  Cr3  1  0.13748350  0.63656867  0.64731583  1
  Cr  Cr4  1  0.86251650  0.36343133  0.35268417  1
  Cr  Cr5  1  0.63656867  0.13748350  0.14731583  1
  P  P6  1  0.95952985  0.04047015  0.75000000  1
  P  P7  1  0.74748229  0.54488851  0.96381976  1
  P  P8  1  0.45511149  0.25251771  0.53618024  1
  P  P9  1  0.04047015  0.95952985  0.25000000  1
  P  P10  1  0.25251771  0.45511149  0.03618024  1
  P  P11  1  0.54488851  0.74748229  0.46381976  1
  O  O12  1  0.74109462  0.58604890  0.43939959  1
  O  O13  1  0.01036217  0.12514815  0.29831073  1
  O  O14  1  0.31660335  0.62066300  0.98089139  1
  O  O15  1  0.93494137  0.23593253  0.58412254  1
  O  O16  1  0.98963783  0.87485185  0.70168927  1
  O  O17  1  0.37933700  0.68339665  0.51910861  1
  O  O18  1  0.76406747  0.06505863  0.91587746  1
  O  O19  1  0.41395110  0.25890538  0.06060041  1
  O  O20  1  0.81298085  0.52248161  0.11434064  1
  O  O21  1  0.06505863  0.76406747  0.41587746  1
  O  O22  1  0.58604890  0.74109462  0.93939959  1
  O  O23  1  0.18701915  0.47751839  0.88565936  1
  O  O24  1  0.23593253  0.93494137  0.08412354  1
  O  O25  1  0.44341809  0.09033271  0.73398902  1
  O  O26  1  0.09033271  0.44341809  0.23398902  1
  O  O27  1  0.52248161  0.81298085  0.61434064  1
  O  O28  1  0.12514815  0.01036217  0.79831073  1
  O  O29  1  0.87485185  0.98963783  0.20168927  1
  O  O30  1  0.90966729  0.55658191  0.76601098  1
  O  O31  1  0.25890538  0.41395110  0.56060041  1
  O  O32  1  0.55658191  0.90966729  0.26601098  1
  O  O33  1  0.62066300  0.31660335  0.48089139  1
  O  O34  1  0.68339665  0.37933700  0.01910861  1
  O  O35  1  0.47751839  0.18701915  0.38565936  1
