# generated using pymatgen
data_Li9Mn2Co5O16
_symmetry_space_group_name_H-M   'P 1'
_cell_length_a   5.10326252
_cell_length_b   5.10326252
_cell_length_c   20.61418147
_cell_angle_alpha   81.50685773
_cell_angle_beta   81.50685773
_cell_angle_gamma   32.76045432
_symmetry_Int_Tables_number   1
_chemical_formula_structural   Li9Mn2Co5O16
_chemical_formula_sum   'Li9 Mn2 Co5 O16'
_cell_volume   287.04772236
_cell_formula_units_Z   1
loop_
 _symmetry_equiv_pos_site_id
 _symmetry_equiv_pos_as_xyz
  1  'x, y, z'
loop_
 _atom_site_type_symbol
 _atom_site_label
 _atom_site_symmetry_multiplicity
 _atom_site_fract_x
 _atom_site_fract_y
 _atom_site_fract_z
 _atom_site_occupancy
  Li  Li0  1  0.24859200  0.24859200  0.94221800  1
  Li  Li1  1  0.75140800  0.75140800  0.05778200  1
  Li  Li2  1  0.25453800  0.25453800  0.18637400  1
  Li  Li3  1  0.74716900  0.74716900  0.31108300  1
  Li  Li4  1  0.25197400  0.25197400  0.43975900  1
  Li  Li5  1  0.74802600  0.74802600  0.56024100  1
  Li  Li6  1  0.25283100  0.25283100  0.68891700  1
  Li  Li7  1  0.74546200  0.74546200  0.81362600  1
  Li  Li8  1  0.50000000  0.50000000  0.00000000  1
  Mn  Mn9  1  0.99430200  0.99430200  0.87988700  1
  Mn  Mn10  1  0.00569800  0.00569800  0.12011300  1
  Co  Co11  1  0.50322500  0.50322500  0.24881500  1
  Co  Co12  1  0.99936600  0.99936600  0.37528500  1
  Co  Co13  1  0.50000000  0.50000000  0.50000000  1
  Co  Co14  1  0.00063400  0.00063400  0.62471500  1
  Co  Co15  1  0.49677500  0.49677500  0.75118500  1
  O  O16  1  0.38794200  0.38794200  0.84549300  1
  O  O17  1  0.88235600  0.88235600  0.95949700  1
  O  O18  1  0.39024100  0.39024100  0.09788800  1
  O  O19  1  0.89165500  0.89165500  0.21604700  1
  O  O20  1  0.39116900  0.39116900  0.34434300  1
  O  O21  1  0.88100200  0.88100200  0.47057800  1
  O  O22  1  0.39163000  0.39163000  0.59598000  1
  O  O23  1  0.88074300  0.88074300  0.72192700  1
  O  O24  1  0.11764400  0.11764400  0.04050300  1
  O  O25  1  0.61205800  0.61205800  0.15450700  1
  O  O26  1  0.11925700  0.11925700  0.27807300  1
  O  O27  1  0.60837000  0.60837000  0.40402000  1
  O  O28  1  0.11899800  0.11899800  0.52942200  1
  O  O29  1  0.60883100  0.60883100  0.65565700  1
  O  O30  1  0.10834500  0.10834500  0.78395300  1
  O  O31  1  0.60975900  0.60975900  0.90211200  1
