# generated using pymatgen
data_LiMg2Cu
_symmetry_space_group_name_H-M   'P 1'
_cell_length_a   10.91902871
_cell_length_b   10.91902871
_cell_length_c   10.91902871
_cell_angle_alpha   120.18740864
_cell_angle_beta   119.37737329
_cell_angle_gamma   90.37874707
_symmetry_Int_Tables_number   1
_chemical_formula_structural   LiMg2Cu
_chemical_formula_sum   'Li1 Mg2 Cu1'
_cell_volume   923.47674035
_cell_formula_units_Z   1
loop_
 _symmetry_equiv_pos_site_id
 _symmetry_equiv_pos_as_xyz
  1  'x, y, z'
loop_
 _atom_site_type_symbol
 _atom_site_label
 _atom_site_symmetry_multiplicity
 _atom_site_fract_x
 _atom_site_fract_y
 _atom_site_fract_z
 _atom_site_occupancy
  Li  Li0  1  0.00000000  0.00000000  0.00000000  1
  Mg  Mg1  1  0.73526100  0.00000000  0.73526100  1
  Mg  Mg2  1  0.26473900  0.00000000  0.26473900  1
  Cu  Cu3  1  0.50000000  0.00000000  0.50000000  1
