# generated using pymatgen
data_Li2MnCo3O8
_symmetry_space_group_name_H-M   'P 1'
_cell_length_a   5.77976476
_cell_length_b   5.94817354
_cell_length_c   10.15376940
_cell_angle_alpha   73.68511282
_cell_angle_beta   90.12154434
_cell_angle_gamma   60.92609321
_symmetry_Int_Tables_number   1
_chemical_formula_structural   Li2MnCo3O8
_chemical_formula_sum   'Li4 Mn2 Co6 O16'
_cell_volume   288.77907784
_cell_formula_units_Z   2
loop_
 _symmetry_equiv_pos_site_id
 _symmetry_equiv_pos_as_xyz
  1  'x, y, z'
loop_
 _atom_site_type_symbol
 _atom_site_label
 _atom_site_symmetry_multiplicity
 _atom_site_fract_x
 _atom_site_fract_y
 _atom_site_fract_z
 _atom_site_occupancy
  Li  Li0  1  0.01357400  0.50013400  0.50011900  1
  Li  Li1  1  0.48728200  0.49913600  0.00002000  1
  Li  Li2  1  0.51361500  0.50003200  0.49968800  1
  Li  Li3  1  0.98686000  0.50036200  0.00042600  1
  Mn  Mn4  1  0.98753400  0.99965300  0.00008500  1
  Mn  Mn5  1  0.51257300  0.99983200  0.50001700  1
  Co  Co6  1  0.01275100  0.99993400  0.50001700  1
  Co  Co7  1  0.25138800  0.99814000  0.74956100  1
  Co  Co8  1  0.24929200  0.00061900  0.24967700  1
  Co  Co9  1  0.48695700  0.99977600  0.99998600  1
  Co  Co10  1  0.74909300  0.99932700  0.25072800  1
  Co  Co11  1  0.74832800  0.00255700  0.74963600  1
  O  O12  1  0.11886900  0.79240700  0.37757400  1
  O  O13  1  0.58921300  0.79286300  0.87689500  1
  O  O14  1  0.91207300  0.20784500  0.62251400  1
  O  O15  1  0.37768600  0.20839600  0.12307800  1
  O  O16  1  0.62279300  0.78739400  0.37574300  1
  O  O17  1  0.09013200  0.79019600  0.87477700  1
  O  O18  1  0.40991800  0.21241000  0.62424500  1
  O  O19  1  0.87730900  0.21009500  0.12504900  1
  O  O20  1  0.83401100  0.79558000  0.10664300  1
  O  O21  1  0.36454900  0.79480300  0.60765400  1
  O  O22  1  0.34179800  0.79304200  0.10828700  1
  O  O23  1  0.86977000  0.79610500  0.60775500  1
  O  O24  1  0.63015200  0.20650900  0.89212700  1
  O  O25  1  0.15880200  0.20449100  0.39237700  1
  O  O26  1  0.13878800  0.20409600  0.89298100  1
  O  O27  1  0.66489000  0.20426800  0.39234100  1
