# generated using pymatgen
data_Li7Mn2(CoO4)3
_symmetry_space_group_name_H-M   'P 1'
_cell_length_a   5.16893300
_cell_length_b   5.91265694
_cell_length_c   7.67568717
_cell_angle_alpha   77.09671058
_cell_angle_beta   75.62102886
_cell_angle_gamma   71.05738101
_symmetry_Int_Tables_number   1
_chemical_formula_structural   Li7Mn2(CoO4)3
_chemical_formula_sum   'Li7 Mn2 Co3 O12'
_cell_volume   212.30802411
_cell_formula_units_Z   1
loop_
 _symmetry_equiv_pos_site_id
 _symmetry_equiv_pos_as_xyz
  1  'x, y, z'
loop_
 _atom_site_type_symbol
 _atom_site_label
 _atom_site_symmetry_multiplicity
 _atom_site_fract_x
 _atom_site_fract_y
 _atom_site_fract_z
 _atom_site_occupancy
  Li  Li0  1  0.49666100  0.16761000  0.83105000  1
  Li  Li1  1  0.50703800  0.00748000  0.50163800  1
  Li  Li2  1  0.49741500  0.83958800  0.17396300  1
  Li  Li3  1  0.49713800  0.66308600  0.82711600  1
  Li  Li4  1  0.50291300  0.49329800  0.49656900  1
  Li  Li5  1  0.50360900  0.33007900  0.17179100  1
  Li  Li6  1  0.99869700  0.16519100  0.33462600  1
  Mn  Mn7  1  0.00594400  0.00680800  0.00103500  1
  Mn  Mn8  1  0.99735400  0.66896300  0.33430100  1
  Co  Co9  1  0.00014300  0.83361100  0.66537000  1
  Co  Co10  1  0.00065000  0.50122400  0.00098200  1
  Co  Co11  1  0.99608500  0.32391800  0.65757100  1
  O  O12  1  0.76405400  0.31629300  0.91396500  1
  O  O13  1  0.77390200  0.14710100  0.59433500  1
  O  O14  1  0.76981800  0.98589800  0.23986500  1
  O  O15  1  0.79915900  0.83314800  0.91848600  1
  O  O16  1  0.75375000  0.65788300  0.56747300  1
  O  O17  1  0.79025200  0.51404000  0.23937000  1
  O  O18  1  0.24071300  0.00177600  0.76246100  1
  O  O19  1  0.21036500  0.81548200  0.42445400  1
  O  O20  1  0.23823500  0.69065100  0.09398100  1
  O  O21  1  0.20832100  0.51162500  0.75585500  1
  O  O22  1  0.23268800  0.35071900  0.42260600  1
  O  O23  1  0.21509800  0.17452900  0.07113400  1
