# generated using pymatgen
data_Li8CoO5F
_symmetry_space_group_name_H-M   'P 1'
_cell_length_a   5.42868730
_cell_length_b   17.94133813
_cell_length_c   6.01627224
_cell_angle_alpha   96.45833328
_cell_angle_beta   113.61358847
_cell_angle_gamma   87.08923265
_symmetry_Int_Tables_number   1
_chemical_formula_structural   Li8CoO5F
_chemical_formula_sum   'Li32 Co4 O20 F4'
_cell_volume   533.48978131
_cell_formula_units_Z   4
loop_
 _symmetry_equiv_pos_site_id
 _symmetry_equiv_pos_as_xyz
  1  'x, y, z'
loop_
 _atom_site_type_symbol
 _atom_site_label
 _atom_site_symmetry_multiplicity
 _atom_site_fract_x
 _atom_site_fract_y
 _atom_site_fract_z
 _atom_site_occupancy
  Li  Li0  1  0.49988500  0.02826600  0.33003500  1
  Li  Li1  1  0.74858500  0.27800300  0.07986600  1
  Li  Li2  1  0.99762400  0.52686600  0.83249400  1
  Li  Li3  1  0.24849500  0.77736000  0.58273100  1
  Li  Li4  1  0.36262300  0.13280000  0.52967800  1
  Li  Li5  1  0.61620200  0.38448700  0.27819500  1
  Li  Li6  1  0.86836000  0.63383200  0.02958900  1
  Li  Li7  1  0.11430000  0.88218300  0.78171300  1
  Li  Li8  1  0.94939200  0.05970600  0.59004000  1
  Li  Li9  1  0.19779200  0.31011900  0.33889700  1
  Li  Li10  1  0.44918000  0.55872600  0.08019800  1
  Li  Li11  1  0.70031300  0.80837000  0.83070700  1
  Li  Li12  1  0.44711300  0.07328400  0.94755100  1
  Li  Li13  1  0.69631500  0.32316200  0.69668900  1
  Li  Li14  1  0.94418400  0.57007800  0.45049700  1
  Li  Li15  1  0.19509700  0.81996200  0.20113900  1
  Li  Li16  1  0.84022200  0.16639100  0.80377600  1
  Li  Li17  1  0.08957500  0.41756200  0.55570600  1
  Li  Li18  1  0.34228800  0.66874700  0.30641700  1
  Li  Li19  1  0.59323100  0.91746500  0.05416900  1
  Li  Li20  1  0.28449100  0.19266900  0.14771800  1
  Li  Li21  1  0.53260300  0.44326000  0.89702300  1
  Li  Li22  1  0.78546300  0.69291800  0.64901600  1
  Li  Li23  1  0.03709100  0.94234400  0.40009200  1
  Li  Li24  1  0.91289800  0.11641100  0.24588400  1
  Li  Li25  1  0.16294800  0.36576700  0.99401300  1
  Li  Li26  1  0.40961000  0.61590100  0.74944000  1
  Li  Li27  1  0.65860900  0.86672000  0.50043500  1
  Li  Li28  1  0.74297600  0.22442400  0.43276900  1
  Li  Li29  1  0.98902300  0.47271900  0.17495500  1
  Li  Li30  1  0.24045900  0.72278700  0.92504900  1
  Li  Li31  1  0.49386600  0.97475900  0.68281200  1
  Co  Co32  1  0.45840500  0.50948800  0.45411200  1
  Co  Co33  1  0.71023100  0.75944100  0.20561700  1
  Co  Co34  1  0.97151900  0.00615800  0.96511300  1
  Co  Co35  1  0.21980800  0.25616700  0.71323500  1
  O  O36  1  0.65185400  0.06674900  0.69518100  1
  O  O37  1  0.90101300  0.31690100  0.44432300  1
  O  O38  1  0.16230200  0.56595900  0.20321000  1
  O  O39  1  0.41311500  0.81571200  0.95398600  1
  O  O40  1  0.19632500  0.08954300  0.14355200  1
  O  O41  1  0.44563700  0.33932200  0.89294600  1
  O  O42  1  0.69556300  0.58886500  0.64938600  1
  O  O43  1  0.94591200  0.83910400  0.40010900  1
  O  O44  1  0.78690000  0.01623100  0.20975500  1
  O  O45  1  0.03494600  0.26626200  0.95810500  1
  O  O46  1  0.27446700  0.51780400  0.71837000  1
  O  O47  1  0.52614200  0.76778400  0.46959800  1
  O  O48  1  0.43969800  0.23486300  0.52210800  1
  O  O49  1  0.69478300  0.48511300  0.25750600  1
  O  O50  1  0.94807900  0.73469800  0.01004700  1
  O  O51  1  0.19278700  0.98439500  0.77487300  1
  O  O52  1  0.04982300  0.16087800  0.59388000  1
  O  O53  1  0.30363600  0.41191400  0.34712300  1
  O  O54  1  0.55527700  0.66203000  0.09820700  1
  O  O55  1  0.80085400  0.91114500  0.84519400  1
  F  F56  1  0.61763400  0.18128400  0.09577100  1
  F  F57  1  0.86725700  0.43074400  0.84216600  1
  F  F58  1  0.11772200  0.68142900  0.59184000  1
  F  F59  1  0.36751700  0.93196800  0.34538600  1
