# generated using pymatgen
data_Li3Mn4O8
_symmetry_space_group_name_H-M   'P 1'
_cell_length_a   5.76570667
_cell_length_b   9.95523088
_cell_length_c   11.44135950
_cell_angle_alpha   91.48276333
_cell_angle_beta   90.01613457
_cell_angle_gamma   90.02148172
_symmetry_Int_Tables_number   1
_chemical_formula_structural   Li3Mn4O8
_chemical_formula_sum   'Li12 Mn16 O32'
_cell_volume   656.50194649
_cell_formula_units_Z   4
loop_
 _symmetry_equiv_pos_site_id
 _symmetry_equiv_pos_as_xyz
  1  'x, y, z'
loop_
 _atom_site_type_symbol
 _atom_site_label
 _atom_site_symmetry_multiplicity
 _atom_site_fract_x
 _atom_site_fract_y
 _atom_site_fract_z
 _atom_site_occupancy
  Li  Li0  1  0.74861008  0.65527635  0.54073415  1
  Li  Li1  1  0.49984517  0.53092557  0.31795226  1
  Li  Li2  1  0.98486256  0.53470862  0.31502967  1
  Li  Li3  1  0.74093375  0.12768137  0.09286029  1
  Li  Li4  1  0.24630717  0.06666223  0.79604132  1
  Li  Li5  1  0.74434440  0.05326406  0.81358204  1
  Li  Li6  1  0.23505474  0.34507052  0.45936657  1
  Li  Li7  1  0.99818183  0.46533842  0.68499418  1
  Li  Li8  1  0.48325545  0.46920770  0.68193372  1
  Li  Li9  1  0.23811185  0.94676146  0.18646740  1
  Li  Li10  1  0.73601923  0.93303538  0.20395466  1
  Li  Li11  1  0.24301760  0.87211737  0.90744216  1
  Mn  Mn12  1  0.48936809  0.80484609  0.37753799  1
  Mn  Mn13  1  0.99203947  0.80636497  0.37224862  1
  Mn  Mn14  1  0.49464251  0.65863163  0.83875362  1
  Mn  Mn15  1  0.99075958  0.65561755  0.84123908  1
  Mn  Mn16  1  0.99222402  0.34426511  0.15867525  1
  Mn  Mn17  1  0.48838618  0.34111413  0.16115693  1
  Mn  Mn18  1  0.99174511  0.19378730  0.62777880  1
  Mn  Mn19  1  0.49455740  0.19530259  0.62258432  1
  Mn  Mn20  1  0.24423207  0.32529486  0.87567393  1
  Mn  Mn21  1  0.74139272  0.32639785  0.86422073  1
  Mn  Mn22  1  0.23572776  0.14070565  0.33498783  1
  Mn  Mn23  1  0.73864646  0.15799010  0.34284433  1
  Mn  Mn24  1  0.24519865  0.84206146  0.65722142  1
  Mn  Mn25  1  0.74827175  0.85953484  0.66507564  1
  Mn  Mn26  1  0.24159514  0.67346464  0.13566589  1
  Mn  Mn27  1  0.73864692  0.67456170  0.12423202  1
  O  O28  1  0.24373641  0.06662592  0.63268211  1
  O  O29  1  0.74309989  0.06661682  0.64069381  1
  O  O30  1  0.24222908  0.30316658  0.05438892  1
  O  O31  1  0.73827361  0.30374851  0.05011147  1
  O  O32  1  0.24467977  0.69592781  0.94981190  1
  O  O33  1  0.74068881  0.69653667  0.94555491  1
  O  O34  1  0.24064479  0.93356862  0.35920690  1
  O  O35  1  0.74004651  0.93353359  0.36730228  1
  O  O36  1  0.98902070  0.55067668  0.13936179  1
  O  O37  1  0.49034316  0.53917233  0.14432069  1
  O  O38  1  0.98911090  0.80145288  0.54786621  1
  O  O39  1  0.50624801  0.80336586  0.55964192  1
  O  O40  1  0.47771008  0.19698877  0.44041604  1
  O  O41  1  0.99483129  0.19888480  0.45221856  1
  O  O42  1  0.49253882  0.46065808  0.85559863  1
  O  O43  1  0.99386831  0.44917478  0.86067354  1
  O  O44  1  0.49295779  0.19161662  0.84633688  1
  O  O45  1  0.99543760  0.19453420  0.81933604  1
  O  O46  1  0.97660887  0.11433996  0.22031760  1
  O  O47  1  0.49744900  0.13284347  0.21244048  1
  O  O48  1  0.98758386  0.80536591  0.18058710  1
  O  O49  1  0.48993086  0.80824182  0.15341697  1
  O  O50  1  0.48616769  0.86710510  0.78761706  1
  O  O51  1  0.00721866  0.88579164  0.77981507  1
  O  O52  1  0.24075502  0.67052240  0.35585551  1
  O  O53  1  0.74262481  0.66660190  0.37057446  1
  O  O54  1  0.24220086  0.63278648  0.72534789  1
  O  O55  1  0.74285918  0.63334290  0.71867714  1
  O  O56  1  0.24102683  0.33356973  0.62953731  1
  O  O57  1  0.74295960  0.32959651  0.64425022  1
  O  O58  1  0.24030053  0.36657149  0.28126438  1
  O  O59  1  0.74087105  0.36714466  0.27456040  1
