# generated using pymatgen
data_Li3Mn7O12
_symmetry_space_group_name_H-M   'P 1'
_cell_length_a   5.23821479
_cell_length_b   5.23972357
_cell_length_c   30.38903770
_cell_angle_alpha   84.27205432
_cell_angle_beta   95.76460731
_cell_angle_gamma   58.25519232
_symmetry_Int_Tables_number   1
_chemical_formula_structural   Li3Mn7O12
_chemical_formula_sum   'Li9 Mn21 O36'
_cell_volume   694.13535095
_cell_formula_units_Z   3
loop_
 _symmetry_equiv_pos_site_id
 _symmetry_equiv_pos_as_xyz
  1  'x, y, z'
loop_
 _atom_site_type_symbol
 _atom_site_label
 _atom_site_symmetry_multiplicity
 _atom_site_fract_x
 _atom_site_fract_y
 _atom_site_fract_z
 _atom_site_occupancy
  Li  Li0  1  0.32949438  0.84078909  0.99787703  1
  Li  Li1  1  0.32974736  0.84043030  0.66470914  1
  Li  Li2  1  0.66576546  0.16995841  0.33239880  1
  Li  Li3  1  0.84036055  0.32972823  0.83529175  1
  Li  Li4  1  0.84394601  0.32345910  0.50185818  1
  Li  Li5  1  0.84142488  0.32947017  0.16860284  1
  Li  Li6  1  0.91705985  0.91724490  0.91665984  1
  Li  Li7  1  0.91680899  0.91778004  0.58350024  1
  Li  Li8  1  0.92475078  0.91347334  0.25065576  1
  Mn  Mn9  1  0.08075316  0.08077337  0.75003653  1
  Mn  Mn10  1  0.08131763  0.07807245  0.41657561  1
  Mn  Mn11  1  0.25308963  0.25318798  0.91663234  1
  Mn  Mn12  1  0.08072045  0.08129841  0.08334543  1
  Mn  Mn13  1  0.25360463  0.25438817  0.58336451  1
  Mn  Mn14  1  0.25259434  0.24564909  0.25012342  1
  Mn  Mn15  1  0.42063581  0.42063550  0.75006547  1
  Mn  Mn16  1  0.57460282  0.57493611  0.91659118  1
  Mn  Mn17  1  0.42175973  0.42280985  0.41683931  1
  Mn  Mn18  1  0.57548878  0.57497594  0.58356209  1
  Mn  Mn19  1  0.42059975  0.42093815  0.08333085  1
  Mn  Mn20  1  0.50950507  0.00600662  0.83530026  1
  Mn  Mn21  1  0.57419378  0.57905752  0.24954693  1
  Mn  Mn22  1  0.75259951  0.75297621  0.74997101  1
  Mn  Mn23  1  0.50908035  0.00913954  0.50262782  1
  Mn  Mn24  1  0.00583914  0.50906353  0.99792614  1
  Mn  Mn25  1  0.75052762  0.74893451  0.41681641  1
  Mn  Mn26  1  0.50962762  0.00741949  0.16887265  1
  Mn  Mn27  1  0.00663891  0.50828574  0.66478056  1
  Mn  Mn28  1  0.75223842  0.75361630  0.08325444  1
  Mn  Mn29  1  0.00148378  0.50684194  0.33097997  1
  O  O30  1  0.11647844  0.37589099  0.78806388  1
  O  O31  1  0.10797373  0.35308283  0.45487519  1
  O  O32  1  0.07120650  0.76334087  0.71119396  1
  O  O33  1  0.28915653  0.53359010  0.95105797  1
  O  O34  1  0.37564938  0.11560219  0.71177923  1
  O  O35  1  0.11712818  0.37907376  0.12109505  1
  O  O36  1  0.03577776  0.78446090  0.38170502  1
  O  O37  1  0.53328923  0.28876366  0.88214809  1
  O  O38  1  0.28837225  0.53476825  0.61789282  1
  O  O39  1  0.39531274  0.14866794  0.37936593  1
  O  O40  1  0.23897615  0.97082083  0.88020631  1
  O  O41  1  0.06980795  0.76252547  0.04439232  1
  O  O42  1  0.53310370  0.29256310  0.54906504  1
  O  O43  1  0.30177094  0.50938846  0.28558131  1
  O  O44  1  0.76340673  0.07183873  0.78903794  1
  O  O45  1  0.37419655  0.11382369  0.04510402  1
  O  O46  1  0.44701321  0.73429061  0.78749567  1
  O  O47  1  0.24264798  0.97022071  0.54652119  1
  O  O48  1  0.52628067  0.28950562  0.21457077  1
  O  O49  1  0.75438864  0.07473500  0.45843600  1
  O  O50  1  0.60367940  0.84957422  0.95436861  1
  O  O51  1  0.46219585  0.71487081  0.45088402  1
  O  O52  1  0.73310415  0.44582822  0.71265517  1
  O  O53  1  0.23417404  0.96980197  0.21353850  1
  O  O54  1  0.97060654  0.23915356  0.95303263  1
  O  O55  1  0.76448772  0.07354810  0.12220564  1
  O  O56  1  0.60571561  0.84642806  0.62129952  1
  O  O57  1  0.44821175  0.73761940  0.12103582  1
  O  O58  1  0.84914777  0.60360095  0.87892065  1
  O  O59  1  0.75031510  0.42321191  0.37617449  1
  O  O60  1  0.97115313  0.23840797  0.61957361  1
  O  O61  1  0.61822897  0.86500407  0.28696420  1
  O  O62  1  0.84682121  0.60704285  0.54526296  1
  O  O63  1  0.73083626  0.44561018  0.04603313  1
  O  O64  1  0.95124861  0.24317349  0.28566520  1
  O  O65  1  0.85008945  0.60129750  0.21213563  1
