# generated using pymatgen
data_Li9Mn7O16
_symmetry_space_group_name_H-M   'P 1'
_cell_length_a   2.87539300
_cell_length_b   10.54547500
_cell_length_c   10.69247532
_cell_angle_alpha   66.70429122
_cell_angle_beta   90.00000000
_cell_angle_gamma   90.00000000
_symmetry_Int_Tables_number   1
_chemical_formula_structural   Li9Mn7O16
_chemical_formula_sum   'Li9 Mn7 O16'
_cell_volume   297.78953277
_cell_formula_units_Z   1
loop_
 _symmetry_equiv_pos_site_id
 _symmetry_equiv_pos_as_xyz
  1  'x, y, z'
loop_
 _atom_site_type_symbol
 _atom_site_label
 _atom_site_symmetry_multiplicity
 _atom_site_fract_x
 _atom_site_fract_y
 _atom_site_fract_z
 _atom_site_occupancy
  Li  Li0  1  0.50000000  0.75335900  0.75318800  1
  Li  Li1  1  0.50000000  0.24129300  0.75539200  1
  Li  Li2  1  0.00000000  0.74628000  0.49621000  1
  Li  Li3  1  0.00000000  0.25372000  0.50379000  1
  Li  Li4  1  0.50000000  0.75870700  0.24460800  1
  Li  Li5  1  0.50000000  0.24664100  0.24681200  1
  Li  Li6  1  0.00000000  0.75685400  0.00162800  1
  Li  Li7  1  0.00000000  0.24314600  0.99837200  1
  Li  Li8  1  0.50000000  0.00000000  0.00000000  1
  Mn  Mn9  1  0.00000000  0.00626400  0.75954800  1
  Mn  Mn10  1  0.00000000  0.99373600  0.24045200  1
  Mn  Mn11  1  0.00000000  0.49860700  0.74985300  1
  Mn  Mn12  1  0.50000000  0.00000000  0.50000000  1
  Mn  Mn13  1  0.50000000  0.50000000  0.50000000  1
  Mn  Mn14  1  0.00000000  0.50139300  0.25014700  1
  Mn  Mn15  1  0.50000000  0.50000000  0.00000000  1
  O  O16  1  0.50000000  0.88678700  0.86218100  1
  O  O17  1  0.50000000  0.38048200  0.86037600  1
  O  O18  1  0.00000000  0.89467800  0.62295300  1
  O  O19  1  0.00000000  0.38419000  0.60966800  1
  O  O20  1  0.50000000  0.88619100  0.36263600  1
  O  O21  1  0.50000000  0.38077700  0.35942000  1
  O  O22  1  0.00000000  0.88931200  0.14043300  1
  O  O23  1  0.00000000  0.38252700  0.11018900  1
  O  O24  1  0.50000000  0.61922300  0.64058000  1
  O  O25  1  0.50000000  0.11380900  0.63736400  1
  O  O26  1  0.00000000  0.61581000  0.39033200  1
  O  O27  1  0.00000000  0.10532200  0.37704700  1
  O  O28  1  0.50000000  0.61951800  0.13962400  1
  O  O29  1  0.50000000  0.11321300  0.13781900  1
  O  O30  1  0.00000000  0.61747300  0.88981100  1
  O  O31  1  0.00000000  0.11068800  0.85956700  1
