# generated using pymatgen
data_Li7V3P8O29
_symmetry_space_group_name_H-M   'P 1'
_cell_length_a   9.82199989
_cell_length_b   9.82199989
_cell_length_c   13.98862509
_cell_angle_alpha   88.79863430
_cell_angle_beta   88.79863430
_cell_angle_gamma   60.52920249
_symmetry_Int_Tables_number   1
_chemical_formula_structural   Li7V3P8O29
_chemical_formula_sum   'Li14 V6 P16 O58'
_cell_volume   1174.54273359
_cell_formula_units_Z   2
loop_
 _symmetry_equiv_pos_site_id
 _symmetry_equiv_pos_as_xyz
  1  'x, y, z'
loop_
 _atom_site_type_symbol
 _atom_site_label
 _atom_site_symmetry_multiplicity
 _atom_site_fract_x
 _atom_site_fract_y
 _atom_site_fract_z
 _atom_site_occupancy
  Li  Li0  1  0.90952800  0.32216300  0.93294200  1
  Li  Li1  1  0.67028000  0.67311000  0.11252100  1
  Li  Li2  1  0.67311000  0.67028000  0.61252100  1
  Li  Li3  1  0.76482400  0.32209100  0.43563400  1
  Li  Li4  1  0.32216300  0.90952800  0.43294200  1
  Li  Li5  1  0.67790900  0.23517600  0.06436600  1
  Li  Li6  1  0.32209100  0.76482400  0.93563400  1
  Li  Li7  1  0.67783700  0.09047200  0.56705800  1
  Li  Li8  1  0.23517600  0.67790900  0.56436600  1
  Li  Li9  1  0.32972000  0.32689000  0.88747900  1
  Li  Li10  1  0.32689000  0.32972000  0.38747900  1
  Li  Li11  1  0.09047200  0.67783700  0.06705800  1
  Li  Li12  1  0.00000000  0.00000000  0.50000000  1
  Li  Li13  1  0.00000000  0.00000000  0.00000000  1
  V  V14  1  0.56459600  0.43540400  0.25000000  1
  V  V15  1  0.43540400  0.56459600  0.75000000  1
  V  V16  1  0.56507300  0.99415100  0.75458500  1
  V  V17  1  0.43492700  0.00584900  0.24541500  1
  V  V18  1  0.99415100  0.56507300  0.25458500  1
  V  V19  1  0.00584900  0.43492700  0.74541500  1
  P  P20  1  0.91601800  0.78310400  0.66540700  1
  P  P21  1  0.78310400  0.91601800  0.16540700  1
  P  P22  1  0.91274200  0.31701000  0.14924000  1
  P  P23  1  0.66108100  0.67077900  0.37379300  1
  P  P24  1  0.67077900  0.66108100  0.87379300  1
  P  P25  1  0.77684700  0.32005500  0.65724300  1
  P  P26  1  0.67994500  0.22315300  0.84275700  1
  P  P27  1  0.31701000  0.91274200  0.64924000  1
  P  P28  1  0.68299000  0.08725800  0.35076000  1
  P  P29  1  0.32005500  0.77684700  0.15724300  1
  P  P30  1  0.22315300  0.67994500  0.34275700  1
  P  P31  1  0.32922100  0.33891900  0.12620700  1
  P  P32  1  0.33891900  0.32922100  0.62620700  1
  P  P33  1  0.08725800  0.68299000  0.85076000  1
  P  P34  1  0.21689600  0.08398200  0.83459300  1
  P  P35  1  0.08398200  0.21689600  0.33459300  1
  O  O36  1  0.01081900  0.76123600  0.94389100  1
  O  O37  1  0.92129500  0.74703600  0.16227600  1
  O  O38  1  0.76123600  0.01081900  0.44389100  1
  O  O39  1  0.74703600  0.92129500  0.66227600  1
  O  O40  1  0.90546100  0.62939500  0.66868100  1
  O  O41  1  0.81154900  0.66197600  0.32442600  1
  O  O42  1  0.89710300  0.48040500  0.16611100  1
  O  O43  1  0.98611200  0.20282200  0.41460100  1
  O  O44  1  0.92122000  0.34042300  0.66051900  1
  O  O45  1  0.66197600  0.81154900  0.82442600  1
  O  O46  1  0.62939500  0.90546100  0.16868100  1
  O  O47  1  0.81921500  0.51684500  0.82945000  1
  O  O48  1  0.66141900  0.68654200  0.48004600  1
  O  O49  1  0.68654200  0.66141900  0.98004600  1
  O  O50  1  0.66089500  0.52014700  0.34492800  1
  O  O51  1  0.48040500  0.89710300  0.66611100  1
  O  O52  1  0.51684500  0.81921500  0.32945000  1
  O  O53  1  0.74845300  0.33464300  0.15917800  1
  O  O54  1  0.78459700  0.21540300  0.75000000  1
  O  O55  1  0.76875000  0.22649900  0.92922600  1
  O  O56  1  0.77350100  0.23125000  0.57077400  1
  O  O57  1  0.63059400  0.48354900  0.66633700  1
  O  O58  1  0.52014700  0.66089500  0.84492800  1
  O  O59  1  0.66535700  0.25154700  0.34082200  1
  O  O60  1  0.48354900  0.63059400  0.16633700  1
  O  O61  1  0.34042300  0.92122000  0.16051900  1
  O  O62  1  0.79642700  0.98197600  0.26610400  1
  O  O63  1  0.79717800  0.01388800  0.08539900  1
  O  O64  1  0.20282200  0.98611200  0.91460100  1
  O  O65  1  0.65957700  0.07878000  0.83948100  1
  O  O66  1  0.51645100  0.36940600  0.83366300  1
  O  O67  1  0.33464300  0.74845300  0.65917800  1
  O  O68  1  0.47985300  0.33910500  0.15507200  1
  O  O69  1  0.36940600  0.51645100  0.33366300  1
  O  O70  1  0.22649900  0.76875000  0.42922600  1
  O  O71  1  0.23125000  0.77350100  0.07077400  1
  O  O72  1  0.21540300  0.78459700  0.25000000  1
  O  O73  1  0.25154700  0.66535700  0.84082200  1
  O  O74  1  0.48315500  0.18078500  0.67055000  1
  O  O75  1  0.51959500  0.10289700  0.33388900  1
  O  O76  1  0.33910500  0.47985300  0.65507200  1
  O  O77  1  0.33858100  0.31345800  0.51995400  1
  O  O78  1  0.31345800  0.33858100  0.01995400  1
  O  O79  1  0.18078500  0.48315500  0.17055000  1
  O  O80  1  0.37060500  0.09453900  0.83131900  1
  O  O81  1  0.33802400  0.18845100  0.17557400  1
  O  O82  1  0.07878000  0.65957700  0.33948100  1
  O  O83  1  0.98197600  0.79642700  0.76610400  1
  O  O84  1  0.01388800  0.79717800  0.58539900  1
  O  O85  1  0.10289700  0.51959500  0.83388900  1
  O  O86  1  0.18845100  0.33802400  0.67557400  1
  O  O87  1  0.09453900  0.37060500  0.33131900  1
  O  O88  1  0.25296400  0.07870500  0.33772400  1
  O  O89  1  0.23876400  0.98918100  0.55610900  1
  O  O90  1  0.20357300  0.01802400  0.73389600  1
  O  O91  1  0.07870500  0.25296400  0.83772400  1
  O  O92  1  0.98918100  0.23876400  0.05610900  1
  O  O93  1  0.01802400  0.20357300  0.23389600  1
