# generated using pymatgen
data_Li9Mn2Co5O16
_symmetry_space_group_name_H-M   'P 1'
_cell_length_a   5.02393100
_cell_length_b   5.09388965
_cell_length_c   11.47794583
_cell_angle_alpha   79.54395137
_cell_angle_beta   84.49201299
_cell_angle_gamma   80.53283487
_symmetry_Int_Tables_number   1
_chemical_formula_structural   Li9Mn2Co5O16
_chemical_formula_sum   'Li9 Mn2 Co5 O16'
_cell_volume   284.26122736
_cell_formula_units_Z   1
loop_
 _symmetry_equiv_pos_site_id
 _symmetry_equiv_pos_as_xyz
  1  'x, y, z'
loop_
 _atom_site_type_symbol
 _atom_site_label
 _atom_site_symmetry_multiplicity
 _atom_site_fract_x
 _atom_site_fract_y
 _atom_site_fract_z
 _atom_site_occupancy
  Li  Li0  1  0.75335100  0.56688300  0.93424500  1
  Li  Li1  1  0.74070900  0.80587200  0.67483600  1
  Li  Li2  1  0.25045700  0.69034300  0.80620200  1
  Li  Li3  1  0.24827500  0.94133300  0.56095400  1
  Li  Li4  1  0.75865600  0.05608800  0.44463500  1
  Li  Li5  1  0.74159000  0.31454800  0.19402500  1
  Li  Li6  1  0.25992100  0.43624400  0.06342300  1
  Li  Li7  1  0.24603400  0.18668100  0.32068000  1
  Li  Li8  1  0.99123400  0.49806900  0.49809400  1
  Mn  Mn9  1  0.00442700  0.00581900  0.00136400  1
  Mn  Mn10  1  0.99943100  0.74483500  0.25311100  1
  Co  Co11  1  0.00133700  0.25964100  0.74064000  1
  Co  Co12  1  0.49832300  0.37176100  0.62294600  1
  Co  Co13  1  0.48787800  0.60425700  0.38454500  1
  Co  Co14  1  0.50341400  0.87563800  0.12535500  1
  Co  Co15  1  0.50760100  0.13991800  0.86950400  1
  O  O16  1  0.87108100  0.68800600  0.09746800  1
  O  O17  1  0.88916500  0.92692300  0.85633400  1
  O  O18  1  0.37188800  0.81510000  0.97734000  1
  O  O19  1  0.37733600  0.05172100  0.72131900  1
  O  O20  1  0.85191300  0.16639600  0.60342700  1
  O  O21  1  0.87803600  0.43091100  0.33365800  1
  O  O22  1  0.36106600  0.56219500  0.21463000  1
  O  O23  1  0.38687800  0.28418700  0.46106600  1
  O  O24  1  0.62261300  0.45935500  0.79048700  1
  O  O25  1  0.60411300  0.69323200  0.53342700  1
  O  O26  1  0.13640000  0.56793500  0.66053000  1
  O  O27  1  0.11790100  0.83714300  0.38983400  1
  O  O28  1  0.63396500  0.93732600  0.27068600  1
  O  O29  1  0.64491600  0.19161500  0.03460200  1
  O  O30  1  0.12391000  0.32294900  0.91184300  1
  O  O31  1  0.13617900  0.06707800  0.14878700  1
