# generated using pymatgen
data_Li4Mn3O7
_symmetry_space_group_name_H-M   'P 1'
_cell_length_a   15.56012822
_cell_length_b   15.56012822
_cell_length_c   5.85905480
_cell_angle_alpha   85.37663295
_cell_angle_beta   85.37663295
_cell_angle_gamma   10.61967230
_symmetry_Int_Tables_number   1
_chemical_formula_structural   Li4Mn3O7
_chemical_formula_sum   'Li8 Mn6 O14'
_cell_volume   260.57046121
_cell_formula_units_Z   2
loop_
 _symmetry_equiv_pos_site_id
 _symmetry_equiv_pos_as_xyz
  1  'x, y, z'
loop_
 _atom_site_type_symbol
 _atom_site_label
 _atom_site_symmetry_multiplicity
 _atom_site_fract_x
 _atom_site_fract_y
 _atom_site_fract_z
 _atom_site_occupancy
  Li  Li0  1  0.50000000  0.50000000  0.50000000  1
  Li  Li1  1  0.36115000  0.36115000  0.06870500  1
  Li  Li2  1  0.21490300  0.21490300  0.64287600  1
  Li  Li3  1  0.93547000  0.93547000  0.78860500  1
  Li  Li4  1  0.78509700  0.78509700  0.35712400  1
  Li  Li5  1  0.63885000  0.63885000  0.93129500  1
  Li  Li6  1  0.06453000  0.06453000  0.21139500  1
  Li  Li7  1  0.50000000  0.50000000  0.00000000  1
  Mn  Mn8  1  0.06500900  0.06500900  0.72162600  1
  Mn  Mn9  1  0.93499100  0.93499100  0.27837400  1
  Mn  Mn10  1  0.78708700  0.78708700  0.85561400  1
  Mn  Mn11  1  0.63875700  0.63875700  0.43190100  1
  Mn  Mn12  1  0.36124300  0.36124300  0.56809900  1
  Mn  Mn13  1  0.21291300  0.21291300  0.14438600  1
  O  O14  1  0.56814100  0.56814100  0.49114600  1
  O  O15  1  0.42911200  0.42911200  0.06016400  1
  O  O16  1  0.28543600  0.28543600  0.62653700  1
  O  O17  1  0.00658300  0.00658300  0.74977200  1
  O  O18  1  0.86350600  0.86350600  0.33770100  1
  O  O19  1  0.71207600  0.71207600  0.91578900  1
  O  O20  1  0.14006500  0.14006500  0.20413200  1
  O  O21  1  0.43185900  0.43185900  0.50885400  1
  O  O22  1  0.28792400  0.28792400  0.08421100  1
  O  O23  1  0.13649400  0.13649400  0.66229900  1
  O  O24  1  0.85993500  0.85993500  0.79586800  1
  O  O25  1  0.71456400  0.71456400  0.37346300  1
  O  O26  1  0.57088800  0.57088800  0.93983600  1
  O  O27  1  0.99341700  0.99341700  0.25022800  1
