# generated using pymatgen
data_Li6V3P8O29
_symmetry_space_group_name_H-M   'P 1'
_cell_length_a   9.81262734
_cell_length_b   9.81262734
_cell_length_c   14.00275611
_cell_angle_alpha   89.91166617
_cell_angle_beta   89.91166617
_cell_angle_gamma   59.66430665
_symmetry_Int_Tables_number   1
_chemical_formula_structural   Li6V3P8O29
_chemical_formula_sum   'Li12 V6 P16 O58'
_cell_volume   1163.68395422
_cell_formula_units_Z   2
loop_
 _symmetry_equiv_pos_site_id
 _symmetry_equiv_pos_as_xyz
  1  'x, y, z'
loop_
 _atom_site_type_symbol
 _atom_site_label
 _atom_site_symmetry_multiplicity
 _atom_site_fract_x
 _atom_site_fract_y
 _atom_site_fract_z
 _atom_site_occupancy
  Li  Li0  1  0.89915500  0.76359400  0.93808800  1
  Li  Li1  1  0.76359400  0.89915500  0.43808800  1
  Li  Li2  1  0.90004000  0.33472800  0.44010100  1
  Li  Li3  1  0.76245600  0.33504600  0.93988600  1
  Li  Li4  1  0.33472800  0.90004000  0.94010100  1
  Li  Li5  1  0.66514100  0.23394200  0.55958900  1
  Li  Li6  1  0.33504600  0.76245600  0.43988600  1
  Li  Li7  1  0.23394200  0.66514100  0.05958900  1
  Li  Li8  1  0.23539700  0.09861000  0.56079800  1
  Li  Li9  1  0.09861000  0.23539700  0.06079800  1
  Li  Li10  1  0.94802200  0.01414900  0.00509200  1
  Li  Li11  1  0.01414900  0.94802200  0.50509200  1
  V  V12  1  0.56496200  0.43479800  0.75048000  1
  V  V13  1  0.43479800  0.56496200  0.25048000  1
  V  V14  1  0.56345000  0.00266200  0.24670600  1
  V  V15  1  0.43851400  0.99869500  0.75241600  1
  V  V16  1  0.00266200  0.56345000  0.74670600  1
  V  V17  1  0.99869500  0.43851400  0.25241600  1
  P  P18  1  0.91446500  0.77404900  0.15594500  1
  P  P19  1  0.77404900  0.91446500  0.65594500  1
  P  P20  1  0.91320000  0.31312900  0.65867300  1
  P  P21  1  0.67129900  0.66265700  0.86941400  1
  P  P22  1  0.66265700  0.67129900  0.36941400  1
  P  P23  1  0.77660100  0.31363800  0.15724600  1
  P  P24  1  0.69014100  0.22404000  0.34125200  1
  P  P25  1  0.31312900  0.91320000  0.15867300  1
  P  P26  1  0.69306600  0.08568100  0.84066900  1
  P  P27  1  0.31363800  0.77660100  0.65724600  1
  P  P28  1  0.22404000  0.69014100  0.84125200  1
  P  P29  1  0.33436700  0.33057800  0.63129100  1
  P  P30  1  0.33057800  0.33436700  0.13129100  1
  P  P31  1  0.08568100  0.69306600  0.34066900  1
  P  P32  1  0.22584500  0.08666400  0.34238100  1
  P  P33  1  0.08666400  0.22584500  0.84238100  1
  O  O34  1  0.99257500  0.80149400  0.42111600  1
  O  O35  1  0.91254800  0.74725500  0.66068500  1
  O  O36  1  0.80149400  0.99257500  0.92111600  1
  O  O37  1  0.74725500  0.91254800  0.16068500  1
  O  O38  1  0.91826100  0.61572200  0.17040500  1
  O  O39  1  0.81513100  0.67232600  0.82731500  1
  O  O40  1  0.90608700  0.47138100  0.67044900  1
  O  O41  1  0.00035200  0.21917100  0.93068700  1
  O  O42  1  0.91940800  0.34055000  0.16225400  1
  O  O43  1  0.67232600  0.81513100  0.32731500  1
  O  O44  1  0.61572200  0.91826100  0.67040500  1
  O  O45  1  0.80772700  0.51504200  0.33024200  1
  O  O46  1  0.67474300  0.65947500  0.97610700  1
  O  O47  1  0.65947500  0.67474300  0.47610700  1
  O  O48  1  0.68053500  0.50837700  0.82859500  1
  O  O49  1  0.47138100  0.90608700  0.17044900  1
  O  O50  1  0.51504200  0.80772700  0.83024200  1
  O  O51  1  0.74513700  0.33450700  0.65958500  1
  O  O52  1  0.79720400  0.20396100  0.24862100  1
  O  O53  1  0.77684600  0.22628700  0.43028200  1
  O  O54  1  0.78920200  0.22539900  0.06693400  1
  O  O55  1  0.61909700  0.46859400  0.16998000  1
  O  O56  1  0.50837700  0.68053500  0.32859500  1
  O  O57  1  0.66062000  0.25788600  0.84212500  1
  O  O58  1  0.46859400  0.61909700  0.66998000  1
  O  O59  1  0.34055000  0.91940800  0.66225400  1
  O  O60  1  0.78898600  0.01374600  0.74232900  1
  O  O61  1  0.77672200  0.99828100  0.56472800  1
  O  O62  1  0.21917100  0.00035200  0.43068700  1
  O  O63  1  0.66741900  0.08076500  0.34137700  1
  O  O64  1  0.53208800  0.37995700  0.32772700  1
  O  O65  1  0.33450700  0.74513700  0.15958500  1
  O  O66  1  0.48812400  0.32257300  0.67079900  1
  O  O67  1  0.37995700  0.53208800  0.82772700  1
  O  O68  1  0.22628700  0.77684600  0.93028200  1
  O  O69  1  0.22539900  0.78920200  0.56693400  1
  O  O70  1  0.20396100  0.79720400  0.74862100  1
  O  O71  1  0.25788600  0.66062000  0.34212500  1
  O  O72  1  0.48030900  0.18864800  0.17846300  1
  O  O73  1  0.53919600  0.08170200  0.83348300  1
  O  O74  1  0.32257300  0.48812400  0.17079900  1
  O  O75  1  0.32893200  0.33174300  0.02516600  1
  O  O76  1  0.33174300  0.32893200  0.52516600  1
  O  O77  1  0.18864800  0.48030900  0.67846300  1
  O  O78  1  0.38045700  0.08621700  0.33195800  1
  O  O79  1  0.32414600  0.18705800  0.67336600  1
  O  O80  1  0.08076500  0.66741900  0.84137700  1
  O  O81  1  0.01374600  0.78898600  0.24232900  1
  O  O82  1  0.99828100  0.77672200  0.06472800  1
  O  O83  1  0.08170200  0.53919600  0.33348300  1
  O  O84  1  0.18705800  0.32414600  0.17336600  1
  O  O85  1  0.08621700  0.38045700  0.83195800  1
  O  O86  1  0.25737600  0.08057500  0.84204500  1
  O  O87  1  0.22487100  0.00062100  0.06951000  1
  O  O88  1  0.20245200  0.00117500  0.25006000  1
  O  O89  1  0.08057500  0.25737600  0.34204500  1
  O  O90  1  0.00062100  0.22487100  0.56951000  1
  O  O91  1  0.00117500  0.20245200  0.75006000  1
