# generated using pymatgen
data_Li9Mn2Co5O16
_symmetry_space_group_name_H-M   'P 1'
_cell_length_a   5.66431877
_cell_length_b   10.04904384
_cell_length_c   5.94422645
_cell_angle_alpha   91.69596905
_cell_angle_beta   118.45732424
_cell_angle_gamma   73.52279322
_symmetry_Int_Tables_number   1
_chemical_formula_structural   Li9Mn2Co5O16
_chemical_formula_sum   'Li9 Mn2 Co5 O16'
_cell_volume   283.00805352
_cell_formula_units_Z   1
loop_
 _symmetry_equiv_pos_site_id
 _symmetry_equiv_pos_as_xyz
  1  'x, y, z'
loop_
 _atom_site_type_symbol
 _atom_site_label
 _atom_site_symmetry_multiplicity
 _atom_site_fract_x
 _atom_site_fract_y
 _atom_site_fract_z
 _atom_site_occupancy
  Li  Li0  1  0.00002390  0.25551426  0.75291759  1
  Li  Li1  1  0.50188923  0.74831320  0.24887282  1
  Li  Li2  1  0.99390552  0.25771491  0.24301485  1
  Li  Li3  1  0.50633973  0.74243195  0.75314179  1
  Li  Li4  1  0.49366027  0.25756805  0.24685821  1
  Li  Li5  1  0.00609448  0.74228509  0.75698515  1
  Li  Li6  1  0.49811077  0.25168680  0.75112718  1
  Li  Li7  1  -0.00002390  0.74448574  0.24708241  1
  Li  Li8  1  0.50000000  0.50000000  0.50000000  1
  Mn  Mn9  1  -0.00000000  -0.00000000  -0.00000000  1
  Mn  Mn10  1  -0.00000000  -0.00000000  0.50000000  1
  Co  Co11  1  0.50000000  0.50000000  -0.00000000  1
  Co  Co12  1  0.50000000  -0.00000000  0.50000000  1
  Co  Co13  1  -0.00000000  0.50000000  -0.00000000  1
  Co  Co14  1  0.50000000  -0.00000000  -0.00000000  1
  Co  Co15  1  -0.00000000  0.50000000  0.50000000  1
  O  O16  1  0.25264904  0.11505885  0.11240987  1
  O  O17  1  0.79592224  0.59956535  0.66161812  1
  O  O18  1  0.24825600  0.11828127  0.60586767  1
  O  O19  1  0.74223106  0.61760964  0.10214469  1
  O  O20  1  0.73819246  0.12175790  0.60106582  1
  O  O21  1  0.24860558  0.60954642  0.10692946  1
  O  O22  1  0.74020159  0.11713454  0.10390100  1
  O  O23  1  0.26561781  0.60006865  0.66157096  1
  O  O24  1  0.73438219  0.39993135  0.33842904  1
  O  O25  1  0.25979841  0.88286546  0.89609900  1
  O  O26  1  0.75139442  0.39045358  0.89307054  1
  O  O27  1  0.26180754  0.87824210  0.39893418  1
  O  O28  1  0.25776894  0.38239036  0.89785531  1
  O  O29  1  0.75174400  0.88171873  0.39413233  1
  O  O30  1  0.20407776  0.40043465  0.33838188  1
  O  O31  1  0.74735096  0.88494115  0.88759013  1
