# generated using pymatgen
data_Li5Mn4(P2O7)4
_symmetry_space_group_name_H-M   'P 1'
_cell_length_a   9.78388600
_cell_length_b   9.80217522
_cell_length_c   11.27133871
_cell_angle_alpha   76.68019844
_cell_angle_beta   89.70785546
_cell_angle_gamma   89.55156839
_symmetry_Int_Tables_number   1
_chemical_formula_structural   Li5Mn4(P2O7)4
_chemical_formula_sum   'Li10 Mn8 P16 O56'
_cell_volume   1051.84250690
_cell_formula_units_Z   2
loop_
 _symmetry_equiv_pos_site_id
 _symmetry_equiv_pos_as_xyz
  1  'x, y, z'
loop_
 _atom_site_type_symbol
 _atom_site_label
 _atom_site_symmetry_multiplicity
 _atom_site_fract_x
 _atom_site_fract_y
 _atom_site_fract_z
 _atom_site_occupancy
  Li  Li0  1  0.42793600  0.84124700  0.53243700  1
  Li  Li1  1  0.11257500  0.91328000  0.02306600  1
  Li  Li2  1  0.92052300  0.66322300  0.46033200  1
  Li  Li3  1  0.04131000  0.37924700  0.50550300  1
  Li  Li4  1  0.41059300  0.41627400  0.02613100  1
  Li  Li5  1  0.58865500  0.14350700  0.95721100  1
  Li  Li6  1  0.09947800  0.35932100  0.04557900  1
  Li  Li7  1  0.89574700  0.08728700  0.96634300  1
  Li  Li8  1  0.59189200  0.16411000  0.45797500  1
  Li  Li9  1  0.27824600  0.11566200  0.54762400  1
  Mn  Mn10  1  0.92797000  0.80083600  0.67602800  1
  Mn  Mn11  1  0.22954100  0.73195400  0.83117200  1
  Mn  Mn12  1  0.71353300  0.76091300  0.17203900  1
  Mn  Mn13  1  0.42668500  0.69655800  0.32875500  1
  Mn  Mn14  1  0.57554000  0.29614100  0.67517900  1
  Mn  Mn15  1  0.27873500  0.24473200  0.82789100  1
  Mn  Mn16  1  0.77292500  0.26978900  0.16563400  1
  Mn  Mn17  1  0.07053900  0.19931800  0.32453800  1
  P  P18  1  0.45553400  0.97744800  0.75228800  1
  P  P19  1  0.71193700  0.87593700  0.88784800  1
  P  P20  1  0.92621400  0.93818000  0.24000000  1
  P  P21  1  0.14488800  0.87479200  0.43153400  1
  P  P22  1  0.64412100  0.61791400  0.57842300  1
  P  P23  1  0.41991900  0.57038200  0.75204600  1
  P  P24  1  0.04449100  0.48077600  0.75725600  1
  P  P25  1  0.21728600  0.61940700  0.11553700  1
  P  P26  1  0.78300900  0.39012600  0.89055200  1
  P  P27  1  0.94877300  0.52741800  0.24229400  1
  P  P28  1  0.57731100  0.42737800  0.24440000  1
  P  P29  1  0.35304400  0.37694000  0.42079600  1
  P  P30  1  0.85272100  0.12102600  0.58349600  1
  P  P31  1  0.07795800  0.06379800  0.75704300  1
  P  P32  1  0.29461900  0.11501300  0.11006900  1
  P  P33  1  0.54819000  0.01757900  0.24859100  1
  O  O34  1  0.42914900  0.98707700  0.61843700  1
  O  O35  1  0.84532500  0.96565200  0.57641400  1
  O  O36  1  0.09120700  0.91362900  0.73685100  1
  O  O37  1  0.34711600  0.90139600  0.83986800  1
  O  O38  1  0.59427800  0.89102500  0.78379800  1
  O  O39  1  0.83207100  0.81449500  0.82922300  1
  O  O40  1  0.65623000  0.77588100  0.00436300  1
  O  O41  1  0.26874800  0.97702000  0.08054700  1
  O  O42  1  0.07023800  0.88128000  0.30139200  1
  O  O43  1  0.93764900  0.93655200  0.10622500  1
  O  O44  1  0.54225500  0.86213200  0.22513300  1
  O  O45  1  0.28520700  0.81092900  0.41751300  1
  O  O46  1  0.81889800  0.82532600  0.30060100  1
  O  O47  1  0.04923500  0.78404500  0.52640300  1
  O  O48  1  0.55247300  0.70417400  0.47717200  1
  O  O49  1  0.31577600  0.68469300  0.68457800  1
  O  O50  1  0.78551900  0.67636100  0.58598400  1
  O  O51  1  0.03684900  0.63579800  0.77691000  1
  O  O52  1  0.56833000  0.62704100  0.70581700  1
  O  O53  1  0.39762600  0.57716900  0.88473900  1
  O  O54  1  0.75891700  0.52478600  0.92562900  1
  O  O55  1  0.16640000  0.72610700  0.99722500  1
  O  O56  1  0.33181000  0.68179000  0.17710300  1
  O  O57  1  0.09140500  0.60812100  0.20921800  1
  O  O58  1  0.59009800  0.57420600  0.26809100  1
  O  O59  1  0.84247300  0.61686200  0.15877900  1
  O  O60  1  0.07754400  0.47399500  0.62920700  1
  O  O61  1  0.34629800  0.53115100  0.42771500  1
  O  O62  1  0.65218200  0.46135500  0.57559200  1
  O  O63  1  0.93497100  0.51351500  0.37755800  1
  O  O64  1  0.13749900  0.39910500  0.85970300  1
  O  O65  1  0.40903900  0.42259800  0.72793200  1
  O  O66  1  0.89582000  0.40816200  0.78302200  1
  O  O67  1  0.66343200  0.31731600  0.84032500  1
  O  O68  1  0.84739300  0.27406500  0.00144300  1
  O  O69  1  0.24214700  0.47667000  0.09124100  1
  O  O70  1  0.58618900  0.41095500  0.11377300  1
  O  O71  1  0.42891500  0.36977300  0.29405100  1
  O  O72  1  0.95732200  0.38306100  0.20343900  1
  O  O73  1  0.21054500  0.31708400  0.41430900  1
  O  O74  1  0.68546000  0.31865200  0.31267500  1
  O  O75  1  0.43933000  0.28151900  0.52057100  1
  O  O76  1  0.93505300  0.21239400  0.48163900  1
  O  O77  1  0.18607600  0.16338400  0.68591600  1
  O  O78  1  0.70653100  0.17431700  0.59768600  1
  O  O79  1  0.47561200  0.12953300  0.77828300  1
  O  O80  1  0.07695100  0.07539100  0.88939200  1
  O  O81  1  0.92845900  0.12373000  0.70974500  1
  O  O82  1  0.73202800  0.02128200  0.91002100  1
  O  O83  1  0.37096400  0.21980400  0.00385000  1
  O  O84  1  0.17242600  0.18907500  0.15525000  1
  O  O85  1  0.39885800  0.08561300  0.22609800  1
  O  O86  1  0.64182700  0.10317100  0.14769700  1
  O  O87  1  0.90163500  0.08472100  0.26509500  1
  O  O88  1  0.15952800  0.02505600  0.44662700  1
  O  O89  1  0.57902400  0.01652000  0.37852100  1
