# generated using pymatgen
data_LiSc2Ga
_symmetry_space_group_name_H-M   'P 1'
_cell_length_a   11.46666083
_cell_length_b   11.46666083
_cell_length_c   11.46666083
_cell_angle_alpha   120.17329788
_cell_angle_beta   118.61498613
_cell_angle_gamma   91.05782098
_symmetry_Int_Tables_number   1
_chemical_formula_structural   LiSc2Ga
_chemical_formula_sum   'Li1 Sc2 Ga1'
_cell_volume   1075.41624916
_cell_formula_units_Z   1
loop_
 _symmetry_equiv_pos_site_id
 _symmetry_equiv_pos_as_xyz
  1  'x, y, z'
loop_
 _atom_site_type_symbol
 _atom_site_label
 _atom_site_symmetry_multiplicity
 _atom_site_fract_x
 _atom_site_fract_y
 _atom_site_fract_z
 _atom_site_occupancy
  Li  Li0  1  0.00000000  0.00000000  0.00000000  1
  Sc  Sc1  1  0.72141600  0.00000000  0.72141600  1
  Sc  Sc2  1  0.27858400  0.00000000  0.27858400  1
  Ga  Ga3  1  0.50000000  0.00000000  0.50000000  1
