# generated using pymatgen
data_Li9Mn7O16
_symmetry_space_group_name_H-M   'P 1'
_cell_length_a   5.08086100
_cell_length_b   5.99326167
_cell_length_c   10.23103917
_cell_angle_alpha   92.10892834
_cell_angle_beta   101.50783442
_cell_angle_gamma   102.94850935
_symmetry_Int_Tables_number   1
_chemical_formula_structural   Li9Mn7O16
_chemical_formula_sum   'Li9 Mn7 O16'
_cell_volume   296.43353583
_cell_formula_units_Z   1
loop_
 _symmetry_equiv_pos_site_id
 _symmetry_equiv_pos_as_xyz
  1  'x, y, z'
loop_
 _atom_site_type_symbol
 _atom_site_label
 _atom_site_symmetry_multiplicity
 _atom_site_fract_x
 _atom_site_fract_y
 _atom_site_fract_z
 _atom_site_occupancy
  Li  Li0  1  0.50000000  0.00000000  0.00000000  1
  Li  Li1  1  0.98872100  0.86977200  0.12155300  1
  Li  Li2  1  0.01127900  0.13022800  0.87844700  1
  Li  Li3  1  0.49856000  0.73762300  0.24607600  1
  Li  Li4  1  0.99770500  0.62485300  0.37184800  1
  Li  Li5  1  0.50000000  0.50000000  0.50000000  1
  Li  Li6  1  0.00229500  0.37514700  0.62815200  1
  Li  Li7  1  0.50144000  0.26237700  0.75392400  1
  Li  Li8  1  0.50000000  0.50000000  0.00000000  1
  Mn  Mn9  1  0.99543200  0.61128900  0.87859200  1
  Mn  Mn10  1  0.00456800  0.38871100  0.12140800  1
  Mn  Mn11  1  0.50635700  0.26312800  0.24350500  1
  Mn  Mn12  1  0.00517000  0.12918800  0.37314400  1
  Mn  Mn13  1  0.50000000  0.00000000  0.50000000  1
  Mn  Mn14  1  0.99483000  0.87081200  0.62685600  1
  Mn  Mn15  1  0.49364300  0.73687200  0.75649500  1
  O  O16  1  0.21496900  0.66040500  0.05882400  1
  O  O17  1  0.77094800  0.55743900  0.18111600  1
  O  O18  1  0.75113400  0.80287400  0.92465700  1
  O  O19  1  0.25440000  0.43820900  0.29764600  1
  O  O20  1  0.75540300  0.30522000  0.42234900  1
  O  O21  1  0.25337700  0.18145000  0.55314400  1
  O  O22  1  0.74921900  0.05055400  0.67562500  1
  O  O23  1  0.22419800  0.89781800  0.81523500  1
  O  O24  1  0.78503100  0.33959500  0.94117600  1
  O  O25  1  0.24886600  0.19712600  0.07534300  1
  O  O26  1  0.22905200  0.44256100  0.81888400  1
  O  O27  1  0.77580200  0.10218200  0.18476500  1
  O  O28  1  0.25078100  0.94944600  0.32437500  1
  O  O29  1  0.74662300  0.81855000  0.44685600  1
  O  O30  1  0.24459700  0.69478000  0.57765100  1
  O  O31  1  0.74560000  0.56179100  0.70235400  1
