# generated using pymatgen
data_Li2H10C8O7F18
_symmetry_space_group_name_H-M   'P 1'
_cell_length_a   7.48262797
_cell_length_b   12.12645211
_cell_length_c   23.24598909
_cell_angle_alpha   90.00000000
_cell_angle_beta   90.00000000
_cell_angle_gamma   92.85284265
_symmetry_Int_Tables_number   1
_chemical_formula_structural   Li2H10C8O7F18
_chemical_formula_sum   'Li8 H40 C32 O28 F72'
_cell_volume   2106.67414864
_cell_formula_units_Z   4
loop_
 _symmetry_equiv_pos_site_id
 _symmetry_equiv_pos_as_xyz
  1  'x, y, z'
loop_
 _atom_site_type_symbol
 _atom_site_label
 _atom_site_symmetry_multiplicity
 _atom_site_fract_x
 _atom_site_fract_y
 _atom_site_fract_z
 _atom_site_occupancy
  Li  Li0  1  0.82841031  0.42106386  0.92342592  1
  Li  Li1  1  0.17158969  0.07893614  0.42342592  1
  Li  Li2  1  0.17158969  0.57893614  0.07657408  1
  Li  Li3  1  0.82841031  0.92106386  0.57657408  1
  Li  Li4  1  0.66335038  0.37058149  0.05250119  1
  Li  Li5  1  0.33664962  0.12941851  0.55250119  1
  Li  Li6  1  0.33664962  0.62941851  0.94749881  1
  Li  Li7  1  0.66335038  0.87058149  0.44749881  1
  H  H8  1  0.49137911  0.51852030  0.11580470  1
  H  H9  1  0.50862089  0.98147970  0.61580470  1
  H  H10  1  0.50862089  0.48147970  0.88419530  1
  H  H11  1  0.49137911  0.01852030  0.38419530  1
  H  H12  1  0.02247275  0.60304938  0.89485205  1
  H  H13  1  0.97752725  0.89695062  0.39485205  1
  H  H14  1  0.97752725  0.39695062  0.10514795  1
  H  H15  1  0.02247275  0.10304938  0.60514795  1
  H  H16  1  0.04834677  0.51372125  0.84654132  1
  H  H17  1  0.95165323  0.98627875  0.34654132  1
  H  H18  1  0.95165323  0.48627875  0.15345868  1
  H  H19  1  0.04834677  0.01372125  0.65345868  1
  H  H20  1  0.44420392  0.39861850  0.13753465  1
  H  H21  1  0.55579608  0.10138150  0.63753465  1
  H  H22  1  0.55579608  0.60138150  0.86246535  1
  H  H23  1  0.44420392  0.89861850  0.36246535  1
  H  H24  1  0.96573870  0.30463971  0.00346944  1
  H  H25  1  0.03426130  0.19536029  0.50346944  1
  H  H26  1  0.03426130  0.69536029  0.99653056  1
  H  H27  1  0.96573870  0.80463971  0.49653056  1
  H  H28  1  0.52294105  0.31689682  0.95365778  1
  H  H29  1  0.47705895  0.18310318  0.45365778  1
  H  H30  1  0.47705895  0.68310318  0.04634222  1
  H  H31  1  0.52294105  0.81689682  0.54634222  1
  H  H32  1  0.43336724  0.23659643  0.00085646  1
  H  H33  1  0.56663276  0.26340357  0.50085646  1
  H  H34  1  0.56663276  0.76340357  0.99914354  1
  H  H35  1  0.43336724  0.73659643  0.49914354  1
  H  H36  1  0.06766553  0.27897890  0.94451672  1
  H  H37  1  0.93233447  0.22102110  0.44451672  1
  H  H38  1  0.93233447  0.72102110  0.05548328  1
  H  H39  1  0.06766553  0.77897890  0.55548328  1
  H  H40  1  0.65675202  0.55609715  0.98839440  1
  H  H41  1  0.34324798  0.94390285  0.48839440  1
  H  H42  1  0.34324798  0.44390285  0.01160560  1
  H  H43  1  0.65675202  0.05609715  0.51160560  1
  H  H44  1  0.84081018  0.55098813  0.01620815  1
  H  H45  1  0.15918982  0.94901187  0.51620815  1
  H  H46  1  0.15918982  0.44901187  0.98379185  1
  H  H47  1  0.84081018  0.05098813  0.48379185  1
  C  C48  1  0.58329287  0.28496420  0.84391356  1
  C  C49  1  0.41670713  0.21503580  0.34391356  1
  C  C50  1  0.41670713  0.71503580  0.15608644  1
  C  C51  1  0.58329287  0.78496420  0.65608644  1
  C  C52  1  0.67583606  0.33748511  0.78870951  1
  C  C53  1  0.32416394  0.16251489  0.28870951  1
  C  C54  1  0.32416394  0.66251489  0.21129049  1
  C  C55  1  0.67583606  0.83748511  0.71129049  1
  C  C56  1  0.37697376  0.26364009  0.83131862  1
  C  C57  1  0.62302624  0.23635991  0.33131862  1
  C  C58  1  0.62302624  0.73635991  0.16868138  1
  C  C59  1  0.37697376  0.76364009  0.66868138  1
  C  C60  1  0.66737579  0.17056566  0.85584993  1
  C  C61  1  0.33262421  0.32943434  0.35584993  1
  C  C62  1  0.33262421  0.82943434  0.14415007  1
  C  C63  1  0.66737579  0.67056566  0.64415007  1
  C  C64  1  0.89168470  0.18379977  0.09280304  1
  C  C65  1  0.10831530  0.31620023  0.59280304  1
  C  C66  1  0.10831530  0.81620023  0.90719696  1
  C  C67  1  0.89168470  0.68379977  0.40719696  1
  C  C68  1  0.79640911  0.08996791  0.05519600  1
  C  C69  1  0.20359089  0.41003209  0.55519600  1
  C  C70  1  0.20359089  0.91003209  0.94480400  1
  C  C71  1  0.79640911  0.58996791  0.44480400  1
  C  C72  1  0.80300624  0.18000077  0.15436444  1
  C  C73  1  0.19699376  0.31999923  0.65436444  1
  C  C74  1  0.19699376  0.81999923  0.84563556  1
  C  C75  1  0.80300624  0.68000077  0.34563556  1
  C  C76  1  0.09585556  0.15868853  0.09932683  1
  C  C77  1  0.90414444  0.34131147  0.59932683  1
  C  C78  1  0.90414444  0.84131147  0.90067317  1
  C  C79  1  0.09585556  0.65868853  0.40067317  1
  O  O80  1  0.60670833  0.35399915  0.88990141  1
  O  O81  1  0.39329167  0.14600085  0.38990141  1
  O  O82  1  0.39329167  0.64600085  0.11009859  1
  O  O83  1  0.60670833  0.85399915  0.61009859  1
  O  O84  1  0.87627376  0.28475284  0.06798159  1
  O  O85  1  0.12372624  0.21524716  0.56798159  1
  O  O86  1  0.12372624  0.71524716  0.93201841  1
  O  O87  1  0.87627376  0.78475284  0.43201841  1
  O  O88  1  0.01256606  0.33754090  0.96596534  1
  O  O89  1  0.98743394  0.16245910  0.46596534  1
  O  O90  1  0.98743394  0.66245910  0.03403466  1
  O  O91  1  0.01256606  0.83754090  0.53403466  1
  O  O92  1  0.98032794  0.52819854  0.88104490  1
  O  O93  1  0.01967206  0.97180146  0.38104490  1
  O  O94  1  0.01967206  0.47180146  0.11895510  1
  O  O95  1  0.98032794  0.02819854  0.61895510  1
  O  O96  1  0.52427609  0.44014420  0.11164056  1
  O  O97  1  0.47572391  0.05985580  0.61164056  1
  O  O98  1  0.47572391  0.55985580  0.88835944  1
  O  O99  1  0.52427609  0.94014420  0.38835944  1
  O  O100  1  0.48735155  0.31068948  0.99554655  1
  O  O101  1  0.51264845  0.18931052  0.49554655  1
  O  O102  1  0.51264845  0.68931052  0.00445345  1
  O  O103  1  0.48735155  0.81068948  0.50445345  1
  O  O104  1  0.74600383  0.50179188  0.99774241  1
  O  O105  1  0.25399617  0.99820812  0.49774241  1
  O  O106  1  0.25399617  0.49820812  0.00225759  1
  O  O107  1  0.74600383  0.00179188  0.50225759  1
  F  F108  1  0.85757668  0.34200546  0.79457583  1
  F  F109  1  0.14242332  0.15799454  0.29457583  1
  F  F110  1  0.14242332  0.65799454  0.20542417  1
  F  F111  1  0.85757668  0.84200546  0.70542417  1
  F  F112  1  0.63541416  0.28096055  0.73962455  1
  F  F113  1  0.36458584  0.21903945  0.23962455  1
  F  F114  1  0.36458584  0.71903945  0.26037545  1
  F  F115  1  0.63541416  0.78096055  0.76037545  1
  F  F116  1  0.62670321  0.44274405  0.78145304  1
  F  F117  1  0.37329679  0.05725595  0.28145304  1
  F  F118  1  0.37329679  0.55725595  0.21854696  1
  F  F119  1  0.62670321  0.94274405  0.71854696  1
  F  F120  1  0.30447415  0.35726740  0.81164381  1
  F  F121  1  0.69552585  0.14273260  0.31164381  1
  F  F122  1  0.69552585  0.64273260  0.18835619  1
  F  F123  1  0.30447415  0.85726740  0.68835619  1
  F  F124  1  0.33792332  0.18217638  0.79292746  1
  F  F125  1  0.66207668  0.31782362  0.29292746  1
  F  F126  1  0.66207668  0.81782362  0.20707254  1
  F  F127  1  0.33792332  0.68217638  0.70707254  1
  F  F128  1  0.28912102  0.23604253  0.88140707  1
  F  F129  1  0.71087898  0.26395747  0.38140707  1
  F  F130  1  0.71087898  0.76395747  0.11859293  1
  F  F131  1  0.28912102  0.73604253  0.61859293  1
  F  F132  1  0.84019975  0.18640292  0.87367851  1
  F  F133  1  0.15980025  0.31359708  0.37367851  1
  F  F134  1  0.15980025  0.81359708  0.12632149  1
  F  F135  1  0.84019975  0.68640292  0.62632149  1
  F  F136  1  0.66744526  0.10297386  0.80942914  1
  F  F137  1  0.33255474  0.39702614  0.30942914  1
  F  F138  1  0.33255474  0.89702614  0.19057086  1
  F  F139  1  0.66744526  0.60297386  0.69057086  1
  F  F140  1  0.57601606  0.11643567  0.89885652  1
  F  F141  1  0.42398394  0.38356433  0.39885652  1
  F  F142  1  0.42398394  0.88356433  0.10114348  1
  F  F143  1  0.57601606  0.61643567  0.60114348  1
  F  F144  1  0.83872081  0.98675472  0.07129794  1
  F  F145  1  0.16127919  0.51324528  0.57129794  1
  F  F146  1  0.16127919  0.01324528  0.92870206  1
  F  F147  1  0.83872081  0.48675472  0.42870206  1
  F  F148  1  0.61466487  0.09429513  0.05831509  1
  F  F149  1  0.38533513  0.40570487  0.55831509  1
  F  F150  1  0.38533513  0.90570487  0.94168491  1
  F  F151  1  0.61466487  0.59429513  0.44168491  1
  F  F152  1  0.84165165  0.10339603  0.99903530  1
  F  F153  1  0.15834835  0.39660397  0.49903530  1
  F  F154  1  0.15834835  0.89660397  0.00096470  1
  F  F155  1  0.84165165  0.60339603  0.50096470  1
  F  F156  1  0.78554479  0.07703038  0.17722589  1
  F  F157  1  0.21445521  0.42296962  0.67722589  1
  F  F158  1  0.21445521  0.92296962  0.82277411  1
  F  F159  1  0.78554479  0.57703038  0.32277411  1
  F  F160  1  0.90092351  0.24482318  0.19171210  1
  F  F161  1  0.09907649  0.25517682  0.69171210  1
  F  F162  1  0.09907649  0.75517682  0.80828790  1
  F  F163  1  0.90092351  0.74482318  0.30828790  1
  F  F164  1  0.63685779  0.22047829  0.15165074  1
  F  F165  1  0.36314221  0.27952171  0.65165074  1
  F  F166  1  0.36314221  0.77952171  0.84834926  1
  F  F167  1  0.63685779  0.72047829  0.34834926  1
  F  F168  1  0.12731659  0.07176843  0.13365838  1
  F  F169  1  0.87268341  0.42823157  0.63365838  1
  F  F170  1  0.87268341  0.92823157  0.86634162  1
  F  F171  1  0.12731659  0.57176843  0.36634162  1
  F  F172  1  0.18880837  0.24858733  0.12092024  1
  F  F173  1  0.81119163  0.25141267  0.62092024  1
  F  F174  1  0.81119163  0.75141267  0.87907976  1
  F  F175  1  0.18880837  0.74858733  0.37907976  1
  F  F176  1  0.16881330  0.13843919  0.04648043  1
  F  F177  1  0.83118670  0.36156081  0.54648043  1
  F  F178  1  0.83118670  0.86156081  0.95351957  1
  F  F179  1  0.16881330  0.63843919  0.45351957  1
