# generated using pymatgen
data_Li9Mn7O16
_symmetry_space_group_name_H-M   'P 1'
_cell_length_a   5.09404700
_cell_length_b   7.84006848
_cell_length_c   7.88336100
_cell_angle_alpha   85.76151489
_cell_angle_beta   82.43102109
_cell_angle_gamma   73.67132479
_symmetry_Int_Tables_number   1
_chemical_formula_structural   Li9Mn7O16
_chemical_formula_sum   'Li9 Mn7 O16'
_cell_volume   299.28615418
_cell_formula_units_Z   1
loop_
 _symmetry_equiv_pos_site_id
 _symmetry_equiv_pos_as_xyz
  1  'x, y, z'
loop_
 _atom_site_type_symbol
 _atom_site_label
 _atom_site_symmetry_multiplicity
 _atom_site_fract_x
 _atom_site_fract_y
 _atom_site_fract_z
 _atom_site_occupancy
  Li  Li0  1  0.50317700  0.68535200  0.94046600  1
  Li  Li1  1  0.49682300  0.31464800  0.05953400  1
  Li  Li2  1  0.47919800  0.57697300  0.29739800  1
  Li  Li3  1  0.50947200  0.18226100  0.44370600  1
  Li  Li4  1  0.52080200  0.42302700  0.70260200  1
  Li  Li5  1  0.49133300  0.05412100  0.83296700  1
  Li  Li6  1  0.50866700  0.94587900  0.16703300  1
  Li  Li7  1  0.49052800  0.81773900  0.55629400  1
  Li  Li8  1  0.00000000  0.00000000  0.00000000  1
  Mn  Mn9  1  0.98807900  0.75649400  0.74958900  1
  Mn  Mn10  1  0.01192100  0.24350600  0.25041100  1
  Mn  Mn11  1  0.00995600  0.36600700  0.88156700  1
  Mn  Mn12  1  0.99004400  0.63399300  0.11843300  1
  Mn  Mn13  1  0.99378400  0.88100500  0.36828200  1
  Mn  Mn14  1  0.00000000  0.50000000  0.50000000  1
  Mn  Mn15  1  0.00621600  0.11899500  0.63171800  1
  O  O16  1  0.21088100  0.92156700  0.76209900  1
  O  O17  1  0.23374400  0.52869200  0.91133400  1
  O  O18  1  0.22533300  0.77743300  0.16659000  1
  O  O19  1  0.23451100  0.40260500  0.29484800  1
  O  O20  1  0.20387100  0.67635000  0.51928400  1
  O  O21  1  0.23790100  0.26897000  0.66866500  1
  O  O22  1  0.24709000  0.16024900  0.04720900  1
  O  O23  1  0.23065400  0.02126200  0.42031100  1
  O  O24  1  0.76625600  0.47130800  0.08866600  1
  O  O25  1  0.78911900  0.07843300  0.23790100  1
  O  O26  1  0.79612900  0.32365000  0.48071600  1
  O  O27  1  0.76934600  0.97873800  0.57968900  1
  O  O28  1  0.77466700  0.22256700  0.83341000  1
  O  O29  1  0.75291000  0.83975100  0.95279100  1
  O  O30  1  0.76209900  0.73103000  0.33133500  1
  O  O31  1  0.76548900  0.59739500  0.70515200  1
