# generated using pymatgen
data_Li7Fe6(SiO4)6
_symmetry_space_group_name_H-M   'P 1'
_cell_length_a   8.62546600
_cell_length_b   8.67192291
_cell_length_c   8.77327615
_cell_angle_alpha   107.86241073
_cell_angle_beta   108.14527618
_cell_angle_gamma   106.84280542
_symmetry_Int_Tables_number   1
_chemical_formula_structural   Li7Fe6(SiO4)6
_chemical_formula_sum   'Li7 Fe6 Si6 O24'
_cell_volume   536.99919847
_cell_formula_units_Z   1
loop_
 _symmetry_equiv_pos_site_id
 _symmetry_equiv_pos_as_xyz
  1  'x, y, z'
loop_
 _atom_site_type_symbol
 _atom_site_label
 _atom_site_symmetry_multiplicity
 _atom_site_fract_x
 _atom_site_fract_y
 _atom_site_fract_z
 _atom_site_occupancy
  Li  Li0  1  0.15234600  0.86493200  0.72092800  1
  Li  Li1  1  0.21792600  0.43890200  0.60056600  1
  Li  Li2  1  0.36977300  0.53097700  0.93354800  1
  Li  Li3  1  0.44564100  0.62315400  0.23913900  1
  Li  Li4  1  0.72728000  0.13341500  0.89360000  1
  Li  Li5  1  0.60672300  0.21484500  0.43527400  1
  Li  Li6  1  0.85395600  0.71774000  0.14466900  1
  Fe  Fe7  1  0.54917200  0.81047800  0.93716700  1
  Fe  Fe8  1  0.77214700  0.95006100  0.53612300  1
  Fe  Fe9  1  0.94916500  0.53625300  0.77521400  1
  Fe  Fe10  1  0.05335500  0.45522400  0.23748700  1
  Fe  Fe11  1  0.23404800  0.05489300  0.44898400  1
  Fe  Fe12  1  0.46396400  0.23290700  0.05522500  1
  Si  Si13  1  0.09314100  0.27712600  0.87806600  1
  Si  Si14  1  0.38368400  0.79233300  0.56022000  1
  Si  Si15  1  0.28855100  0.87211900  0.09674000  1
  Si  Si16  1  0.56657400  0.38719000  0.79401300  1
  Si  Si17  1  0.79510000  0.56503100  0.39308900  1
  Si  Si18  1  0.87991400  0.10905500  0.28950000  1
  O  O19  1  0.07203500  0.73420100  0.00181100  1
  O  O20  1  0.10284800  0.41073100  0.77598500  1
  O  O21  1  0.26422600  0.90978800  0.56683900  1
  O  O22  1  0.30696000  0.35189600  0.02048700  1
  O  O23  1  0.97815800  0.31476100  0.99163000  1
  O  O24  1  0.98444100  0.97865500  0.31009100  1
  O  O25  1  0.35168600  0.02049000  0.29989800  1
  O  O26  1  0.36126000  0.69611800  0.69074600  1
  O  O27  1  0.29598500  0.63181100  0.35622600  1
  O  O28  1  0.36127500  0.29722700  0.62949800  1
  O  O29  1  0.59640200  0.92736400  0.62770200  1
  O  O30  1  0.60980400  0.58852800  0.93087900  1
  O  O31  1  0.41158100  0.75928300  0.09081000  1
  O  O32  1  0.57436500  0.26320300  0.90495600  1
  O  O33  1  0.32244000  0.98789500  0.97990200  1
  O  O34  1  0.70804100  0.38183800  0.70476400  1
  O  O35  1  0.70588200  0.70841500  0.38484000  1
  O  O36  1  0.74672700  0.04635400  0.08185400  1
  O  O37  1  0.62924000  0.36371600  0.30227600  1
  O  O38  1  0.93483300  0.62473200  0.59947700  1
  O  O39  1  0.76908700  0.09713500  0.41257300  1
  O  O40  1  0.90412400  0.57151500  0.26921500  1
  O  O41  1  0.00325500  0.06692600  0.73596200  1
  O  O42  1  0.03311300  0.31332900  0.36338000  1
