# generated using pymatgen
data_Li4V3P8O29
_symmetry_space_group_name_H-M   'P 1'
_cell_length_a   9.76494949
_cell_length_b   9.76494949
_cell_length_c   14.50132832
_cell_angle_alpha   89.33879471
_cell_angle_beta   89.33879471
_cell_angle_gamma   59.83226619
_symmetry_Int_Tables_number   1
_chemical_formula_structural   Li4V3P8O29
_chemical_formula_sum   'Li8 V6 P16 O58'
_cell_volume   1195.37287430
_cell_formula_units_Z   2
loop_
 _symmetry_equiv_pos_site_id
 _symmetry_equiv_pos_as_xyz
  1  'x, y, z'
loop_
 _atom_site_type_symbol
 _atom_site_label
 _atom_site_symmetry_multiplicity
 _atom_site_fract_x
 _atom_site_fract_y
 _atom_site_fract_z
 _atom_site_occupancy
  Li  Li0  1  0.13014400  0.64131900  0.46898800  1
  Li  Li1  1  0.64131900  0.13014400  0.96898800  1
  Li  Li2  1  0.09363500  0.23009400  0.93497000  1
  Li  Li3  1  0.77342400  0.90548500  0.55720800  1
  Li  Li4  1  0.23009400  0.09363500  0.43497000  1
  Li  Li5  1  0.90548500  0.77342400  0.05720800  1
  Li  Li6  1  0.06355100  0.97713900  0.99926700  1
  Li  Li7  1  0.97713900  0.06355100  0.49926700  1
  V  V8  1  0.56311300  0.99836500  0.74545600  1
  V  V9  1  0.43407400  0.99831400  0.25985300  1
  V  V10  1  0.99836500  0.56311300  0.24545600  1
  V  V11  1  0.99831400  0.43407400  0.75985300  1
  V  V12  1  0.44002200  0.55986600  0.74637500  1
  V  V13  1  0.55986600  0.44002200  0.24637500  1
  P  P14  1  0.21777500  0.70026700  0.15691900  1
  P  P15  1  0.08774600  0.68606600  0.66875700  1
  P  P16  1  0.70026700  0.21777500  0.65691900  1
  P  P17  1  0.34458900  0.32841500  0.86570600  1
  P  P18  1  0.32841500  0.34458900  0.36570600  1
  P  P19  1  0.68606600  0.08774600  0.16875700  1
  P  P20  1  0.77989500  0.90372800  0.34458700  1
  P  P21  1  0.08742200  0.22595500  0.15195300  1
  P  P22  1  0.90372800  0.77989500  0.84458700  1
  P  P23  1  0.22595500  0.08742200  0.65195300  1
  P  P24  1  0.30326100  0.90879000  0.82645600  1
  P  P25  1  0.67674400  0.66080600  0.63674100  1
  P  P26  1  0.66080600  0.67674400  0.13674100  1
  P  P27  1  0.29938300  0.77486400  0.34085200  1
  P  P28  1  0.90879000  0.30326100  0.32645600  1
  P  P29  1  0.77486400  0.29938300  0.84085200  1
  O  O30  1  0.20335300  0.77599700  0.42156600  1
  O  O31  1  0.25882400  0.65874700  0.67011800  1
  O  O32  1  0.97539600  0.78915900  0.93286300  1
  O  O33  1  0.07557300  0.66692100  0.16157100  1
  O  O34  1  0.37624600  0.54164900  0.17012400  1
  O  O35  1  0.33408200  0.47828500  0.81931700  1
  O  O36  1  0.54164900  0.37624600  0.67012400  1
  O  O37  1  0.77599700  0.20335300  0.92156600  1
  O  O38  1  0.65874700  0.25882400  0.17011800  1
  O  O39  1  0.18871300  0.46965400  0.30153400  1
  O  O40  1  0.09483400  0.52822300  0.68362500  1
  O  O41  1  0.47828500  0.33408200  0.31931700  1
  O  O42  1  0.40973100  0.29036700  0.96141400  1
  O  O43  1  0.29036700  0.40973100  0.46141400  1
  O  O44  1  0.46965400  0.18871300  0.80153400  1
  O  O45  1  0.06678400  0.39319000  0.15879200  1
  O  O46  1  0.18238800  0.33731700  0.85396800  1
  O  O47  1  0.66692100  0.07557300  0.66157100  1
  O  O48  1  0.79852200  0.99803100  0.25678300  1
  O  O49  1  0.78915900  0.97539600  0.43286300  1
  O  O50  1  0.77171100  0.00450900  0.08164000  1
  O  O51  1  0.52822300  0.09483400  0.18362500  1
  O  O52  1  0.33731700  0.18238800  0.35396800  1
  O  O53  1  0.73109700  0.92287800  0.83534400  1
  O  O54  1  0.39319000  0.06678400  0.65879200  1
  O  O55  1  0.10236400  0.25376800  0.68669700  1
  O  O56  1  0.99803100  0.79852200  0.75678300  1
  O  O57  1  0.00450900  0.77171100  0.58164000  1
  O  O58  1  0.00505000  0.19139500  0.40170900  1
  O  O59  1  0.92287800  0.73109700  0.33534400  1
  O  O60  1  0.62212400  0.90515900  0.33033600  1
  O  O61  1  0.25376800  0.10236400  0.18669700  1
  O  O62  1  0.67710700  0.80823400  0.68420400  1
  O  O63  1  0.45432800  0.92385900  0.82080700  1
  O  O64  1  0.19139500  0.00505000  0.90170900  1
  O  O65  1  0.18832700  0.04967900  0.55960900  1
  O  O66  1  0.21852100  0.96870700  0.72721000  1
  O  O67  1  0.33335700  0.91337500  0.34438100  1
  O  O68  1  0.80823400  0.67710700  0.18420400  1
  O  O69  1  0.90515900  0.62212400  0.83033600  1
  O  O70  1  0.51209400  0.81648200  0.18035900  1
  O  O71  1  0.68540600  0.67490600  0.03555300  1
  O  O72  1  0.67490600  0.68540600  0.53555300  1
  O  O73  1  0.52410200  0.66226000  0.67698000  1
  O  O74  1  0.92385900  0.45432800  0.32080700  1
  O  O75  1  0.81648200  0.51209400  0.68035900  1
  O  O76  1  0.34969900  0.73341400  0.83083700  1
  O  O77  1  0.19742800  0.80302200  0.24768700  1
  O  O78  1  0.20263000  0.79445600  0.07300600  1
  O  O79  1  0.45751500  0.61829400  0.32379600  1
  O  O80  1  0.66226000  0.52410200  0.17698000  1
  O  O81  1  0.61829400  0.45751500  0.82379600  1
  O  O82  1  0.91337500  0.33335700  0.84438100  1
  O  O83  1  0.04967900  0.18832700  0.05960900  1
  O  O84  1  0.96870700  0.21852100  0.22721000  1
  O  O85  1  0.73341400  0.34969900  0.33083700  1
  O  O86  1  0.79445600  0.20263000  0.57300600  1
  O  O87  1  0.80302200  0.19742800  0.74768700  1
