# generated using pymatgen
data_Li6V3P8O29
_symmetry_space_group_name_H-M   'P 1'
_cell_length_a   9.79899800
_cell_length_b   9.83765953
_cell_length_c   13.98546785
_cell_angle_alpha   89.90094591
_cell_angle_beta   90.44355356
_cell_angle_gamma   119.81867604
_symmetry_Int_Tables_number   1
_chemical_formula_structural   Li6V3P8O29
_chemical_formula_sum   'Li12 V6 P16 O58'
_cell_volume   1169.65396605
_cell_formula_units_Z   2
loop_
 _symmetry_equiv_pos_site_id
 _symmetry_equiv_pos_as_xyz
  1  'x, y, z'
loop_
 _atom_site_type_symbol
 _atom_site_label
 _atom_site_symmetry_multiplicity
 _atom_site_fract_x
 _atom_site_fract_y
 _atom_site_fract_z
 _atom_site_occupancy
  Li  Li0  1  0.77021200  0.09297000  0.05643000  1
  Li  Li1  1  0.33350600  0.09614100  0.56358100  1
  Li  Li2  1  0.67231600  0.33635000  0.88442500  1
  Li  Li3  1  0.32491800  0.23190000  0.05788000  1
  Li  Li4  1  0.90913600  0.67828000  0.05921200  1
  Li  Li5  1  0.23304800  0.32626100  0.44205200  1
  Li  Li6  1  0.76347200  0.66353300  0.56261400  1
  Li  Li7  1  0.32373200  0.66513500  0.61435000  1
  Li  Li8  1  0.32826700  0.66757500  0.10859500  1
  Li  Li9  1  0.67580800  0.91126900  0.44050100  1
  Li  Li10  1  0.00069600  0.99755000  0.98396300  1
  Li  Li11  1  0.99760300  0.00069800  0.51088000  1
  V  V12  1  0.43530600  0.43379800  0.24939200  1
  V  V13  1  0.56350600  0.56447800  0.75412400  1
  V  V14  1  0.99744600  0.43502700  0.74786800  1
  V  V15  1  0.00054400  0.56304200  0.25325100  1
  V  V16  1  0.56675000  0.00212600  0.25096800  1
  V  V17  1  0.43555500  0.99751800  0.75221100  1
  P  P18  1  0.77870900  0.09218900  0.84108300  1
  P  P19  1  0.91832100  0.22623500  0.34398200  1
  P  P20  1  0.31395700  0.08603800  0.34454900  1
  P  P21  1  0.66929100  0.33286200  0.12716300  1
  P  P22  1  0.66218300  0.33274800  0.62869300  1
  P  P23  1  0.31744500  0.22410700  0.84347900  1
  P  P24  1  0.22447800  0.31606000  0.65900600  1
  P  P25  1  0.91137000  0.68527800  0.84618400  1
  P  P26  1  0.08602100  0.31086300  0.15661700  1
  P  P27  1  0.77250100  0.68693600  0.34290200  1
  P  P28  1  0.68649300  0.77667800  0.15848500  1
  P  P29  1  0.33481000  0.66485900  0.37155400  1
  P  P30  1  0.33139100  0.66553700  0.87007500  1
  P  P31  1  0.68479600  0.90741700  0.65636200  1
  P  P32  1  0.08576300  0.77851300  0.65890200  1
  P  P33  1  0.22099000  0.91222700  0.15924900  1
  O  O34  1  0.77183000  0.98773300  0.56700300  1
  O  O35  1  0.74915300  0.08144400  0.33917400  1
  O  O36  1  0.99739200  0.21309200  0.07254100  1
  O  O37  1  0.91921100  0.25767000  0.83403700  1
  O  O38  1  0.62677800  0.10587500  0.83023000  1
  O  O39  1  0.67389200  0.18574400  0.16538400  1
  O  O40  1  0.47179900  0.08761900  0.32488100  1
  O  O41  1  0.21886600  0.01002400  0.07821600  1
  O  O42  1  0.34156500  0.08247000  0.83644300  1
  O  O43  1  0.81294800  0.34232200  0.67477200  1
  O  O44  1  0.91164900  0.37842500  0.33213100  1
  O  O45  1  0.51716400  0.17984500  0.66960700  1
  O  O46  1  0.67357400  0.33785200  0.01978200  1
  O  O47  1  0.65735600  0.33585200  0.52265100  1
  O  O48  1  0.51835000  0.32985700  0.16505000  1
  O  O49  1  0.89735900  0.52153700  0.83440600  1
  O  O50  1  0.81838800  0.48225400  0.16947100  1
  O  O51  1  0.34012800  0.25474800  0.33675100  1
  O  O52  1  0.21232600  0.21395900  0.75153400  1
  O  O53  1  0.22632400  0.22522800  0.57152100  1
  O  O54  1  0.23281000  0.22223300  0.93253600  1
  O  O55  1  0.48247700  0.37356200  0.83189900  1
  O  O56  1  0.65741300  0.47897900  0.67142900  1
  O  O57  1  0.25915500  0.34074400  0.16004800  1
  O  O58  1  0.61523400  0.53123900  0.32340500  1
  O  O59  1  0.90921600  0.65656600  0.33737900  1
  O  O60  1  0.00516200  0.20989300  0.25043100  1
  O  O61  1  0.00720200  0.21571000  0.42844500  1
  O  O62  1  0.98784400  0.78783200  0.57870400  1
  O  O63  1  0.08285200  0.34056700  0.65961600  1
  O  O64  1  0.37541200  0.47863700  0.66763600  1
  O  O65  1  0.74484300  0.66121800  0.83661600  1
  O  O66  1  0.32791300  0.51070900  0.33427600  1
  O  O67  1  0.52216700  0.62872400  0.16862000  1
  O  O68  1  0.78613500  0.78269100  0.07701900  1
  O  O69  1  0.76613200  0.76526100  0.43406100  1
  O  O70  1  0.78517600  0.79954100  0.25623300  1
  O  O71  1  0.66271500  0.74065800  0.66068500  1
  O  O72  1  0.18145900  0.52875300  0.82380000  1
  O  O73  1  0.10034400  0.47462100  0.16665600  1
  O  O74  1  0.47357500  0.65528200  0.82771400  1
  O  O75  1  0.33216500  0.66686900  0.97623200  1
  O  O76  1  0.33355500  0.66422100  0.47862300  1
  O  O77  1  0.48738500  0.81264100  0.33412700  1
  O  O78  1  0.09934500  0.62803100  0.66379900  1
  O  O79  1  0.18823500  0.66481700  0.32436600  1
  O  O80  1  0.65846600  0.91994800  0.15951800  1
  O  O81  1  0.78671900  0.99707700  0.74938900  1
  O  O82  1  0.78235800  0.01023700  0.93078000  1
  O  O83  1  0.52054900  0.89406200  0.66641600  1
  O  O84  1  0.34516600  0.81890600  0.82601300  1
  O  O85  1  0.37126500  0.89725500  0.17060200  1
  O  O86  1  0.07855800  0.74441700  0.15864700  1
  O  O87  1  0.99039500  0.77157500  0.93646900  1
  O  O88  1  0.01172200  0.79253100  0.75816400  1
  O  O89  1  0.25438100  0.92103000  0.65789700  1
  O  O90  1  0.24008800  0.01509000  0.43770700  1
  O  O91  1  0.20133300  0.98903500  0.25772500  1
