# generated using pymatgen
data_Li9Mn7O16
_symmetry_space_group_name_H-M   'P 1'
_cell_length_a   7.80437216
_cell_length_b   7.80437216
_cell_length_c   5.34049543
_cell_angle_alpha   74.51017082
_cell_angle_beta   74.51017082
_cell_angle_gamma   94.98740125
_symmetry_Int_Tables_number   1
_chemical_formula_structural   Li9Mn7O16
_chemical_formula_sum   'Li9 Mn7 O16'
_cell_volume   297.66072236
_cell_formula_units_Z   1
loop_
 _symmetry_equiv_pos_site_id
 _symmetry_equiv_pos_as_xyz
  1  'x, y, z'
loop_
 _atom_site_type_symbol
 _atom_site_label
 _atom_site_symmetry_multiplicity
 _atom_site_fract_x
 _atom_site_fract_y
 _atom_site_fract_z
 _atom_site_occupancy
  Li  Li0  1  0.75823800  0.75823800  0.99053400  1
  Li  Li1  1  0.24176200  0.24176200  0.00946600  1
  Li  Li2  1  0.87231400  0.62680400  0.49294200  1
  Li  Li3  1  0.37319600  0.12768600  0.50705800  1
  Li  Li4  1  0.00000000  0.50000000  0.00000000  1
  Li  Li5  1  0.50000000  0.00000000  0.00000000  1
  Li  Li6  1  0.12768600  0.37319600  0.50705800  1
  Li  Li7  1  0.62680400  0.87231400  0.49294200  1
  Li  Li8  1  0.00000000  0.00000000  0.50000000  1
  Mn  Mn9  1  0.87553700  0.12446300  0.00000000  1
  Mn  Mn10  1  0.12446300  0.87553700  0.00000000  1
  Mn  Mn11  1  0.37433300  0.62566700  0.00000000  1
  Mn  Mn12  1  0.50000000  0.50000000  0.50000000  1
  Mn  Mn13  1  0.62566700  0.37433300  0.00000000  1
  Mn  Mn14  1  0.24644800  0.75355200  0.50000000  1
  Mn  Mn15  1  0.75355200  0.24644800  0.50000000  1
  O  O16  1  0.88407400  0.88407400  0.21894800  1
  O  O17  1  0.37937700  0.37937700  0.22307800  1
  O  O18  1  0.02560500  0.76485400  0.76655900  1
  O  O19  1  0.50910400  0.25927000  0.72418100  1
  O  O20  1  0.13162400  0.63389400  0.22560600  1
  O  O21  1  0.63389400  0.13162400  0.22560600  1
  O  O22  1  0.25927000  0.50910400  0.72418100  1
  O  O23  1  0.76485400  0.02560500  0.76655900  1
  O  O24  1  0.62062300  0.62062300  0.77692200  1
  O  O25  1  0.11592600  0.11592600  0.78105200  1
  O  O26  1  0.74073000  0.49089600  0.27581900  1
  O  O27  1  0.23514600  0.97439500  0.23344100  1
  O  O28  1  0.86837600  0.36610600  0.77439400  1
  O  O29  1  0.36610600  0.86837600  0.77439400  1
  O  O30  1  0.97439500  0.23514600  0.23344100  1
  O  O31  1  0.49089600  0.74073000  0.27581900  1
