# generated using pymatgen
data_Li2TiCrO4
_symmetry_space_group_name_H-M   'P 1'
_cell_length_a   5.14813293
_cell_length_b   7.89417293
_cell_length_c   7.89485825
_cell_angle_alpha   97.59651413
_cell_angle_beta   102.22483532
_cell_angle_gamma   102.23660182
_symmetry_Int_Tables_number   1
_chemical_formula_structural   Li2TiCrO4
_chemical_formula_sum   'Li8 Ti4 Cr4 O16'
_cell_volume   301.13667387
_cell_formula_units_Z   4
loop_
 _symmetry_equiv_pos_site_id
 _symmetry_equiv_pos_as_xyz
  1  'x, y, z'
loop_
 _atom_site_type_symbol
 _atom_site_label
 _atom_site_symmetry_multiplicity
 _atom_site_fract_x
 _atom_site_fract_y
 _atom_site_fract_z
 _atom_site_occupancy
  Li  Li0  1  0.00094600  0.99914600  0.00078500  1
  Li  Li1  1  0.99631200  0.75122500  0.24971100  1
  Li  Li2  1  0.99908000  0.49920200  0.50085900  1
  Li  Li3  1  0.00370000  0.25027300  0.74877700  1
  Li  Li4  1  0.50201700  0.37352400  0.62399800  1
  Li  Li5  1  0.50269300  0.12296600  0.87252100  1
  Li  Li6  1  0.49792300  0.87603000  0.12648700  1
  Li  Li7  1  0.49734900  0.62750200  0.37704300  1
  Ti  Ti8  1  0.50001800  0.74834800  0.75173400  1
  Ti  Ti9  1  0.49999500  0.49645000  0.00355300  1
  Ti  Ti10  1  0.49997600  0.25611000  0.24387900  1
  Ti  Ti11  1  0.49999000  0.00063500  0.49927000  1
  Cr  Cr12  1  0.00002300  0.62351800  0.87638100  1
  Cr  Cr13  1  0.99996700  0.37504700  0.12495100  1
  Cr  Cr14  1  0.99997400  0.12691900  0.37310000  1
  Cr  Cr15  1  0.00003900  0.87274200  0.62726500  1
  O  O16  1  0.24256700  0.36399300  0.36147900  1
  O  O17  1  0.25987400  0.12342600  0.60657100  1
  O  O18  1  0.26259300  0.85791200  0.87661300  1
  O  O19  1  0.23886400  0.61194000  0.11442100  1
  O  O20  1  0.73989900  0.89346300  0.37638500  1
  O  O21  1  0.73768300  0.62358800  0.64206500  1
  O  O22  1  0.76108300  0.38554600  0.88805100  1
  O  O23  1  0.75747500  0.13851700  0.13608100  1
  O  O24  1  0.74692300  0.73876500  0.99009100  1
  O  O25  1  0.75032900  0.49560200  0.24471300  1
  O  O26  1  0.74620900  0.24001500  0.48694500  1
  O  O27  1  0.73946900  0.99029500  0.74088400  1
  O  O28  1  0.25319000  0.50986900  0.76121400  1
  O  O29  1  0.24960600  0.25528000  0.00442200  1
  O  O30  1  0.25370200  0.01306400  0.26003200  1
  O  O31  1  0.26053200  0.75908800  0.50972100  1
