# generated using pymatgen
data_LiV4OF11
_symmetry_space_group_name_H-M   'P 1'
_cell_length_a   5.19445500
_cell_length_b   5.50844983
_cell_length_c   17.18884146
_cell_angle_alpha   88.99803989
_cell_angle_beta   97.93373966
_cell_angle_gamma   118.01691145
_symmetry_Int_Tables_number   1
_chemical_formula_structural   LiV4OF11
_chemical_formula_sum   'Li2 V8 O2 F22'
_cell_volume   429.40595548
_cell_formula_units_Z   2
loop_
 _symmetry_equiv_pos_site_id
 _symmetry_equiv_pos_as_xyz
  1  'x, y, z'
loop_
 _atom_site_type_symbol
 _atom_site_label
 _atom_site_symmetry_multiplicity
 _atom_site_fract_x
 _atom_site_fract_y
 _atom_site_fract_z
 _atom_site_occupancy
  Li  Li0  1  0.56283300  0.44700200  0.66708800  1
  Li  Li1  1  0.43716700  0.55299800  0.33291200  1
  V  V2  1  0.73772200  0.15034000  0.38104200  1
  V  V3  1  0.50000000  0.50000000  0.50000000  1
  V  V4  1  0.26227800  0.84966000  0.61895800  1
  V  V5  1  0.50000000  0.00000000  0.00000000  1
  V  V6  1  0.24760700  0.37633900  0.12500600  1
  V  V7  1  0.99893200  0.24232300  0.74952100  1
  V  V8  1  0.00106800  0.75767700  0.25047900  1
  V  V9  1  0.75239300  0.62366100  0.87499400  1
  O  O10  1  0.56169400  0.35180000  0.40684800  1
  O  O11  1  0.43830600  0.64820000  0.59315200  1
  F  F12  1  0.52026200  0.20574900  0.57052700  1
  F  F13  1  0.47973800  0.79425100  0.42947300  1
  F  F14  1  0.51476100  0.31149200  0.93553200  1
  F  F15  1  0.43778900  0.16419400  0.09175100  1
  F  F16  1  0.44981800  0.47156400  0.77773600  1
  F  F17  1  0.55018200  0.52843600  0.22226400  1
  F  F18  1  0.56221100  0.83580600  0.90824900  1
  F  F19  1  0.56198600  0.03861500  0.71834900  1
  F  F20  1  0.05807400  0.26818200  0.46758400  1
  F  F21  1  0.48523900  0.68850800  0.06446800  1
  F  F22  1  0.98634300  0.54601000  0.68952700  1
  F  F23  1  0.43801400  0.96138500  0.28165100  1
  F  F24  1  0.94230700  0.41016500  0.84213200  1
  F  F25  1  0.93044500  0.20785300  0.03308400  1
  F  F26  1  0.94192600  0.73181800  0.53241600  1
  F  F27  1  0.09159700  0.09560700  0.66254500  1
  F  F28  1  0.06955500  0.79214700  0.96691600  1
  F  F29  1  0.05769300  0.58983500  0.15786800  1
  F  F30  1  0.99454900  0.93779200  0.81278200  1
  F  F31  1  0.01365700  0.45399000  0.31047300  1
  F  F32  1  0.00545100  0.06220800  0.18721800  1
  F  F33  1  0.90840300  0.90439300  0.33745500  1
