# generated using pymatgen
data_Li2VCrO4
_symmetry_space_group_name_H-M   'P 1'
_cell_length_a   4.07094608
_cell_length_b   7.84522924
_cell_length_c   5.29414691
_cell_angle_alpha   93.98925013
_cell_angle_beta   112.61183478
_cell_angle_gamma   105.03734800
_symmetry_Int_Tables_number   1
_chemical_formula_structural   Li2VCrO4
_chemical_formula_sum   'Li4 V2 Cr2 O8'
_cell_volume   147.99610782
_cell_formula_units_Z   2
loop_
 _symmetry_equiv_pos_site_id
 _symmetry_equiv_pos_as_xyz
  1  'x, y, z'
loop_
 _atom_site_type_symbol
 _atom_site_label
 _atom_site_symmetry_multiplicity
 _atom_site_fract_x
 _atom_site_fract_y
 _atom_site_fract_z
 _atom_site_occupancy
  Li  Li0  1  0.62797400  0.87351900  0.38251200  1
  Li  Li1  1  0.12912100  0.36935400  0.88884400  1
  Li  Li2  1  0.24535400  0.75558200  0.73502800  1
  Li  Li3  1  0.75370800  0.24501100  0.26232000  1
  V  V4  1  0.50114400  0.49890200  0.50323100  1
  V  V5  1  0.99935400  0.99976500  0.99910200  1
  Cr  Cr6  1  0.37257400  0.12609200  0.61950400  1
  Cr  Cr7  1  0.87543800  0.62659000  0.12446700  1
  O  O8  1  0.25336100  0.23577500  0.27070500  1
  O  O9  1  0.76593300  0.74496800  0.78658700  1
  O  O10  1  0.48884100  0.01316100  0.96445800  1
  O  O11  1  0.98827800  0.50945100  0.46694400  1
  O  O12  1  0.11824800  0.88109800  0.35557600  1
  O  O13  1  0.61455700  0.38675800  0.84226500  1
  O  O14  1  0.88139400  0.11965500  0.64322500  1
  O  O15  1  0.38472100  0.61432000  0.15523100  1
