# generated using pymatgen
data_Li9La12(SnO6)8
_symmetry_space_group_name_H-M   'P 1'
_cell_length_a   11.37377718
_cell_length_b   11.37377718
_cell_length_c   11.37377718
_cell_angle_alpha   108.71922744
_cell_angle_beta   108.71922744
_cell_angle_gamma   110.98590789
_symmetry_Int_Tables_number   1
_chemical_formula_structural   Li9La12(SnO6)8
_chemical_formula_sum   'Li9 La12 Sn8 O48'
_cell_volume   1132.04548641
_cell_formula_units_Z   1
loop_
 _symmetry_equiv_pos_site_id
 _symmetry_equiv_pos_as_xyz
  1  'x, y, z'
loop_
 _atom_site_type_symbol
 _atom_site_label
 _atom_site_symmetry_multiplicity
 _atom_site_fract_x
 _atom_site_fract_y
 _atom_site_fract_z
 _atom_site_occupancy
  Li  Li0  1  0.25060400  0.62579000  0.12271900  1
  Li  Li1  1  0.50307100  0.12788500  0.87728100  1
  Li  Li2  1  0.87211500  0.74939600  0.37518600  1
  Li  Li3  1  0.37421000  0.49692900  0.62481400  1
  Li  Li4  1  0.25000000  0.75000000  0.50000000  1
  Li  Li5  1  0.00171700  0.12519800  0.37451800  1
  Li  Li6  1  0.75068000  0.62719800  0.62548200  1
  Li  Li7  1  0.37280200  0.99828300  0.12348200  1
  Li  Li8  1  0.87480200  0.24932000  0.87651800  1
  La  La9  1  0.99787700  0.49787700  0.50000000  1
  La  La10  1  0.74968800  0.74968800  0.00000000  1
  La  La11  1  0.99807600  0.62618400  0.87396900  1
  La  La12  1  0.75221500  0.12410700  0.12603100  1
  La  La13  1  0.87874400  0.50042300  0.13108400  1
  La  La14  1  0.36933900  0.74766000  0.86891600  1
  La  La15  1  0.25031200  0.25031200  0.00000000  1
  La  La16  1  0.50212300  0.00212300  0.50000000  1
  La  La17  1  0.25234000  0.12125600  0.62167900  1
  La  La18  1  0.49957700  0.63066100  0.37832100  1
  La  La19  1  0.37381600  0.24778500  0.37189200  1
  La  La20  1  0.87589300  0.00192400  0.62810800  1
  Sn  Sn21  1  0.12770500  0.86874000  0.74867500  1
  Sn  Sn22  1  0.12006500  0.37903000  0.25132500  1
  Sn  Sn23  1  0.62477900  0.37413100  0.75006300  1
  Sn  Sn24  1  0.62406800  0.87471700  0.24993700  1
  Sn  Sn25  1  0.12528300  0.37522100  0.74935200  1
  Sn  Sn26  1  0.13126000  0.87993500  0.25896500  1
  Sn  Sn27  1  0.62586900  0.37593200  0.25064800  1
  Sn  Sn28  1  0.62097000  0.87229500  0.74103500  1
  O  O29  1  0.21817700  0.49891800  0.66830000  1
  O  O30  1  0.83061800  0.54987700  0.33170000  1
  O  O31  1  0.92151800  0.75120400  0.21773700  1
  O  O32  1  0.53346800  0.70378100  0.78226300  1
  O  O33  1  0.00492900  0.83499300  0.05189800  1
  O  O34  1  0.96019300  0.41361900  0.66921500  1
  O  O35  1  0.74440300  0.29097800  0.33078500  1
  O  O36  1  0.78309500  0.95303100  0.94810200  1
  O  O37  1  0.65701900  0.28003100  0.08228900  1
  O  O38  1  0.09466700  0.67722700  0.12598200  1
  O  O39  1  0.19774200  0.57473000  0.91771100  1
  O  O40  1  0.55124500  0.96868500  0.87401800  1
  O  O41  1  0.03499600  0.25067500  0.83173700  1
  O  O42  1  0.41893800  0.20325900  0.16826300  1
  O  O43  1  0.33266300  0.00217100  0.28307300  1
  O  O44  1  0.71909800  0.04959000  0.71692700  1
  O  O45  1  0.24901800  0.90489200  0.45511200  1
  O  O46  1  0.28844900  0.33381200  0.83052300  1
  O  O47  1  0.50328900  0.45792600  0.16947700  1
  O  O48  1  0.44978000  0.79390600  0.54488800  1
  O  O49  1  0.59214400  0.47064800  0.41772700  1
  O  O50  1  0.15420400  0.07808500  0.37462200  1
  O  O51  1  0.05292200  0.17441700  0.58227300  1
  O  O52  1  0.70346300  0.77958200  0.62537800  1
  O  O53  1  0.03131500  0.90533300  0.58256000  1
  O  O54  1  0.42527000  0.34298100  0.62301300  1
  O  O55  1  0.32277300  0.44875500  0.41744000  1
  O  O56  1  0.71996900  0.80225800  0.37698700  1
  O  O57  1  0.24879600  0.46653200  0.17031300  1
  O  O58  1  0.29621900  0.07848200  0.82968700  1
  O  O59  1  0.50108200  0.16938200  0.71925900  1
  O  O60  1  0.45012300  0.78182300  0.28074100  1
  O  O61  1  0.58638100  0.25559700  0.54657500  1
  O  O62  1  0.16500700  0.21690500  0.16993600  1
  O  O63  1  0.04696900  0.99507100  0.83006400  1
  O  O64  1  0.70902200  0.03980700  0.45342500  1
  O  O65  1  0.22041800  0.84579600  0.92388100  1
  O  O66  1  0.82558300  0.40785600  0.87850400  1
  O  O67  1  0.92191500  0.29653700  0.07611900  1
  O  O68  1  0.52935200  0.94707800  0.12149600  1
  O  O69  1  0.99782900  0.28090200  0.33049300  1
  O  O70  1  0.95041000  0.66733700  0.66950700  1
  O  O71  1  0.74932500  0.58106200  0.78432100  1
  O  O72  1  0.79674100  0.96500400  0.21567900  1
  O  O73  1  0.66618800  0.49671100  0.95463700  1
  O  O74  1  0.09510800  0.55022000  0.34412600  1
  O  O75  1  0.20609400  0.75098200  0.65587400  1
  O  O76  1  0.54207400  0.71155100  0.04536300  1
