# generated using pymatgen
data_Li2SO4
_symmetry_space_group_name_H-M   'P 1'
_cell_length_a   5.45237452
_cell_length_b   5.45237452
_cell_length_c   5.45237452
_cell_angle_alpha   60.00000000
_cell_angle_beta   60.00000000
_cell_angle_gamma   60.00000000
_symmetry_Int_Tables_number   1
_chemical_formula_structural   Li2SO4
_chemical_formula_sum   'Li2 S1 O4'
_cell_volume   114.61515394
_cell_formula_units_Z   1
loop_
 _symmetry_equiv_pos_site_id
 _symmetry_equiv_pos_as_xyz
  1  'x, y, z'
loop_
 _atom_site_type_symbol
 _atom_site_label
 _atom_site_symmetry_multiplicity
 _atom_site_fract_x
 _atom_site_fract_y
 _atom_site_fract_z
 _atom_site_occupancy
  Li  Li0  1  0.75000000  0.75000000  0.75000000  1
  Li  Li1  1  0.25000000  0.25000000  0.25000000  1
  S  S2  1  0.00000000  0.00000000  0.00000000  1
  O  O3  1  0.88928100  0.88928100  0.33215800  1
  O  O4  1  0.88928100  0.33215800  0.88928100  1
  O  O5  1  0.33215800  0.88928100  0.88928100  1
  O  O6  1  0.88928100  0.88928100  0.88928100  1
