# generated using pymatgen
data_Li4MnCo2O7
_symmetry_space_group_name_H-M   'P 1'
_cell_length_a   4.99195400
_cell_length_b   6.60329687
_cell_length_c   7.81170612
_cell_angle_alpha   86.02666392
_cell_angle_beta   77.56338921
_cell_angle_gamma   83.14867323
_symmetry_Int_Tables_number   1
_chemical_formula_structural   Li4MnCo2O7
_chemical_formula_sum   'Li8 Mn2 Co4 O14'
_cell_volume   249.40953915
_cell_formula_units_Z   2
loop_
 _symmetry_equiv_pos_site_id
 _symmetry_equiv_pos_as_xyz
  1  'x, y, z'
loop_
 _atom_site_type_symbol
 _atom_site_label
 _atom_site_symmetry_multiplicity
 _atom_site_fract_x
 _atom_site_fract_y
 _atom_site_fract_z
 _atom_site_occupancy
  Li  Li0  1  0.07150600  0.85273500  0.36685800  1
  Li  Li1  1  0.78453000  0.43561100  0.91613600  1
  Li  Li2  1  0.50872200  0.98623100  0.50039900  1
  Li  Li3  1  0.93516200  0.15015800  0.63792100  1
  Li  Li4  1  0.63718900  0.71066200  0.22506400  1
  Li  Li5  1  0.36871300  0.29347300  0.77852500  1
  Li  Li6  1  0.21572600  0.57179800  0.07077000  1
  Li  Li7  1  0.71826500  0.57360700  0.57058400  1
  Mn  Mn8  1  0.99628200  0.99965300  0.00099700  1
  Mn  Mn9  1  0.85481800  0.28569400  0.28620900  1
  Co  Co10  1  0.42445600  0.14221000  0.14331000  1
  Co  Co11  1  0.14032500  0.71251800  0.70586400  1
  Co  Co12  1  0.56751600  0.84764600  0.85048900  1
  Co  Co13  1  0.28356200  0.43390600  0.43486300  1
  O  O14  1  0.30363700  0.88377200  0.10216600  1
  O  O15  1  0.05667800  0.43513000  0.67479600  1
  O  O16  1  0.74464400  0.01819900  0.23415500  1
  O  O17  1  0.17089600  0.15339500  0.37078400  1
  O  O18  1  0.89304400  0.73824800  0.96603400  1
  O  O19  1  0.61037400  0.28318700  0.50943100  1
  O  O20  1  0.45837200  0.59161800  0.82563900  1
  O  O21  1  0.83192000  0.85720800  0.62184400  1
  O  O22  1  0.54809700  0.40206700  0.18288900  1
  O  O23  1  0.23843600  0.00217000  0.77250000  1
  O  O24  1  0.67575000  0.12706200  0.91453300  1
  O  O25  1  0.38022200  0.70825100  0.46807600  1
  O  O26  1  0.10513900  0.26344000  0.05150700  1
  O  O27  1  0.97601900  0.54035000  0.31765800  1
