# generated using pymatgen
data_Li4MnCo2O7
_symmetry_space_group_name_H-M   'P 1'
_cell_length_a   5.07471600
_cell_length_b   5.87653701
_cell_length_c   8.92169116
_cell_angle_alpha   90.94510759
_cell_angle_beta   96.09567127
_cell_angle_gamma   107.43682458
_symmetry_Int_Tables_number   1
_chemical_formula_structural   Li4MnCo2O7
_chemical_formula_sum   'Li8 Mn2 Co4 O14'
_cell_volume   252.07173241
_cell_formula_units_Z   2
loop_
 _symmetry_equiv_pos_site_id
 _symmetry_equiv_pos_as_xyz
  1  'x, y, z'
loop_
 _atom_site_type_symbol
 _atom_site_label
 _atom_site_symmetry_multiplicity
 _atom_site_fract_x
 _atom_site_fract_y
 _atom_site_fract_z
 _atom_site_occupancy
  Li  Li0  1  0.28468500  0.07107600  0.57564100  1
  Li  Li1  1  0.57653200  0.64797900  0.14116800  1
  Li  Li2  1  0.71531500  0.92892400  0.42435900  1
  Li  Li3  1  0.00000000  0.50000000  0.00000000  1
  Li  Li4  1  0.14306100  0.78936000  0.27086600  1
  Li  Li5  1  0.42346800  0.35202100  0.85883200  1
  Li  Li6  1  0.85693900  0.21064000  0.72913400  1
  Li  Li7  1  0.00000000  0.00000000  0.00000000  1
  Mn  Mn8  1  0.85837100  0.71628100  0.71983200  1
  Mn  Mn9  1  0.14162900  0.28371900  0.28016800  1
  Co  Co10  1  0.43940900  0.86778500  0.86230500  1
  Co  Co11  1  0.71260700  0.42806700  0.42847400  1
  Co  Co12  1  0.28739300  0.57193300  0.57152600  1
  Co  Co13  1  0.56059100  0.13221500  0.13769500  1
  O  O14  1  0.12762200  0.01130900  0.77887400  1
  O  O15  1  0.41962400  0.58846400  0.36160400  1
  O  O16  1  0.57707200  0.86993100  0.64534800  1
  O  O17  1  0.86587500  0.44363500  0.22044000  1
  O  O18  1  0.98636500  0.72911900  0.51338400  1
  O  O19  1  0.28743100  0.32081000  0.09165400  1
  O  O20  1  0.68865800  0.16300200  0.92842100  1
  O  O21  1  0.42292800  0.13006900  0.35465200  1
  O  O22  1  0.71256900  0.67919000  0.90834600  1
  O  O23  1  0.87237800  0.98869100  0.22112600  1
  O  O24  1  0.13412500  0.55636500  0.77956000  1
  O  O25  1  0.31134200  0.83699800  0.07157900  1
  O  O26  1  0.58037600  0.41153600  0.63839600  1
  O  O27  1  0.01363500  0.27088100  0.48661600  1
