# generated using pymatgen
data_Li9Mn2Co5O16
_symmetry_space_group_name_H-M   'P 1'
_cell_length_a   3.02385700
_cell_length_b   9.91646288
_cell_length_c   10.25815986
_cell_angle_alpha   73.34760585
_cell_angle_beta   82.67105033
_cell_angle_gamma   87.13360611
_symmetry_Int_Tables_number   1
_chemical_formula_structural   Li9Mn2Co5O16
_chemical_formula_sum   'Li9 Mn2 Co5 O16'
_cell_volume   292.26338050
_cell_formula_units_Z   1
loop_
 _symmetry_equiv_pos_site_id
 _symmetry_equiv_pos_as_xyz
  1  'x, y, z'
loop_
 _atom_site_type_symbol
 _atom_site_label
 _atom_site_symmetry_multiplicity
 _atom_site_fract_x
 _atom_site_fract_y
 _atom_site_fract_z
 _atom_site_occupancy
  Li  Li0  1  0.93260800  0.68760400  0.12662900  1
  Li  Li1  1  0.43534700  0.18816200  0.12515000  1
  Li  Li2  1  0.31171900  0.56986600  0.37904100  1
  Li  Li3  1  0.80937000  0.06061700  0.37257800  1
  Li  Li4  1  0.69419600  0.44008000  0.62600800  1
  Li  Li5  1  0.18640800  0.93016700  0.62505700  1
  Li  Li6  1  0.06642800  0.31445900  0.87493100  1
  Li  Li7  1  0.56361100  0.80910300  0.87239800  1
  Li  Li8  1  0.74983800  0.74910000  0.50145000  1
  Mn  Mn9  1  0.00706800  0.99835100  0.00335200  1
  Mn  Mn10  1  0.86484400  0.37969300  0.24670700  1
  Co  Co11  1  0.50097600  0.50087100  0.99595000  1
  Co  Co12  1  0.36093400  0.86784100  0.26185400  1
  Co  Co13  1  0.24254300  0.25020400  0.50057700  1
  Co  Co14  1  0.13439100  0.62916400  0.74112300  1
  Co  Co15  1  0.63233900  0.12343500  0.74897900  1
  O  O16  1  0.43710100  0.84874000  0.07637100  1
  O  O17  1  0.93060500  0.35296200  0.06313900  1
  O  O18  1  0.81500500  0.73039700  0.30873400  1
  O  O19  1  0.29619000  0.22659500  0.31784900  1
  O  O20  1  0.20868800  0.59271900  0.58381000  1
  O  O21  1  0.72597200  0.10060000  0.56762600  1
  O  O22  1  0.57350100  0.48038600  0.81688100  1
  O  O23  1  0.11795500  0.97612100  0.81859100  1
  O  O24  1  0.43540500  0.52892500  0.17544600  1
  O  O25  1  0.93141800  0.02120400  0.18580700  1
  O  O26  1  0.75662900  0.40033200  0.43313900  1
  O  O27  1  0.29355400  0.90518300  0.41855100  1
  O  O28  1  0.14843000  0.27101500  0.68212500  1
  O  O29  1  0.68998000  0.76852300  0.69272100  1
  O  O30  1  0.57514900  0.15075400  0.93184600  1
  O  O31  1  0.07179700  0.64682200  0.92558200  1
