# generated using pymatgen
data_Li4CO4
_symmetry_space_group_name_H-M   'P 1'
_cell_length_a   4.67432600
_cell_length_b   4.67432600
_cell_length_c   4.79042733
_cell_angle_alpha   70.18621979
_cell_angle_beta   70.18621979
_cell_angle_gamma   102.25618729
_symmetry_Int_Tables_number   1
_chemical_formula_structural   Li4CO4
_chemical_formula_sum   'Li4 C1 O4'
_cell_volume   86.07986145
_cell_formula_units_Z   1
loop_
 _symmetry_equiv_pos_site_id
 _symmetry_equiv_pos_as_xyz
  1  'x, y, z'
loop_
 _atom_site_type_symbol
 _atom_site_label
 _atom_site_symmetry_multiplicity
 _atom_site_fract_x
 _atom_site_fract_y
 _atom_site_fract_z
 _atom_site_occupancy
  Li  Li0  1  0.72228400  0.72228400  0.07591200  1
  Li  Li1  1  0.55792000  0.04386600  0.44670200  1
  Li  Li2  1  0.04386600  0.55792000  0.44670200  1
  Li  Li3  1  0.28227700  0.28227700  0.86546700  1
  C  C4  1  0.03607200  0.03607200  0.50112600  1
  O  O5  1  0.78498000  0.10420800  0.69807500  1
  O  O6  1  0.10420800  0.78498000  0.69807500  1
  O  O7  1  0.94103800  0.94103800  0.28253200  1
  O  O8  1  0.32927500  0.32927500  0.30678000  1
