# generated using pymatgen
data_Li4Ti5Co3O16
_symmetry_space_group_name_H-M   'P 1'
_cell_length_a   5.86426100
_cell_length_b   5.88321555
_cell_length_c   9.59820494
_cell_angle_alpha   89.89181220
_cell_angle_beta   89.92557317
_cell_angle_gamma   60.20097568
_symmetry_Int_Tables_number   1
_chemical_formula_structural   Li4Ti5Co3O16
_chemical_formula_sum   'Li4 Ti5 Co3 O16'
_cell_volume   287.35836938
_cell_formula_units_Z   1
loop_
 _symmetry_equiv_pos_site_id
 _symmetry_equiv_pos_as_xyz
  1  'x, y, z'
loop_
 _atom_site_type_symbol
 _atom_site_label
 _atom_site_symmetry_multiplicity
 _atom_site_fract_x
 _atom_site_fract_y
 _atom_site_fract_z
 _atom_site_occupancy
  Li  Li0  1  0.66160800  0.66789600  0.89709800  1
  Li  Li1  1  0.01604800  0.99228200  0.99063900  1
  Li  Li2  1  0.00508400  0.99977300  0.49870700  1
  Li  Li3  1  0.33001400  0.33438800  0.39607000  1
  Ti  Ti4  1  0.65329100  0.17508100  0.72840900  1
  Ti  Ti5  1  0.82126400  0.34274400  0.21917100  1
  Ti  Ti6  1  0.65475600  0.67613700  0.50312200  1
  Ti  Ti7  1  0.82042900  0.83701500  0.21778700  1
  Ti  Ti8  1  0.31085100  0.34507900  0.98787600  1
  Co  Co9  1  0.34534200  0.82672700  0.20987900  1
  Co  Co10  1  0.16425900  0.18595000  0.71123900  1
  Co  Co11  1  0.16506700  0.65469200  0.70983300  1
  O  O12  1  0.81749500  0.34496800  0.59194100  1
  O  O13  1  0.96364400  0.51847600  0.33190900  1
  O  O14  1  0.67290700  0.66262400  0.10417100  1
  O  O15  1  0.01073800  0.99441800  0.30708100  1
  O  O16  1  0.99754900  0.01056000  0.80185600  1
  O  O17  1  0.82188400  0.83787200  0.59065600  1
  O  O18  1  0.51822400  0.52030400  0.33301100  1
  O  O19  1  0.51825300  0.96027300  0.33290100  1
  O  O20  1  0.67575100  0.16066100  0.10188000  1
  O  O21  1  0.33906700  0.83401100  0.59116100  1
  O  O22  1  0.49227400  0.03582800  0.84582400  1
  O  O23  1  0.49159900  0.46951900  0.84811600  1
  O  O24  1  0.34669600  0.31377900  0.60226800  1
  O  O25  1  0.17473700  0.15795700  0.10006500  1
  O  O26  1  0.03793100  0.47439400  0.85623600  1
  O  O27  1  0.17323600  0.66629100  0.09893200  1
