# generated using pymatgen
data_Li4MnCo2O7
_symmetry_space_group_name_H-M   'P 1'
_cell_length_a   2.97277600
_cell_length_b   8.08430187
_cell_length_c   10.64212953
_cell_angle_alpha   78.32174179
_cell_angle_beta   85.72434033
_cell_angle_gamma   89.05615728
_symmetry_Int_Tables_number   1
_chemical_formula_structural   Li4MnCo2O7
_chemical_formula_sum   'Li8 Mn2 Co4 O14'
_cell_volume   249.76872682
_cell_formula_units_Z   2
loop_
 _symmetry_equiv_pos_site_id
 _symmetry_equiv_pos_as_xyz
  1  'x, y, z'
loop_
 _atom_site_type_symbol
 _atom_site_label
 _atom_site_symmetry_multiplicity
 _atom_site_fract_x
 _atom_site_fract_y
 _atom_site_fract_z
 _atom_site_occupancy
  Li  Li0  1  0.14677800  0.06321900  0.70991500  1
  Li  Li1  1  0.85203800  0.93048800  0.28676300  1
  Li  Li2  1  0.57979300  0.78916900  0.84973600  1
  Li  Li3  1  0.71162500  0.35361200  0.57095300  1
  Li  Li4  1  0.42659100  0.21543600  0.14537600  1
  Li  Li5  1  0.29261800  0.64849900  0.42761400  1
  Li  Li6  1  0.99414700  0.50006500  0.00444300  1
  Li  Li7  1  0.70527500  0.86103900  0.57668100  1
  Mn  Mn8  1  0.00190700  0.99931200  0.99962800  1
  Mn  Mn9  1  0.14674300  0.58030700  0.71011900  1
  Co  Co10  1  0.42727200  0.71175100  0.14525200  1
  Co  Co11  1  0.85605300  0.42669300  0.28659500  1
  Co  Co12  1  0.58344300  0.28591800  0.85423700  1
  Co  Co13  1  0.27927300  0.13178400  0.43339900  1
  O  O14  1  0.59598100  0.04628400  0.86024300  1
  O  O15  1  0.29125800  0.91878100  0.42457300  1
  O  O16  1  0.02348000  0.75298300  0.00940200  1
  O  O17  1  0.16761000  0.32989700  0.72299500  1
  O  O18  1  0.87824100  0.19028300  0.29244200  1
  O  O19  1  0.68322400  0.60229700  0.58763700  1
  O  O20  1  0.44960900  0.47345200  0.14987500  1
  O  O21  1  0.69290100  0.11253000  0.55882400  1
  O  O22  1  0.40316500  0.95309600  0.13970000  1
  O  O23  1  0.13373600  0.80361500  0.71735900  1
  O  O24  1  0.26390300  0.37700600  0.42051900  1
  O  O25  1  0.97858300  0.24662600  0.99266200  1
  O  O26  1  0.83224400  0.66613100  0.28265200  1
  O  O27  1  0.60251000  0.52972800  0.84040700  1
