# generated using pymatgen
data_Li4Mn3O7
_symmetry_space_group_name_H-M   'P 1'
_cell_length_a   5.09850600
_cell_length_b   5.83026905
_cell_length_c   9.28922853
_cell_angle_alpha   89.93663295
_cell_angle_beta   98.98770097
_cell_angle_gamma   107.19308195
_symmetry_Int_Tables_number   1
_chemical_formula_structural   Li4Mn3O7
_chemical_formula_sum   'Li8 Mn6 O14'
_cell_volume   260.25315423
_cell_formula_units_Z   2
loop_
 _symmetry_equiv_pos_site_id
 _symmetry_equiv_pos_as_xyz
  1  'x, y, z'
loop_
 _atom_site_type_symbol
 _atom_site_label
 _atom_site_symmetry_multiplicity
 _atom_site_fract_x
 _atom_site_fract_y
 _atom_site_fract_z
 _atom_site_occupancy
  Li  Li0  1  0.36126600  0.71254200  0.22011700  1
  Li  Li1  1  0.63873400  0.28745800  0.77988300  1
  Li  Li2  1  0.77488900  0.57145600  0.08668300  1
  Li  Li3  1  0.08428300  0.14370400  0.63121800  1
  Li  Li4  1  0.22511100  0.42854400  0.91331700  1
  Li  Li5  1  0.50000000  0.00000000  0.50000000  1
  Li  Li6  1  0.91571700  0.85629600  0.36878200  1
  Li  Li7  1  0.50000000  0.50000000  0.50000000  1
  Mn  Mn8  1  0.92537500  0.35552000  0.36724400  1
  Mn  Mn9  1  0.07462500  0.64448000  0.63275600  1
  Mn  Mn10  1  0.21818900  0.92798300  0.92590100  1
  Mn  Mn11  1  0.78181100  0.07201700  0.07409900  1
  Mn  Mn12  1  0.35061700  0.21438600  0.22687000  1
  Mn  Mn13  1  0.64938300  0.78561400  0.77313000  1
  O  O14  1  0.18441000  0.66062900  0.44147700  1
  O  O15  1  0.50459000  0.23174200  0.99599400  1
  O  O16  1  0.63927000  0.51027800  0.28497000  1
  O  O17  1  0.93524300  0.08568100  0.85690700  1
  O  O18  1  0.05267800  0.37759400  0.16760300  1
  O  O19  1  0.36550300  0.94498200  0.70521900  1
  O  O20  1  0.81055900  0.80739300  0.57355000  1
  O  O21  1  0.49541000  0.76825800  0.00400600  1
  O  O22  1  0.81559000  0.33937100  0.55852300  1
  O  O23  1  0.94732200  0.62240600  0.83239700  1
  O  O24  1  0.18944100  0.19260700  0.42645000  1
  O  O25  1  0.36073000  0.48972200  0.71503000  1
  O  O26  1  0.63449700  0.05501800  0.29478100  1
  O  O27  1  0.06475700  0.91431900  0.14309300  1
