# generated using pymatgen
data_Li(Fe2O3)4
_symmetry_space_group_name_H-M   'P 1'
_cell_length_a   6.03725300
_cell_length_b   6.04185848
_cell_length_c   13.44973380
_cell_angle_alpha   102.62139917
_cell_angle_beta   102.94331061
_cell_angle_gamma   89.93020408
_symmetry_Int_Tables_number   1
_chemical_formula_structural   Li(Fe2O3)4
_chemical_formula_sum   'Li2 Fe16 O24'
_cell_volume   465.98883217
_cell_formula_units_Z   2
loop_
 _symmetry_equiv_pos_site_id
 _symmetry_equiv_pos_as_xyz
  1  'x, y, z'
loop_
 _atom_site_type_symbol
 _atom_site_label
 _atom_site_symmetry_multiplicity
 _atom_site_fract_x
 _atom_site_fract_y
 _atom_site_fract_z
 _atom_site_occupancy
  Li  Li0  1  0.00000000  0.50000000  0.00000000  1
  Li  Li1  1  0.50000000  0.00000000  0.50000000  1
  Fe  Fe2  1  0.04378900  0.30088900  0.58286800  1
  Fe  Fe3  1  0.33328300  0.84088900  0.66284700  1
  Fe  Fe4  1  0.82767100  0.84031800  0.66236000  1
  Fe  Fe5  1  0.62280100  0.37406200  0.74872000  1
  Fe  Fe6  1  0.15812700  0.66818700  0.83475000  1
  Fe  Fe7  1  0.15801800  0.17019700  0.83459400  1
  Fe  Fe8  1  0.70288100  0.96196800  0.92012400  1
  Fe  Fe9  1  0.50000000  0.50000000  0.00000000  1
  Fe  Fe10  1  0.29711900  0.03803200  0.07987600  1
  Fe  Fe11  1  0.84198200  0.82980300  0.16540600  1
  Fe  Fe12  1  0.84187300  0.33181300  0.16525000  1
  Fe  Fe13  1  0.37719900  0.62593800  0.25128000  1
  Fe  Fe14  1  0.17232900  0.15968200  0.33764000  1
  Fe  Fe15  1  0.66671700  0.15911100  0.33715300  1
  Fe  Fe16  1  0.95621100  0.69911100  0.41713200  1
  Fe  Fe17  1  0.50000000  0.50000000  0.50000000  1
  O  O18  1  0.57592300  0.07297500  0.67007000  1
  O  O19  1  0.57081600  0.59306900  0.66191600  1
  O  O20  1  0.09702400  0.08397900  0.67412500  1
  O  O21  1  0.09560000  0.60493000  0.67592800  1
  O  O22  1  0.39410800  0.91512200  0.82833500  1
  O  O23  1  0.93161000  0.92015300  0.83601000  1
  O  O24  1  0.93335600  0.41803500  0.83212700  1
  O  O25  1  0.40215700  0.42216200  0.84030100  1
  O  O26  1  0.25759500  0.73804000  0.99392300  1
  O  O27  1  0.25741100  0.25758300  0.99359900  1
  O  O28  1  0.74258900  0.74241700  0.00640100  1
  O  O29  1  0.74240500  0.26196000  0.00607700  1
  O  O30  1  0.06664400  0.58196500  0.16787300  1
  O  O31  1  0.59784300  0.57783800  0.15969900  1
  O  O32  1  0.60589200  0.08487800  0.17166500  1
  O  O33  1  0.06839000  0.07984700  0.16399000  1
  O  O34  1  0.90440000  0.39507000  0.32407200  1
  O  O35  1  0.90297600  0.91602100  0.32587500  1
  O  O36  1  0.42918400  0.40693100  0.33808400  1
  O  O37  1  0.42407700  0.92702500  0.32993000  1
  O  O38  1  0.73854200  0.25661800  0.49452900  1
  O  O39  1  0.25914100  0.26486800  0.49929500  1
  O  O40  1  0.26145800  0.74338200  0.50547100  1
  O  O41  1  0.74085900  0.73513200  0.50070500  1
