# generated using pymatgen
data_Li3Mn4O8
_symmetry_space_group_name_H-M   'P 1'
_cell_length_a   5.72432800
_cell_length_b   9.37672332
_cell_length_c   12.28182166
_cell_angle_alpha   88.59412342
_cell_angle_beta   89.96666794
_cell_angle_gamma   89.81990710
_symmetry_Int_Tables_number   1
_chemical_formula_structural   Li3Mn4O8
_chemical_formula_sum   'Li12 Mn16 O32'
_cell_volume   659.03039699
_cell_formula_units_Z   4
loop_
 _symmetry_equiv_pos_site_id
 _symmetry_equiv_pos_as_xyz
  1  'x, y, z'
loop_
 _atom_site_type_symbol
 _atom_site_label
 _atom_site_symmetry_multiplicity
 _atom_site_fract_x
 _atom_site_fract_y
 _atom_site_fract_z
 _atom_site_occupancy
  Li  Li0  1  0.73942100  0.63867200  0.55062400  1
  Li  Li1  1  0.50806600  0.54216400  0.31226600  1
  Li  Li2  1  0.97641500  0.53966800  0.31379000  1
  Li  Li3  1  0.72887800  0.11329300  0.06443800  1
  Li  Li4  1  0.23992000  0.06550200  0.79487200  1
  Li  Li5  1  0.74777900  0.03293000  0.82409200  1
  Li  Li6  1  0.24071000  0.36142100  0.44956400  1
  Li  Li7  1  0.00635800  0.45867300  0.68765000  1
  Li  Li8  1  0.47499400  0.45961700  0.68640600  1
  Li  Li9  1  0.24082200  0.96720100  0.17566100  1
  Li  Li10  1  0.73165400  0.93402100  0.20514300  1
  Li  Li11  1  0.25283000  0.88674500  0.93570600  1
  Mn  Mn12  1  0.48910400  0.80483500  0.39510300  1
  Mn  Mn13  1  0.99372700  0.80407900  0.39517000  1
  Mn  Mn14  1  0.49256400  0.65203200  0.83595600  1
  Mn  Mn15  1  0.99370600  0.65114900  0.83826900  1
  Mn  Mn16  1  0.99127300  0.34732400  0.16402500  1
  Mn  Mn17  1  0.49242100  0.34970300  0.16181100  1
  Mn  Mn18  1  0.98918900  0.19532100  0.60526000  1
  Mn  Mn19  1  0.49370600  0.19573100  0.60467800  1
  Mn  Mn20  1  0.24266100  0.30502700  0.89896100  1
  Mn  Mn21  1  0.74484100  0.30565300  0.88669300  1
  Mn  Mn22  1  0.24237300  0.14794100  0.32903500  1
  Mn  Mn23  1  0.74059200  0.15930400  0.33567400  1
  Mn  Mn24  1  0.24070400  0.84077100  0.66414900  1
  Mn  Mn25  1  0.74270700  0.85223600  0.67098300  1
  Mn  Mn26  1  0.24022100  0.69428900  0.11321200  1
  Mn  Mn27  1  0.73914200  0.69504100  0.10114800  1
  O  O28  1  0.24359300  0.06741100  0.63915800  1
  O  O29  1  0.74009800  0.06156000  0.65057400  1
  O  O30  1  0.24002600  0.31867200  0.06554900  1
  O  O31  1  0.75022800  0.31489800  0.06056600  1
  O  O32  1  0.25060500  0.68474300  0.93946600  1
  O  O33  1  0.74036700  0.68103400  0.93453200  1
  O  O34  1  0.23919000  0.93847300  0.34918500  1
  O  O35  1  0.74257100  0.93245500  0.36080300  1
  O  O36  1  0.99046400  0.56053300  0.14940500  1
  O  O37  1  0.49207600  0.57002500  0.14964400  1
  O  O38  1  0.97819000  0.80681500  0.56700800  1
  O  O39  1  0.50189400  0.80703600  0.56803900  1
  O  O40  1  0.47765200  0.19284600  0.43288100  1
  O  O41  1  0.00136300  0.19316700  0.43197300  1
  O  O42  1  0.49308600  0.43900600  0.85061100  1
  O  O43  1  0.99472300  0.43065200  0.85049000  1
  O  O44  1  0.49543200  0.16088600  0.88845100  1
  O  O45  1  0.99466500  0.16049800  0.88483200  1
  O  O46  1  0.98694700  0.13624000  0.21668600  1
  O  O47  1  0.50007700  0.12168800  0.22303500  1
  O  O48  1  0.98912800  0.83819000  0.11433800  1
  O  O49  1  0.48818400  0.84040300  0.11185900  1
  O  O50  1  0.48611500  0.86481800  0.78372300  1
  O  O51  1  0.99942400  0.87760200  0.77641000  1
  O  O52  1  0.24263000  0.66181600  0.38062700  1
  O  O53  1  0.74174500  0.65949800  0.39272500  1
  O  O54  1  0.24227300  0.62442900  0.73055700  1
  O  O55  1  0.73972400  0.64093200  0.71954100  1
  O  O56  1  0.24043800  0.34042700  0.60744900  1
  O  O57  1  0.74112100  0.33811400  0.61948700  1
  O  O58  1  0.23851700  0.35916600  0.28054900  1
  O  O59  1  0.74067900  0.37568500  0.26955000  1
