# generated using pymatgen
data_LiHg2Pt
_symmetry_space_group_name_H-M   'P 1'
_cell_length_a   10.62244147
_cell_length_b   10.62244147
_cell_length_c   10.62244147
_cell_angle_alpha   121.03172076
_cell_angle_beta   119.62054321
_cell_angle_gamma   89.44043249
_symmetry_Int_Tables_number   1
_chemical_formula_structural   LiHg2Pt
_chemical_formula_sum   'Li1 Hg2 Pt1'
_cell_volume   843.15245776
_cell_formula_units_Z   1
loop_
 _symmetry_equiv_pos_site_id
 _symmetry_equiv_pos_as_xyz
  1  'x, y, z'
loop_
 _atom_site_type_symbol
 _atom_site_label
 _atom_site_symmetry_multiplicity
 _atom_site_fract_x
 _atom_site_fract_y
 _atom_site_fract_z
 _atom_site_occupancy
  Li  Li0  1  0.00000000  0.00000000  0.00000000  1
  Hg  Hg1  1  0.75196200  0.00000000  0.75196200  1
  Hg  Hg2  1  0.24803800  0.00000000  0.24803800  1
  Pt  Pt3  1  0.50000000  0.00000000  0.50000000  1
