# generated using pymatgen
data_Li4CoOF5
_symmetry_space_group_name_H-M   'P 1'
_cell_length_a   3.71897227
_cell_length_b   9.40814607
_cell_length_c   13.15918783
_cell_angle_alpha   77.37324271
_cell_angle_beta   90.02840490
_cell_angle_gamma   89.97468525
_symmetry_Int_Tables_number   1
_chemical_formula_structural   Li4CoOF5
_chemical_formula_sum   'Li16 Co4 O4 F20'
_cell_volume   449.28647774
_cell_formula_units_Z   4
loop_
 _symmetry_equiv_pos_site_id
 _symmetry_equiv_pos_as_xyz
  1  'x, y, z'
loop_
 _atom_site_type_symbol
 _atom_site_label
 _atom_site_symmetry_multiplicity
 _atom_site_fract_x
 _atom_site_fract_y
 _atom_site_fract_z
 _atom_site_occupancy
  Li  Li0  1  0.99950900  0.36384900  0.12692600  1
  Li  Li1  1  0.99818000  0.36538500  0.62824100  1
  Li  Li2  1  0.49950600  0.86373800  0.37631300  1
  Li  Li3  1  0.49973100  0.86292300  0.87819000  1
  Li  Li4  1  0.00079200  0.63532000  0.87305300  1
  Li  Li5  1  0.99973400  0.63623900  0.37332700  1
  Li  Li6  1  0.49982400  0.13626500  0.12331200  1
  Li  Li7  1  0.49910200  0.13762900  0.62362500  1
  Li  Li8  1  0.99932800  0.33476000  0.92890100  1
  Li  Li9  1  0.99962300  0.33393800  0.42959200  1
  Li  Li10  1  0.49971300  0.83432800  0.17831700  1
  Li  Li11  1  0.50068200  0.83464600  0.68057100  1
  Li  Li12  1  0.99955900  0.66719200  0.07040300  1
  Li  Li13  1  0.00004300  0.66455400  0.57274500  1
  Li  Li14  1  0.49944500  0.16715800  0.32092200  1
  Li  Li15  1  0.49843100  0.16451700  0.82140800  1
  Co  Co16  1  0.49979200  0.50069500  0.24989700  1
  Co  Co17  1  0.99955000  0.99925600  0.50133700  1
  Co  Co18  1  0.49930100  0.49950200  0.75095900  1
  Co  Co19  1  0.99949400  0.00083400  0.99969400  1
  O  O20  1  0.99969100  0.49958700  0.75086100  1
  O  O21  1  0.99961200  0.50074000  0.25007600  1
  O  O22  1  0.49940500  0.00112100  0.99885300  1
  O  O23  1  0.49961900  0.99873900  0.50258300  1
  F  F24  1  0.00002000  0.49960300  0.00015300  1
  F  F25  1  0.99934300  0.50068400  0.50058600  1
  F  F26  1  0.49959700  0.00054000  0.25026400  1
  F  F27  1  0.49965100  0.99978400  0.75052000  1
  F  F28  1  0.49900000  0.35674100  0.88311300  1
  F  F29  1  0.49954000  0.35115800  0.38555800  1
  F  F30  1  0.99958700  0.85067200  0.13535400  1
  F  F31  1  0.00041600  0.84628300  0.63620800  1
  F  F32  1  0.49962200  0.65002300  0.11441300  1
  F  F33  1  0.50040300  0.64187000  0.61842700  1
  F  F34  1  0.99950800  0.14886300  0.36612200  1
  F  F35  1  0.99871200  0.15366600  0.86425000  1
  F  F36  1  0.99995800  0.81554000  0.93079900  1
  F  F37  1  0.99970100  0.81664200  0.43222000  1
  F  F38  1  0.49962500  0.31766400  0.18178500  1
  F  F39  1  0.49659800  0.31883700  0.68192400  1
  F  F40  1  0.99965300  0.18524200  0.06857400  1
  F  F41  1  0.99878700  0.18320000  0.56994800  1
  F  F42  1  0.49947700  0.68307900  0.31902300  1
  F  F43  1  0.50239700  0.68091800  0.81880800  1
