# generated using pymatgen
data_Li2Ni3SbO8
_symmetry_space_group_name_H-M   'P 1'
_cell_length_a   5.96833874
_cell_length_b   5.97289395
_cell_length_c   10.00413698
_cell_angle_alpha   104.30273561
_cell_angle_beta   89.84518207
_cell_angle_gamma   59.91455439
_symmetry_Int_Tables_number   1
_chemical_formula_structural   Li2Ni3SbO8
_chemical_formula_sum   'Li4 Ni6 Sb2 O16'
_cell_volume   295.59432531
_cell_formula_units_Z   2
loop_
 _symmetry_equiv_pos_site_id
 _symmetry_equiv_pos_as_xyz
  1  'x, y, z'
loop_
 _atom_site_type_symbol
 _atom_site_label
 _atom_site_symmetry_multiplicity
 _atom_site_fract_x
 _atom_site_fract_y
 _atom_site_fract_z
 _atom_site_occupancy
  Li  Li0  1  0.30851700  0.38336600  0.56724700  1
  Li  Li1  1  0.80877100  0.38338200  0.06724300  1
  Li  Li2  1  0.19186900  0.61653700  0.93277000  1
  Li  Li3  1  0.69158100  0.61660900  0.43277500  1
  Ni  Ni4  1  0.74982000  0.99995900  0.75004300  1
  Ni  Ni5  1  0.74986900  0.99999500  0.24993200  1
  Ni  Ni6  1  0.99995100  0.00016000  0.49994100  1
  Ni  Ni7  1  0.24963200  0.99996000  0.25019900  1
  Ni  Ni8  1  0.24972200  0.00011600  0.74992300  1
  Ni  Ni9  1  0.50034600  0.00016000  0.00003200  1
  Sb  Sb10  1  0.75015400  0.49992800  0.75005500  1
  Sb  Sb11  1  0.25006400  0.50012400  0.25007500  1
  O  O12  1  0.09359000  0.81130400  0.63752900  1
  O  O13  1  0.59398200  0.81131900  0.13755700  1
  O  O14  1  0.40595500  0.18859400  0.86242500  1
  O  O15  1  0.90545600  0.18859700  0.36242300  1
  O  O16  1  0.87240500  0.25456000  0.86788900  1
  O  O17  1  0.37220000  0.25455300  0.36792200  1
  O  O18  1  0.65226800  0.23856700  0.63330000  1
  O  O19  1  0.15258600  0.23836000  0.13320900  1
  O  O20  1  0.11042100  0.23941400  0.63390800  1
  O  O21  1  0.61058500  0.23960500  0.13399500  1
  O  O22  1  0.38939900  0.76128900  0.86593900  1
  O  O23  1  0.88927000  0.76108400  0.36583700  1
  O  O24  1  0.84839500  0.76070300  0.86679900  1
  O  O25  1  0.34801100  0.76092200  0.36688500  1
  O  O26  1  0.62749000  0.74544600  0.63206200  1
  O  O27  1  0.12769400  0.74538700  0.13208500  1
