# generated using pymatgen
data_Li6MnV3(PO4)6
_symmetry_space_group_name_H-M   'P 1'
_cell_length_a   8.71987100
_cell_length_b   8.73978195
_cell_length_c   12.23566487
_cell_angle_alpha   89.60010901
_cell_angle_beta   88.86563412
_cell_angle_gamma   89.78956668
_symmetry_Int_Tables_number   1
_chemical_formula_structural   Li6MnV3(PO4)6
_chemical_formula_sum   'Li12 Mn2 V6 P12 O48'
_cell_volume   932.26593731
_cell_formula_units_Z   2
loop_
 _symmetry_equiv_pos_site_id
 _symmetry_equiv_pos_as_xyz
  1  'x, y, z'
loop_
 _atom_site_type_symbol
 _atom_site_label
 _atom_site_symmetry_multiplicity
 _atom_site_fract_x
 _atom_site_fract_y
 _atom_site_fract_z
 _atom_site_occupancy
  Li  Li0  1  0.07447600  0.08202000  0.30268300  1
  Li  Li1  1  0.08309100  0.69742800  0.23782200  1
  Li  Li2  1  0.20862800  0.78009900  0.82642400  1
  Li  Li3  1  0.29020800  0.28131800  0.67591400  1
  Li  Li4  1  0.41621000  0.19725500  0.26153700  1
  Li  Li5  1  0.42605000  0.58384200  0.19624100  1
  Li  Li6  1  0.57512300  0.42071400  0.80198300  1
  Li  Li7  1  0.58425400  0.80132400  0.73906000  1
  Li  Li8  1  0.70705600  0.71666100  0.32585100  1
  Li  Li9  1  0.79268200  0.21809400  0.17423900  1
  Li  Li10  1  0.91886000  0.30383200  0.76343200  1
  Li  Li11  1  0.92566400  0.91703100  0.69824800  1
  Mn  Mn12  1  0.24722200  0.46145700  0.89223200  1
  Mn  Mn13  1  0.75446300  0.46630600  0.60588700  1
  V  V14  1  0.24790900  0.53020800  0.39091600  1
  V  V15  1  0.25267000  0.03032400  0.10845900  1
  V  V16  1  0.25205300  0.96003300  0.61062800  1
  V  V17  1  0.74665700  0.03810900  0.38957600  1
  V  V18  1  0.75285500  0.53872600  0.10970300  1
  V  V19  1  0.74699500  0.97039500  0.89077700  1
  P  P20  1  0.03620100  0.24775000  0.50668400  1
  P  P21  1  0.10388300  0.38348000  0.14744000  1
  P  P22  1  0.10478200  0.10194000  0.84933800  1
  P  P23  1  0.39602300  0.60289500  0.64909200  1
  P  P24  1  0.39597400  0.88311600  0.35214700  1
  P  P25  1  0.46415800  0.75202700  0.99335600  1
  P  P26  1  0.53641400  0.25365800  0.00783400  1
  P  P27  1  0.60310300  0.11745500  0.64733800  1
  P  P28  1  0.60410800  0.39577600  0.34835500  1
  P  P29  1  0.89448000  0.89500800  0.14908900  1
  P  P30  1  0.89714600  0.61589400  0.85448500  1
  P  P31  1  0.96251200  0.75050700  0.49328700  1
  O  O32  1  0.04752900  0.86625200  0.56554500  1
  O  O33  1  0.07335900  0.88531300  0.14775300  1
  O  O34  1  0.06879300  0.68119800  0.40335100  1
  O  O35  1  0.07242300  0.59568800  0.83224500  1
  O  O36  1  0.10682400  0.36631500  0.42799300  1
  O  O37  1  0.14337400  0.21534000  0.18189600  1
  O  O38  1  0.13902400  0.40854000  0.02518600  1
  O  O39  1  0.14401200  0.97706400  0.76058300  1
  O  O40  1  0.15655000  0.26091100  0.80780900  1
  O  O41  1  0.16918300  0.16795600  0.56781900  1
  O  O42  1  0.17313600  0.05059100  0.95632700  1
  O  O43  1  0.19508100  0.50116700  0.21684500  1
  O  O44  1  0.30430000  0.00097300  0.28158000  1
  O  O45  1  0.32896400  0.55150100  0.54257100  1
  O  O46  1  0.33140600  0.67862500  0.93265000  1
  O  O47  1  0.34081600  0.76460800  0.68636900  1
  O  O48  1  0.35244300  0.91153600  0.47223600  1
  O  O49  1  0.35753600  0.71513500  0.31881200  1
  O  O50  1  0.35480300  0.48113200  0.74007800  1
  O  O51  1  0.39758600  0.86984000  0.07473100  1
  O  O52  1  0.43030900  0.18385000  0.09754700  1
  O  O53  1  0.42514000  0.38489300  0.35037700  1
  O  O54  1  0.42903900  0.09549600  0.66825800  1
  O  O55  1  0.45109000  0.36976600  0.93378100  1
  O  O56  1  0.54877800  0.63398700  0.06511700  1
  O  O57  1  0.57012300  0.90373200  0.33171400  1
  O  O58  1  0.57546000  0.61404200  0.64800100  1
  O  O59  1  0.57274500  0.82196200  0.90378200  1
  O  O60  1  0.60765500  0.13601300  0.92917000  1
  O  O61  1  0.64173800  0.51746100  0.25670600  1
  O  O62  1  0.64145000  0.28634300  0.68032600  1
  O  O63  1  0.64633600  0.08947200  0.52756400  1
  O  O64  1  0.65905400  0.23394800  0.31113900  1
  O  O65  1  0.66993600  0.33267500  0.06771300  1
  O  O66  1  0.67290400  0.45150600  0.45230100  1
  O  O67  1  0.69439500  0.99984000  0.71844000  1
  O  O68  1  0.80491700  0.49721000  0.78893600  1
  O  O69  1  0.82628900  0.94922700  0.04304500  1
  O  O70  1  0.82933600  0.82991100  0.43269600  1
  O  O71  1  0.84010000  0.73352600  0.18771000  1
  O  O72  1  0.85487300  0.01668900  0.23951700  1
  O  O73  1  0.85827400  0.59253100  0.97602500  1
  O  O74  1  0.85830700  0.78391100  0.81917300  1
  O  O75  1  0.89583900  0.63240200  0.57582400  1
  O  O76  1  0.92953900  0.40424200  0.16915200  1
  O  O77  1  0.93052400  0.31732100  0.59789300  1
  O  O78  1  0.92557300  0.11048900  0.85137300  1
  O  O79  1  0.95123200  0.13318700  0.43428700  1
