# generated using pymatgen
data_Li9Mn2Co5O16
_symmetry_space_group_name_H-M   'P 1'
_cell_length_a   5.88698500
_cell_length_b   5.88970927
_cell_length_c   8.62089308
_cell_angle_alpha   88.22759637
_cell_angle_beta   70.29806700
_cell_angle_gamma   87.72694490
_symmetry_Int_Tables_number   1
_chemical_formula_structural   Li9Mn2Co5O16
_chemical_formula_sum   'Li9 Mn2 Co5 O16'
_cell_volume   281.14024520
_cell_formula_units_Z   1
loop_
 _symmetry_equiv_pos_site_id
 _symmetry_equiv_pos_as_xyz
  1  'x, y, z'
loop_
 _atom_site_type_symbol
 _atom_site_label
 _atom_site_symmetry_multiplicity
 _atom_site_fract_x
 _atom_site_fract_y
 _atom_site_fract_z
 _atom_site_occupancy
  Li  Li0  1  0.12145400  0.25304400  0.25540400  1
  Li  Li1  1  0.25029800  0.99136400  0.48944800  1
  Li  Li2  1  0.62430400  0.25417100  0.25207300  1
  Li  Li3  1  0.76232700  0.99163200  0.48909900  1
  Li  Li4  1  0.87622800  0.74824500  0.74801400  1
  Li  Li5  1  0.37698400  0.74764400  0.74697300  1
  Li  Li6  1  0.48970300  0.50805200  0.01271700  1
  Li  Li7  1  0.99767700  0.50575900  0.01061800  1
  Li  Li8  1  0.12569500  0.74678100  0.25201500  1
  Mn  Mn9  1  0.99728600  0.99359900  0.00530600  1
  Mn  Mn10  1  0.37215000  0.24958000  0.74891800  1
  Co  Co11  1  0.25270300  0.50758800  0.49708000  1
  Co  Co12  1  0.49065900  0.99247900  0.00507600  1
  Co  Co13  1  0.62843600  0.75036000  0.24989100  1
  Co  Co14  1  0.76158200  0.50886600  0.49326100  1
  Co  Co15  1  0.87491500  0.25066100  0.74677800  1
  O  O16  1  0.86669100  0.98716500  0.23402600  1
  O  O17  1  0.01161600  0.73146600  0.50610900  1
  O  O18  1  0.39991700  0.99141300  0.22989400  1
  O  O19  1  0.52919200  0.74353100  0.48514100  1
  O  O20  1  0.61457400  0.46864300  0.74492800  1
  O  O21  1  0.14204600  0.48655700  0.73964000  1
  O  O22  1  0.23950300  0.22596700  0.99420000  1
  O  O23  1  0.77064600  0.23982400  0.98065800  1
  O  O24  1  0.39148400  0.52200800  0.26389600  1
  O  O25  1  0.48066400  0.26321700  0.51581600  1
  O  O26  1  0.85586200  0.50826600  0.26422500  1
  O  O27  1  0.97583700  0.25737500  0.51361000  1
  O  O28  1  0.12783500  0.02695200  0.75702100  1
  O  O29  1  0.60056000  0.01022300  0.76624500  1
  O  O30  1  0.75701900  0.77391500  0.00457300  1
  O  O31  1  0.23415100  0.76365400  0.99734800  1
