# generated using pymatgen
data_Na4Li5(WO3)10
_symmetry_space_group_name_H-M   'P 1'
_cell_length_a   8.83023200
_cell_length_b   8.85277744
_cell_length_c   8.86559918
_cell_angle_alpha   113.97920875
_cell_angle_beta   89.71154873
_cell_angle_gamma   101.76133013
_symmetry_Int_Tables_number   1
_chemical_formula_structural   Na4Li5(WO3)10
_chemical_formula_sum   'Na4 Li5 W10 O30'
_cell_volume   617.58384163
_cell_formula_units_Z   1
loop_
 _symmetry_equiv_pos_site_id
 _symmetry_equiv_pos_as_xyz
  1  'x, y, z'
loop_
 _atom_site_type_symbol
 _atom_site_label
 _atom_site_symmetry_multiplicity
 _atom_site_fract_x
 _atom_site_fract_y
 _atom_site_fract_z
 _atom_site_occupancy
  Na  Na0  1  0.10757800  0.49673700  0.19884900  1
  Na  Na1  1  0.20054800  0.00841700  0.40446800  1
  Na  Na2  1  0.30189900  0.49115400  0.59956900  1
  Na  Na3  1  0.40191600  0.00173800  0.80399400  1
  Li  Li4  1  0.52703100  0.60093500  0.04090800  1
  Li  Li5  1  0.50388300  0.98701700  0.22882400  1
  Li  Li6  1  0.77411600  0.50468700  0.34294200  1
  Li  Li7  1  0.84195800  0.94178900  0.55725000  1
  Li  Li8  1  0.90334600  0.50033200  0.89005000  1
  W  W9  1  0.54787100  0.25031800  0.60318500  1
  W  W10  1  0.65323700  0.75027500  0.79896900  1
  W  W11  1  0.14733900  0.24989400  0.80181900  1
  W  W12  1  0.34813900  0.24818600  0.19936100  1
  W  W13  1  0.45000200  0.75095000  0.40142200  1
  W  W14  1  0.94896300  0.25454500  0.40430100  1
  W  W15  1  0.04994100  0.75197000  0.60082000  1
  W  W16  1  0.24717900  0.74725400  0.99310100  1
  W  W17  1  0.75061300  0.24455300  0.99817800  1
  W  W18  1  0.84739700  0.75250600  0.19572400  1
  O  O19  1  0.64589800  0.23458100  0.78531400  1
  O  O20  1  0.74383600  0.73503700  0.99259800  1
  O  O21  1  0.24186500  0.23609800  0.98864200  1
  O  O22  1  0.45273300  0.26281100  0.41079100  1
  O  O23  1  0.54009000  0.76743000  0.60361300  1
  O  O24  1  0.05937600  0.24401800  0.59864000  1
  O  O25  1  0.16812300  0.76998400  0.80659600  1
  O  O26  1  0.35783800  0.73895500  0.18636200  1
  O  O27  1  0.85100900  0.28390100  0.21674000  1
  O  O28  1  0.92718800  0.72418500  0.39462000  1
  O  O29  1  0.51672200  0.00653000  0.46531800  1
  O  O30  1  0.57463400  0.49170500  0.71355800  1
  O  O31  1  0.05289000  0.98959400  0.69178600  1
  O  O32  1  0.29678400  0.99764300  0.13467400  1
  O  O33  1  0.37920800  0.49996000  0.30083600  1
  O  O34  1  0.90324100  0.99271600  0.30932500  1
  O  O35  1  0.02496300  0.50916300  0.50758200  1
  O  O36  1  0.23976000  0.49834900  0.87476200  1
  O  O37  1  0.72370400  0.00812600  0.89549300  1
  O  O38  1  0.77045600  0.49325900  0.09265700  1
  O  O39  1  0.75863400  0.26959300  0.50988500  1
  O  O40  1  0.83139800  0.72078300  0.68234400  1
  O  O41  1  0.34730900  0.20604700  0.68098700  1
  O  O42  1  0.53743900  0.22880600  0.09407400  1
  O  O43  1  0.64387900  0.73823800  0.29009300  1
  O  O44  1  0.14623500  0.24866600  0.30240900  1
  O  O45  1  0.24828500  0.78277900  0.49906900  1
  O  O46  1  0.46569900  0.78161100  0.91253300  1
  O  O47  1  0.95742500  0.30235300  0.91524200  1
  O  O48  1  0.04042600  0.70382000  0.07972600  1
