# generated using pymatgen
data_Li9Mn2Co5O16
_symmetry_space_group_name_H-M   'P 1'
_cell_length_a   5.93267203
_cell_length_b   5.93267203
_cell_length_c   10.34420895
_cell_angle_alpha   71.16282156
_cell_angle_beta   71.16282156
_cell_angle_gamma   58.06287299
_symmetry_Int_Tables_number   1
_chemical_formula_structural   Li9Mn2Co5O16
_chemical_formula_sum   'Li9 Mn2 Co5 O16'
_cell_volume   287.13134735
_cell_formula_units_Z   1
loop_
 _symmetry_equiv_pos_site_id
 _symmetry_equiv_pos_as_xyz
  1  'x, y, z'
loop_
 _atom_site_type_symbol
 _atom_site_label
 _atom_site_symmetry_multiplicity
 _atom_site_fract_x
 _atom_site_fract_y
 _atom_site_fract_z
 _atom_site_occupancy
  Li  Li0  1  0.50490800  0.50490800  0.99518700  1
  Li  Li1  1  0.00710200  0.00710200  0.99179700  1
  Li  Li2  1  0.74756200  0.24721100  0.26001700  1
  Li  Li3  1  0.24721100  0.74756200  0.26001700  1
  Li  Li4  1  0.99779000  0.99779000  0.50512100  1
  Li  Li5  1  0.49741700  0.49741700  0.50929200  1
  Li  Li6  1  0.25188900  0.74789700  0.73648400  1
  Li  Li7  1  0.74789700  0.25188900  0.73648400  1
  Li  Li8  1  0.24999200  0.24999200  0.74692400  1
  Mn  Mn9  1  0.99987500  0.50083200  0.99696500  1
  Mn  Mn10  1  0.50083200  0.99987500  0.99696500  1
  Co  Co11  1  0.24820700  0.24820700  0.25833900  1
  Co  Co12  1  0.74875700  0.74875700  0.25107500  1
  Co  Co13  1  0.50171200  0.00131000  0.50749100  1
  Co  Co14  1  0.00131000  0.50171200  0.50749100  1
  Co  Co15  1  0.75229900  0.75229900  0.74947100  1
  O  O16  1  0.36704600  0.36704600  0.89370400  1
  O  O17  1  0.87033900  0.87033900  0.89130400  1
  O  O18  1  0.60813800  0.09742900  0.12765100  1
  O  O19  1  0.09742900  0.60813800  0.12765100  1
  O  O20  1  0.86394700  0.86394700  0.37970500  1
  O  O21  1  0.36739300  0.36739300  0.37213100  1
  O  O22  1  0.09573600  0.62840700  0.62774400  1
  O  O23  1  0.62840700  0.09573600  0.62774400  1
  O  O24  1  0.63549300  0.63549300  0.11054300  1
  O  O25  1  0.13518200  0.13518200  0.10964500  1
  O  O26  1  0.87866000  0.39349800  0.36426400  1
  O  O27  1  0.39349800  0.87866000  0.36426400  1
  O  O28  1  0.13307700  0.13307700  0.61162800  1
  O  O29  1  0.62547000  0.62547000  0.62524700  1
  O  O30  1  0.40918600  0.88623900  0.87882700  1
  O  O31  1  0.88623900  0.40918600  0.87882700  1
