# generated using pymatgen
data_Li3V8O16
_symmetry_space_group_name_H-M   'P 1'
_cell_length_a   8.49242600
_cell_length_b   8.52123256
_cell_length_c   10.28455042
_cell_angle_alpha   114.18266467
_cell_angle_beta   114.29262126
_cell_angle_gamma   89.37217838
_symmetry_Int_Tables_number   1
_chemical_formula_structural   Li3V8O16
_chemical_formula_sum   'Li6 V16 O32'
_cell_volume   607.60936612
_cell_formula_units_Z   2
loop_
 _symmetry_equiv_pos_site_id
 _symmetry_equiv_pos_as_xyz
  1  'x, y, z'
loop_
 _atom_site_type_symbol
 _atom_site_label
 _atom_site_symmetry_multiplicity
 _atom_site_fract_x
 _atom_site_fract_y
 _atom_site_fract_z
 _atom_site_occupancy
  Li  Li0  1  0.40006600  0.13907700  0.75971800  1
  Li  Li1  1  0.87614700  0.12567700  0.23900900  1
  Li  Li2  1  0.68368000  0.43258700  0.61683700  1
  Li  Li3  1  0.30447800  0.55682800  0.37234900  1
  Li  Li4  1  0.06014500  0.80858600  0.87553700  1
  Li  Li5  1  0.43897800  0.68803000  0.12339000  1
  V  V6  1  0.24450400  0.25085200  0.99671000  1
  V  V7  1  0.50152900  0.99236900  0.49574900  1
  V  V8  1  0.86403600  0.12753800  0.75309400  1
  V  V9  1  0.26024100  0.25285000  0.50174800  1
  V  V10  1  0.11002100  0.36923400  0.73733700  1
  V  V11  1  0.36711700  0.11959200  0.24480600  1
  V  V12  1  0.99227600  0.49646600  0.99228400  1
  V  V13  1  0.61857600  0.37138800  0.23313200  1
  V  V14  1  0.74464900  0.73938700  0.99711300  1
  V  V15  1  0.99384600  0.50421500  0.49623800  1
  V  V16  1  0.37144500  0.62158800  0.74724300  1
  V  V17  1  0.74325200  0.74497400  0.49863200  1
  V  V18  1  0.62999900  0.86624900  0.75000900  1
  V  V19  1  0.87516300  0.62712900  0.25212500  1
  V  V20  1  0.49365500  0.99235400  0.00075400  1
  V  V21  1  0.12941200  0.86947200  0.25931100  1
  O  O22  1  0.62446400  0.09278700  0.73810400  1
  O  O23  1  0.00550800  0.27558600  0.99034400  1
  O  O24  1  0.28451000  0.01885700  0.50680800  1
  O  O25  1  0.11516300  0.15491700  0.76998100  1
  O  O26  1  0.13581000  0.11772500  0.28039900  1
  O  O27  1  0.22344000  0.47975700  0.97652000  1
  O  O28  1  0.48024400  0.23074200  0.48393300  1
  O  O29  1  0.89017300  0.37349600  0.75834200  1
  O  O30  1  0.60350600  0.12250900  0.21843400  1
  O  O31  1  0.26174100  0.01581800  0.00427800  1
  O  O32  1  0.01524100  0.27916600  0.51318400  1
  O  O33  1  0.33943700  0.36416400  0.72550400  1
  O  O34  1  0.23842200  0.48860200  0.50860600  1
  O  O35  1  0.12792800  0.60237700  0.73607500  1
  O  O36  1  0.47411900  0.22774600  0.99599900  1
  O  O37  1  0.36674800  0.34973600  0.22250000  1
  O  O38  1  0.75241300  0.49861000  0.47872400  1
  O  O39  1  0.61550100  0.63709900  0.75928300  1
  O  O40  1  0.86961200  0.39426600  0.26389400  1
  O  O41  1  0.50322500  0.75145800  0.98621600  1
  O  O42  1  0.97797100  0.71787000  0.48499600  1
  O  O43  1  0.41347000  0.88006400  0.77310900  1
  O  O44  1  0.64986100  0.61992000  0.25446100  1
  O  O45  1  0.73533700  0.96133300  0.99497800  1
  O  O46  1  0.76927300  0.52544900  0.01298100  1
  O  O47  1  0.51129800  0.76552900  0.51240100  1
  O  O48  1  0.84646200  0.87322200  0.74361800  1
  O  O49  1  0.09670200  0.62308900  0.23673700  1
  O  O50  1  0.88169700  0.84798000  0.23396300  1
  O  O51  1  0.73094100  0.99203400  0.51689500  1
  O  O52  1  0.99013200  0.72882300  0.00826900  1
  O  O53  1  0.36589100  0.89007500  0.25989200  1
