# generated using pymatgen
data_LiMn2O3F
_symmetry_space_group_name_H-M   'P 1'
_cell_length_a   6.03911914
_cell_length_b   6.15936437
_cell_length_c   8.49620826
_cell_angle_alpha   91.05805639
_cell_angle_beta   92.68361878
_cell_angle_gamma   91.86501719
_symmetry_Int_Tables_number   1
_chemical_formula_structural   LiMn2O3F
_chemical_formula_sum   'Li4 Mn8 O12 F4'
_cell_volume   315.45753635
_cell_formula_units_Z   4
loop_
 _symmetry_equiv_pos_site_id
 _symmetry_equiv_pos_as_xyz
  1  'x, y, z'
loop_
 _atom_site_type_symbol
 _atom_site_label
 _atom_site_symmetry_multiplicity
 _atom_site_fract_x
 _atom_site_fract_y
 _atom_site_fract_z
 _atom_site_occupancy
  Li  Li0  1  0.21003400  0.00375400  0.10762400  1
  Li  Li1  1  0.71168800  0.50366500  0.60719300  1
  Li  Li2  1  0.78986500  0.99642900  0.89232000  1
  Li  Li3  1  0.28823900  0.49628000  0.39278800  1
  Mn  Mn4  1  0.49998300  0.50005700  0.00012600  1
  Mn  Mn5  1  0.00042700  0.99954800  0.49989200  1
  Mn  Mn6  1  0.74887200  0.75027200  0.24929000  1
  Mn  Mn7  1  0.25111400  0.24979900  0.75057200  1
  Mn  Mn8  1  0.50021000  0.99985300  0.49989000  1
  Mn  Mn9  1  0.00011900  0.50018600  0.00006800  1
  Mn  Mn10  1  0.74861400  0.25012300  0.24952900  1
  Mn  Mn11  1  0.25097500  0.74972200  0.75057600  1
  O  O12  1  0.04524600  0.99527500  0.73432400  1
  O  O13  1  0.54314100  0.49666900  0.23385100  1
  O  O14  1  0.28095900  0.76865700  0.52567700  1
  O  O15  1  0.78034000  0.27025200  0.02475800  1
  O  O16  1  0.25828800  0.20917400  0.52023900  1
  O  O17  1  0.75764100  0.71069400  0.02017600  1
  O  O18  1  0.74173000  0.79072100  0.47971800  1
  O  O19  1  0.24241400  0.28942600  0.97990900  1
  O  O20  1  0.95473100  0.00471800  0.26565800  1
  O  O21  1  0.45671500  0.50340300  0.76618100  1
  O  O22  1  0.71895800  0.23121300  0.47429800  1
  O  O23  1  0.21981700  0.72989400  0.97533100  1
  F  F24  1  0.52157000  0.00943900  0.76493500  1
  F  F25  1  0.01985500  0.51043000  0.26444500  1
  F  F26  1  0.47834600  0.99064900  0.23503500  1
  F  F27  1  0.98011100  0.48969900  0.73559800  1
