# generated using pymatgen
data_Li4Mn3CoO8
_symmetry_space_group_name_H-M   'P 1'
_cell_length_a   6.01102726
_cell_length_b   10.40064133
_cell_length_c   5.92014821
_cell_angle_alpha   89.99633036
_cell_angle_beta   60.18559189
_cell_angle_gamma   108.05567519
_symmetry_Int_Tables_number   1
_chemical_formula_structural   Li4Mn3CoO8
_chemical_formula_sum   'Li8 Mn6 Co2 O16'
_cell_volume   299.93728433
_cell_formula_units_Z   2
loop_
 _symmetry_equiv_pos_site_id
 _symmetry_equiv_pos_as_xyz
  1  'x, y, z'
loop_
 _atom_site_type_symbol
 _atom_site_label
 _atom_site_symmetry_multiplicity
 _atom_site_fract_x
 _atom_site_fract_y
 _atom_site_fract_z
 _atom_site_occupancy
  Li  Li0  1  0.49933100  0.25005400  0.24781000  1
  Li  Li1  1  0.50071200  0.74995700  0.75216200  1
  Li  Li2  1  0.99921300  0.25570500  0.74056000  1
  Li  Li3  1  0.00133400  0.74421200  0.25912400  1
  Li  Li4  1  0.50013400  0.25015400  0.73831500  1
  Li  Li5  1  0.50041300  0.75002100  0.26177800  1
  Li  Li6  1  0.00242000  0.24485700  0.23960400  1
  Li  Li7  1  0.99805200  0.75516100  0.76049500  1
  Mn  Mn8  1  0.50015400  0.50008400  0.99973600  1
  Mn  Mn9  1  0.00001200  0.50009200  0.00022000  1
  Mn  Mn10  1  0.50007400  0.99992600  0.00012000  1
  Mn  Mn11  1  0.49955200  0.99997300  0.50011600  1
  Mn  Mn12  1  0.99954800  0.99981800  0.49997800  1
  Mn  Mn13  1  0.50006500  0.50003400  0.49990000  1
  Co  Co14  1  0.00016900  0.00015700  0.99992300  1
  Co  Co15  1  0.00010900  0.49995300  0.50012400  1
  O  O16  1  0.73343000  0.12633800  0.60286300  1
  O  O17  1  0.73578500  0.62655700  0.16082100  1
  O  O18  1  0.26443500  0.37355900  0.83894900  1
  O  O19  1  0.26579200  0.87343400  0.39719500  1
  O  O20  1  0.24897700  0.10937300  0.13785600  1
  O  O21  1  0.25714600  0.60734800  0.63566400  1
  O  O22  1  0.72213400  0.11035900  0.13736600  1
  O  O23  1  0.72296100  0.61070900  0.63593700  1
  O  O24  1  0.25744200  0.10668900  0.60620400  1
  O  O25  1  0.25154100  0.60826200  0.11171700  1
  O  O26  1  0.74288700  0.39268900  0.36451700  1
  O  O27  1  0.75083500  0.89033600  0.86233600  1
  O  O28  1  0.27736500  0.38944100  0.36363600  1
  O  O29  1  0.27764200  0.88964600  0.86288000  1
  O  O30  1  0.74868300  0.39188200  0.88838200  1
  O  O31  1  0.74165400  0.89322000  0.39371300  1
