# generated using pymatgen
data_LiHo3
_symmetry_space_group_name_H-M   'P 1'
_cell_length_a   6.97492901
_cell_length_b   6.97492901
_cell_length_c   5.50623800
_cell_angle_alpha   90.00000000
_cell_angle_beta   90.00000000
_cell_angle_gamma   120.00000955
_symmetry_Int_Tables_number   1
_chemical_formula_structural   LiHo3
_chemical_formula_sum   'Li2 Ho6'
_cell_volume   231.98780317
_cell_formula_units_Z   2
loop_
 _symmetry_equiv_pos_site_id
 _symmetry_equiv_pos_as_xyz
  1  'x, y, z'
loop_
 _atom_site_type_symbol
 _atom_site_label
 _atom_site_symmetry_multiplicity
 _atom_site_fract_x
 _atom_site_fract_y
 _atom_site_fract_z
 _atom_site_occupancy
  Li  Li0  1  0.66666700  0.33333300  0.25000000  1
  Li  Li1  1  0.33333300  0.66666700  0.75000000  1
  Ho  Ho2  1  0.83143200  0.16856800  0.75000000  1
  Ho  Ho3  1  0.33713600  0.16856800  0.75000000  1
  Ho  Ho4  1  0.83143200  0.66286400  0.75000000  1
  Ho  Ho5  1  0.16856800  0.83143200  0.25000000  1
  Ho  Ho6  1  0.66286400  0.83143200  0.25000000  1
  Ho  Ho7  1  0.16856800  0.33713600  0.25000000  1
