# generated using pymatgen
data_Li2Mn3NbO8
_symmetry_space_group_name_H-M   'P 1'
_cell_length_a   6.20568299
_cell_length_b   6.22544970
_cell_length_c   8.34837449
_cell_angle_alpha   88.82057626
_cell_angle_beta   90.67842821
_cell_angle_gamma   85.25219007
_symmetry_Int_Tables_number   1
_chemical_formula_structural   Li2Mn3NbO8
_chemical_formula_sum   'Li4 Mn6 Nb2 O16'
_cell_volume   321.31967251
_cell_formula_units_Z   2
loop_
 _symmetry_equiv_pos_site_id
 _symmetry_equiv_pos_as_xyz
  1  'x, y, z'
loop_
 _atom_site_type_symbol
 _atom_site_label
 _atom_site_symmetry_multiplicity
 _atom_site_fract_x
 _atom_site_fract_y
 _atom_site_fract_z
 _atom_site_occupancy
  Li  Li0  1  0.00847000  0.25732400  0.12627300  1
  Li  Li1  1  0.50982100  0.76963000  0.62533600  1
  Li  Li2  1  0.99021100  0.73029200  0.87471700  1
  Li  Li3  1  0.49149200  0.24272600  0.37373900  1
  Mn  Mn4  1  0.75004700  0.24992900  0.74978900  1
  Mn  Mn5  1  0.74981600  0.75007400  0.25006300  1
  Mn  Mn6  1  0.24994000  0.24986700  0.75012300  1
  Mn  Mn7  1  0.99159200  0.49124800  0.49888300  1
  Mn  Mn8  1  0.50878600  0.00887500  0.00109300  1
  Mn  Mn9  1  0.24987900  0.75001700  0.24995200  1
  Nb  Nb10  1  0.00632000  0.98792400  0.50716700  1
  Nb  Nb11  1  0.49388200  0.51208200  0.99285600  1
  O  O12  1  0.98528500  0.52520700  0.26827100  1
  O  O13  1  0.50302200  0.04005500  0.76670300  1
  O  O14  1  0.99701000  0.45988900  0.73324600  1
  O  O15  1  0.51450400  0.97493900  0.23172800  1
  O  O16  1  0.24222400  0.75824400  0.48843100  1
  O  O17  1  0.73878100  0.26970900  0.98168500  1
  O  O18  1  0.78514800  0.75575500  0.48945100  1
  O  O19  1  0.28677000  0.26076400  0.98680700  1
  O  O20  1  0.01839600  0.98459000  0.26333900  1
  O  O21  1  0.49534300  0.50462900  0.76095800  1
  O  O22  1  0.00459100  0.99535400  0.73906600  1
  O  O23  1  0.48135900  0.51546300  0.23671400  1
  O  O24  1  0.21329100  0.23916300  0.51327000  1
  O  O25  1  0.71492500  0.74436100  0.01062500  1
  O  O26  1  0.76130100  0.23025600  0.51807900  1
  O  O27  1  0.25779200  0.74163400  0.01163500  1
