# generated using pymatgen
data_Li3RhN2
_symmetry_space_group_name_H-M   'P 1'
_cell_length_a   8.50870870
_cell_length_b   9.82500986
_cell_length_c   9.82501063
_cell_angle_alpha   89.99999802
_cell_angle_beta   125.26438681
_cell_angle_gamma   54.73561002
_symmetry_Int_Tables_number   1
_chemical_formula_structural   Li3RhN2
_chemical_formula_sum   'Li24 Rh8 N16'
_cell_volume   474.20820578
_cell_formula_units_Z   8
loop_
 _symmetry_equiv_pos_site_id
 _symmetry_equiv_pos_as_xyz
  1  'x, y, z'
loop_
 _atom_site_type_symbol
 _atom_site_label
 _atom_site_symmetry_multiplicity
 _atom_site_fract_x
 _atom_site_fract_y
 _atom_site_fract_z
 _atom_site_occupancy
  Li  Li0  1  0.23280996  0.02807924  0.99143305  1
  Li  Li1  1  0.76719004  0.76088919  0.50856695  1
  Li  Li2  1  0.76719004  0.47192076  0.75862309  1
  Li  Li3  1  0.23280996  0.73911081  0.74137691  1
  Li  Li4  1  0.24994386  0.75862309  0.26945615  1
  Li  Li5  1  0.75005614  0.74137691  0.01951228  1
  Li  Li6  1  0.24994386  0.99143305  0.48048772  1
  Li  Li7  1  0.75005614  0.50856695  0.23054385  1
  Li  Li8  1  0.71103157  0.01951228  0.73911081  1
  Li  Li9  1  0.71103157  0.26945615  0.47192076  1
  Li  Li10  1  0.28896843  0.23054385  0.76088919  1
  Li  Li11  1  0.28896843  0.48048772  0.02807924  1
  Li  Li12  1  0.76719004  0.97192076  0.00856695  1
  Li  Li13  1  0.23280996  0.23911081  0.49143305  1
  Li  Li14  1  0.23280996  0.52807924  0.24137691  1
  Li  Li15  1  0.76719004  0.26088919  0.25862309  1
  Li  Li16  1  0.75005614  0.24137691  0.73054385  1
  Li  Li17  1  0.24994386  0.25862309  0.98048772  1
  Li  Li18  1  0.75005614  0.00856695  0.51951228  1
  Li  Li19  1  0.24994386  0.49143305  0.76945615  1
  Li  Li20  1  0.28896843  0.98048772  0.26088919  1
  Li  Li21  1  0.28896843  0.73054385  0.52807924  1
  Li  Li22  1  0.71103157  0.76945615  0.23911081  1
  Li  Li23  1  0.71103157  0.51951228  0.97192076  1
  Rh  Rh24  1  0.23504217  0.00000000  0.73504217  1
  Rh  Rh25  1  0.76495783  0.73504217  0.76495783  1
  Rh  Rh26  1  0.76495783  0.50000000  0.50000000  1
  Rh  Rh27  1  0.23504217  0.76495783  0.00000000  1
  Rh  Rh28  1  0.76495783  1.00000000  0.26495783  1
  Rh  Rh29  1  0.23504217  0.26495783  0.23504217  1
  Rh  Rh30  1  0.23504217  0.50000000  0.50000000  1
  Rh  Rh31  1  0.76495783  0.23504217  1.00000000  1
  N  N32  1  -0.00000000  0.00000000  0.50000000  1
  N  N33  1  -0.00000000  0.50000000  0.00000000  1
  N  N34  1  0.00000000  0.50000000  0.50000000  1
  N  N35  1  0.00000000  -0.00000000  0.00000000  1
  N  N36  1  0.50000000  0.98491509  0.75000000  1
  N  N37  1  0.50000000  0.51508491  0.25000000  1
  N  N38  1  1.00000000  0.25000000  0.73491509  1
  N  N39  1  0.00000000  0.75000000  0.76508491  1
  N  N40  1  0.53016983  0.73491509  0.51508491  1
  N  N41  1  0.46983017  0.76508491  0.98491509  1
  N  N42  1  0.50000000  0.01508491  0.25000000  1
  N  N43  1  0.50000000  0.48491509  0.75000000  1
  N  N44  1  0.00000000  0.75000000  0.26508491  1
  N  N45  1  1.00000000  0.25000000  0.23491509  1
  N  N46  1  0.46983017  0.26508491  0.48491509  1
  N  N47  1  0.53016983  0.23491509  0.01508491  1
