# generated using pymatgen
data_Li3Mo15Se19
_symmetry_space_group_name_H-M   'P 1'
_cell_length_a   19.84678800
_cell_length_b   9.61627500
_cell_length_c   9.68117491
_cell_angle_alpha   60.50180612
_cell_angle_beta   90.00000000
_cell_angle_gamma   90.00000000
_symmetry_Int_Tables_number   1
_chemical_formula_structural   Li3Mo15Se19
_chemical_formula_sum   'Li6 Mo30 Se38'
_cell_volume   1608.16161923
_cell_formula_units_Z   2
loop_
 _symmetry_equiv_pos_site_id
 _symmetry_equiv_pos_as_xyz
  1  'x, y, z'
loop_
 _atom_site_type_symbol
 _atom_site_label
 _atom_site_symmetry_multiplicity
 _atom_site_fract_x
 _atom_site_fract_y
 _atom_site_fract_z
 _atom_site_occupancy
  Li  Li0  1  0.60127300  0.66391600  0.66663000  1
  Li  Li1  1  0.10127300  0.33608400  0.33337000  1
  Li  Li2  1  0.39872700  0.33608400  0.33337000  1
  Li  Li3  1  0.89872700  0.66391600  0.66663000  1
  Li  Li4  1  0.75000000  0.96547200  0.82454600  1
  Li  Li5  1  0.25000000  0.03452800  0.17545400  1
  Mo  Mo6  1  0.75000000  0.48628600  0.35145400  1
  Mo  Mo7  1  0.75000000  0.35126700  0.16152000  1
  Mo  Mo8  1  0.75000000  0.16449800  0.48012300  1
  Mo  Mo9  1  0.25000000  0.51371400  0.64854600  1
  Mo  Mo10  1  0.25000000  0.64873300  0.83848000  1
  Mo  Mo11  1  0.25000000  0.83550200  0.51987700  1
  Mo  Mo12  1  0.63442600  0.50206700  0.18949900  1
  Mo  Mo13  1  0.63512100  0.18855400  0.30718700  1
  Mo  Mo14  1  0.63521700  0.30946400  0.50052400  1
  Mo  Mo15  1  0.13442600  0.49793300  0.81050100  1
  Mo  Mo16  1  0.13512100  0.81144600  0.69281300  1
  Mo  Mo17  1  0.13521700  0.69053600  0.49947600  1
  Mo  Mo18  1  0.36557400  0.49793300  0.81050100  1
  Mo  Mo19  1  0.36487900  0.81144600  0.69281300  1
  Mo  Mo20  1  0.36478300  0.69053600  0.49947600  1
  Mo  Mo21  1  0.86557400  0.50206700  0.18949900  1
  Mo  Mo22  1  0.86487900  0.18855400  0.30718700  1
  Mo  Mo23  1  0.86478300  0.30946400  0.50052400  1
  Mo  Mo24  1  0.55716600  0.83051100  0.15316500  1
  Mo  Mo25  1  0.55639800  0.15047700  0.01714900  1
  Mo  Mo26  1  0.55932000  0.01558600  0.83067100  1
  Mo  Mo27  1  0.05716600  0.16948900  0.84683500  1
  Mo  Mo28  1  0.05639800  0.84952300  0.98285100  1
  Mo  Mo29  1  0.05932000  0.98441400  0.16932900  1
  Mo  Mo30  1  0.44283400  0.16948900  0.84683500  1
  Mo  Mo31  1  0.44360200  0.84952300  0.98285100  1
  Mo  Mo32  1  0.44068000  0.98441400  0.16932900  1
  Mo  Mo33  1  0.94283400  0.83051100  0.15316500  1
  Mo  Mo34  1  0.94360200  0.15047700  0.01714900  1
  Mo  Mo35  1  0.94068000  0.01558600  0.83067100  1
  Se  Se36  1  0.75000000  0.65856200  0.04590400  1
  Se  Se37  1  0.75000000  0.04449700  0.29091000  1
  Se  Se38  1  0.75000000  0.29811500  0.65803600  1
  Se  Se39  1  0.25000000  0.34143800  0.95409600  1
  Se  Se40  1  0.25000000  0.95550300  0.70909000  1
  Se  Se41  1  0.25000000  0.70188500  0.34196400  1
  Se  Se42  1  0.65944500  0.99534800  0.00493200  1
  Se  Se43  1  0.15944500  0.00465200  0.99506800  1
  Se  Se44  1  0.34055500  0.00465200  0.99506800  1
  Se  Se45  1  0.84055500  0.99534800  0.00493200  1
  Se  Se46  1  0.55080800  0.70861600  0.96241000  1
  Se  Se47  1  0.54710100  0.96588300  0.32665900  1
  Se  Se48  1  0.55066900  0.32461900  0.70967900  1
  Se  Se49  1  0.05080800  0.29138400  0.03759000  1
  Se  Se50  1  0.04710100  0.03411700  0.67334100  1
  Se  Se51  1  0.05066900  0.67538100  0.29032100  1
  Se  Se52  1  0.44919200  0.29138400  0.03759000  1
  Se  Se53  1  0.45289900  0.03411700  0.67334100  1
  Se  Se54  1  0.44933100  0.67538100  0.29032100  1
  Se  Se55  1  0.94919200  0.70861600  0.96241000  1
  Se  Se56  1  0.95289900  0.96588300  0.32665900  1
  Se  Se57  1  0.94933100  0.32461900  0.70967900  1
  Se  Se58  1  0.64292000  0.62360500  0.38209200  1
  Se  Se59  1  0.64307600  0.38063200  0.99623900  1
  Se  Se60  1  0.64369300  0.99245100  0.61987100  1
  Se  Se61  1  0.14292000  0.37639500  0.61790800  1
  Se  Se62  1  0.14307600  0.61936800  0.00376100  1
  Se  Se63  1  0.14369300  0.00754900  0.38012900  1
  Se  Se64  1  0.35708000  0.37639500  0.61790800  1
  Se  Se65  1  0.35692400  0.61936800  0.00376100  1
  Se  Se66  1  0.35630700  0.00754900  0.38012900  1
  Se  Se67  1  0.85708000  0.62360500  0.38209200  1
  Se  Se68  1  0.85692400  0.38063200  0.99623900  1
  Se  Se69  1  0.85630700  0.99245100  0.61987100  1
  Se  Se70  1  0.03225000  0.66626800  0.66739300  1
  Se  Se71  1  0.53225000  0.33373200  0.33260700  1
  Se  Se72  1  0.96775000  0.33373200  0.33260700  1
  Se  Se73  1  0.46775000  0.66626800  0.66739300  1
