# generated using pymatgen
data_LiFeSnO4
_symmetry_space_group_name_H-M   'P 1'
_cell_length_a   6.12521400
_cell_length_b   6.12521400
_cell_length_c   8.62583000
_cell_angle_alpha   90.00000000
_cell_angle_beta   90.00000000
_cell_angle_gamma   90.00000000
_symmetry_Int_Tables_number   1
_chemical_formula_structural   LiFeSnO4
_chemical_formula_sum   'Li4 Fe4 Sn4 O16'
_cell_volume   323.62601660
_cell_formula_units_Z   4
loop_
 _symmetry_equiv_pos_site_id
 _symmetry_equiv_pos_as_xyz
  1  'x, y, z'
loop_
 _atom_site_type_symbol
 _atom_site_label
 _atom_site_symmetry_multiplicity
 _atom_site_fract_x
 _atom_site_fract_y
 _atom_site_fract_z
 _atom_site_occupancy
  Li  Li0  1  0.00000000  0.21099400  0.00000000  1
  Li  Li1  1  0.00000000  0.78900600  0.50000000  1
  Li  Li2  1  0.21099400  0.00000000  0.25000000  1
  Li  Li3  1  0.78900600  0.00000000  0.75000000  1
  Fe  Fe4  1  0.25392300  0.25392300  0.62500000  1
  Fe  Fe5  1  0.25392300  0.74607700  0.87500000  1
  Fe  Fe6  1  0.74607700  0.25392300  0.37500000  1
  Fe  Fe7  1  0.74607700  0.74607700  0.12500000  1
  Sn  Sn8  1  0.22623100  0.50000000  0.25000000  1
  Sn  Sn9  1  0.50000000  0.22623100  0.00000000  1
  Sn  Sn10  1  0.50000000  0.77376900  0.50000000  1
  Sn  Sn11  1  0.77376900  0.50000000  0.75000000  1
  O  O12  1  0.00126000  0.25501700  0.25286900  1
  O  O13  1  0.00126000  0.74498300  0.24713100  1
  O  O14  1  0.25501700  0.00126000  0.99713100  1
  O  O15  1  0.25501700  0.99874000  0.50286900  1
  O  O16  1  0.26046700  0.48308200  0.00788800  1
  O  O17  1  0.26046700  0.51691800  0.49211200  1
  O  O18  1  0.48308200  0.26046700  0.24211200  1
  O  O19  1  0.48308200  0.73953300  0.25788800  1
  O  O20  1  0.51691800  0.26046700  0.75788800  1
  O  O21  1  0.51691800  0.73953300  0.74211200  1
  O  O22  1  0.73953300  0.51691800  0.50788800  1
  O  O23  1  0.73953300  0.48308200  0.99211200  1
  O  O24  1  0.74498300  0.00126000  0.00286900  1
  O  O25  1  0.74498300  0.99874000  0.49713100  1
  O  O26  1  0.99874000  0.25501700  0.74713100  1
  O  O27  1  0.99874000  0.74498300  0.75286900  1
