# generated using pymatgen
data_Li2V(CO3)2
_symmetry_space_group_name_H-M   'P 1'
_cell_length_a   4.90635900
_cell_length_b   6.53521282
_cell_length_c   8.52293355
_cell_angle_alpha   99.95193061
_cell_angle_beta   90.00001152
_cell_angle_gamma   90.00015293
_symmetry_Int_Tables_number   1
_chemical_formula_structural   Li2V(CO3)2
_chemical_formula_sum   'Li4 V2 C4 O12'
_cell_volume   269.16817392
_cell_formula_units_Z   2
loop_
 _symmetry_equiv_pos_site_id
 _symmetry_equiv_pos_as_xyz
  1  'x, y, z'
loop_
 _atom_site_type_symbol
 _atom_site_label
 _atom_site_symmetry_multiplicity
 _atom_site_fract_x
 _atom_site_fract_y
 _atom_site_fract_z
 _atom_site_occupancy
  Li  Li0  1  0.53153300  0.08156400  0.94093700  1
  Li  Li1  1  0.96393300  0.54926400  0.65649800  1
  Li  Li2  1  0.46393400  0.45073700  0.34350200  1
  Li  Li3  1  0.03152500  0.91843800  0.05906600  1
  V  V4  1  0.50515000  0.20866500  0.59605200  1
  V  V5  1  0.00513900  0.79134100  0.40395900  1
  C  C6  1  0.02552200  0.20394900  0.82603200  1
  C  C7  1  0.46851100  0.73877400  0.60221500  1
  C  C8  1  0.96851100  0.26122600  0.39778800  1
  C  C9  1  0.52551900  0.79605400  0.17396400  1
  O  O10  1  0.91369400  0.10788200  0.92913900  1
  O  O11  1  0.28991000  0.21499900  0.81656600  1
  O  O12  1  0.87776400  0.29564700  0.73220200  1
  O  O13  1  0.56734200  0.55433200  0.60048800  1
  O  O14  1  0.13297200  0.11597300  0.42864800  1
  O  O15  1  0.21306900  0.77750200  0.63082900  1
  O  O16  1  0.71307200  0.22249500  0.36917600  1
  O  O17  1  0.63297000  0.88402400  0.57135300  1
  O  O18  1  0.06734800  0.44566400  0.39951000  1
  O  O19  1  0.37776100  0.70434900  0.26779100  1
  O  O20  1  0.78990700  0.78500300  0.18342800  1
  O  O21  1  0.41369300  0.89212400  0.07086000  1
