# generated using pymatgen
data_Li7Mn4CoO12
_symmetry_space_group_name_H-M   'P 1'
_cell_length_a   5.09007751
_cell_length_b   14.94886440
_cell_length_c   5.95889836
_cell_angle_alpha   94.71251940
_cell_angle_beta   105.35048118
_cell_angle_gamma   96.67170547
_symmetry_Int_Tables_number   1
_chemical_formula_structural   Li7Mn4CoO12
_chemical_formula_sum   'Li14 Mn8 Co2 O24'
_cell_volume   431.25273764
_cell_formula_units_Z   2
loop_
 _symmetry_equiv_pos_site_id
 _symmetry_equiv_pos_as_xyz
  1  'x, y, z'
loop_
 _atom_site_type_symbol
 _atom_site_label
 _atom_site_symmetry_multiplicity
 _atom_site_fract_x
 _atom_site_fract_y
 _atom_site_fract_z
 _atom_site_occupancy
  Li  Li0  1  0.91672600  0.41665300  0.83327400  1
  Li  Li1  1  0.41662100  0.91669700  0.83328500  1
  Li  Li2  1  0.91670700  0.41664100  0.33334900  1
  Li  Li3  1  0.41665500  0.91669600  0.33329900  1
  Li  Li4  1  0.16664900  0.16667200  0.83336000  1
  Li  Li5  1  0.66666000  0.66667700  0.83335200  1
  Li  Li6  1  0.59423200  0.09075300  0.17719800  1
  Li  Li7  1  0.09419000  0.59075400  0.17718300  1
  Li  Li8  1  0.73913400  0.24258500  0.48949100  1
  Li  Li9  1  0.23911100  0.74259100  0.48948300  1
  Li  Li10  1  0.57594200  0.08847600  0.67073800  1
  Li  Li11  1  0.07591500  0.58846200  0.67074100  1
  Li  Li12  1  0.75742200  0.24483800  0.99593000  1
  Li  Li13  1  0.25736700  0.74485400  0.99590200  1
  Mn  Mn14  1  0.00604100  0.00363800  0.00425600  1
  Mn  Mn15  1  0.50582900  0.50350300  0.00415000  1
  Mn  Mn16  1  0.32736400  0.32967300  0.66239900  1
  Mn  Mn17  1  0.82751800  0.82981900  0.66254700  1
  Mn  Mn18  1  0.00219100  0.00331700  0.50407400  1
  Mn  Mn19  1  0.50206700  0.50324100  0.50403700  1
  Mn  Mn20  1  0.33125100  0.33001200  0.16263900  1
  Mn  Mn21  1  0.83122800  0.83009600  0.16273600  1
  Co  Co22  1  0.66664700  0.66668300  0.33331700  1
  Co  Co23  1  0.16665100  0.16666800  0.33330900  1
  O  O24  1  0.25624500  0.03369400  0.81056800  1
  O  O25  1  0.75617500  0.53361600  0.81057200  1
  O  O26  1  0.07709300  0.29963000  0.85612600  1
  O  O27  1  0.57700300  0.79971600  0.85610300  1
  O  O28  1  0.27846300  0.04681700  0.35525300  1
  O  O29  1  0.77850000  0.54683400  0.35528600  1
  O  O30  1  0.05491600  0.28653200  0.31142500  1
  O  O31  1  0.55476600  0.78652400  0.31139500  1
  O  O32  1  0.43800200  0.21328700  0.17507100  1
  O  O33  1  0.93791600  0.71335100  0.17510900  1
  O  O34  1  0.89534100  0.12004000  0.49163200  1
  O  O35  1  0.39534100  0.62000900  0.49156700  1
  O  O36  1  0.43400900  0.21224700  0.64269900  1
  O  O37  1  0.93375300  0.71234000  0.64250100  1
  O  O38  1  0.89934500  0.12103900  0.02396900  1
  O  O39  1  0.39952300  0.62099200  0.02414500  1
  O  O40  1  0.59123200  0.37618900  0.48178500  1
  O  O41  1  0.09115800  0.87626000  0.48178300  1
  O  O42  1  0.24222400  0.45709500  0.18485300  1
  O  O43  1  0.74218900  0.95717500  0.18485900  1
  O  O44  1  0.60955300  0.37895400  0.01762500  1
  O  O45  1  0.10948000  0.87903300  0.01760700  1
  O  O46  1  0.22383400  0.45426200  0.64901700  1
  O  O47  1  0.72381900  0.95436300  0.64900100  1
