# generated using pymatgen
data_LiIrN2
_symmetry_space_group_name_H-M   'P 1'
_cell_length_a   5.18486203
_cell_length_b   10.46658200
_cell_length_c   15.17987224
_cell_angle_alpha   90.00000000
_cell_angle_beta   90.00000000
_cell_angle_gamma   90.00000000
_symmetry_Int_Tables_number   1
_chemical_formula_structural   LiIrN2
_chemical_formula_sum   'Li16 Ir16 N32'
_cell_volume   823.77802173
_cell_formula_units_Z   16
loop_
 _symmetry_equiv_pos_site_id
 _symmetry_equiv_pos_as_xyz
  1  'x, y, z'
loop_
 _atom_site_type_symbol
 _atom_site_label
 _atom_site_symmetry_multiplicity
 _atom_site_fract_x
 _atom_site_fract_y
 _atom_site_fract_z
 _atom_site_occupancy
  Li  Li0  1  0.33642166  0.98587749  0.43114154  1
  Li  Li1  1  0.83642166  0.51412251  0.56885846  1
  Li  Li2  1  0.66357834  0.48587749  0.06885846  1
  Li  Li3  1  0.16357834  0.01412251  0.93114154  1
  Li  Li4  1  0.66357834  0.01412251  0.56885846  1
  Li  Li5  1  0.16357834  0.48587749  0.43114154  1
  Li  Li6  1  0.33642166  0.51412251  0.93114154  1
  Li  Li7  1  0.83642166  0.98587749  0.06885846  1
  Li  Li8  1  0.21387692  0.29556517  0.30104299  1
  Li  Li9  1  0.71387692  0.20443483  0.69895701  1
  Li  Li10  1  0.78612308  0.79556517  0.19895701  1
  Li  Li11  1  0.28612308  0.70443483  0.80104299  1
  Li  Li12  1  0.78612308  0.70443483  0.69895701  1
  Li  Li13  1  0.28612308  0.79556517  0.30104299  1
  Li  Li14  1  0.21387692  0.20443483  0.80104299  1
  Li  Li15  1  0.71387692  0.29556517  0.19895701  1
  Ir  Ir16  1  0.87528978  0.02727151  0.30224055  1
  Ir  Ir17  1  0.37528978  0.47272849  0.69775945  1
  Ir  Ir18  1  0.12471022  0.52727151  0.19775945  1
  Ir  Ir19  1  0.62471022  0.97272849  0.80224055  1
  Ir  Ir20  1  0.12471022  0.97272849  0.69775945  1
  Ir  Ir21  1  0.62471022  0.52727151  0.30224055  1
  Ir  Ir22  1  0.87528978  0.47272849  0.80224055  1
  Ir  Ir23  1  0.37528978  0.02727151  0.19775945  1
  Ir  Ir24  1  0.71088912  0.26940845  0.43277664  1
  Ir  Ir25  1  0.21088912  0.23059155  0.56722336  1
  Ir  Ir26  1  0.28911088  0.76940845  0.06722336  1
  Ir  Ir27  1  0.78911088  0.73059155  0.93277664  1
  Ir  Ir28  1  0.28911088  0.73059155  0.56722336  1
  Ir  Ir29  1  0.78911088  0.76940845  0.43277664  1
  Ir  Ir30  1  0.71088912  0.23059155  0.93277664  1
  Ir  Ir31  1  0.21088912  0.26940845  0.06722336  1
  N  N32  1  0.95911028  0.33892342  0.51036903  1
  N  N33  1  0.45911028  0.16107658  0.48963097  1
  N  N34  1  0.04088972  0.83892342  0.98963097  1
  N  N35  1  0.54088972  0.66107658  0.01036903  1
  N  N36  1  0.04088972  0.66107658  0.48963097  1
  N  N37  1  0.54088972  0.83892342  0.51036903  1
  N  N38  1  0.95911028  0.16107658  0.01036903  1
  N  N39  1  0.45911028  0.33892342  0.98963097  1
  N  N40  1  0.49390016  0.40277155  0.38294877  1
  N  N41  1  0.99390016  0.09722845  0.61705123  1
  N  N42  1  0.50609984  0.90277155  0.11705123  1
  N  N43  1  0.00609984  0.59722845  0.88294877  1
  N  N44  1  0.50609984  0.59722845  0.61705123  1
  N  N45  1  0.00609984  0.90277155  0.38294877  1
  N  N46  1  0.49390016  0.09722845  0.88294877  1
  N  N47  1  0.99390016  0.40277155  0.11705123  1
  N  N48  1  0.86171764  0.20639328  0.32538795  1
  N  N49  1  0.36171764  0.29360672  0.67461205  1
  N  N50  1  0.13828236  0.70639328  0.17461205  1
  N  N51  1  0.63828236  0.79360672  0.82538795  1
  N  N52  1  0.13828236  0.79360672  0.67461205  1
  N  N53  1  0.63828236  0.70639328  0.32538795  1
  N  N54  1  0.86171764  0.29360672  0.82538795  1
  N  N55  1  0.36171764  0.20639328  0.17461205  1
  N  N56  1  0.49208390  0.48153081  0.19089504  1
  N  N57  1  0.99208390  0.01846919  0.80910496  1
  N  N58  1  0.50791610  0.98153081  0.30910496  1
  N  N59  1  0.00791610  0.51846919  0.69089504  1
  N  N60  1  0.50791610  0.51846919  0.80910496  1
  N  N61  1  0.00791610  0.98153081  0.19089504  1
  N  N62  1  0.49208390  0.01846919  0.69089504  1
  N  N63  1  0.99208390  0.48153081  0.30910496  1
