# generated using pymatgen
data_LiOs2N3
_symmetry_space_group_name_H-M   'P 1'
_cell_length_a   5.58276522
_cell_length_b   5.87002592
_cell_length_c   5.08514720
_cell_angle_alpha   90.00000000
_cell_angle_beta   90.00000000
_cell_angle_gamma   121.71722815
_symmetry_Int_Tables_number   1
_chemical_formula_structural   LiOs2N3
_chemical_formula_sum   'Li2 Os4 N6'
_cell_volume   141.75728446
_cell_formula_units_Z   2
loop_
 _symmetry_equiv_pos_site_id
 _symmetry_equiv_pos_as_xyz
  1  'x, y, z'
loop_
 _atom_site_type_symbol
 _atom_site_label
 _atom_site_symmetry_multiplicity
 _atom_site_fract_x
 _atom_site_fract_y
 _atom_site_fract_z
 _atom_site_occupancy
  Li  Li0  1  0.00000000  0.67879158  0.49780946  1
  Li  Li1  1  0.00000000  0.32120842  0.99780946  1
  Os  Os2  1  0.36674982  0.39425292  0.48220703  1
  Os  Os3  1  0.63325018  0.02750310  0.48220703  1
  Os  Os4  1  0.63325018  0.60574708  0.98220703  1
  Os  Os5  1  0.36674982  0.97249690  0.98220703  1
  N  N6  1  0.32026965  0.26583884  0.85398056  1
  N  N7  1  0.67973035  0.94556919  0.85398056  1
  N  N8  1  0.67973035  0.73416116  0.35398056  1
  N  N9  1  0.32026965  0.05443081  0.35398056  1
  N  N10  1  0.00000000  0.67223269  0.91781537  1
  N  N11  1  0.00000000  0.32776731  0.41781537  1
