# generated using pymatgen
data_Li2Fe2(WO4)3
_symmetry_space_group_name_H-M   'P 1'
_cell_length_a   9.53034800
_cell_length_b   9.75367500
_cell_length_c   13.21532200
_cell_angle_alpha   90.00000000
_cell_angle_beta   90.00000000
_cell_angle_gamma   90.00000000
_symmetry_Int_Tables_number   1
_chemical_formula_structural   Li2Fe2(WO4)3
_chemical_formula_sum   'Li8 Fe8 W12 O48'
_cell_volume   1228.44237534
_cell_formula_units_Z   4
loop_
 _symmetry_equiv_pos_site_id
 _symmetry_equiv_pos_as_xyz
  1  'x, y, z'
loop_
 _atom_site_type_symbol
 _atom_site_label
 _atom_site_symmetry_multiplicity
 _atom_site_fract_x
 _atom_site_fract_y
 _atom_site_fract_z
 _atom_site_occupancy
  Li  Li0  1  0.26927200  0.77694000  0.81101900  1
  Li  Li1  1  0.73072800  0.22306000  0.18898100  1
  Li  Li2  1  0.76927200  0.72306000  0.68898100  1
  Li  Li3  1  0.23072800  0.77694000  0.18898100  1
  Li  Li4  1  0.23072800  0.27694000  0.31101900  1
  Li  Li5  1  0.76927200  0.22306000  0.81101900  1
  Li  Li6  1  0.73072800  0.72306000  0.31101900  1
  Li  Li7  1  0.26927200  0.27694000  0.68898100  1
  Fe  Fe8  1  0.46578300  0.75407200  0.62244600  1
  Fe  Fe9  1  0.53421700  0.24592800  0.37755400  1
  Fe  Fe10  1  0.96578300  0.74592800  0.87755400  1
  Fe  Fe11  1  0.03421700  0.75407200  0.37755400  1
  Fe  Fe12  1  0.03421700  0.25407200  0.12244600  1
  Fe  Fe13  1  0.96578300  0.24592800  0.62244600  1
  Fe  Fe14  1  0.53421700  0.74592800  0.12244600  1
  Fe  Fe15  1  0.46578300  0.25407200  0.87755400  1
  W  W16  1  0.10500300  0.59773600  0.64232500  1
  W  W17  1  0.89499700  0.40226400  0.35767500  1
  W  W18  1  0.60500300  0.90226400  0.85767500  1
  W  W19  1  0.39499700  0.59773600  0.35767500  1
  W  W20  1  0.39499700  0.09773600  0.14232500  1
  W  W21  1  0.60500300  0.40226400  0.64232500  1
  W  W22  1  0.89499700  0.90226400  0.14232500  1
  W  W23  1  0.10500300  0.09773600  0.85767500  1
  W  W24  1  0.25000000  0.03788800  0.50000000  1
  W  W25  1  0.75000000  0.96211200  0.50000000  1
  W  W26  1  0.75000000  0.46211200  0.00000000  1
  W  W27  1  0.25000000  0.53788800  0.00000000  1
  O  O28  1  0.07037600  0.64055300  0.51271300  1
  O  O29  1  0.92962400  0.35944700  0.48728700  1
  O  O30  1  0.57037600  0.85944700  0.98728700  1
  O  O31  1  0.42962400  0.64055300  0.48728700  1
  O  O32  1  0.42962400  0.14055300  0.01271300  1
  O  O33  1  0.57037600  0.35944700  0.51271300  1
  O  O34  1  0.92962400  0.85944700  0.01271300  1
  O  O35  1  0.07037600  0.14055300  0.98728700  1
  O  O36  1  0.11109700  0.91206800  0.83782800  1
  O  O37  1  0.88890300  0.08793200  0.16217200  1
  O  O38  1  0.61109700  0.58793200  0.66217200  1
  O  O39  1  0.38890300  0.91206800  0.16217200  1
  O  O40  1  0.38890300  0.41206800  0.33782800  1
  O  O41  1  0.61109700  0.08793200  0.83782800  1
  O  O42  1  0.88890300  0.58793200  0.33782800  1
  O  O43  1  0.11109700  0.41206800  0.66217200  1
  O  O44  1  0.46548100  0.82854700  0.78053800  1
  O  O45  1  0.53451900  0.17145300  0.21946200  1
  O  O46  1  0.96548100  0.67145300  0.71946200  1
  O  O47  1  0.03451900  0.82854700  0.21946200  1
  O  O48  1  0.03451900  0.32854700  0.28053800  1
  O  O49  1  0.96548100  0.17145300  0.78053800  1
  O  O50  1  0.53451900  0.67145300  0.28053800  1
  O  O51  1  0.46548100  0.32854700  0.71946200  1
  O  O52  1  0.37491200  0.93176900  0.56534800  1
  O  O53  1  0.62508800  0.06823100  0.43465200  1
  O  O54  1  0.87491200  0.56823100  0.93465200  1
  O  O55  1  0.12508800  0.93176900  0.43465200  1
  O  O56  1  0.12508800  0.43176900  0.06534800  1
  O  O57  1  0.87491200  0.06823100  0.56534800  1
  O  O58  1  0.62508800  0.56823100  0.06534800  1
  O  O59  1  0.37491200  0.43176900  0.93465200  1
  O  O60  1  0.16507600  0.64921100  0.90660800  1
  O  O61  1  0.83492400  0.35078900  0.09339200  1
  O  O62  1  0.66507600  0.85078900  0.59339200  1
  O  O63  1  0.33492400  0.64921100  0.09339200  1
  O  O64  1  0.33492400  0.14921100  0.40660800  1
  O  O65  1  0.66507600  0.35078900  0.90660800  1
  O  O66  1  0.83492400  0.85078900  0.40660800  1
  O  O67  1  0.16507600  0.14921100  0.59339200  1
  O  O68  1  0.27148200  0.67368500  0.68068800  1
  O  O69  1  0.72851800  0.32631500  0.31931200  1
  O  O70  1  0.77148200  0.82631500  0.81931200  1
  O  O71  1  0.22851800  0.67368500  0.31931200  1
  O  O72  1  0.22851800  0.17368500  0.18068800  1
  O  O73  1  0.77148200  0.32631500  0.68068800  1
  O  O74  1  0.72851800  0.82631500  0.18068800  1
  O  O75  1  0.27148200  0.17368500  0.81931200  1
