# generated using pymatgen
data_Li7V3P8O29
_symmetry_space_group_name_H-M   'P 1'
_cell_length_a   9.84365400
_cell_length_b   9.84734597
_cell_length_c   13.90043474
_cell_angle_alpha   89.85281157
_cell_angle_beta   89.73276998
_cell_angle_gamma   60.08368398
_symmetry_Int_Tables_number   1
_chemical_formula_structural   Li7V3P8O29
_chemical_formula_sum   'Li14 V6 P16 O58'
_cell_volume   1167.87245230
_cell_formula_units_Z   2
loop_
 _symmetry_equiv_pos_site_id
 _symmetry_equiv_pos_as_xyz
  1  'x, y, z'
loop_
 _atom_site_type_symbol
 _atom_site_label
 _atom_site_symmetry_multiplicity
 _atom_site_fract_x
 _atom_site_fract_y
 _atom_site_fract_z
 _atom_site_occupancy
  Li  Li0  1  0.31379500  0.77408300  0.93913300  1
  Li  Li1  1  0.33468900  0.90078700  0.43648300  1
  Li  Li2  1  0.76296200  0.33922900  0.43764600  1
  Li  Li3  1  0.66393500  0.66836100  0.11634100  1
  Li  Li4  1  0.90958000  0.31716000  0.93634200  1
  Li  Li5  1  0.77456900  0.91141800  0.93960400  1
  Li  Li6  1  0.89749300  0.76615300  0.44040400  1
  Li  Li7  1  0.22790400  0.09728400  0.06254500  1
  Li  Li8  1  0.09537900  0.67622200  0.06008500  1
  Li  Li9  1  0.33268900  0.33009500  0.38444300  1
  Li  Li10  1  0.23266600  0.67348700  0.56232000  1
  Li  Li11  1  0.67277800  0.09584800  0.56195300  1
  Li  Li12  1  0.67766400  0.22710900  0.06382400  1
  Li  Li13  1  0.01421400  0.03733000  0.50268600  1
  V  V14  1  0.00340800  0.42930100  0.74566600  1
  V  V15  1  0.99837700  0.56566600  0.25179300  1
  V  V16  1  0.43310400  0.99846100  0.25019900  1
  V  V17  1  0.56589600  0.00019700  0.74926900  1
  V  V18  1  0.43310800  0.56520900  0.75116600  1
  V  V19  1  0.56796100  0.43206000  0.24925300  1
  P  P20  1  0.32199000  0.76699900  0.15653600  1
  P  P21  1  0.31586100  0.91077600  0.65601500  1
  P  P22  1  0.77274100  0.31530000  0.65850800  1
  P  P23  1  0.66785100  0.66525200  0.87149400  1
  P  P24  1  0.66906200  0.66521900  0.37680100  1
  P  P25  1  0.91258700  0.32084800  0.15368400  1
  P  P26  1  0.08498400  0.22396700  0.34219800  1
  P  P27  1  0.76986500  0.90779100  0.15744800  1
  P  P28  1  0.23114000  0.08747100  0.83996500  1
  P  P29  1  0.91295900  0.77138400  0.65845600  1
  P  P30  1  0.08687200  0.67880600  0.84217900  1
  P  P31  1  0.33487600  0.33409200  0.62689900  1
  P  P32  1  0.33037500  0.33400500  0.12525400  1
  P  P33  1  0.22709200  0.68099500  0.34402300  1
  P  P34  1  0.68129600  0.08970200  0.34456400  1
  P  P35  1  0.67870200  0.23131900  0.84228600  1
  O  O36  1  0.22846300  0.77301900  0.43127800  1
  O  O37  1  0.34046300  0.74173100  0.66412500  1
  O  O38  1  0.24496300  0.99838000  0.93079700  1
  O  O39  1  0.32664900  0.92014200  0.15465800  1
  O  O40  1  0.49007200  0.62879000  0.17324600  1
  O  O41  1  0.51370100  0.67125800  0.83397800  1
  O  O42  1  0.61876900  0.46928700  0.66864200  1
  O  O43  1  0.75466400  0.24484400  0.93249600  1
  O  O44  1  0.75350300  0.32838200  0.15311800  1
  O  O45  1  0.51678700  0.81034200  0.33851100  1
  O  O46  1  0.47046100  0.90980500  0.66771500  1
  O  O47  1  0.67611200  0.51322000  0.33929300  1
  O  O48  1  0.66554500  0.66852000  0.98007300  1
  O  O49  1  0.68532900  0.66765500  0.48384400  1
  O  O50  1  0.81466900  0.51321200  0.83387600  1
  O  O51  1  0.63059500  0.87937100  0.17094400  1
  O  O52  1  0.67157400  0.81431300  0.83248200  1
  O  O53  1  0.91506300  0.34043700  0.66428300  1
  O  O54  1  0.00956200  0.21042900  0.24208600  1
  O  O55  1  0.98588900  0.21867800  0.42326500  1
  O  O56  1  0.00495500  0.24988400  0.06277200  1
  O  O57  1  0.88557500  0.48840300  0.17261100  1
  O  O58  1  0.81662800  0.67034200  0.32897800  1
  O  O59  1  0.08392800  0.25103100  0.83969400  1
  O  O60  1  0.90434900  0.62252200  0.67107800  1
  O  O61  1  0.74615300  0.91907600  0.66186000  1
  O  O62  1  0.20875200  0.99905300  0.74919200  1
  O  O63  1  0.22598400  0.98359300  0.56547500  1
  O  O64  1  0.76878200  0.99649400  0.43288500  1
  O  O65  1  0.24984500  0.08026500  0.34507400  1
  O  O66  1  0.09779200  0.37498500  0.33564900  1
  O  O67  1  0.92343300  0.74820400  0.15721900  1
  O  O68  1  0.19442800  0.32415600  0.67034500  1
  O  O69  1  0.09441800  0.52162400  0.82295400  1
  O  O70  1  0.99789300  0.75797400  0.93240900  1
  O  O71  1  0.99852000  0.77692800  0.56923800  1
  O  O72  1  0.99962700  0.79184400  0.75134100  1
  O  O73  1  0.07586100  0.67014900  0.34464400  1
  O  O74  1  0.32764400  0.18590300  0.16267700  1
  O  O75  1  0.38088500  0.09838100  0.82075800  1
  O  O76  1  0.18047800  0.48096100  0.17545100  1
  O  O77  1  0.31367300  0.35352400  0.01854500  1
  O  O78  1  0.33678400  0.33862500  0.51858200  1
  O  O79  1  0.32419400  0.48933600  0.66630600  1
  O  O80  1  0.51572000  0.11210900  0.33373700  1
  O  O81  1  0.49114000  0.18883200  0.66396900  1
  O  O82  1  0.25187900  0.66176800  0.84235100  1
  O  O83  1  0.21554400  0.78051500  0.24888100  1
  O  O84  1  0.24683300  0.74629100  0.06767400  1
  O  O85  1  0.36993400  0.51622400  0.33527200  1
  O  O86  1  0.48081400  0.33211800  0.16328300  1
  O  O87  1  0.51873100  0.37919100  0.82302600  1
  O  O88  1  0.66239100  0.08327200  0.84234700  1
  O  O89  1  0.75591200  0.00198600  0.06848300  1
  O  O90  1  0.78246300  0.99923400  0.25017800  1
  O  O91  1  0.67186100  0.25001600  0.34411100  1
  O  O92  1  0.78327700  0.22151300  0.56949500  1
  O  O93  1  0.79074600  0.20780600  0.75138000  1
