# generated using pymatgen
data_Li7V3P8O29
_symmetry_space_group_name_H-M   'P 1'
_cell_length_a   9.86523600
_cell_length_b   9.86925893
_cell_length_c   13.91895335
_cell_angle_alpha   89.90702711
_cell_angle_beta   90.60745817
_cell_angle_gamma   119.88974377
_symmetry_Int_Tables_number   1
_chemical_formula_structural   Li7V3P8O29
_chemical_formula_sum   'Li14 V6 P16 O58'
_cell_volume   1174.84991365
_cell_formula_units_Z   2
loop_
 _symmetry_equiv_pos_site_id
 _symmetry_equiv_pos_as_xyz
  1  'x, y, z'
loop_
 _atom_site_type_symbol
 _atom_site_label
 _atom_site_symmetry_multiplicity
 _atom_site_fract_x
 _atom_site_fract_y
 _atom_site_fract_z
 _atom_site_occupancy
  Li  Li0  1  0.32916100  0.23439400  0.06491200  1
  Li  Li1  1  0.31334600  0.08674700  0.56294900  1
  Li  Li2  1  0.77484300  0.68836800  0.55989400  1
  Li  Li3  1  0.66309300  0.33136400  0.38354100  1
  Li  Li4  1  0.66842000  0.32948000  0.88269300  1
  Li  Li5  1  0.90573000  0.67443900  0.06148600  1
  Li  Li6  1  0.76661900  0.09550800  0.06324300  1
  Li  Li7  1  0.09455400  0.77548900  0.44122900  1
  Li  Li8  1  0.91217300  0.22599400  0.56192800  1
  Li  Li9  1  0.33147400  0.66933600  0.11360500  1
  Li  Li10  1  0.22694200  0.32311900  0.43639500  1
  Li  Li11  1  0.68052800  0.90599300  0.43540200  1
  Li  Li12  1  0.67325100  0.76860500  0.93903000  1
  Li  Li13  1  0.04300900  0.02993700  0.99920500  1
  V  V14  1  0.00014900  0.56491600  0.24835100  1
  V  V15  1  0.00639900  0.43643300  0.75599200  1
  V  V16  1  0.42916900  0.99629200  0.75089400  1
  V  V17  1  0.56617500  0.00119900  0.24844000  1
  V  V18  1  0.43189000  0.43120700  0.24986700  1
  V  V19  1  0.56587700  0.56727900  0.74684200  1
  P  P20  1  0.31992500  0.22662800  0.84342700  1
  P  P21  1  0.32322700  0.08857000  0.34561900  1
  P  P22  1  0.76941700  0.67652900  0.34195100  1
  P  P23  1  0.66960700  0.33515000  0.12257100  1
  P  P24  1  0.66800200  0.33243900  0.62756500  1
  P  P25  1  0.90905400  0.68327100  0.84247300  1
  P  P26  1  0.08492100  0.76545100  0.65905700  1
  P  P27  1  0.77459900  0.09036000  0.84272800  1
  P  P28  1  0.22180700  0.91180300  0.15747400  1
  P  P29  1  0.91222700  0.23380300  0.34462100  1
  P  P30  1  0.08451300  0.31023800  0.15719700  1
  P  P31  1  0.33145600  0.66422700  0.37483300  1
  P  P32  1  0.33765100  0.67068200  0.87248900  1
  P  P33  1  0.22936800  0.31682600  0.65936500  1
  P  P34  1  0.67925900  0.91370600  0.65765700  1
  P  P35  1  0.67922000  0.76974600  0.15608800  1
  O  O36  1  0.24533600  0.24288300  0.56929400  1
  O  O37  1  0.32688100  0.24598300  0.34483600  1
  O  O38  1  0.20957100  0.00874700  0.07816600  1
  O  O39  1  0.34631700  0.08487400  0.83391300  1
  O  O40  1  0.48118100  0.37566900  0.83087900  1
  O  O41  1  0.51808600  0.32965800  0.15785600  1
  O  O42  1  0.63081300  0.50964500  0.32687400  1
  O  O43  1  0.76542100  0.76281600  0.06833800  1
  O  O44  1  0.74026200  0.66111500  0.83505300  1
  O  O45  1  0.51593600  0.18596500  0.66466100  1
  O  O46  1  0.49078900  0.11972700  0.32714900  1
  O  O47  1  0.67069100  0.48580700  0.66463000  1
  O  O48  1  0.68260300  0.34943500  0.01453600  1
  O  O49  1  0.67079900  0.33349100  0.51947600  1
  O  O50  1  0.81743300  0.48700400  0.16691300  1
  O  O51  1  0.62670700  0.10597100  0.82973800  1
  O  O52  1  0.67680500  0.18975500  0.15854600  1
  O  O53  1  0.92256400  0.67001500  0.34290900  1
  O  O54  1  0.99624500  0.78742100  0.75044700  1
  O  O55  1  0.99583400  0.75801200  0.56896300  1
  O  O56  1  0.98494400  0.76783400  0.93332500  1
  O  O57  1  0.89165300  0.51878300  0.83031700  1
  O  O58  1  0.81679200  0.33243000  0.67027200  1
  O  O59  1  0.07628700  0.74588800  0.15711700  1
  O  O60  1  0.88501600  0.37410300  0.32530300  1
  O  O61  1  0.75349400  0.08268100  0.34464500  1
  O  O62  1  0.21164600  0.98820100  0.25804000  1
  O  O63  1  0.25182800  0.99607800  0.43586700  1
  O  O64  1  0.75688000  0.00130600  0.56760600  1
  O  O65  1  0.24794400  0.91517800  0.66058700  1
  O  O66  1  0.09529900  0.61799300  0.67548400  1
  O  O67  1  0.91787500  0.25359200  0.84049400  1
  O  O68  1  0.17955200  0.65996000  0.32468500  1
  O  O69  1  0.09816700  0.47442300  0.16530400  1
  O  O70  1  0.98745200  0.20817800  0.07558800  1
  O  O71  1  0.00467700  0.25554500  0.43597300  1
  O  O72  1  0.00958300  0.22094000  0.25734900  1
  O  O73  1  0.08410100  0.33493400  0.65957700  1
  O  O74  1  0.33084300  0.81122600  0.82852600  1
  O  O75  1  0.36929200  0.89562800  0.16206300  1
  O  O76  1  0.18663500  0.52008300  0.82974200  1
  O  O77  1  0.33789100  0.66889000  0.97970000  1
  O  O78  1  0.31500000  0.66677200  0.48115700  1
  O  O79  1  0.32793200  0.51300700  0.33818100  1
  O  O80  1  0.52218800  0.90626700  0.67622700  1
  O  O81  1  0.47877700  0.81167200  0.33504600  1
  O  O82  1  0.24966900  0.33185800  0.15626100  1
  O  O83  1  0.21177700  0.21053900  0.75135400  1
  O  O84  1  0.23436800  0.21655000  0.93333800  1
  O  O85  1  0.37951800  0.47655500  0.67959300  1
  O  O86  1  0.48679700  0.67082000  0.83485400  1
  O  O87  1  0.51414600  0.62793700  0.16770000  1
  O  O88  1  0.67042900  0.92064000  0.15654200  1
  O  O89  1  0.77087800  0.99809700  0.93028200  1
  O  O90  1  0.78893000  0.99967200  0.74934500  1
  O  O91  1  0.66082500  0.74812200  0.65707200  1
  O  O92  1  0.75438600  0.75538600  0.43083000  1
  O  O93  1  0.78236600  0.78134100  0.25008800  1
