# generated using pymatgen
data_Na5LiN2
_symmetry_space_group_name_H-M   'P 1'
_cell_length_a   4.44988000
_cell_length_b   4.38829900
_cell_length_c   7.67803547
_cell_angle_alpha   89.52175077
_cell_angle_beta   90.00000000
_cell_angle_gamma   90.00000000
_symmetry_Int_Tables_number   1
_chemical_formula_structural   Na5LiN2
_chemical_formula_sum   'Na5 Li1 N2'
_cell_volume   149.92687720
_cell_formula_units_Z   1
loop_
 _symmetry_equiv_pos_site_id
 _symmetry_equiv_pos_as_xyz
  1  'x, y, z'
loop_
 _atom_site_type_symbol
 _atom_site_label
 _atom_site_symmetry_multiplicity
 _atom_site_fract_x
 _atom_site_fract_y
 _atom_site_fract_z
 _atom_site_occupancy
  Na  Na0  1  0.50000000  0.09168300  0.66726300  1
  Na  Na1  1  0.00000000  0.91662000  0.83141500  1
  Na  Na2  1  0.50000000  0.50000000  0.00000000  1
  Na  Na3  1  0.50000000  0.90831700  0.33273700  1
  Na  Na4  1  0.00000000  0.08338000  0.16858500  1
  Li  Li5  1  0.00000000  0.50000000  0.50000000  1
  N  N6  1  0.00000000  0.00000000  0.50000000  1
  N  N7  1  0.50000000  0.00000000  0.00000000  1
