# generated using pymatgen
data_Li6MnV3(PO4)6
_symmetry_space_group_name_H-M   'P 1'
_cell_length_a   8.70343200
_cell_length_b   8.76729492
_cell_length_c   12.27715838
_cell_angle_alpha   89.73746546
_cell_angle_beta   89.34237365
_cell_angle_gamma   89.89429353
_symmetry_Int_Tables_number   1
_chemical_formula_structural   Li6MnV3(PO4)6
_chemical_formula_sum   'Li12 Mn2 V6 P12 O48'
_cell_volume   936.74234085
_cell_formula_units_Z   2
loop_
 _symmetry_equiv_pos_site_id
 _symmetry_equiv_pos_as_xyz
  1  'x, y, z'
loop_
 _atom_site_type_symbol
 _atom_site_label
 _atom_site_symmetry_multiplicity
 _atom_site_fract_x
 _atom_site_fract_y
 _atom_site_fract_z
 _atom_site_occupancy
  Li  Li0  1  0.07738000  0.90389600  0.30339600  1
  Li  Li1  1  0.07840900  0.29597300  0.24233400  1
  Li  Li2  1  0.21239600  0.22772700  0.82052800  1
  Li  Li3  1  0.29020700  0.72626400  0.67770100  1
  Li  Li4  1  0.41947900  0.79766300  0.25639400  1
  Li  Li5  1  0.42095700  0.40642800  0.19668800  1
  Li  Li6  1  0.58194300  0.59239000  0.80375500  1
  Li  Li7  1  0.57888400  0.20565000  0.74205900  1
  Li  Li8  1  0.70738200  0.27553700  0.32275900  1
  Li  Li9  1  0.79139800  0.77403300  0.17719100  1
  Li  Li10  1  0.91722400  0.70255800  0.75899400  1
  Li  Li11  1  0.92173200  0.09503700  0.69840600  1
  Mn  Mn12  1  0.25339800  0.04124700  0.60951600  1
  Mn  Mn13  1  0.75298700  0.53346600  0.60649400  1
  V  V14  1  0.24656600  0.46752400  0.39017600  1
  V  V15  1  0.24752300  0.54200000  0.88823800  1
  V  V16  1  0.25264100  0.96875000  0.10910700  1
  V  V17  1  0.74540000  0.95866800  0.38844100  1
  V  V18  1  0.74673600  0.03286300  0.88995900  1
  V  V19  1  0.75359900  0.45855600  0.11115300  1
  P  P20  1  0.03507400  0.74540800  0.50548600  1
  P  P21  1  0.10570600  0.61180000  0.14708200  1
  P  P22  1  0.10755600  0.90237500  0.84848800  1
  P  P23  1  0.39261700  0.11130400  0.35482900  1
  P  P24  1  0.39989300  0.40538600  0.64942600  1
  P  P25  1  0.46098400  0.25178700  0.99357800  1
  P  P26  1  0.53900800  0.74871500  0.00578700  1
  P  P27  1  0.60300800  0.60006800  0.34792600  1
  P  P28  1  0.60429700  0.88917200  0.64681000  1
  P  P29  1  0.89369300  0.09904500  0.14934900  1
  P  P30  1  0.89609100  0.38824300  0.85581400  1
  P  P31  1  0.96083800  0.24737900  0.49443700  1
  O  O32  1  0.05144600  0.13268200  0.56731600  1
  O  O33  1  0.06456100  0.32254700  0.40623800  1
  O  O34  1  0.07086300  0.40724400  0.83295600  1
  O  O35  1  0.07286400  0.10554900  0.15188100  1
  O  O36  1  0.10843500  0.63463700  0.42318100  1
  O  O37  1  0.14837300  0.58538700  0.02784900  1
  O  O38  1  0.14897700  0.77830900  0.18093100  1
  O  O39  1  0.15430000  0.02532900  0.75992000  1
  O  O40  1  0.15760200  0.74006800  0.81206500  1
  O  O41  1  0.16078200  0.82307200  0.57145100  1
  O  O42  1  0.17259200  0.95089900  0.95646400  1
  O  O43  1  0.19334200  0.49135000  0.21796400  1
  O  O44  1  0.30374100  0.99158900  0.28558000  1
  O  O45  1  0.33232900  0.45058200  0.54098900  1
  O  O46  1  0.33214300  0.33384200  0.93060900  1
  O  O47  1  0.35386000  0.24478600  0.69052800  1
  O  O48  1  0.34993900  0.27773300  0.32003000  1
  O  O49  1  0.35463200  0.52843200  0.73665200  1
  O  O50  1  0.35726700  0.08736400  0.47632000  1
  O  O51  1  0.38542600  0.13937300  0.07481900  1
  O  O52  1  0.42380700  0.60712700  0.34525800  1
  O  O53  1  0.42770100  0.90673000  0.66558500  1
  O  O54  1  0.43490300  0.82492200  0.09342600  1
  O  O55  1  0.44980200  0.63594800  0.93369400  1
  O  O56  1  0.55005800  0.36418600  0.06598100  1
  O  O57  1  0.56483100  0.17543800  0.90613300  1
  O  O58  1  0.56754400  0.09367700  0.33350800  1
  O  O59  1  0.58078600  0.39979700  0.65090400  1
  O  O60  1  0.61487300  0.86073300  0.92496700  1
  O  O61  1  0.64702800  0.91538900  0.52733300  1
  O  O62  1  0.64643500  0.47774800  0.25937400  1
  O  O63  1  0.64733200  0.72333300  0.68209100  1
  O  O64  1  0.65409400  0.76273100  0.31062100  1
  O  O65  1  0.66829100  0.66631400  0.06875500  1
  O  O66  1  0.67050300  0.54922000  0.45407400  1
  O  O67  1  0.69084700  0.00919000  0.71733900  1
  O  O68  1  0.80516000  0.51006100  0.79062500  1
  O  O69  1  0.82776800  0.05055600  0.04188100  1
  O  O70  1  0.83210200  0.16465500  0.43156600  1
  O  O71  1  0.84204700  0.26017300  0.18846700  1
  O  O72  1  0.85005300  0.97604300  0.23786100  1
  O  O73  1  0.85309800  0.22235700  0.81991700  1
  O  O74  1  0.85928600  0.40722600  0.97722400  1
  O  O75  1  0.88824100  0.35776400  0.57707000  1
  O  O76  1  0.92841500  0.89805200  0.84474900  1
  O  O77  1  0.93075500  0.59441300  0.16782500  1
  O  O78  1  0.92918300  0.66789900  0.59372600  1
  O  O79  1  0.94657500  0.86063400  0.43399700  1
