# generated using pymatgen
data_Li4V3P8O29
_symmetry_space_group_name_H-M   'P 1'
_cell_length_a   9.75051199
_cell_length_b   9.75051199
_cell_length_c   14.29554499
_cell_angle_alpha   89.24897592
_cell_angle_beta   89.24897592
_cell_angle_gamma   60.63164116
_symmetry_Int_Tables_number   1
_chemical_formula_structural   Li4V3P8O29
_chemical_formula_sum   'Li8 V6 P16 O58'
_cell_volume   1184.30972349
_cell_formula_units_Z   2
loop_
 _symmetry_equiv_pos_site_id
 _symmetry_equiv_pos_as_xyz
  1  'x, y, z'
loop_
 _atom_site_type_symbol
 _atom_site_label
 _atom_site_symmetry_multiplicity
 _atom_site_fract_x
 _atom_site_fract_y
 _atom_site_fract_z
 _atom_site_occupancy
  Li  Li0  1  0.90571500  0.33094300  0.68410100  1
  Li  Li1  1  0.32615500  0.90981700  0.19300500  1
  Li  Li2  1  0.33149200  0.76735100  0.68995900  1
  Li  Li3  1  0.66905700  0.09428500  0.31589900  1
  Li  Li4  1  0.23264900  0.66850800  0.31004100  1
  Li  Li5  1  0.09018300  0.67384500  0.80699500  1
  Li  Li6  1  0.97310700  0.05320900  0.25902900  1
  Li  Li7  1  0.94679100  0.02689300  0.74097100  1
  V  V8  1  0.56841900  0.43158100  0.00000000  1
  V  V9  1  0.44154500  0.55845500  0.50000000  1
  V  V10  1  0.56592300  0.99700600  0.50364200  1
  V  V11  1  0.43852400  0.00360100  0.99177700  1
  V  V12  1  0.99639900  0.56147600  0.00822300  1
  V  V13  1  0.00299400  0.43407700  0.49635800  1
  P  P14  1  0.91677100  0.78195100  0.41439100  1
  P  P15  1  0.78892800  0.91264700  0.91223900  1
  P  P16  1  0.91463400  0.31166900  0.90630600  1
  P  P17  1  0.65688400  0.67091800  0.11617100  1
  P  P18  1  0.66882200  0.66201400  0.61522700  1
  P  P19  1  0.78164700  0.30563500  0.40841700  1
  P  P20  1  0.69436500  0.21835300  0.59158300  1
  P  P21  1  0.31497800  0.91080600  0.40603000  1
  P  P22  1  0.68833100  0.08536600  0.09369400  1
  P  P23  1  0.31727100  0.77139200  0.90974300  1
  P  P24  1  0.22860800  0.68272900  0.09025700  1
  P  P25  1  0.32908200  0.34311600  0.88382900  1
  P  P26  1  0.33798600  0.33117800  0.38477300  1
  P  P27  1  0.08919400  0.68502200  0.59397000  1
  P  P28  1  0.21804900  0.08322900  0.58560900  1
  P  P29  1  0.08735300  0.21107200  0.08776100  1
  O  O30  1  0.02460300  0.77025200  0.68566200  1
  O  O31  1  0.91966600  0.73673800  0.91696200  1
  O  O32  1  0.76082400  0.02094100  0.18530800  1
  O  O33  1  0.74585400  0.92163200  0.41438400  1
  O  O34  1  0.91545900  0.62491600  0.42206900  1
  O  O35  1  0.81098500  0.66657800  0.07337100  1
  O  O36  1  0.91693100  0.46703500  0.92632000  1
  O  O37  1  0.00644300  0.18993300  0.16955700  1
  O  O38  1  0.91161800  0.34796900  0.41026300  1
  O  O39  1  0.67668200  0.80439500  0.57282900  1
  O  O40  1  0.62306600  0.92229800  0.92070600  1
  O  O41  1  0.81600900  0.50921800  0.57919300  1
  O  O42  1  0.64855700  0.67514800  0.21940100  1
  O  O43  1  0.64506500  0.66138900  0.71881500  1
  O  O44  1  0.66024100  0.52352600  0.07116600  1
  O  O45  1  0.46900900  0.91519100  0.41947600  1
  O  O46  1  0.51303700  0.81906700  0.07157400  1
  O  O47  1  0.74274000  0.34465900  0.92064700  1
  O  O48  1  0.79835000  0.20165000  0.50000000  1
  O  O49  1  0.78847000  0.21291900  0.67353400  1
  O  O50  1  0.78708100  0.21153000  0.32646600  1
  O  O51  1  0.61775300  0.45825700  0.42088600  1
  O  O52  1  0.51723800  0.66704900  0.56821200  1
  O  O53  1  0.65534100  0.25726000  0.07935300  1
  O  O54  1  0.47235700  0.61662200  0.92391800  1
  O  O55  1  0.34864100  0.91259800  0.91508500  1
  O  O56  1  0.80601800  0.98717200  0.00903600  1
  O  O57  1  0.81006700  0.99355700  0.83044300  1
  O  O58  1  0.20501200  0.98699800  0.66705200  1
  O  O59  1  0.65203100  0.08838200  0.58973700  1
  O  O60  1  0.54174300  0.38224700  0.57911400  1
  O  O61  1  0.34618900  0.73701800  0.41451200  1
  O  O62  1  0.47647400  0.33975900  0.92883400  1
  O  O63  1  0.38337800  0.52764300  0.07608200  1
  O  O64  1  0.22572500  0.76835900  0.17720600  1
  O  O65  1  0.23164100  0.77427500  0.82279400  1
  O  O66  1  0.20684200  0.79315800  0.00000000  1
  O  O67  1  0.26298200  0.65381100  0.58548800  1
  O  O68  1  0.49078200  0.18399100  0.42080700  1
  O  O69  1  0.53296500  0.08306900  0.07368000  1
  O  O70  1  0.33295100  0.48276200  0.43178800  1
  O  O71  1  0.33861100  0.35493500  0.28118500  1
  O  O72  1  0.32485200  0.35144300  0.78059900  1
  O  O73  1  0.18093300  0.48696300  0.92842600  1
  O  O74  1  0.37508400  0.08454100  0.57793100  1
  O  O75  1  0.33342200  0.18901500  0.92662900  1
  O  O76  1  0.08740200  0.65135900  0.08491500  1
  O  O77  1  0.99277600  0.80337800  0.51036600  1
  O  O78  1  0.01300200  0.79498800  0.33294800  1
  O  O79  1  0.08480900  0.53099100  0.58052400  1
  O  O80  1  0.19560500  0.32331800  0.42717100  1
  O  O81  1  0.07770200  0.37693400  0.07929400  1
  O  O82  1  0.26326200  0.08033400  0.08303800  1
  O  O83  1  0.22974800  0.97539700  0.31433800  1
  O  O84  1  0.19662200  0.00722400  0.48963400  1
  O  O85  1  0.07836800  0.25414600  0.58561600  1
  O  O86  1  0.97905900  0.23917600  0.81469200  1
  O  O87  1  0.01282800  0.19398200  0.99096400  1
