# generated using pymatgen
data_Li4MnNi5(PO4)6
_symmetry_space_group_name_H-M   'P 1'
_cell_length_a   8.33573000
_cell_length_b   8.40325983
_cell_length_c   8.40529104
_cell_angle_alpha   63.19001364
_cell_angle_beta   63.51304308
_cell_angle_gamma   63.42619754
_symmetry_Int_Tables_number   1
_chemical_formula_structural   Li4MnNi5(PO4)6
_chemical_formula_sum   'Li4 Mn1 Ni5 P6 O24'
_cell_volume   447.42975389
_cell_formula_units_Z   1
loop_
 _symmetry_equiv_pos_site_id
 _symmetry_equiv_pos_as_xyz
  1  'x, y, z'
loop_
 _atom_site_type_symbol
 _atom_site_label
 _atom_site_symmetry_multiplicity
 _atom_site_fract_x
 _atom_site_fract_y
 _atom_site_fract_z
 _atom_site_occupancy
  Li  Li0  1  0.24970300  0.64628700  0.85247700  1
  Li  Li1  1  0.72873700  0.35523800  0.14736500  1
  Li  Li2  1  0.35898900  0.14453900  0.72846800  1
  Li  Li3  1  0.14411100  0.72729600  0.35742700  1
  Mn  Mn4  1  0.14588400  0.14644300  0.14916300  1
  Ni  Ni5  1  0.98859200  0.99972000  0.99732800  1
  Ni  Ni6  1  0.64380200  0.64507900  0.64097300  1
  Ni  Ni7  1  0.50771800  0.49924900  0.49729600  1
  Ni  Ni8  1  0.85650400  0.85629100  0.85470800  1
  Ni  Ni9  1  0.35482800  0.35113300  0.35390700  1
  P  P10  1  0.94761400  0.55171600  0.25539400  1
  P  P11  1  0.55407000  0.25160900  0.94927100  1
  P  P12  1  0.25282300  0.94970300  0.55213500  1
  P  P13  1  0.75408200  0.04739000  0.45346700  1
  P  P14  1  0.44647300  0.75264700  0.04698500  1
  P  P15  1  0.05413300  0.45337300  0.75495100  1
  O  O16  1  0.52258500  0.32197100  0.10323800  1
  O  O17  1  0.32468100  0.10174900  0.52130500  1
  O  O18  1  0.10114100  0.51656200  0.33025700  1
  O  O19  1  0.94977900  0.73787500  0.08930500  1
  O  O20  1  0.98777900  0.38500800  0.18946900  1
  O  O21  1  0.75001400  0.56625100  0.40088700  1
  O  O22  1  0.74659600  0.09761700  0.93020100  1
  O  O23  1  0.54706800  0.41128800  0.75927900  1
  O  O24  1  0.82833600  0.01047400  0.60354400  1
  O  O25  1  0.39745900  0.74865900  0.56861300  1
  O  O26  1  0.91025000  0.06940600  0.24790000  1
  O  O27  1  0.60763500  0.81789000  0.99658900  1
  O  O28  1  0.38693300  0.18265200  0.99286000  1
  O  O29  1  0.10194100  0.92780800  0.74967900  1
  O  O30  1  0.60380500  0.24908900  0.42621100  1
  O  O31  1  0.18587800  0.98856300  0.38755300  1
  O  O32  1  0.42525000  0.60249800  0.24803400  1
  O  O33  1  0.24323400  0.91269800  0.07293000  1
  O  O34  1  0.25330800  0.42099400  0.60258700  1
  O  O35  1  0.03881900  0.60121000  0.82214200  1
  O  O36  1  0.06816200  0.24969700  0.91360300  1
  O  O37  1  0.88774900  0.49432000  0.69921400  1
  O  O38  1  0.68991100  0.89240800  0.48000300  1
  O  O39  1  0.45362700  0.69259700  0.89628500  1
