# generated using pymatgen
data_Li9Mn7O16
_symmetry_space_group_name_H-M   'P 1'
_cell_length_a   5.08649900
_cell_length_b   5.33388825
_cell_length_c   11.15333926
_cell_angle_alpha   87.07399855
_cell_angle_beta   80.55043538
_cell_angle_gamma   83.54358177
_symmetry_Int_Tables_number   1
_chemical_formula_structural   Li9Mn7O16
_chemical_formula_sum   'Li9 Mn7 O16'
_cell_volume   296.43601245
_cell_formula_units_Z   1
loop_
 _symmetry_equiv_pos_site_id
 _symmetry_equiv_pos_as_xyz
  1  'x, y, z'
loop_
 _atom_site_type_symbol
 _atom_site_label
 _atom_site_symmetry_multiplicity
 _atom_site_fract_x
 _atom_site_fract_y
 _atom_site_fract_z
 _atom_site_occupancy
  Li  Li0  1  0.31930400  0.24110400  0.68644300  1
  Li  Li1  1  0.42091000  0.75348500  0.55867600  1
  Li  Li2  1  0.18232400  0.75029300  0.81195000  1
  Li  Li3  1  0.06437500  0.25314200  0.93829500  1
  Li  Li4  1  0.93562500  0.74685800  0.06170500  1
  Li  Li5  1  0.81767600  0.24970700  0.18805000  1
  Li  Li6  1  0.68069600  0.75889600  0.31355700  1
  Li  Li7  1  0.57909000  0.24651500  0.44132400  1
  Li  Li8  1  0.00000000  0.50000000  0.50000000  1
  Mn  Mn9  1  0.87531600  0.99954600  0.62371500  1
  Mn  Mn10  1  0.12468400  0.00045400  0.37628500  1
  Mn  Mn11  1  0.24865200  0.49949500  0.25352900  1
  Mn  Mn12  1  0.37457000  0.99974100  0.12573400  1
  Mn  Mn13  1  0.50000000  0.50000000  0.00000000  1
  Mn  Mn14  1  0.62543000  0.00025900  0.87426600  1
  Mn  Mn15  1  0.75134800  0.50050500  0.74647100  1
  O  O16  1  0.54887900  0.89203200  0.71890800  1
  O  O17  1  0.68258800  0.34110000  0.60315600  1
  O  O18  1  0.41970800  0.39492500  0.84465500  1
  O  O19  1  0.29468100  0.89701200  0.97052300  1
  O  O20  1  0.17151100  0.39424900  0.09602600  1
  O  O21  1  0.04460300  0.89090900  0.22304500  1
  O  O22  1  0.94644400  0.33912300  0.34404000  1
  O  O23  1  0.79867000  0.89698700  0.47100100  1
  O  O24  1  0.05355600  0.66087700  0.65596000  1
  O  O25  1  0.20133000  0.10301300  0.52899900  1
  O  O26  1  0.95539700  0.10909100  0.77695500  1
  O  O27  1  0.82848900  0.60575100  0.90397400  1
  O  O28  1  0.70531900  0.10298800  0.02947700  1
  O  O29  1  0.58029200  0.60507500  0.15534500  1
  O  O30  1  0.45112100  0.10796800  0.28109200  1
  O  O31  1  0.31741200  0.65890000  0.39684400  1
