# generated using pymatgen
data_Li2CoPHO5
_symmetry_space_group_name_H-M   'P 1'
_cell_length_a   5.51139087
_cell_length_b   7.52037063
_cell_length_c   10.75145003
_cell_angle_alpha   109.88693968
_cell_angle_beta   94.00647809
_cell_angle_gamma   109.13493255
_symmetry_Int_Tables_number   1
_chemical_formula_structural   Li2CoPHO5
_chemical_formula_sum   'Li8 Co4 P4 H4 O20'
_cell_volume   387.55760081
_cell_formula_units_Z   4
loop_
 _symmetry_equiv_pos_site_id
 _symmetry_equiv_pos_as_xyz
  1  'x, y, z'
loop_
 _atom_site_type_symbol
 _atom_site_label
 _atom_site_symmetry_multiplicity
 _atom_site_fract_x
 _atom_site_fract_y
 _atom_site_fract_z
 _atom_site_occupancy
  Li  Li0  1  0.86687900  0.15888400  0.24144100  1
  Li  Li1  1  0.86736800  0.15881900  0.74152600  1
  Li  Li2  1  0.13263600  0.84118300  0.25847500  1
  Li  Li3  1  0.13311500  0.84111300  0.75855600  1
  Li  Li4  1  0.60685900  0.29842300  0.11380100  1
  Li  Li5  1  0.60691600  0.29806200  0.61371000  1
  Li  Li6  1  0.39308800  0.70194000  0.38629100  1
  Li  Li7  1  0.39313700  0.70157100  0.88619900  1
  Co  Co8  1  0.00000000  0.50000100  0.50000000  1
  Co  Co9  1  0.00000100  0.99999900  0.00000000  1
  Co  Co10  1  0.00000000  0.50000000  0.00000100  1
  Co  Co11  1  0.00000100  0.00000100  0.50000000  1
  P  P12  1  0.62291600  0.75675000  0.16452200  1
  P  P13  1  0.62321000  0.75660400  0.66450200  1
  P  P14  1  0.37679200  0.24339800  0.33549900  1
  P  P15  1  0.37708200  0.24324900  0.83547800  1
  H  H16  1  0.89766500  0.63149000  0.34800500  1
  H  H17  1  0.89780100  0.63137500  0.84785700  1
  H  H18  1  0.10219400  0.36862400  0.15214200  1
  H  H19  1  0.10233800  0.36851200  0.65199400  1
  O  O20  1  0.94462100  0.27431000  0.08261900  1
  O  O21  1  0.94464000  0.27417600  0.58256000  1
  O  O22  1  0.05536300  0.72582600  0.41743900  1
  O  O23  1  0.05537600  0.72568900  0.91737900  1
  O  O24  1  0.75081500  0.59327500  0.13223000  1
  O  O25  1  0.75096100  0.59304600  0.63214000  1
  O  O26  1  0.24904100  0.40695500  0.36786100  1
  O  O27  1  0.24918300  0.40672400  0.86777200  1
  O  O28  1  0.66968500  0.33575400  0.32541400  1
  O  O29  1  0.66997500  0.33567300  0.82546100  1
  O  O30  1  0.33002200  0.66432500  0.17454000  1
  O  O31  1  0.33031700  0.66424700  0.67458700  1
  O  O32  1  0.77375400  0.92505900  0.30551100  1
  O  O33  1  0.77424100  0.92493100  0.80545800  1
  O  O34  1  0.22576200  0.07507000  0.19454300  1
  O  O35  1  0.22624300  0.07494300  0.69448900  1
  O  O36  1  0.64780800  0.85712100  0.05933200  1
  O  O37  1  0.64802200  0.85696900  0.55930400  1
  O  O38  1  0.35198200  0.14303300  0.44069800  1
  O  O39  1  0.35218800  0.14287600  0.94066600  1
