# generated using pymatgen
data_Li7Mn2(CoO4)3
_symmetry_space_group_name_H-M   'P 1'
_cell_length_a   2.94629584
_cell_length_b   2.94629584
_cell_length_c   29.26865600
_cell_angle_alpha   90.00000000
_cell_angle_beta   90.00000000
_cell_angle_gamma   119.99999644
_symmetry_Int_Tables_number   1
_chemical_formula_structural   Li7Mn2(CoO4)3
_chemical_formula_sum   'Li7 Mn2 Co3 O12'
_cell_volume   220.03214532
_cell_formula_units_Z   1
loop_
 _symmetry_equiv_pos_site_id
 _symmetry_equiv_pos_as_xyz
  1  'x, y, z'
loop_
 _atom_site_type_symbol
 _atom_site_label
 _atom_site_symmetry_multiplicity
 _atom_site_fract_x
 _atom_site_fract_y
 _atom_site_fract_z
 _atom_site_occupancy
  Li  Li0  1  0.00000000  0.00000000  0.25402200  1
  Li  Li1  1  0.33333300  0.66666700  0.42056000  1
  Li  Li2  1  0.66666700  0.33333300  0.58112800  1
  Li  Li3  1  0.00000000  0.00000000  0.74821300  1
  Li  Li4  1  0.33333300  0.66666700  0.91293400  1
  Li  Li5  1  0.66666700  0.33333300  0.08340600  1
  Li  Li6  1  0.00000000  0.00000000  0.49986300  1
  Mn  Mn7  1  0.00000000  0.00000000  0.99967000  1
  Mn  Mn8  1  0.33333300  0.66666700  0.16717000  1
  Co  Co9  1  0.66666700  0.33333300  0.33354700  1
  Co  Co10  1  0.33333300  0.66666700  0.66670000  1
  Co  Co11  1  0.66666700  0.33333300  0.83292400  1
  O  O12  1  0.00000000  0.00000000  0.36735000  1
  O  O13  1  0.33333300  0.66666700  0.54177800  1
  O  O14  1  0.66666700  0.33333300  0.70624700  1
  O  O15  1  0.00000000  0.00000000  0.87067600  1
  O  O16  1  0.33333300  0.66666700  0.03869300  1
  O  O17  1  0.66666700  0.33333300  0.20486600  1
  O  O18  1  0.00000000  0.00000000  0.12799100  1
  O  O19  1  0.33333300  0.66666700  0.29571300  1
  O  O20  1  0.66666700  0.33333300  0.45757100  1
  O  O21  1  0.00000000  0.00000000  0.62959100  1
  O  O22  1  0.33333300  0.66666700  0.79765000  1
  O  O23  1  0.66666700  0.33333300  0.96173700  1
