# generated using pymatgen
data_Li6V3P8O29
_symmetry_space_group_name_H-M   'P 1'
_cell_length_a   9.75061700
_cell_length_b   9.80416230
_cell_length_c   13.99402197
_cell_angle_alpha   89.26191708
_cell_angle_beta   89.47463203
_cell_angle_gamma   60.50973899
_symmetry_Int_Tables_number   1
_chemical_formula_structural   Li6V3P8O29
_chemical_formula_sum   'Li12 V6 P16 O58'
_cell_volume   1164.35482311
_cell_formula_units_Z   2
loop_
 _symmetry_equiv_pos_site_id
 _symmetry_equiv_pos_as_xyz
  1  'x, y, z'
loop_
 _atom_site_type_symbol
 _atom_site_label
 _atom_site_symmetry_multiplicity
 _atom_site_fract_x
 _atom_site_fract_y
 _atom_site_fract_z
 _atom_site_occupancy
  Li  Li0  1  0.23124600  0.10028200  0.55383600  1
  Li  Li1  1  0.10159200  0.66104400  0.56060400  1
  Li  Li2  1  0.23800600  0.66316100  0.06468500  1
  Li  Li3  1  0.66292100  0.10131800  0.06437900  1
  Li  Li4  1  0.66826000  0.22991000  0.55464000  1
  Li  Li5  1  0.32144500  0.91154600  0.94053100  1
  Li  Li6  1  0.76354600  0.32464000  0.94001300  1
  Li  Li7  1  0.66378700  0.67906500  0.60846900  1
  Li  Li8  1  0.67483000  0.66889900  0.11168700  1
  Li  Li9  1  0.90974400  0.32287100  0.43079700  1
  Li  Li10  1  0.00353500  0.00130700  0.01306200  1
  Li  Li11  1  0.02388400  0.95301800  0.48828800  1
  V  V12  1  0.43708600  0.56323200  0.25458500  1
  V  V13  1  0.56251900  0.43490100  0.74778300  1
  V  V14  1  0.43348300  0.00411800  0.75178100  1
  V  V15  1  0.56409100  0.99710000  0.25433000  1
  V  V16  1  0.00628800  0.43749900  0.24404700  1
  V  V17  1  0.99825900  0.56568000  0.75511400  1
  P  P18  1  0.07915300  0.22241000  0.84045500  1
  P  P19  1  0.22030000  0.08645000  0.34062400  1
  P  P20  1  0.08513600  0.68706800  0.34661000  1
  P  P21  1  0.34078100  0.33110600  0.12956800  1
  P  P22  1  0.32972400  0.33485600  0.62968900  1
  P  P23  1  0.23003800  0.68459700  0.84483000  1
  P  P24  1  0.30983200  0.78099700  0.65971500  1
  P  P25  1  0.68888600  0.08415100  0.84696200  1
  P  P26  1  0.31181100  0.90864500  0.15647300  1
  P  P27  1  0.68645900  0.22363400  0.34123900  1
  P  P28  1  0.77577100  0.31929300  0.15777100  1
  P  P29  1  0.67038200  0.66091500  0.36894800  1
  P  P30  1  0.66350700  0.66534400  0.86962600  1
  P  P31  1  0.90974300  0.32133600  0.65360200  1
  P  P32  1  0.78245900  0.91278700  0.66203900  1
  P  P33  1  0.91346500  0.78669600  0.16144400  1
  O  O34  1  0.99651900  0.24477900  0.56283900  1
  O  O35  1  0.07925400  0.25426600  0.33296700  1
  O  O36  1  0.22480600  0.98972500  0.06653400  1
  O  O37  1  0.25009200  0.08216100  0.83900300  1
  O  O38  1  0.07599200  0.38060700  0.83549300  1
  O  O39  1  0.18988700  0.33538000  0.17330000  1
  O  O40  1  0.07780900  0.53491900  0.33255500  1
  O  O41  1  0.01285300  0.79546900  0.08153400  1
  O  O42  1  0.09033500  0.65715900  0.83752000  1
  O  O43  1  0.32293100  0.18942100  0.67222800  1
  O  O44  1  0.37776700  0.08695400  0.33189200  1
  O  O45  1  0.18412600  0.48494700  0.67285600  1
  O  O46  1  0.34896200  0.32903300  0.02328500  1
  O  O47  1  0.32674300  0.33669100  0.52320400  1
  O  O48  1  0.33993900  0.48075000  0.16951800  1
  O  O49  1  0.53109200  0.08393200  0.82896600  1
  O  O50  1  0.48602000  0.18116700  0.17333800  1
  O  O51  1  0.25335800  0.65618600  0.33500900  1
  O  O52  1  0.21679400  0.80096700  0.75890600  1
  O  O53  1  0.20529000  0.78849100  0.58001800  1
  O  O54  1  0.23427500  0.76273400  0.93606300  1
  O  O55  1  0.38565700  0.52898400  0.82714200  1
  O  O56  1  0.48464400  0.32845600  0.66803200  1
  O  O57  1  0.33646700  0.74090200  0.16020100  1
  O  O58  1  0.52819900  0.37585100  0.33021400  1
  O  O59  1  0.66391800  0.08102100  0.33824100  1
  O  O60  1  0.20610800  0.99614300  0.24867200  1
  O  O61  1  0.20479800  0.01118600  0.43164300  1
  O  O62  1  0.79066300  0.01063100  0.58178500  1
  O  O63  1  0.34008400  0.92297800  0.65730900  1
  O  O64  1  0.47377000  0.63081300  0.66754200  1
  O  O65  1  0.66401400  0.25194000  0.83470400  1
  O  O66  1  0.52040900  0.66324500  0.32740600  1
  O  O67  1  0.62403400  0.48015600  0.16773700  1
  O  O68  1  0.77290200  0.22938000  0.07074200  1
  O  O69  1  0.77455000  0.22477000  0.42989600  1
  O  O70  1  0.79562500  0.21132900  0.24982900  1
  O  O71  1  0.74138400  0.34139900  0.65510000  1
  O  O72  1  0.50916400  0.81216700  0.83254400  1
  O  O73  1  0.47558000  0.89804500  0.16736300  1
  O  O74  1  0.67182100  0.51182300  0.82973600  1
  O  O75  1  0.66413900  0.65999900  0.97682600  1
  O  O76  1  0.67187000  0.65953100  0.47588900  1
  O  O77  1  0.81530400  0.51188700  0.32821300  1
  O  O78  1  0.62821300  0.90222300  0.67011500  1
  O  O79  1  0.66823800  0.80929000  0.32378000  1
  O  O80  1  0.91511500  0.34950500  0.15575700  1
  O  O81  1  0.00428800  0.20622300  0.74016000  1
  O  O82  1  0.98726800  0.20196800  0.92030200  1
  O  O83  1  0.89184000  0.48521900  0.67007000  1
  O  O84  1  0.80714500  0.67231400  0.82443500  1
  O  O85  1  0.90186700  0.63323600  0.16669500  1
  O  O86  1  0.74340600  0.92444900  0.15753000  1
  O  O87  1  0.76271400  0.01604200  0.94128400  1
  O  O88  1  0.80301000  0.98292500  0.76198800  1
  O  O89  1  0.92184200  0.74330500  0.65960500  1
  O  O90  1  0.01403300  0.76763900  0.43935800  1
  O  O91  1  0.98349900  0.80461000  0.26101300  1
