# generated using pymatgen
data_LiGaO10
_symmetry_space_group_name_H-M   'P 1'
_cell_length_a   5.75527574
_cell_length_b   5.75527574
_cell_length_c   23.61801949
_cell_angle_alpha   86.27082966
_cell_angle_beta   86.27082966
_cell_angle_gamma   62.42636865
_symmetry_Int_Tables_number   1
_chemical_formula_structural   LiGaO10
_chemical_formula_sum   'Li4 Ga4 O40'
_cell_volume   691.43949165
_cell_formula_units_Z   4
loop_
 _symmetry_equiv_pos_site_id
 _symmetry_equiv_pos_as_xyz
  1  'x, y, z'
loop_
 _atom_site_type_symbol
 _atom_site_label
 _atom_site_symmetry_multiplicity
 _atom_site_fract_x
 _atom_site_fract_y
 _atom_site_fract_z
 _atom_site_occupancy
  Li  Li0  1  0.35142400  0.26828400  0.38535700  1
  Li  Li1  1  0.26828400  0.35142400  0.88535700  1
  Li  Li2  1  0.37883100  0.39113500  0.62306500  1
  Li  Li3  1  0.39113500  0.37883100  0.12306500  1
  Ga  Ga4  1  0.98582700  0.10470800  0.46038500  1
  Ga  Ga5  1  0.10470800  0.98582700  0.96038500  1
  Ga  Ga6  1  0.94382300  0.96417800  0.20672800  1
  Ga  Ga7  1  0.96417800  0.94382300  0.70672800  1
  O  O8  1  0.60755700  0.68329100  0.56635800  1
  O  O9  1  0.68329100  0.60755700  0.06635800  1
  O  O10  1  0.73059000  0.63223700  0.52032600  1
  O  O11  1  0.63223700  0.73059000  0.02032600  1
  O  O12  1  0.95635100  0.95132400  0.58984300  1
  O  O13  1  0.95132400  0.95635100  0.08984300  1
  O  O14  1  0.01143700  0.28442000  0.20021400  1
  O  O15  1  0.54499000  0.15761700  0.23129100  1
  O  O16  1  0.20234400  0.70469200  0.23817600  1
  O  O17  1  0.28442000  0.01143700  0.70021400  1
  O  O18  1  0.15761700  0.54499000  0.73129100  1
  O  O19  1  0.70469200  0.20234400  0.73817600  1
  O  O20  1  0.31767600  0.11798800  0.46457800  1
  O  O21  1  0.60917500  0.28838300  0.48157500  1
  O  O22  1  0.09226900  0.72718500  0.45561300  1
  O  O23  1  0.11798800  0.31767600  0.96457800  1
  O  O24  1  0.28838300  0.60917500  0.98157500  1
  O  O25  1  0.72718500  0.09226900  0.95561300  1
  O  O26  1  0.45326400  0.18577100  0.50981600  1
  O  O27  1  0.18577100  0.45326400  0.00981600  1
  O  O28  1  0.30522700  0.09390900  0.64827500  1
  O  O29  1  0.77167800  0.17289400  0.60854700  1
  O  O30  1  0.05766800  0.75021200  0.63672300  1
  O  O31  1  0.09390900  0.30522700  0.14827500  1
  O  O32  1  0.17289400  0.77167800  0.10854700  1
  O  O33  1  0.75021200  0.05766800  0.13672300  1
  O  O34  1  0.68746300  0.62704500  0.28759900  1
  O  O35  1  0.62704500  0.68746300  0.78759900  1
  O  O36  1  0.94894000  0.08742000  0.34193000  1
  O  O37  1  0.08742000  0.94894000  0.84193000  1
  O  O38  1  0.01877000  0.23003400  0.38522800  1
  O  O39  1  0.75280000  0.04910500  0.35886400  1
  O  O40  1  0.22782800  0.64550500  0.40737600  1
  O  O41  1  0.23003400  0.01877000  0.88522800  1
  O  O42  1  0.04910500  0.75280000  0.85886400  1
  O  O43  1  0.64550500  0.22782800  0.90737600  1
  O  O44  1  0.60645300  0.67762700  0.33713800  1
  O  O45  1  0.67762700  0.60645300  0.83713800  1
  O  O46  1  0.41652000  0.22613300  0.27809400  1
  O  O47  1  0.22613300  0.41652000  0.77809400  1
