# generated using pymatgen
data_Li9Mn2Co5O16
_symmetry_space_group_name_H-M   'P 1'
_cell_length_a   2.99517689
_cell_length_b   2.99517689
_cell_length_c   39.25738735
_cell_angle_alpha   89.69878474
_cell_angle_beta   89.69878474
_cell_angle_gamma   56.68535519
_symmetry_Int_Tables_number   1
_chemical_formula_structural   Li9Mn2Co5O16
_chemical_formula_sum   'Li9 Mn2 Co5 O16'
_cell_volume   294.30107771
_cell_formula_units_Z   1
loop_
 _symmetry_equiv_pos_site_id
 _symmetry_equiv_pos_as_xyz
  1  'x, y, z'
loop_
 _atom_site_type_symbol
 _atom_site_label
 _atom_site_symmetry_multiplicity
 _atom_site_fract_x
 _atom_site_fract_y
 _atom_site_fract_z
 _atom_site_occupancy
  Li  Li0  1  0.81524100  0.81524100  0.93851700  1
  Li  Li1  1  0.18475900  0.18475900  0.06148300  1
  Li  Li2  1  0.56496000  0.56496000  0.18937500  1
  Li  Li3  1  0.93920700  0.93920700  0.31271500  1
  Li  Li4  1  0.32147500  0.32147500  0.43822500  1
  Li  Li5  1  0.67852500  0.67852500  0.56177500  1
  Li  Li6  1  0.06079300  0.06079300  0.68728500  1
  Li  Li7  1  0.43504000  0.43504000  0.81062500  1
  Li  Li8  1  0.00000000  0.00000000  0.50000000  1
  Mn  Mn9  1  0.12469000  0.12469000  0.87491000  1
  Mn  Mn10  1  0.87531000  0.87531000  0.12509000  1
  Co  Co11  1  0.50000000  0.50000000  0.00000000  1
  Co  Co12  1  0.25172700  0.25172700  0.25023800  1
  Co  Co13  1  0.62888600  0.62888600  0.37432700  1
  Co  Co14  1  0.37111400  0.37111400  0.62567300  1
  Co  Co15  1  0.74827300  0.74827300  0.74976200  1
  O  O16  1  0.49259200  0.49259200  0.90432100  1
  O  O17  1  0.86169900  0.86169900  0.02770400  1
  O  O18  1  0.24185100  0.24185100  0.15426700  1
  O  O19  1  0.61026900  0.61026900  0.27738300  1
  O  O20  1  0.96103800  0.96103800  0.40171000  1
  O  O21  1  0.34499000  0.34499000  0.53204100  1
  O  O22  1  0.71563000  0.71563000  0.65513500  1
  O  O23  1  0.11173700  0.11173700  0.77764500  1
  O  O24  1  0.13830100  0.13830100  0.97229600  1
  O  O25  1  0.50740800  0.50740800  0.09567900  1
  O  O26  1  0.88826300  0.88826300  0.22235500  1
  O  O27  1  0.28437000  0.28437000  0.34486500  1
  O  O28  1  0.65501000  0.65501000  0.46795900  1
  O  O29  1  0.03896200  0.03896200  0.59829000  1
  O  O30  1  0.38973100  0.38973100  0.72261700  1
  O  O31  1  0.75814900  0.75814900  0.84573300  1
