# generated using pymatgen
data_Li7Mn4(P2O7)4
_symmetry_space_group_name_H-M   'P 1'
_cell_length_a   9.90622000
_cell_length_b   9.88335000
_cell_length_c   11.38481111
_cell_angle_alpha   77.00167483
_cell_angle_beta   90.00000000
_cell_angle_gamma   90.00000000
_symmetry_Int_Tables_number   1
_chemical_formula_structural   Li7Mn4(P2O7)4
_chemical_formula_sum   'Li14 Mn8 P16 O56'
_cell_volume   1086.08755450
_cell_formula_units_Z   2
loop_
 _symmetry_equiv_pos_site_id
 _symmetry_equiv_pos_as_xyz
  1  'x, y, z'
loop_
 _atom_site_type_symbol
 _atom_site_label
 _atom_site_symmetry_multiplicity
 _atom_site_fract_x
 _atom_site_fract_y
 _atom_site_fract_z
 _atom_site_occupancy
  Li  Li0  1  0.57913400  0.07342600  0.55114800  1
  Li  Li1  1  0.89247800  0.16343700  0.02966200  1
  Li  Li2  1  0.09290000  0.90654600  0.95840300  1
  Li  Li3  1  0.59290000  0.09345400  0.04159700  1
  Li  Li4  1  0.39247800  0.83656300  0.97033800  1
  Li  Li5  1  0.07913400  0.92657400  0.44885200  1
  Li  Li6  1  0.21919800  0.63789500  0.44933700  1
  Li  Li7  1  0.92128900  0.58798300  0.53982900  1
  Li  Li8  1  0.60646800  0.66404900  0.02909700  1
  Li  Li9  1  0.41129000  0.40217000  0.95747300  1
  Li  Li10  1  0.91129000  0.59783000  0.04252700  1
  Li  Li11  1  0.10646800  0.33595100  0.97090300  1
  Li  Li12  1  0.42128900  0.41201700  0.46017100  1
  Li  Li13  1  0.71919800  0.36210500  0.55066300  1
  Mn  Mn14  1  0.07636400  0.04924100  0.66682100  1
  Mn  Mn15  1  0.78576100  0.99334900  0.82100400  1
  Mn  Mn16  1  0.28576100  0.00665100  0.17899600  1
  Mn  Mn17  1  0.57636400  0.95075900  0.33317900  1
  Mn  Mn18  1  0.41994100  0.54960200  0.67640600  1
  Mn  Mn19  1  0.71595500  0.50196300  0.82033200  1
  Mn  Mn20  1  0.21595500  0.49803700  0.17966800  1
  Mn  Mn21  1  0.91994100  0.45039800  0.32359400  1
  P  P22  1  0.54804700  0.22468000  0.76187500  1
  P  P23  1  0.29613300  0.13142200  0.89016900  1
  P  P24  1  0.06626900  0.18730400  0.24398000  1
  P  P25  1  0.84639200  0.12580300  0.42426400  1
  P  P26  1  0.34639200  0.87419700  0.57573600  1
  P  P27  1  0.56626900  0.81269600  0.75602000  1
  P  P28  1  0.95930600  0.72930800  0.75359100  1
  P  P29  1  0.79613300  0.86857800  0.10983100  1
  P  P30  1  0.20485400  0.63133500  0.89395100  1
  P  P31  1  0.04804700  0.77532000  0.23812500  1
  P  P32  1  0.43335900  0.68926400  0.24356700  1
  P  P33  1  0.64730200  0.62857500  0.42114500  1
  P  P34  1  0.14730200  0.37142500  0.57885500  1
  P  P35  1  0.93335900  0.31073600  0.75643300  1
  P  P36  1  0.70485400  0.36866500  0.10604900  1
  P  P37  1  0.45930600  0.27069200  0.24640900  1
  O  O38  1  0.58678100  0.22776600  0.63242200  1
  O  O39  1  0.15171800  0.21913500  0.56892900  1
  O  O40  1  0.92248200  0.16300800  0.72928200  1
  O  O41  1  0.63911800  0.13497400  0.85805600  1
  O  O42  1  0.40037200  0.15323500  0.77730300  1
  O  O43  1  0.17183600  0.06705000  0.84383800  1
  O  O44  1  0.36497100  0.02809600  0.99781600  1
  O  O45  1  0.72295000  0.22998700  0.07353200  1
  O  O46  1  0.91568200  0.13742500  0.29320700  1
  O  O47  1  0.06147200  0.19058800  0.11003400  1
  O  O48  1  0.47632600  0.11657700  0.22627500  1
  O  O49  1  0.70394700  0.06654000  0.41125100  1
  O  O50  1  0.16598400  0.07671100  0.30869700  1
  O  O51  1  0.93840700  0.03328100  0.51543700  1
  O  O52  1  0.43840700  0.96671900  0.48456300  1
  O  O53  1  0.66598400  0.92328900  0.69130300  1
  O  O54  1  0.20394700  0.93346000  0.58874900  1
  O  O55  1  0.97632600  0.88342300  0.77372500  1
  O  O56  1  0.41568200  0.86257500  0.70679300  1
  O  O57  1  0.56147200  0.80941200  0.88996600  1
  O  O58  1  0.22295000  0.77001300  0.92646800  1
  O  O59  1  0.86497100  0.97190400  0.00218400  1
  O  O60  1  0.67183600  0.93295000  0.15616200  1
  O  O61  1  0.90037200  0.84676500  0.22269700  1
  O  O62  1  0.42248200  0.83699200  0.27071800  1
  O  O63  1  0.13911800  0.86502600  0.14194400  1
  O  O64  1  0.92355500  0.72460100  0.62730500  1
  O  O65  1  0.65171800  0.78086500  0.43107100  1
  O  O66  1  0.33204900  0.72570600  0.55647800  1
  O  O67  1  0.08678100  0.77223400  0.36757800  1
  O  O68  1  0.86527000  0.65119300  0.85425200  1
  O  O69  1  0.58790700  0.66771600  0.72759200  1
  O  O70  1  0.10512600  0.65528300  0.77808800  1
  O  O71  1  0.33080100  0.56741400  0.85076800  1
  O  O72  1  0.13371800  0.52576200  0.99871600  1
  O  O73  1  0.77538900  0.72880300  0.07897800  1
  O  O74  1  0.43188200  0.68748700  0.11151900  1
  O  O75  1  0.57954500  0.62827300  0.29143300  1
  O  O76  1  0.03406700  0.62675000  0.21279200  1
  O  O77  1  0.78893300  0.56836000  0.41704300  1
  O  O78  1  0.32605900  0.58878100  0.31361700  1
  O  O79  1  0.56254600  0.52967100  0.51598500  1
  O  O80  1  0.06254600  0.47032900  0.48401500  1
  O  O81  1  0.82605900  0.41121900  0.68638300  1
  O  O82  1  0.28893300  0.43164000  0.58295700  1
  O  O83  1  0.53406700  0.37325000  0.78720800  1
  O  O84  1  0.93188200  0.31251300  0.88848100  1
  O  O85  1  0.07954500  0.37172700  0.70856700  1
  O  O86  1  0.27538900  0.27119700  0.92102200  1
  O  O87  1  0.63371800  0.47423800  0.00128400  1
  O  O88  1  0.83080100  0.43258600  0.14923200  1
  O  O89  1  0.60512600  0.34471700  0.22191200  1
  O  O90  1  0.36527000  0.34880700  0.14574800  1
  O  O91  1  0.08790700  0.33228400  0.27240800  1
  O  O92  1  0.83204900  0.27429400  0.44352200  1
  O  O93  1  0.42355500  0.27539900  0.37269500  1
