# generated using pymatgen
data_LiY2Tc
_symmetry_space_group_name_H-M   'P 1'
_cell_length_a   11.71363864
_cell_length_b   11.71363864
_cell_length_c   11.71363864
_cell_angle_alpha   122.96346575
_cell_angle_beta   118.88163463
_cell_angle_gamma   88.44675653
_symmetry_Int_Tables_number   1
_chemical_formula_structural   LiY2Tc
_chemical_formula_sum   'Li1 Y2 Tc1'
_cell_volume   1118.34405410
_cell_formula_units_Z   1
loop_
 _symmetry_equiv_pos_site_id
 _symmetry_equiv_pos_as_xyz
  1  'x, y, z'
loop_
 _atom_site_type_symbol
 _atom_site_label
 _atom_site_symmetry_multiplicity
 _atom_site_fract_x
 _atom_site_fract_y
 _atom_site_fract_z
 _atom_site_occupancy
  Li  Li0  1  0.00000000  0.00000000  0.00000000  1
  Y  Y1  1  0.00000000  0.29689600  0.29689600  1
  Y  Y2  1  0.00000000  0.70310400  0.70310400  1
  Tc  Tc3  1  0.00000000  0.50000000  0.50000000  1
