# generated using pymatgen
data_Li4CrFe3Cu2(PO4)6
_symmetry_space_group_name_H-M   'P 1'
_cell_length_a   8.58742400
_cell_length_b   8.65575937
_cell_length_c   8.66300790
_cell_angle_alpha   61.26686503
_cell_angle_beta   61.34677604
_cell_angle_gamma   61.37858266
_symmetry_Int_Tables_number   1
_chemical_formula_structural   Li4CrFe3Cu2(PO4)6
_chemical_formula_sum   'Li4 Cr1 Fe3 Cu2 P6 O24'
_cell_volume   468.94180451
_cell_formula_units_Z   1
loop_
 _symmetry_equiv_pos_site_id
 _symmetry_equiv_pos_as_xyz
  1  'x, y, z'
loop_
 _atom_site_type_symbol
 _atom_site_label
 _atom_site_symmetry_multiplicity
 _atom_site_fract_x
 _atom_site_fract_y
 _atom_site_fract_z
 _atom_site_occupancy
  Li  Li0  1  0.74983900  0.15121700  0.34932100  1
  Li  Li1  1  0.25054400  0.84436000  0.65211500  1
  Li  Li2  1  0.65199800  0.25040400  0.84546700  1
  Li  Li3  1  0.84418200  0.65102700  0.25100500  1
  Cr  Cr4  1  0.85509100  0.85180200  0.85627300  1
  Fe  Fe5  1  0.14642600  0.14243300  0.13821100  1
  Fe  Fe6  1  0.35282400  0.36127000  0.35654000  1
  Fe  Fe7  1  0.64766500  0.64582900  0.65133000  1
  Cu  Cu8  1  0.02097200  0.00182300  0.99154800  1
  Cu  Cu9  1  0.48018600  0.50997700  0.49900400  1
  P  P10  1  0.04756500  0.74914100  0.45622500  1
  P  P11  1  0.45429300  0.04582400  0.74957100  1
  P  P12  1  0.74954400  0.45404700  0.04792300  1
  P  P13  1  0.24942000  0.53943500  0.95967300  1
  P  P14  1  0.54477500  0.96005600  0.25109000  1
  P  P15  1  0.95433300  0.24746100  0.53914400  1
  O  O16  1  0.12364100  0.29364200  0.49710900  1
  O  O17  1  0.30402700  0.50664300  0.11848000  1
  O  O18  1  0.04511600  0.92104300  0.27615600  1
  O  O19  1  0.52944600  0.11649500  0.29959200  1
  O  O20  1  0.01870100  0.80049700  0.61859500  1
  O  O21  1  0.23827400  0.59146300  0.43063400  1
  O  O22  1  0.26383100  0.06855200  0.90797500  1
  O  O23  1  0.45355600  0.22603500  0.57779400  1
  O  O24  1  0.19330700  0.38136800  0.99339200  1
  O  O25  1  0.59229000  0.42806100  0.24030700  1
  O  O26  1  0.08795600  0.73374900  0.93521000  1
  O  O27  1  0.37599900  0.00284900  0.20412200  1
  O  O28  1  0.61502500  0.01293700  0.80787100  1
  O  O29  1  0.90687900  0.26146200  0.07169000  1
  O  O30  1  0.41097100  0.56425100  0.76656400  1
  O  O31  1  0.80468900  0.61362400  0.01860700  1
  O  O32  1  0.56592400  0.76718700  0.41248200  1
  O  O33  1  0.73610100  0.93033600  0.08766100  1
  O  O34  1  0.76390600  0.41003900  0.57037100  1
  O  O35  1  0.97027500  0.19839900  0.38311400  1
  O  O36  1  0.48605700  0.88310800  0.69686100  1
  O  O37  1  0.93451200  0.08519400  0.73254200  1
  O  O38  1  0.69263100  0.48570300  0.88889500  1
  O  O39  1  0.88722700  0.68825400  0.49253400  1
