# generated using pymatgen
data_LiMgAg2
_symmetry_space_group_name_H-M   'P 1'
_cell_length_a   11.29413067
_cell_length_b   11.29413067
_cell_length_c   11.29413067
_cell_angle_alpha   124.29866967
_cell_angle_beta   118.62442914
_cell_angle_gamma   87.56000779
_symmetry_Int_Tables_number   1
_chemical_formula_structural   LiMgAg2
_chemical_formula_sum   'Li1 Mg1 Ag2'
_cell_volume   991.98854470
_cell_formula_units_Z   1
loop_
 _symmetry_equiv_pos_site_id
 _symmetry_equiv_pos_as_xyz
  1  'x, y, z'
loop_
 _atom_site_type_symbol
 _atom_site_label
 _atom_site_symmetry_multiplicity
 _atom_site_fract_x
 _atom_site_fract_y
 _atom_site_fract_z
 _atom_site_occupancy
  Li  Li0  1  0.00000000  0.00000000  0.00000000  1
  Mg  Mg1  1  0.00000000  0.50000000  0.50000000  1
  Ag  Ag2  1  0.00000000  0.25097600  0.25097600  1
  Ag  Ag3  1  0.00000000  0.74902400  0.74902400  1
