# generated using pymatgen
data_LiSNO4
_symmetry_space_group_name_H-M   'P 1'
_cell_length_a   5.44414300
_cell_length_b   8.84701200
_cell_length_c   9.23071471
_cell_angle_alpha   89.74459646
_cell_angle_beta   90.00000000
_cell_angle_gamma   90.00000000
_symmetry_Int_Tables_number   1
_chemical_formula_structural   LiSNO4
_chemical_formula_sum   'Li4 S4 N4 O16'
_cell_volume   444.58740412
_cell_formula_units_Z   4
loop_
 _symmetry_equiv_pos_site_id
 _symmetry_equiv_pos_as_xyz
  1  'x, y, z'
loop_
 _atom_site_type_symbol
 _atom_site_label
 _atom_site_symmetry_multiplicity
 _atom_site_fract_x
 _atom_site_fract_y
 _atom_site_fract_z
 _atom_site_occupancy
  Li  Li0  1  0.22068800  0.68077900  0.41633300  1
  Li  Li1  1  0.72068800  0.31922100  0.58366700  1
  Li  Li2  1  0.25749100  0.17768500  0.08800000  1
  Li  Li3  1  0.75749100  0.82231500  0.91200000  1
  S  S4  1  0.25238900  0.79780600  0.08979400  1
  S  S5  1  0.75238900  0.20219400  0.91020600  1
  S  S6  1  0.22830300  0.29781000  0.42406500  1
  S  S7  1  0.72830300  0.70219000  0.57593500  1
  N  N8  1  0.71988300  0.49573200  0.21708100  1
  N  N9  1  0.21988300  0.50426800  0.78291900  1
  N  N10  1  0.76038100  0.00420200  0.29621500  1
  N  N11  1  0.26038100  0.99579800  0.70378500  1
  O  O12  1  0.23500600  0.96081300  0.12983400  1
  O  O13  1  0.73500600  0.03918700  0.87016600  1
  O  O14  1  0.16251500  0.70197000  0.20932300  1
  O  O15  1  0.66251500  0.29803000  0.79067700  1
  O  O16  1  0.09980000  0.77568700  0.95825300  1
  O  O17  1  0.59980000  0.22431300  0.04174700  1
  O  O18  1  0.51381800  0.76301600  0.05963200  1
  O  O19  1  0.01381800  0.23698400  0.94036800  1
  O  O20  1  0.23850600  0.46318000  0.44292500  1
  O  O21  1  0.73850600  0.53682000  0.55707500  1
  O  O22  1  0.15568200  0.26792600  0.27144300  1
  O  O23  1  0.65568200  0.73207400  0.72855700  1
  O  O24  1  0.03145400  0.22943700  0.51535400  1
  O  O25  1  0.53145400  0.77056300  0.48464600  1
  O  O26  1  0.46688300  0.22789700  0.46037400  1
  O  O27  1  0.96688300  0.77210300  0.53962600  1
