# generated using pymatgen
data_LiVSi4(HO6)2
_symmetry_space_group_name_H-M   'P 1'
_cell_length_a   7.35544879
_cell_length_b   8.15104423
_cell_length_c   9.30283023
_cell_angle_alpha   62.43481424
_cell_angle_beta   88.92819502
_cell_angle_gamma   88.59847847
_symmetry_Int_Tables_number   1
_chemical_formula_structural   LiVSi4(HO6)2
_chemical_formula_sum   'Li2 V2 Si8 H4 O24'
_cell_volume   494.26953807
_cell_formula_units_Z   2
loop_
 _symmetry_equiv_pos_site_id
 _symmetry_equiv_pos_as_xyz
  1  'x, y, z'
loop_
 _atom_site_type_symbol
 _atom_site_label
 _atom_site_symmetry_multiplicity
 _atom_site_fract_x
 _atom_site_fract_y
 _atom_site_fract_z
 _atom_site_occupancy
  Li  Li0  1  0.37204696  0.39422719  0.81827093  1
  Li  Li1  1  0.62795304  0.60577281  0.18172907  1
  V  V2  1  0.00000000  0.50000000  0.00000000  1
  V  V3  1  0.50000000  -0.00000000  0.00000000  1
  Si  Si4  1  0.12457226  0.05410482  0.17679312  1
  Si  Si5  1  0.25003601  0.29280688  0.31264026  1
  Si  Si6  1  0.24724309  0.10990765  0.68455990  1
  Si  Si7  1  0.38945028  0.72499876  0.84236172  1
  Si  Si8  1  0.61054972  0.27500124  0.15763828  1
  Si  Si9  1  0.75275691  0.89009235  0.31544010  1
  Si  Si10  1  0.74996399  0.70719312  0.68735974  1
  Si  Si11  1  0.87542774  0.94589518  0.82320688  1
  H  H12  1  0.10570504  0.55904153  0.65623437  1
  H  H13  1  0.21852560  0.51166148  0.53286557  1
  H  H14  1  0.78147440  0.48833852  0.46713443  1
  H  H15  1  0.89429496  0.44095847  0.34376563  1
  O  O16  1  0.08775834  0.43955218  0.21296215  1
  O  O17  1  0.03691947  0.09655078  0.74693934  1
  O  O18  1  0.21311120  0.09117910  0.32054681  1
  O  O19  1  0.04891838  0.25722543  0.03859178  1
  O  O20  1  0.22958715  0.54248752  0.62164945  1
  O  O21  1  0.25609290  0.27316373  0.49594349  1
  O  O22  1  0.27670116  0.96349029  0.10445440  1
  O  O23  1  0.24099423  0.56050207  0.91514098  1
  O  O24  1  0.30954446  0.91279577  0.69083170  1
  O  O25  1  0.44986393  0.36641885  0.22671191  1
  O  O26  1  0.38290205  0.15609422  0.79752853  1
  O  O27  1  0.52958632  0.21872854  0.02354257  1
  O  O28  1  0.47041368  0.78127146  0.97645743  1
  O  O29  1  0.61709795  0.84390578  0.20247147  1
  O  O30  1  0.55013607  0.63358115  0.77328809  1
  O  O31  1  0.69045554  0.08720423  0.30916830  1
  O  O32  1  0.75900577  0.43949793  0.08485902  1
  O  O33  1  0.72329884  0.03650971  0.89554560  1
  O  O34  1  0.74390710  0.72683627  0.50405651  1
  O  O35  1  0.77041285  0.45751248  0.37835055  1
  O  O36  1  0.95108162  0.74277457  0.96140822  1
  O  O37  1  0.78688980  0.90882090  0.67945319  1
  O  O38  1  0.96308053  0.90344922  0.25306066  1
  O  O39  1  0.91224166  0.56044782  0.78703785  1
