# generated using pymatgen
data_Li4Cr3CoO8
_symmetry_space_group_name_H-M   'P 1'
_cell_length_a   5.93636966
_cell_length_b   8.85452119
_cell_length_c   6.62665069
_cell_angle_alpha   81.25657976
_cell_angle_beta   116.11647213
_cell_angle_gamma   109.68067628
_symmetry_Int_Tables_number   1
_chemical_formula_structural   Li4Cr3CoO8
_chemical_formula_sum   'Li8 Cr6 Co2 O16'
_cell_volume   294.48517489
_cell_formula_units_Z   2
loop_
 _symmetry_equiv_pos_site_id
 _symmetry_equiv_pos_as_xyz
  1  'x, y, z'
loop_
 _atom_site_type_symbol
 _atom_site_label
 _atom_site_symmetry_multiplicity
 _atom_site_fract_x
 _atom_site_fract_y
 _atom_site_fract_z
 _atom_site_occupancy
  Li  Li0  1  0.99983500  0.99816900  0.99981500  1
  Li  Li1  1  0.00013300  0.50186400  0.50017000  1
  Li  Li2  1  0.50276200  0.00139600  0.99922500  1
  Li  Li3  1  0.49712500  0.49867500  0.50076400  1
  Li  Li4  1  0.25018100  0.24451500  0.75501900  1
  Li  Li5  1  0.24129000  0.74574000  0.25912300  1
  Li  Li6  1  0.75864200  0.75425600  0.24093300  1
  Li  Li7  1  0.74974700  0.25545900  0.74501300  1
  Cr  Cr8  1  0.00006200  0.25015600  0.24991500  1
  Cr  Cr9  1  0.99997300  0.75011800  0.74994400  1
  Cr  Cr10  1  0.75339900  0.50131600  0.00010000  1
  Cr  Cr11  1  0.74853900  0.99977700  0.50214200  1
  Cr  Cr12  1  0.25123400  0.50010200  0.99774000  1
  Cr  Cr13  1  0.24668500  0.99860000  0.50002000  1
  Co  Co14  1  0.50010200  0.75003100  0.75003200  1
  Co  Co15  1  0.49997400  0.24998400  0.25001900  1
  O  O16  1  0.39391400  0.51479100  0.76634100  1
  O  O17  1  0.38994700  0.01150300  0.26670200  1
  O  O18  1  0.61008200  0.48848300  0.23327600  1
  O  O19  1  0.60606600  0.98519900  0.73355400  1
  O  O20  1  0.11392100  0.49251500  0.23249300  1
  O  O21  1  0.10934500  0.99182800  0.73275200  1
  O  O22  1  0.89066800  0.50806200  0.76723600  1
  O  O23  1  0.88602900  0.00743700  0.26741400  1
  O  O24  1  0.63961400  0.25808200  0.01324800  1
  O  O25  1  0.63120000  0.75681300  0.52538200  1
  O  O26  1  0.13409200  0.25768000  0.01306000  1
  O  O27  1  0.11988500  0.75769100  0.50663000  1
  O  O28  1  0.88020300  0.74231600  0.99333900  1
  O  O29  1  0.86586500  0.24232200  0.48702200  1
  O  O30  1  0.36902700  0.74319500  0.97473200  1
  O  O31  1  0.36045600  0.24192400  0.48684800  1
