# generated using pymatgen
data_Li5Mn2CoO8
_symmetry_space_group_name_H-M   'P 1'
_cell_length_a   4.96856396
_cell_length_b   5.81896542
_cell_length_c   5.88526739
_cell_angle_alpha   60.00454530
_cell_angle_beta   74.38633384
_cell_angle_gamma   73.39405421
_symmetry_Int_Tables_number   1
_chemical_formula_structural   Li5Mn2CoO8
_chemical_formula_sum   'Li5 Mn2 Co1 O8'
_cell_volume   139.57439196
_cell_formula_units_Z   1
loop_
 _symmetry_equiv_pos_site_id
 _symmetry_equiv_pos_as_xyz
  1  'x, y, z'
loop_
 _atom_site_type_symbol
 _atom_site_label
 _atom_site_symmetry_multiplicity
 _atom_site_fract_x
 _atom_site_fract_y
 _atom_site_fract_z
 _atom_site_occupancy
  Li  Li0  1  0.49695699  0.25273567  0.25000192  1
  Li  Li1  1  -0.00007803  0.50516719  0.99404549  1
  Li  Li2  1  0.00358686  0.99414894  0.50223929  1
  Li  Li3  1  0.50259524  0.74586695  0.75120468  1
  Li  Li4  1  0.99959279  0.50232377  0.50039769  1
  Mn  Mn5  1  0.00062447  0.99893876  0.99811444  1
  Mn  Mn6  1  0.49911962  0.25929295  0.74119998  1
  Co  Co7  1  0.49260667  0.74473615  0.25815874  1
  O  O8  1  0.74871826  0.34822017  0.87764480  1
  O  O9  1  0.26883968  0.60417826  0.63681611  1
  O  O10  1  0.25643390  0.11399137  0.10635911  1
  O  O11  1  0.75531186  0.87589394  0.33718147  1
  O  O12  1  0.24961798  0.12172274  0.65651627  1
  O  O13  1  0.71382869  0.38181320  0.39639764  1
  O  O14  1  0.75886906  0.89957249  0.86733699  1
  O  O15  1  0.25337597  0.65139746  0.12638539  1
