# generated using pymatgen
data_Li2MgSiO4
_symmetry_space_group_name_H-M   'P 1'
_cell_length_a   5.05866000
_cell_length_b   6.36529000
_cell_length_c   10.82596900
_cell_angle_alpha   90.00000000
_cell_angle_beta   90.00000000
_cell_angle_gamma   90.00000000
_symmetry_Int_Tables_number   1
_chemical_formula_structural   Li2MgSiO4
_chemical_formula_sum   'Li8 Mg4 Si4 O16'
_cell_volume   348.59444703
_cell_formula_units_Z   4
loop_
 _symmetry_equiv_pos_site_id
 _symmetry_equiv_pos_as_xyz
  1  'x, y, z'
loop_
 _atom_site_type_symbol
 _atom_site_label
 _atom_site_symmetry_multiplicity
 _atom_site_fract_x
 _atom_site_fract_y
 _atom_site_fract_z
 _atom_site_occupancy
  Li  Li0  1  0.19342600  0.00314500  0.33784700  1
  Li  Li1  1  0.69342600  0.50314500  0.16215300  1
  Li  Li2  1  0.80657400  0.50314500  0.66215300  1
  Li  Li3  1  0.30657400  0.00314500  0.83784700  1
  Li  Li4  1  0.29324400  0.25667500  0.07466800  1
  Li  Li5  1  0.79324400  0.75667500  0.42533200  1
  Li  Li6  1  0.70675600  0.75667500  0.92533200  1
  Li  Li7  1  0.20675600  0.25667500  0.57466800  1
  Mg  Mg8  1  0.80918100  0.99615500  0.66588200  1
  Mg  Mg9  1  0.30918100  0.49615500  0.83411800  1
  Mg  Mg10  1  0.19081900  0.49615500  0.33411800  1
  Mg  Mg11  1  0.69081900  0.99615500  0.16588200  1
  Si  Si12  1  0.18792100  0.75227900  0.08634200  1
  Si  Si13  1  0.68792100  0.25227900  0.41365800  1
  Si  Si14  1  0.81207900  0.25227900  0.91365800  1
  Si  Si15  1  0.31207900  0.75227900  0.58634200  1
  O  O16  1  0.21000600  0.74771300  0.44251000  1
  O  O17  1  0.71000600  0.24771300  0.05749000  1
  O  O18  1  0.78999400  0.24771300  0.55749000  1
  O  O19  1  0.28999400  0.74771300  0.94251000  1
  O  O20  1  0.29413000  0.54019000  0.16075200  1
  O  O21  1  0.79413000  0.04019000  0.33924800  1
  O  O22  1  0.70233100  0.45961700  0.84019800  1
  O  O23  1  0.20233100  0.95961700  0.65980200  1
  O  O24  1  0.86072500  0.75488500  0.09126500  1
  O  O25  1  0.36072500  0.25488500  0.40873500  1
  O  O26  1  0.13927500  0.25488500  0.90873500  1
  O  O27  1  0.63927500  0.75488500  0.59126500  1
  O  O28  1  0.29766900  0.95961700  0.15980200  1
  O  O29  1  0.79766900  0.45961700  0.34019800  1
  O  O30  1  0.70587000  0.04019000  0.83924800  1
  O  O31  1  0.20587000  0.54019000  0.66075200  1
