# generated using pymatgen
data_Li9Mn7O16
_symmetry_space_group_name_H-M   'P 1'
_cell_length_a   3.00773100
_cell_length_b   10.16880908
_cell_length_c   10.18209068
_cell_angle_alpha   107.14548337
_cell_angle_beta   93.48923915
_cell_angle_gamma   91.98484924
_symmetry_Int_Tables_number   1
_chemical_formula_structural   Li9Mn7O16
_chemical_formula_sum   'Li9 Mn7 O16'
_cell_volume   296.57669045
_cell_formula_units_Z   1
loop_
 _symmetry_equiv_pos_site_id
 _symmetry_equiv_pos_as_xyz
  1  'x, y, z'
loop_
 _atom_site_type_symbol
 _atom_site_label
 _atom_site_symmetry_multiplicity
 _atom_site_fract_x
 _atom_site_fract_y
 _atom_site_fract_z
 _atom_site_occupancy
  Li  Li0  1  0.00605500  0.74557800  0.49745100  1
  Li  Li1  1  0.51118800  0.24173800  0.24077400  1
  Li  Li2  1  0.01027200  0.75810300  0.99204200  1
  Li  Li3  1  0.49704900  0.75207000  0.25143200  1
  Li  Li4  1  0.98972800  0.24189700  0.00795800  1
  Li  Li5  1  0.48881200  0.75826200  0.75922600  1
  Li  Li6  1  0.50295100  0.24793000  0.74856800  1
  Li  Li7  1  0.99394500  0.25442200  0.50254900  1
  Li  Li8  1  0.50000000  0.00000000  0.00000000  1
  Mn  Mn9  1  0.99709400  0.99845500  0.75818300  1
  Mn  Mn10  1  0.00290600  0.00154500  0.24181700  1
  Mn  Mn11  1  0.50000000  0.50000000  0.50000000  1
  Mn  Mn12  1  0.50000000  0.50000000  0.00000000  1
  Mn  Mn13  1  0.00117600  0.49968800  0.25001800  1
  Mn  Mn14  1  0.99882400  0.50031200  0.74998200  1
  Mn  Mn15  1  0.50000000  0.00000000  0.50000000  1
  O  O16  1  0.46843400  0.89406200  0.63702200  1
  O  O17  1  0.03429900  0.38409200  0.37338300  1
  O  O18  1  0.47351900  0.89247200  0.14359600  1
  O  O19  1  0.02900700  0.88649900  0.37700500  1
  O  O20  1  0.53386800  0.38154700  0.12158700  1
  O  O21  1  0.00684500  0.88162900  0.86365600  1
  O  O22  1  0.03576500  0.38279200  0.87182800  1
  O  O23  1  0.53300200  0.38063900  0.62129800  1
  O  O24  1  0.46699800  0.61936100  0.37870200  1
  O  O25  1  0.99315500  0.11837100  0.13634400  1
  O  O26  1  0.46613200  0.61845300  0.87841300  1
  O  O27  1  0.96423500  0.61720800  0.12817200  1
  O  O28  1  0.52648100  0.10752800  0.85640400  1
  O  O29  1  0.96570100  0.61590800  0.62661700  1
  O  O30  1  0.97099300  0.11350100  0.62299500  1
  O  O31  1  0.53156600  0.10593800  0.36297800  1
