# generated using pymatgen
data_Li9Ag4
_symmetry_space_group_name_H-M   'P 1'
_cell_length_a   9.66001020
_cell_length_b   8.39252264
_cell_length_c   8.33454698
_cell_angle_alpha   70.54989162
_cell_angle_beta   55.00578511
_cell_angle_gamma   54.44432328
_symmetry_Int_Tables_number   1
_chemical_formula_structural   Li9Ag4
_chemical_formula_sum   'Li18 Ag8'
_cell_volume   450.33106080
_cell_formula_units_Z   2
loop_
 _symmetry_equiv_pos_site_id
 _symmetry_equiv_pos_as_xyz
  1  'x, y, z'
loop_
 _atom_site_type_symbol
 _atom_site_label
 _atom_site_symmetry_multiplicity
 _atom_site_fract_x
 _atom_site_fract_y
 _atom_site_fract_z
 _atom_site_occupancy
  Li  Li0  1  0.22889800  0.99104700  0.77110200  1
  Li  Li1  1  0.00895300  0.77110200  0.99104700  1
  Li  Li2  1  0.77000400  0.22999600  0.99147900  1
  Li  Li3  1  0.00852100  0.99147900  0.22999600  1
  Li  Li4  1  0.34668300  0.28762300  0.65331700  1
  Li  Li5  1  0.33935600  0.00293200  0.36879900  1
  Li  Li6  1  0.63120100  0.71108600  0.66064400  1
  Li  Li7  1  0.71237700  0.65331700  0.28762300  1
  Li  Li8  1  0.28891400  0.36879900  0.00293200  1
  Li  Li9  1  0.99706800  0.66064400  0.71108600  1
  Li  Li10  1  0.65100100  0.34899900  0.71886100  1
  Li  Li11  1  0.64358600  0.63369900  0.00405800  1
  Li  Li12  1  0.36630200  0.35641400  0.28134200  1
  Li  Li13  1  0.28113900  0.71886100  0.34899900  1
  Li  Li14  1  0.71865800  0.00405800  0.63369800  1
  Li  Li15  1  0.99594200  0.28134200  0.35641400  1
  Li  Li16  1  0.66837000  0.00068200  0.33163000  1
  Li  Li17  1  0.99931800  0.33163000  0.00068200  1
  Ag  Ag18  1  0.34195100  0.65804900  0.00128500  1
  Ag  Ag19  1  0.99871500  0.00128500  0.65804900  1
  Ag  Ag20  1  0.34877500  0.00964700  0.99604900  1
  Ag  Ag21  1  0.00395100  0.35447000  0.65122500  1
  Ag  Ag22  1  0.35938900  0.64061100  0.64061100  1
  Ag  Ag23  1  0.64553000  0.99604900  0.00964700  1
  Ag  Ag24  1  0.99035300  0.65122500  0.35447000  1
  Ag  Ag25  1  0.65504500  0.34495500  0.34495500  1
