# generated using pymatgen
data_LiCoAsO4
_symmetry_space_group_name_H-M   'P 1'
_cell_length_a   5.86507563
_cell_length_b   10.11084762
_cell_length_c   5.86445274
_cell_angle_alpha   72.79632123
_cell_angle_beta   118.43636215
_cell_angle_gamma   89.54917287
_symmetry_Int_Tables_number   1
_chemical_formula_structural   LiCoAsO4
_chemical_formula_sum   'Li4 Co4 As4 O16'
_cell_volume   287.51172912
_cell_formula_units_Z   4
loop_
 _symmetry_equiv_pos_site_id
 _symmetry_equiv_pos_as_xyz
  1  'x, y, z'
loop_
 _atom_site_type_symbol
 _atom_site_label
 _atom_site_symmetry_multiplicity
 _atom_site_fract_x
 _atom_site_fract_y
 _atom_site_fract_z
 _atom_site_occupancy
  Li  Li0  1  0.00050000  0.00029200  0.49906300  1
  Li  Li1  1  0.49950000  0.49970800  0.50093700  1
  Li  Li2  1  0.75000000  0.25000000  0.50000000  1
  Li  Li3  1  0.25000000  0.75000000  0.50000000  1
  Co  Co4  1  0.25000000  0.75000000  0.00000000  1
  Co  Co5  1  0.75000000  0.75000000  0.50000000  1
  Co  Co6  1  0.75000000  0.25000000  0.00000000  1
  Co  Co7  1  0.25000000  0.25000000  0.50000000  1
  As  As8  1  0.31527300  0.06524900  0.11946200  1
  As  As9  1  0.81529500  0.56554300  0.11902700  1
  As  As10  1  0.18472700  0.43475100  0.88053800  1
  As  As11  1  0.68470500  0.93445700  0.88097300  1
  O  O12  1  0.87418700  0.38062600  0.24476800  1
  O  O13  1  0.37274000  0.88129700  0.24587000  1
  O  O14  1  0.13123700  0.12255200  0.24602200  1
  O  O15  1  0.63048500  0.62411200  0.24524900  1
  O  O16  1  0.62581300  0.11937400  0.75523200  1
  O  O17  1  0.12726000  0.61870300  0.75413000  1
  O  O18  1  0.36876300  0.37744800  0.75397700  1
  O  O19  1  0.86951500  0.87588800  0.75475100  1
  O  O20  1  0.13369200  0.12357400  0.76277000  1
  O  O21  1  0.63396700  0.62378500  0.76289300  1
  O  O22  1  0.61368200  0.12343900  0.24310100  1
  O  O23  1  0.11325700  0.62372100  0.24228600  1
  O  O24  1  0.36630800  0.37642500  0.23723000  1
  O  O25  1  0.86603300  0.87621500  0.23710700  1
  O  O26  1  0.88631800  0.37656100  0.75689900  1
  O  O27  1  0.38674400  0.87627900  0.75771400  1
