# generated using pymatgen
data_Li9Mn2Co5O16
_symmetry_space_group_name_H-M   'P 1'
_cell_length_a   5.13835000
_cell_length_b   5.88896088
_cell_length_c   10.08968580
_cell_angle_alpha   90.16147236
_cell_angle_beta   99.91151994
_cell_angle_gamma   106.42649476
_symmetry_Int_Tables_number   1
_chemical_formula_structural   Li9Mn2Co5O16
_chemical_formula_sum   'Li9 Mn2 Co5 O16'
_cell_volume   288.04802430
_cell_formula_units_Z   1
loop_
 _symmetry_equiv_pos_site_id
 _symmetry_equiv_pos_as_xyz
  1  'x, y, z'
loop_
 _atom_site_type_symbol
 _atom_site_label
 _atom_site_symmetry_multiplicity
 _atom_site_fract_x
 _atom_site_fract_y
 _atom_site_fract_z
 _atom_site_occupancy
  Li  Li0  1  0.50226500  0.12392800  0.87681000  1
  Li  Li1  1  0.50069400  0.62591600  0.87408100  1
  Li  Li2  1  0.49593500  0.37340100  0.62454700  1
  Li  Li3  1  0.49952600  0.87420800  0.62403700  1
  Li  Li4  1  0.49794900  0.62551600  0.36991100  1
  Li  Li5  1  0.49791800  0.12921700  0.37055900  1
  Li  Li6  1  0.50465200  0.88173200  0.12760500  1
  Li  Li7  1  0.50158900  0.36737200  0.13162800  1
  Li  Li8  1  0.99894200  0.24846800  0.25046200  1
  Mn  Mn9  1  0.99534400  0.00047200  0.00160700  1
  Mn  Mn10  1  0.00185000  0.00659800  0.49729000  1
  Co  Co11  1  0.00709600  0.49414300  0.01264900  1
  Co  Co12  1  0.99791100  0.25194800  0.75083900  1
  Co  Co13  1  0.00061800  0.74561200  0.74934100  1
  Co  Co14  1  0.99899900  0.49532900  0.49089500  1
  Co  Co15  1  0.99899500  0.75740300  0.25018000  1
  O  O16  1  0.21532000  0.81259400  0.93156000  1
  O  O17  1  0.22657800  0.28974300  0.94069200  1
  O  O18  1  0.22311000  0.06397300  0.68227600  1
  O  O19  1  0.22965300  0.55781400  0.68304100  1
  O  O20  1  0.23102500  0.29511700  0.44473000  1
  O  O21  1  0.22846000  0.82152100  0.43964300  1
  O  O22  1  0.23473100  0.56933600  0.17932600  1
  O  O23  1  0.22560500  0.04293000  0.17662200  1
  O  O24  1  0.77497200  0.43346400  0.81284900  1
  O  O25  1  0.76997300  0.94084300  0.82033800  1
  O  O26  1  0.78150900  0.70973800  0.56739900  1
  O  O27  1  0.77572200  0.18400500  0.56001200  1
  O  O28  1  0.77184600  0.93587600  0.32483200  1
  O  O29  1  0.77108000  0.45841500  0.31918500  1
  O  O30  1  0.77097600  0.17977300  0.05569300  1
  O  O31  1  0.76915800  0.70359200  0.05936400  1
