# generated using pymatgen
data_Li3GdO3
_symmetry_space_group_name_H-M   'P 1'
_cell_length_a   5.88792557
_cell_length_b   5.88792557
_cell_length_c   10.79156900
_cell_angle_alpha   90.00000000
_cell_angle_beta   90.00000000
_cell_angle_gamma   119.99999522
_symmetry_Int_Tables_number   1
_chemical_formula_structural   Li3GdO3
_chemical_formula_sum   'Li12 Gd4 O12'
_cell_volume   323.99616371
_cell_formula_units_Z   4
loop_
 _symmetry_equiv_pos_site_id
 _symmetry_equiv_pos_as_xyz
  1  'x, y, z'
loop_
 _atom_site_type_symbol
 _atom_site_label
 _atom_site_symmetry_multiplicity
 _atom_site_fract_x
 _atom_site_fract_y
 _atom_site_fract_z
 _atom_site_occupancy
  Li  Li0  1  0.94315400  0.63216900  0.43769400  1
  Li  Li1  1  0.05684600  0.68901500  0.93769400  1
  Li  Li2  1  0.63216900  0.94315400  0.93769400  1
  Li  Li3  1  0.94315400  0.31098500  0.06230600  1
  Li  Li4  1  0.68901500  0.05684600  0.43769400  1
  Li  Li5  1  0.05684600  0.36783100  0.56230600  1
  Li  Li6  1  0.63216900  0.68901500  0.56230600  1
  Li  Li7  1  0.36783100  0.31098500  0.43769400  1
  Li  Li8  1  0.31098500  0.36783100  0.93769400  1
  Li  Li9  1  0.68901500  0.63216900  0.06230600  1
  Li  Li10  1  0.36783100  0.05684600  0.06230600  1
  Li  Li11  1  0.31098500  0.94315400  0.56230600  1
  Gd  Gd12  1  0.66666700  0.33333300  0.75000000  1
  Gd  Gd13  1  0.33333300  0.66666700  0.25000000  1
  Gd  Gd14  1  0.00000000  0.00000000  0.25000000  1
  Gd  Gd15  1  0.00000000  0.00000000  0.75000000  1
  O  O16  1  0.96003400  0.66477400  0.61961900  1
  O  O17  1  0.03996600  0.70474100  0.11961900  1
  O  O18  1  0.96003400  0.29525900  0.88038100  1
  O  O19  1  0.03996600  0.33522600  0.38038100  1
  O  O20  1  0.70474100  0.03996600  0.61961900  1
  O  O21  1  0.66477400  0.96003400  0.11961900  1
  O  O22  1  0.29525900  0.33522600  0.11961900  1
  O  O23  1  0.66477400  0.70474100  0.38038100  1
  O  O24  1  0.33522600  0.29525900  0.61961900  1
  O  O25  1  0.70474100  0.66477400  0.88038100  1
  O  O26  1  0.33522600  0.03996600  0.88038100  1
  O  O27  1  0.29525900  0.96003400  0.38038100  1
