# generated using pymatgen
data_Li4MnCo2O7
_symmetry_space_group_name_H-M   'P 1'
_cell_length_a   3.02141900
_cell_length_b   5.10928392
_cell_length_c   17.14576475
_cell_angle_alpha   85.61488491
_cell_angle_beta   88.42375130
_cell_angle_gamma   75.63619204
_symmetry_Int_Tables_number   1
_chemical_formula_structural   Li4MnCo2O7
_chemical_formula_sum   'Li8 Mn2 Co4 O14'
_cell_volume   255.64949714
_cell_formula_units_Z   2
loop_
 _symmetry_equiv_pos_site_id
 _symmetry_equiv_pos_as_xyz
  1  'x, y, z'
loop_
 _atom_site_type_symbol
 _atom_site_label
 _atom_site_symmetry_multiplicity
 _atom_site_fract_x
 _atom_site_fract_y
 _atom_site_fract_z
 _atom_site_occupancy
  Li  Li0  1  0.71564400  0.57061000  0.92741700  1
  Li  Li1  1  0.13867700  0.71234200  0.78472300  1
  Li  Li2  1  0.57075000  0.85015800  0.64333000  1
  Li  Li3  1  0.00053000  0.00652600  0.49952200  1
  Li  Li4  1  0.43263000  0.14618800  0.35928100  1
  Li  Li5  1  0.85897500  0.28243100  0.21316600  1
  Li  Li6  1  0.28360000  0.43065600  0.07209900  1
  Li  Li7  1  0.28581700  0.42811800  0.57183000  1
  Mn  Mn8  1  0.99997500  0.00095800  0.99872900  1
  Mn  Mn9  1  0.14085700  0.71215900  0.28825600  1
  Co  Co10  1  0.42316800  0.14345900  0.85357800  1
  Co  Co11  1  0.85347700  0.29257600  0.70810100  1
  Co  Co12  1  0.72390800  0.56528400  0.43580200  1
  Co  Co13  1  0.57116400  0.85688200  0.14353500  1
  O  O14  1  0.33146700  0.27414000  0.95864900  1
  O  O15  1  0.80273700  0.40583200  0.81388000  1
  O  O16  1  0.20405500  0.54580000  0.68127700  1
  O  O17  1  0.64153800  0.71054900  0.52548100  1
  O  O18  1  0.05848000  0.83609900  0.39214400  1
  O  O19  1  0.47171500  0.98855600  0.24747200  1
  O  O20  1  0.94560300  0.12473000  0.10443700  1
  O  O21  1  0.05655700  0.87287300  0.89382700  1
  O  O22  1  0.51926800  0.02175500  0.75159500  1
  O  O23  1  0.92916400  0.14677900  0.61838100  1
  O  O24  1  0.37172500  0.31229800  0.46233800  1
  O  O25  1  0.80095300  0.44665200  0.32952200  1
  O  O26  1  0.19772100  0.58836300  0.18242300  1
  O  O27  1  0.66984700  0.72722600  0.03920700  1
