# generated using pymatgen
data_Li5V6O5F19
_symmetry_space_group_name_H-M   'P 1'
_cell_length_a   5.24532000
_cell_length_b   5.42972687
_cell_length_c   16.07235764
_cell_angle_alpha   80.66570275
_cell_angle_beta   89.90667537
_cell_angle_gamma   89.78320372
_symmetry_Int_Tables_number   1
_chemical_formula_structural   Li5V6O5F19
_chemical_formula_sum   'Li5 V6 O5 F19'
_cell_volume   451.68662496
_cell_formula_units_Z   1
loop_
 _symmetry_equiv_pos_site_id
 _symmetry_equiv_pos_as_xyz
  1  'x, y, z'
loop_
 _atom_site_type_symbol
 _atom_site_label
 _atom_site_symmetry_multiplicity
 _atom_site_fract_x
 _atom_site_fract_y
 _atom_site_fract_z
 _atom_site_occupancy
  Li  Li0  1  0.27874300  0.20047200  0.15180100  1
  Li  Li1  1  0.20353900  0.47897200  0.48965400  1
  Li  Li2  1  0.70033400  0.68708400  0.16980700  1
  Li  Li3  1  0.04391100  0.66968300  0.88174600  1
  Li  Li4  1  0.79640100  0.95977500  0.50522000  1
  V  V5  1  0.02790900  0.02724000  0.00171700  1
  V  V6  1  0.50055200  0.16047800  0.67367100  1
  V  V7  1  0.96896300  0.35574400  0.32896100  1
  V  V8  1  0.46740200  0.81132100  0.33620000  1
  V  V9  1  0.96831300  0.68205800  0.66946200  1
  V  V10  1  0.53373200  0.52144500  0.99571400  1
  O  O11  1  0.22106100  0.26069000  0.02220000  1
  O  O12  1  0.72415700  0.56622100  0.31039600  1
  O  O13  1  0.22433500  0.59951300  0.35842700  1
  O  O14  1  0.79232600  0.70772300  0.98342700  1
  O  O15  1  0.72359800  0.89477500  0.64472200  1
  F  F16  1  0.77274200  0.05485400  0.31848400  1
  F  F17  1  0.27265600  0.11030500  0.35156700  1
  F  F18  1  0.08313600  0.01237100  0.88685800  1
  F  F19  1  0.57070300  0.41902600  0.11855400  1
  F  F20  1  0.93319400  0.26675200  0.45256700  1
  F  F21  1  0.58324900  0.10741600  0.77967500  1
  F  F22  1  0.07746700  0.39019000  0.21571000  1
  F  F23  1  0.41804600  0.22835900  0.55950400  1
  F  F24  1  0.78972900  0.38379800  0.64594200  1
  F  F25  1  0.72157400  0.22898200  0.96751600  1
  F  F26  1  0.29025600  0.76256600  0.03032200  1
  F  F27  1  0.28338300  0.44563100  0.68405200  1
  F  F28  1  0.91616800  0.57862500  0.78244200  1
  F  F29  1  0.57250900  0.77222900  0.45286000  1
  F  F30  1  0.90765700  0.94130600  0.11608800  1
  F  F31  1  0.42757700  0.89766000  0.21652200  1
  F  F32  1  0.38590200  0.56967300  0.88765500  1
  F  F33  1  0.07272100  0.72741100  0.55130000  1
  F  F34  1  0.21341400  0.93612300  0.69462100  1
