# generated using pymatgen
data_Li2FeSiO5
_symmetry_space_group_name_H-M   'P 1'
_cell_length_a   7.87562573
_cell_length_b   7.87485792
_cell_length_c   7.87547039
_cell_angle_alpha   70.63090158
_cell_angle_beta   109.71689896
_cell_angle_gamma   70.67067012
_symmetry_Int_Tables_number   1
_chemical_formula_structural   Li2FeSiO5
_chemical_formula_sum   'Li8 Fe4 Si4 O20'
_cell_volume   375.98365639
_cell_formula_units_Z   4
loop_
 _symmetry_equiv_pos_site_id
 _symmetry_equiv_pos_as_xyz
  1  'x, y, z'
loop_
 _atom_site_type_symbol
 _atom_site_label
 _atom_site_symmetry_multiplicity
 _atom_site_fract_x
 _atom_site_fract_y
 _atom_site_fract_z
 _atom_site_occupancy
  Li  Li0  1  0.99964800  0.00208200  0.99996400  1
  Li  Li1  1  0.50216700  0.99977800  0.49991900  1
  Li  Li2  1  0.75166700  0.49253400  0.75781100  1
  Li  Li3  1  0.25189000  0.50588500  0.24410100  1
  Li  Li4  1  0.00208000  0.49789400  0.50174300  1
  Li  Li5  1  0.49970700  0.50019500  0.00196100  1
  Li  Li6  1  0.25032700  0.00746500  0.74418600  1
  Li  Li7  1  0.75000500  0.99410500  0.25778200  1
  Fe  Fe8  1  0.79905000  0.25004400  0.54906600  1
  Fe  Fe9  1  0.70004600  0.74997700  0.95004000  1
  Fe  Fe10  1  0.29988300  0.25001000  0.04987900  1
  Fe  Fe11  1  0.20015700  0.74998200  0.45016500  1
  Si  Si12  1  0.00169800  0.74733200  0.74988100  1
  Si  Si13  1  0.49720100  0.75269300  0.24902200  1
  Si  Si14  1  0.50235600  0.24829600  0.74954700  1
  Si  Si15  1  0.99785500  0.25168700  0.25067200  1
  O  O16  1  0.10806200  0.24999200  0.85807100  1
  O  O17  1  0.60683700  0.25005400  0.35683900  1
  O  O18  1  0.39161100  0.74998200  0.64160300  1
  O  O19  1  0.89146600  0.74998400  0.14145400  1
  O  O20  1  0.79289400  0.74510600  0.75323900  1
  O  O21  1  0.28399100  0.75511800  0.23208500  1
  O  O22  1  0.21469700  0.55246000  0.96205900  1
  O  O23  1  0.70648200  0.53912200  0.45903300  1
  O  O24  1  0.99808700  0.96092200  0.74555500  1
  O  O25  1  0.51450500  0.94757100  0.26714000  1
  O  O26  1  0.98720700  0.74487900  0.53911400  1
  O  O27  1  0.49835700  0.75487600  0.03801100  1
  O  O28  1  0.49892100  0.24751000  0.95936400  1
  O  O29  1  0.01465500  0.25260000  0.46265600  1
  O  O30  1  0.48768600  0.05201100  0.73248200  1
  O  O31  1  0.99885100  0.03951200  0.25381200  1
  O  O32  1  0.29331200  0.46047000  0.53835100  1
  O  O33  1  0.78451300  0.44795700  0.03970300  1
  O  O34  1  0.71523300  0.24743000  0.76724600  1
  O  O35  1  0.20689500  0.25248500  0.24644500  1
