# generated using pymatgen
data_Li7Mn5O12
_symmetry_space_group_name_H-M   'P 1'
_cell_length_a   2.87474300
_cell_length_b   7.77324561
_cell_length_c   20.32337356
_cell_angle_alpha   84.69953642
_cell_angle_beta   94.05602846
_cell_angle_gamma   100.65395428
_symmetry_Int_Tables_number   1
_chemical_formula_structural   Li7Mn5O12
_chemical_formula_sum   'Li14 Mn10 O24'
_cell_volume   443.74208138
_cell_formula_units_Z   2
loop_
 _symmetry_equiv_pos_site_id
 _symmetry_equiv_pos_as_xyz
  1  'x, y, z'
loop_
 _atom_site_type_symbol
 _atom_site_label
 _atom_site_symmetry_multiplicity
 _atom_site_fract_x
 _atom_site_fract_y
 _atom_site_fract_z
 _atom_site_occupancy
  Li  Li0  1  0.66668600  0.25004900  0.08331900  1
  Li  Li1  1  0.66669300  0.75004400  0.58332800  1
  Li  Li2  1  0.50279800  0.88472000  0.12086100  1
  Li  Li3  1  0.50273300  0.38462700  0.62081100  1
  Li  Li4  1  0.83064700  0.61547300  0.04580100  1
  Li  Li5  1  0.83064200  0.11540700  0.54584500  1
  Li  Li6  1  0.51055200  0.63672200  0.38424400  1
  Li  Li7  1  0.51057000  0.13674800  0.88428900  1
  Li  Li8  1  0.82279000  0.36322100  0.28239600  1
  Li  Li9  1  0.82279600  0.86322200  0.78244800  1
  Li  Li10  1  0.15493100  0.11580100  0.19424000  1
  Li  Li11  1  0.15485400  0.61577900  0.69417100  1
  Li  Li12  1  0.17853400  0.88429000  0.47247800  1
  Li  Li13  1  0.17853400  0.38435500  0.97246200  1
  Mn  Mn14  1  0.66658100  0.99979400  0.33335600  1
  Mn  Mn15  1  0.00996300  0.51144500  0.50850400  1
  Mn  Mn16  1  0.32335800  0.48859100  0.15808800  1
  Mn  Mn17  1  0.99433000  0.24335300  0.74522300  1
  Mn  Mn18  1  0.33906200  0.75676000  0.92144800  1
  Mn  Mn19  1  0.66641800  0.49983500  0.83331800  1
  Mn  Mn20  1  0.00999700  0.01146800  0.00856800  1
  Mn  Mn21  1  0.32341600  0.98863400  0.65814700  1
  Mn  Mn22  1  0.99423900  0.74324700  0.24518400  1
  Mn  Mn23  1  0.33906500  0.25665500  0.42142000  1
  O  O24  1  0.43197900  0.84112900  0.02280900  1
  O  O25  1  0.43194900  0.34110100  0.52274500  1
  O  O26  1  0.90138200  0.65893400  0.14386300  1
  O  O27  1  0.90143400  0.15897800  0.64390900  1
  O  O28  1  0.41236400  0.56589300  0.25878600  1
  O  O29  1  0.41247400  0.06599400  0.75884300  1
  O  O30  1  0.92095200  0.43404700  0.40781200  1
  O  O31  1  0.92099300  0.93414000  0.90789000  1
  O  O32  1  0.07646400  0.05731500  0.09554600  1
  O  O33  1  0.07644100  0.55729800  0.59549800  1
  O  O34  1  0.25692000  0.44278400  0.07111200  1
  O  O35  1  0.25693600  0.94276900  0.57115900  1
  O  O36  1  0.08957700  0.82709500  0.35200600  1
  O  O37  1  0.08946200  0.32717200  0.85200200  1
  O  O38  1  0.24354900  0.17242100  0.31470000  1
  O  O39  1  0.24344200  0.67250300  0.81471900  1
  O  O40  1  0.76279500  0.08486300  0.44054900  1
  O  O41  1  0.76278100  0.58497400  0.94055600  1
  O  O42  1  0.57055900  0.91504700  0.22612600  1
  O  O43  1  0.57061800  0.41515700  0.72611900  1
  O  O44  1  0.75406600  0.32508600  0.18301800  1
  O  O45  1  0.75413700  0.82516000  0.68308200  1
  O  O46  1  0.57925200  0.67492800  0.48357700  1
  O  O47  1  0.57928100  0.17497500  0.98362500  1
