# generated using pymatgen
data_Li7Mn4(P2O7)4
_symmetry_space_group_name_H-M   'P 1'
_cell_length_a   9.90665600
_cell_length_b   9.92755928
_cell_length_c   11.37310571
_cell_angle_alpha   77.10908550
_cell_angle_beta   89.81227498
_cell_angle_gamma   89.68578684
_symmetry_Int_Tables_number   1
_chemical_formula_structural   Li7Mn4(P2O7)4
_chemical_formula_sum   'Li14 Mn8 P16 O56'
_cell_volume   1090.32294660
_cell_formula_units_Z   2
loop_
 _symmetry_equiv_pos_site_id
 _symmetry_equiv_pos_as_xyz
  1  'x, y, z'
loop_
 _atom_site_type_symbol
 _atom_site_label
 _atom_site_symmetry_multiplicity
 _atom_site_fract_x
 _atom_site_fract_y
 _atom_site_fract_z
 _atom_site_occupancy
  Li  Li0  1  0.72013700  0.11250500  0.55197900  1
  Li  Li1  1  0.42229700  0.16971500  0.45383500  1
  Li  Li2  1  0.10524300  0.08751300  0.97307900  1
  Li  Li3  1  0.40659300  0.15575400  0.95732800  1
  Li  Li4  1  0.61088500  0.41260800  0.02827600  1
  Li  Li5  1  0.92041400  0.33714700  0.54114500  1
  Li  Li6  1  0.21998000  0.38898700  0.44763300  1
  Li  Li7  1  0.06567900  0.66129900  0.46306900  1
  Li  Li8  1  0.39261700  0.58460200  0.97102700  1
  Li  Li9  1  0.59224900  0.84638000  0.04417300  1
  Li  Li10  1  0.08839200  0.65019300  0.95840100  1
  Li  Li11  1  0.89244000  0.91457500  0.02972600  1
  Li  Li12  1  0.58801000  0.81841800  0.55326000  1
  Li  Li13  1  0.27935200  0.88687700  0.44752900  1
  Mn  Mn14  1  0.91723500  0.20449300  0.31940900  1
  Mn  Mn15  1  0.21205800  0.25737800  0.17610000  1
  Mn  Mn16  1  0.71674300  0.24727300  0.82524800  1
  Mn  Mn17  1  0.42244200  0.29906200  0.67476500  1
  Mn  Mn18  1  0.58257800  0.70181700  0.32882900  1
  Mn  Mn19  1  0.28503400  0.75369900  0.17773900  1
  Mn  Mn20  1  0.78460700  0.73760100  0.82534400  1
  Mn  Mn21  1  0.07571800  0.79806600  0.67271400  1
  P  P22  1  0.45281200  0.02520600  0.24027300  1
  P  P23  1  0.70546400  0.11886600  0.10944600  1
  P  P24  1  0.93178400  0.05920900  0.75678200  1
  P  P25  1  0.14918200  0.12331500  0.57415600  1
  P  P26  1  0.64813300  0.37735300  0.42363600  1
  P  P27  1  0.43293000  0.43977100  0.24322900  1
  P  P28  1  0.04667900  0.52395500  0.24104000  1
  P  P29  1  0.20662800  0.38075100  0.89284300  1
  P  P30  1  0.79416800  0.61771500  0.10909300  1
  P  P31  1  0.95406600  0.47604500  0.75411700  1
  P  P32  1  0.56796700  0.55952600  0.75633000  1
  P  P33  1  0.35029800  0.62347100  0.57270100  1
  P  P34  1  0.85009100  0.87964300  0.42519900  1
  P  P35  1  0.06730200  0.94048300  0.24438700  1
  P  P36  1  0.29562000  0.88112600  0.89123200  1
  P  P37  1  0.54831200  0.97331400  0.76125400  1
  O  O38  1  0.41272400  0.02398400  0.36941600  1
  O  O39  1  0.83939100  0.03063700  0.43967500  1
  O  O40  1  0.08510500  0.08601400  0.27073700  1
  O  O41  1  0.35878500  0.11252100  0.14443600  1
  O  O42  1  0.59805100  0.09635100  0.22237700  1
  O  O43  1  0.82727900  0.17640800  0.16010600  1
  O  O44  1  0.63514000  0.22300900  0.00278200  1
  O  O45  1  0.27517300  0.01951700  0.92334200  1
  O  O46  1  0.07930000  0.11315700  0.70496100  1
  O  O47  1  0.93480300  0.06336300  0.88876100  1
  O  O48  1  0.53820800  0.12128600  0.78810400  1
  O  O49  1  0.28896700  0.18763400  0.58119100  1
  O  O50  1  0.82641000  0.16455600  0.68838400  1
  O  O51  1  0.06244600  0.22354700  0.48240800  1
  O  O52  1  0.56502400  0.27389200  0.51707700  1
  O  O53  1  0.32692200  0.33610000  0.31224500  1
  O  O54  1  0.78994000  0.31430100  0.41626600  1
  O  O55  1  0.03892700  0.37202900  0.22361600  1
  O  O56  1  0.57905800  0.38028500  0.29371000  1
  O  O57  1  0.43430500  0.43653200  0.11102900  1
  O  O58  1  0.76964800  0.48236900  0.07702100  1
  O  O59  1  0.14805500  0.27156700  0.99976600  1
  O  O60  1  0.33191200  0.32066200  0.84306600  1
  O  O61  1  0.09984800  0.40155200  0.78270400  1
  O  O62  1  0.58808900  0.41472800  0.72914700  1
  O  O63  1  0.85253600  0.39450800  0.84402500  1
  O  O64  1  0.08642600  0.52643100  0.36923900  1
  O  O65  1  0.33997000  0.47733400  0.55153300  1
  O  O66  1  0.65259600  0.52481300  0.43982400  1
  O  O67  1  0.93144400  0.47986700  0.62310500  1
  O  O68  1  0.13752200  0.61012300  0.14295800  1
  O  O69  1  0.41620500  0.58512700  0.26994300  1
  O  O70  1  0.89902700  0.59233500  0.22323000  1
  O  O71  1  0.67345900  0.68757900  0.15697300  1
  O  O72  1  0.86514700  0.72282400  0.00285100  1
  O  O73  1  0.22417300  0.51948400  0.92449000  1
  O  O74  1  0.56059000  0.55871600  0.88954500  1
  O  O75  1  0.41931600  0.61247100  0.70314700  1
  O  O76  1  0.96623900  0.62481200  0.78267700  1
  O  O77  1  0.20988100  0.68816700  0.58125700  1
  O  O78  1  0.66943100  0.66897200  0.69282100  1
  O  O79  1  0.43622200  0.72589100  0.48139600  1
  O  O80  1  0.94160100  0.78846200  0.51748900  1
  O  O81  1  0.17347500  0.83724500  0.31283400  1
  O  O82  1  0.70873900  0.82223200  0.41450900  1
  O  O83  1  0.46751800  0.87603000  0.21589800  1
  O  O84  1  0.06565300  0.93656400  0.11204500  1
  O  O85  1  0.92006300  0.88583400  0.29442700  1
  O  O86  1  0.72250100  0.98096500  0.07509300  1
  O  O87  1  0.36605400  0.77696500  0.99682400  1
  O  O88  1  0.17155400  0.81689900  0.84568100  1
  O  O89  1  0.39947700  0.90594100  0.77655700  1
  O  O90  1  0.63864200  0.88188700  0.85717100  1
  O  O91  1  0.91225700  0.91400000  0.73132800  1
  O  O92  1  0.16102700  0.97497200  0.55684700  1
  O  O93  1  0.58622500  0.97600100  0.63125500  1
