# generated using pymatgen
data_Li4Mn3NbFe2(PO4)6
_symmetry_space_group_name_H-M   'P 1'
_cell_length_a   8.56257014
_cell_length_b   8.65939390
_cell_length_c   8.65382202
_cell_angle_alpha   63.46259590
_cell_angle_beta   63.61341990
_cell_angle_gamma   63.92245635
_symmetry_Int_Tables_number   1
_chemical_formula_structural   Li4Mn3NbFe2(PO4)6
_chemical_formula_sum   'Li4 Mn3 Nb1 Fe2 P6 O24'
_cell_volume   490.43589243
_cell_formula_units_Z   1
loop_
 _symmetry_equiv_pos_site_id
 _symmetry_equiv_pos_as_xyz
  1  'x, y, z'
loop_
 _atom_site_type_symbol
 _atom_site_label
 _atom_site_symmetry_multiplicity
 _atom_site_fract_x
 _atom_site_fract_y
 _atom_site_fract_z
 _atom_site_occupancy
  Li  Li0  1  0.74753400  0.14967900  0.35332700  1
  Li  Li1  1  0.29166800  0.84703600  0.64623500  1
  Li  Li2  1  0.64136000  0.29111800  0.85106400  1
  Li  Li3  1  0.84967400  0.63942500  0.29346200  1
  Mn  Mn4  1  0.15093600  0.15325500  0.15241900  1
  Mn  Mn5  1  0.34926600  0.35415500  0.34839800  1
  Mn  Mn6  1  0.65539800  0.65574600  0.65962100  1
  Nb  Nb7  1  0.84986400  0.84573400  0.84927400  1
  Fe  Fe8  1  0.01508600  0.00197900  0.99593800  1
  Fe  Fe9  1  0.49046400  0.50383200  0.50072500  1
  P  P10  1  0.74801100  0.43556900  0.05820000  1
  P  P11  1  0.24798800  0.55316800  0.94428000  1
  P  P12  1  0.56377400  0.94755600  0.25181600  1
  P  P13  1  0.93340700  0.24569800  0.54975800  1
  P  P14  1  0.05921900  0.74581800  0.43645900  1
  P  P15  1  0.43690700  0.05730600  0.74903500  1
  O  O16  1  0.10166600  0.29447000  0.50296700  1
  O  O17  1  0.30799800  0.52709800  0.09669400  1
  O  O18  1  0.05992400  0.90672500  0.25941000  1
  O  O19  1  0.56117100  0.09255200  0.30916600  1
  O  O20  1  0.00108900  0.81351000  0.60404400  1
  O  O21  1  0.24874900  0.60458000  0.43371000  1
  O  O22  1  0.25124800  0.07653800  0.89925000  1
  O  O23  1  0.45426900  0.23735700  0.59517200  1
  O  O24  1  0.16938000  0.40955400  0.98324900  1
  O  O25  1  0.60689900  0.42728600  0.25039300  1
  O  O26  1  0.10044800  0.75399200  0.90875600  1
  O  O27  1  0.40598200  0.00573000  0.18363500  1
  O  O28  1  0.60113800  0.99675100  0.82406100  1
  O  O29  1  0.89562800  0.24793900  0.07892500  1
  O  O30  1  0.40039100  0.57255500  0.75239900  1
  O  O31  1  0.81704100  0.59985200  0.00468500  1
  O  O32  1  0.57232200  0.75664100  0.40226400  1
  O  O33  1  0.76004400  0.90826000  0.09806600  1
  O  O34  1  0.74637300  0.40220300  0.57574900  1
  O  O35  1  0.94370500  0.17593000  0.41057800  1
  O  O36  1  0.46636700  0.90797800  0.67982500  1
  O  O37  1  0.90946900  0.09776900  0.74931700  1
  O  O38  1  0.67601700  0.46633300  0.91034000  1
  O  O39  1  0.91212800  0.66832900  0.47033500  1
