# generated using pymatgen
data_Li4Zr8V3(P3O16)3
_symmetry_space_group_name_H-M   'P 1'
_cell_length_a   9.06365400
_cell_length_b   9.10058907
_cell_length_c   12.89215425
_cell_angle_alpha   90.40539421
_cell_angle_beta   91.51948472
_cell_angle_gamma   90.23732206
_symmetry_Int_Tables_number   1
_chemical_formula_structural   Li4Zr8V3(P3O16)3
_chemical_formula_sum   'Li4 Zr8 V3 P9 O48'
_cell_volume   1062.99355464
_cell_formula_units_Z   1
loop_
 _symmetry_equiv_pos_site_id
 _symmetry_equiv_pos_as_xyz
  1  'x, y, z'
loop_
 _atom_site_type_symbol
 _atom_site_label
 _atom_site_symmetry_multiplicity
 _atom_site_fract_x
 _atom_site_fract_y
 _atom_site_fract_z
 _atom_site_occupancy
  Li  Li0  1  0.78419600  0.72510400  0.82063900  1
  Li  Li1  1  0.28280700  0.77438600  0.32245400  1
  Li  Li2  1  0.21723100  0.27504000  0.18146100  1
  Li  Li3  1  0.69862300  0.22744200  0.67781700  1
  Zr  Zr4  1  0.24967900  0.51522900  0.88143300  1
  Zr  Zr5  1  0.74591400  0.97989800  0.38747700  1
  Zr  Zr6  1  0.75765900  0.48024000  0.11163800  1
  Zr  Zr7  1  0.25559200  0.02869200  0.61472500  1
  Zr  Zr8  1  0.26917700  0.95240100  0.11545700  1
  Zr  Zr9  1  0.76093100  0.54565500  0.61484400  1
  Zr  Zr10  1  0.73373100  0.04466200  0.88397800  1
  Zr  Zr11  1  0.23468800  0.45499900  0.39249900  1
  V  V12  1  0.10006700  0.88251700  0.85137100  1
  V  V13  1  0.59697600  0.61707700  0.35122200  1
  V  V14  1  0.90419400  0.11564100  0.14736300  1
  P  P15  1  0.40177000  0.38442100  0.64454900  1
  P  P16  1  0.12018900  0.59457800  0.14349400  1
  P  P17  1  0.61192300  0.90034600  0.64387700  1
  P  P18  1  0.88448000  0.40035200  0.85383400  1
  P  P19  1  0.38633700  0.09944800  0.35791200  1
  P  P20  1  0.53475400  0.75077600  0.98701900  1
  P  P21  1  0.03214100  0.75045100  0.49208000  1
  P  P22  1  0.46755900  0.24581000  0.01147000  1
  P  P23  1  0.96358700  0.25465500  0.51420900  1
  O  O24  1  0.45741500  0.86379900  0.05675000  1
  O  O25  1  0.95057400  0.64019900  0.56173900  1
  O  O26  1  0.54400500  0.13226200  0.94134500  1
  O  O27  1  0.04210300  0.36840800  0.44603900  1
  O  O28  1  0.17805500  0.54521600  0.03803700  1
  O  O29  1  0.67168600  0.94572900  0.53863600  1
  O  O30  1  0.83086300  0.44795700  0.96030300  1
  O  O31  1  0.32623400  0.04845100  0.46161300  1
  O  O32  1  0.42217600  0.66630500  0.91806200  1
  O  O33  1  0.92128000  0.83192400  0.42115500  1
  O  O34  1  0.58186800  0.33029900  0.07850100  1
  O  O35  1  0.07625400  0.17223800  0.58276400  1
  O  O36  1  0.32342600  0.46873100  0.73077600  1
  O  O37  1  0.80961700  0.01272900  0.23577600  1
  O  O38  1  0.68911200  0.51282100  0.26259800  1
  O  O39  1  0.19392100  0.99255900  0.76640700  1
  O  O40  1  0.15525000  0.92355500  0.97873900  1
  O  O41  1  0.65649100  0.57518600  0.47676300  1
  O  O42  1  0.84684800  0.07276100  0.02035800  1
  O  O43  1  0.34184100  0.43234400  0.53544400  1
  O  O44  1  0.19278800  0.74597700  0.17598300  1
  O  O45  1  0.68209900  0.75047100  0.67744100  1
  O  O46  1  0.80988700  0.25081100  0.82146800  1
  O  O47  1  0.31359700  0.25029100  0.32829200  1
  O  O48  1  0.05387000  0.38879400  0.85363800  1
  O  O49  1  0.55552700  0.11408700  0.36195300  1
  O  O50  1  0.95069200  0.60952900  0.13939400  1
  O  O51  1  0.44245500  0.89064700  0.64068800  1
  O  O52  1  0.09445800  0.08801500  0.16367500  1
  O  O53  1  0.57166300  0.41314700  0.65378100  1
  O  O54  1  0.90915000  0.90839700  0.83570400  1
  O  O55  1  0.40585400  0.58869000  0.34084000  1
  O  O56  1  0.37792400  0.34844800  0.93997700  1
  O  O57  1  0.87722700  0.15002300  0.44096400  1
  O  O58  1  0.62397700  0.64781500  0.05824600  1
  O  O59  1  0.12106100  0.85659900  0.56293900  1
  O  O60  1  0.33968800  0.98025300  0.27519900  1
  O  O61  1  0.83164500  0.51999500  0.77440900  1
  O  O62  1  0.66080100  0.02143100  0.72448300  1
  O  O63  1  0.16505800  0.47844600  0.22813100  1
  O  O64  1  0.35696100  0.16667300  0.08352900  1
  O  O65  1  0.84947000  0.33332400  0.58420900  1
  O  O66  1  0.64579800  0.83132200  0.91601000  1
  O  O67  1  0.14409500  0.66724700  0.42257900  1
  O  O68  1  0.12998000  0.69899700  0.82849200  1
  O  O69  1  0.62076700  0.80100400  0.33042100  1
  O  O70  1  0.87935800  0.29968000  0.16745300  1
  O  O71  1  0.38092200  0.21659300  0.65547400  1
