# generated using pymatgen
data_LiMn6N7
_symmetry_space_group_name_H-M   'P 1'
_cell_length_a   13.00233388
_cell_length_b   5.65481000
_cell_length_c   7.95383811
_cell_angle_alpha   90.00000000
_cell_angle_beta   82.02367282
_cell_angle_gamma   90.00000000
_symmetry_Int_Tables_number   1
_chemical_formula_structural   LiMn6N7
_chemical_formula_sum   'Li4 Mn24 N28'
_cell_volume   579.15396508
_cell_formula_units_Z   4
loop_
 _symmetry_equiv_pos_site_id
 _symmetry_equiv_pos_as_xyz
  1  'x, y, z'
loop_
 _atom_site_type_symbol
 _atom_site_label
 _atom_site_symmetry_multiplicity
 _atom_site_fract_x
 _atom_site_fract_y
 _atom_site_fract_z
 _atom_site_occupancy
  Li  Li0  1  0.25080900  0.43456600  0.58828200  1
  Li  Li1  1  0.74919100  0.56543400  0.41171800  1
  Li  Li2  1  0.24919100  0.43456600  0.91171800  1
  Li  Li3  1  0.75080900  0.56543400  0.08828200  1
  Mn  Mn4  1  0.46530000  0.27413400  0.56593000  1
  Mn  Mn5  1  0.53470000  0.72586600  0.43407000  1
  Mn  Mn6  1  0.03470000  0.27413400  0.93407000  1
  Mn  Mn7  1  0.96530000  0.72586600  0.06593000  1
  Mn  Mn8  1  0.56160500  0.79253200  0.74979900  1
  Mn  Mn9  1  0.43839500  0.20746800  0.25020100  1
  Mn  Mn10  1  0.93839500  0.79253200  0.75020100  1
  Mn  Mn11  1  0.06160500  0.20746800  0.24979900  1
  Mn  Mn12  1  0.67264000  0.09423500  0.96410700  1
  Mn  Mn13  1  0.32736000  0.90576500  0.03589300  1
  Mn  Mn14  1  0.82736000  0.09423500  0.53589300  1
  Mn  Mn15  1  0.17264000  0.90576500  0.46410700  1
  Mn  Mn16  1  0.25000000  0.42280200  0.25000000  1
  Mn  Mn17  1  0.75000000  0.57719800  0.75000000  1
  Mn  Mn18  1  0.25000000  0.02781600  0.75000000  1
  Mn  Mn19  1  0.75000000  0.97218400  0.25000000  1
  Mn  Mn20  1  0.45000500  0.23801900  0.93770400  1
  Mn  Mn21  1  0.54999500  0.76198100  0.06229600  1
  Mn  Mn22  1  0.04999500  0.23801900  0.56229600  1
  Mn  Mn23  1  0.95000500  0.76198100  0.43770400  1
  Mn  Mn24  1  0.64483900  0.25282000  0.61776700  1
  Mn  Mn25  1  0.35516100  0.74718000  0.38223300  1
  Mn  Mn26  1  0.85516100  0.25282000  0.88223300  1
  Mn  Mn27  1  0.14483900  0.74718000  0.11776700  1
  N  N28  1  0.55707100  0.00798600  0.59067400  1
  N  N29  1  0.44292900  0.99201400  0.40932600  1
  N  N30  1  0.94292900  0.00798600  0.90932600  1
  N  N31  1  0.05707100  0.99201400  0.09067400  1
  N  N32  1  0.04820900  0.87802100  0.59304900  1
  N  N33  1  0.95179100  0.12197900  0.40695100  1
  N  N34  1  0.45179100  0.87802100  0.90695100  1
  N  N35  1  0.54820900  0.12197900  0.09304900  1
  N  N36  1  0.75000000  0.23614800  0.75000000  1
  N  N37  1  0.25000000  0.76385200  0.25000000  1
  N  N38  1  0.07412000  0.47405600  0.11009200  1
  N  N39  1  0.92588000  0.52594400  0.88990800  1
  N  N40  1  0.42588000  0.47405600  0.38990800  1
  N  N41  1  0.57412000  0.52594400  0.61009200  1
  N  N42  1  0.36114900  0.23863000  0.73985000  1
  N  N43  1  0.63885100  0.76137000  0.26015000  1
  N  N44  1  0.13885100  0.23863000  0.76015000  1
  N  N45  1  0.86114900  0.76137000  0.23985000  1
  N  N46  1  0.22168600  0.82772200  0.92131600  1
  N  N47  1  0.77831400  0.17227800  0.07868400  1
  N  N48  1  0.27831400  0.82772200  0.57868400  1
  N  N49  1  0.72168600  0.17227800  0.42131600  1
  N  N50  1  0.00000000  0.50000000  0.50000000  1
  N  N51  1  0.50000000  0.50000000  0.00000000  1
  N  N52  1  0.17006000  0.22177800  0.39525600  1
  N  N53  1  0.82994000  0.77822200  0.60474400  1
  N  N54  1  0.32994000  0.22177800  0.10474400  1
  N  N55  1  0.67006000  0.77822200  0.89525600  1
