# generated using pymatgen
data_Li9Mn7O16
_symmetry_space_group_name_H-M   'P 1'
_cell_length_a   10.15417964
_cell_length_b   10.15417964
_cell_length_c   5.33918926
_cell_angle_alpha   83.70045424
_cell_angle_beta   83.70045424
_cell_angle_gamma   32.84140046
_symmetry_Int_Tables_number   1
_chemical_formula_structural   Li9Mn7O16
_chemical_formula_sum   'Li9 Mn7 O16'
_cell_volume   296.59014385
_cell_formula_units_Z   1
loop_
 _symmetry_equiv_pos_site_id
 _symmetry_equiv_pos_as_xyz
  1  'x, y, z'
loop_
 _atom_site_type_symbol
 _atom_site_label
 _atom_site_symmetry_multiplicity
 _atom_site_fract_x
 _atom_site_fract_y
 _atom_site_fract_z
 _atom_site_occupancy
  Li  Li0  1  0.62074200  0.12949400  0.25168300  1
  Li  Li1  1  0.37925800  0.87050600  0.74831700  1
  Li  Li2  1  0.12949400  0.62074200  0.25168300  1
  Li  Li3  1  0.38025300  0.38025300  0.75221200  1
  Li  Li4  1  0.12227600  0.12227600  0.25608600  1
  Li  Li5  1  0.87772400  0.87772400  0.74391400  1
  Li  Li6  1  0.87050600  0.37925800  0.74831700  1
  Li  Li7  1  0.61974700  0.61974700  0.24778800  1
  Li  Li8  1  0.50000000  0.50000000  0.00000000  1
  Mn  Mn9  1  0.00000000  0.00000000  0.00000000  1
  Mn  Mn10  1  0.25127200  0.74872800  0.50000000  1
  Mn  Mn11  1  0.74998200  0.74998200  0.49954700  1
  Mn  Mn12  1  0.25001800  0.25001800  0.50045300  1
  Mn  Mn13  1  0.50000000  0.00000000  0.00000000  1
  Mn  Mn14  1  0.00000000  0.50000000  0.00000000  1
  Mn  Mn15  1  0.74872800  0.25127200  0.50000000  1
  O  O16  1  0.70775700  0.18935700  0.83813700  1
  O  O17  1  0.44150600  0.94184100  0.39503100  1
  O  O18  1  0.18935700  0.70775700  0.83813700  1
  O  O19  1  0.44215900  0.44215900  0.39807400  1
  O  O20  1  0.19033600  0.19033600  0.89889600  1
  O  O21  1  0.94176800  0.94176800  0.38985600  1
  O  O22  1  0.94184100  0.44150600  0.39503100  1
  O  O23  1  0.68965300  0.68965300  0.89919400  1
  O  O24  1  0.55849400  0.05815900  0.60496900  1
  O  O25  1  0.29224300  0.81064300  0.16186300  1
  O  O26  1  0.05815900  0.55849400  0.60496900  1
  O  O27  1  0.31034700  0.31034700  0.10080600  1
  O  O28  1  0.05823200  0.05823200  0.61014400  1
  O  O29  1  0.80966400  0.80966400  0.10110400  1
  O  O30  1  0.81064300  0.29224300  0.16186300  1
  O  O31  1  0.55784100  0.55784100  0.60192600  1
