# generated using pymatgen
data_LiYbS2
_symmetry_space_group_name_H-M   'P 1'
_cell_length_a   6.31211048
_cell_length_b   6.31211048
_cell_length_c   6.31211102
_cell_angle_alpha   36.78142515
_cell_angle_beta   36.78142515
_cell_angle_gamma   36.78143076
_symmetry_Int_Tables_number   1
_chemical_formula_structural   LiYbS2
_chemical_formula_sum   'Li1 Yb1 S2'
_cell_volume   80.75708606
_cell_formula_units_Z   1
loop_
 _symmetry_equiv_pos_site_id
 _symmetry_equiv_pos_as_xyz
  1  'x, y, z'
loop_
 _atom_site_type_symbol
 _atom_site_label
 _atom_site_symmetry_multiplicity
 _atom_site_fract_x
 _atom_site_fract_y
 _atom_site_fract_z
 _atom_site_occupancy
  Li  Li0  1  0.50000000  0.50000000  0.50000000  1
  Yb  Yb1  1  0.00000000  0.00000000  0.00000000  1
  S  S2  1  0.75476400  0.75476400  0.75476400  1
  S  S3  1  0.24523600  0.24523600  0.24523600  1
