# generated using pymatgen
data_Li2TiVO4
_symmetry_space_group_name_H-M   'P 1'
_cell_length_a   6.02851541
_cell_length_b   7.86681932
_cell_length_c   7.86689162
_cell_angle_alpha   97.88026209
_cell_angle_beta   112.11101613
_cell_angle_gamma   112.11063724
_symmetry_Int_Tables_number   1
_chemical_formula_structural   Li2TiVO4
_chemical_formula_sum   'Li8 Ti4 V4 O16'
_cell_volume   302.86968130
_cell_formula_units_Z   4
loop_
 _symmetry_equiv_pos_site_id
 _symmetry_equiv_pos_as_xyz
  1  'x, y, z'
loop_
 _atom_site_type_symbol
 _atom_site_label
 _atom_site_symmetry_multiplicity
 _atom_site_fract_x
 _atom_site_fract_y
 _atom_site_fract_z
 _atom_site_occupancy
  Li  Li0  1  0.99998500  0.87582600  0.62411800  1
  Li  Li1  1  0.99999200  0.62416400  0.87586800  1
  Li  Li2  1  0.99999800  0.12577800  0.37415800  1
  Li  Li3  1  0.00001000  0.37422000  0.12583800  1
  Li  Li4  1  0.00155000  0.50200000  0.50203100  1
  Li  Li5  1  0.00000000  0.25000400  0.74998800  1
  Li  Li6  1  0.00000300  0.75000500  0.25000200  1
  Li  Li7  1  0.99844500  0.99800200  0.99796000  1
  Ti  Ti8  1  0.50001300  0.75007700  0.24998200  1
  Ti  Ti9  1  0.50238800  0.50852100  0.50806700  1
  Ti  Ti10  1  0.49760700  0.99147000  0.99195900  1
  Ti  Ti11  1  0.49998100  0.24990900  0.74999600  1
  V  V12  1  0.50005400  0.36955400  0.13041200  1
  V  V13  1  0.49995000  0.13043600  0.36962400  1
  V  V14  1  0.50002300  0.62176900  0.87831200  1
  V  V15  1  0.49996900  0.87822700  0.62167200  1
  O  O16  1  0.72987100  0.98954300  0.48088000  1
  O  O17  1  0.73515300  0.73819500  0.73817900  1
  O  O18  1  0.73245200  0.23493000  0.23492000  1
  O  O19  1  0.72972300  0.48085500  0.98956500  1
  O  O20  1  0.26755100  0.26513800  0.26501700  1
  O  O21  1  0.27019400  0.01911200  0.51046500  1
  O  O22  1  0.27019700  0.51042300  0.01913800  1
  O  O23  1  0.26483700  0.76180200  0.76180600  1
  O  O24  1  0.73162600  0.62419200  0.37568100  1
  O  O25  1  0.73133600  0.37557400  0.62435800  1
  O  O26  1  0.73465300  0.87395300  0.12492000  1
  O  O27  1  0.73408800  0.12483700  0.87373700  1
  O  O28  1  0.26542800  0.62605300  0.37511400  1
  O  O29  1  0.26598600  0.37518900  0.62625000  1
  O  O30  1  0.26829000  0.87575000  0.12430400  1
  O  O31  1  0.26863900  0.12446200  0.87565700  1
