# generated using pymatgen
data_Li9Mn2Co5O16
_symmetry_space_group_name_H-M   'P 1'
_cell_length_a   5.11646400
_cell_length_b   5.87983902
_cell_length_c   10.12049802
_cell_angle_alpha   105.78506483
_cell_angle_beta   100.33700403
_cell_angle_gamma   90.48542543
_symmetry_Int_Tables_number   1
_chemical_formula_structural   Li9Mn2Co5O16
_chemical_formula_sum   'Li9 Mn2 Co5 O16'
_cell_volume   287.69972706
_cell_formula_units_Z   1
loop_
 _symmetry_equiv_pos_site_id
 _symmetry_equiv_pos_as_xyz
  1  'x, y, z'
loop_
 _atom_site_type_symbol
 _atom_site_label
 _atom_site_symmetry_multiplicity
 _atom_site_fract_x
 _atom_site_fract_y
 _atom_site_fract_z
 _atom_site_occupancy
  Li  Li0  1  0.50174500  0.74577100  0.99436200  1
  Li  Li1  1  0.25555000  0.38808900  0.75259500  1
  Li  Li2  1  0.50414200  0.24777100  0.99768900  1
  Li  Li3  1  0.24332400  0.86331000  0.74798700  1
  Li  Li4  1  0.75220200  0.12231400  0.24880000  1
  Li  Li5  1  0.74882100  0.62830400  0.25130100  1
  Li  Li6  1  0.99595000  0.50717500  0.50664800  1
  Li  Li7  1  0.99669300  0.99916900  0.50138500  1
  Li  Li8  1  0.74983800  0.62749500  0.75079200  1
  Mn  Mn9  1  0.00373000  0.99677800  0.99702700  1
  Mn  Mn10  1  0.50012100  0.74875100  0.50353100  1
  Co  Co11  1  0.50772800  0.26053800  0.50795400  1
  Co  Co12  1  0.25229000  0.87559700  0.25083100  1
  Co  Co13  1  0.98329200  0.49729900  0.98966500  1
  Co  Co14  1  0.74989600  0.11808400  0.74871600  1
  Co  Co15  1  0.24861700  0.37668300  0.24865700  1
  O  O16  1  0.35173100  0.06037500  0.12548200  1
  O  O17  1  0.12232700  0.70767700  0.88734900  1
  O  O18  1  0.35294300  0.55657100  0.12934700  1
  O  O19  1  0.11590800  0.18045100  0.88169500  1
  O  O20  1  0.61244000  0.45797000  0.38483000  1
  O  O21  1  0.60187100  0.93145400  0.37867800  1
  O  O22  1  0.84220800  0.81435900  0.61762900  1
  O  O23  1  0.85130800  0.29671500  0.62472800  1
  O  O24  1  0.64494200  0.43371600  0.87867800  1
  O  O25  1  0.38567400  0.04318400  0.61777600  1
  O  O26  1  0.66065700  0.95179000  0.87852600  1
  O  O27  1  0.37868100  0.56689400  0.61386100  1
  O  O28  1  0.89568100  0.81935000  0.11921000  1
  O  O29  1  0.89209100  0.29225400  0.11795900  1
  O  O30  1  0.14970200  0.19302300  0.37222500  1
  O  O31  1  0.14789600  0.69109100  0.37408800  1
