# generated using pymatgen
data_Li3MnV(PO4)3
_symmetry_space_group_name_H-M   'P 1'
_cell_length_a   8.61799200
_cell_length_b   8.79195455
_cell_length_c   11.99189865
_cell_angle_alpha   90.08597236
_cell_angle_beta   91.66255596
_cell_angle_gamma   90.77271887
_symmetry_Int_Tables_number   1
_chemical_formula_structural   Li3MnV(PO4)3
_chemical_formula_sum   'Li12 Mn4 V4 P12 O48'
_cell_volume   908.14737886
_cell_formula_units_Z   4
loop_
 _symmetry_equiv_pos_site_id
 _symmetry_equiv_pos_as_xyz
  1  'x, y, z'
loop_
 _atom_site_type_symbol
 _atom_site_label
 _atom_site_symmetry_multiplicity
 _atom_site_fract_x
 _atom_site_fract_y
 _atom_site_fract_z
 _atom_site_occupancy
  Li  Li0  1  0.06503600  0.48623300  0.34769500  1
  Li  Li1  1  0.07888700  0.91407300  0.69007700  1
  Li  Li2  1  0.18048100  0.22055700  0.17791200  1
  Li  Li3  1  0.32100600  0.72241500  0.32273600  1
  Li  Li4  1  0.41879600  0.41330900  0.80970200  1
  Li  Li5  1  0.43553500  0.98898300  0.15388700  1
  Li  Li6  1  0.56386400  0.01515800  0.84708900  1
  Li  Li7  1  0.58062300  0.58535800  0.19121200  1
  Li  Li8  1  0.67993500  0.27700900  0.67788600  1
  Li  Li9  1  0.82063900  0.77890600  0.82259100  1
  Li  Li10  1  0.92115400  0.08536300  0.30984400  1
  Li  Li11  1  0.93517900  0.51313600  0.65196400  1
  Mn  Mn12  1  0.25244100  0.03570100  0.39197700  1
  Mn  Mn13  1  0.74808000  0.96477500  0.60819000  1
  Mn  Mn14  1  0.75207500  0.46336300  0.89112800  1
  Mn  Mn15  1  0.75163800  0.02781500  0.10681500  1
  V  V16  1  0.24421900  0.97198600  0.89525800  1
  V  V17  1  0.24582500  0.53484000  0.10813000  1
  V  V18  1  0.25410900  0.47217100  0.60620500  1
  V  V19  1  0.74521200  0.52726100  0.39468700  1
  P  P20  1  0.04321900  0.75039100  0.48967600  1
  P  P21  1  0.11382100  0.61770000  0.84617000  1
  P  P22  1  0.11643100  0.88723800  0.14787100  1
  P  P23  1  0.38433400  0.11783800  0.65193800  1
  P  P24  1  0.38541800  0.38919100  0.35359500  1
  P  P25  1  0.45603100  0.25258400  0.01059700  1
  P  P26  1  0.54321200  0.75114500  0.98936000  1
  P  P27  1  0.61638200  0.61066000  0.64885400  1
  P  P28  1  0.61557000  0.88185500  0.34917100  1
  P  P29  1  0.88395100  0.11060800  0.85146600  1
  P  P30  1  0.88363300  0.38111800  0.14947500  1
  P  P31  1  0.95690900  0.24979700  0.50994100  1
  O  O32  1  0.05116400  0.10715100  0.89532900  1
  O  O33  1  0.04494400  0.12988400  0.44567100  1
  O  O34  1  0.05490000  0.33519100  0.60120200  1
  O  O35  1  0.05584100  0.42010400  0.18724300  1
  O  O36  1  0.10147600  0.63726800  0.58127800  1
  O  O37  1  0.12507500  0.79413600  0.82958100  1
  O  O38  1  0.13919400  0.57946800  0.96951200  1
  O  O39  1  0.13081900  0.00604900  0.24840000  1
  O  O40  1  0.17623300  0.73030200  0.18814600  1
  O  O41  1  0.18878800  0.82121600  0.43410700  1
  O  O42  1  0.22983200  0.52907900  0.77624400  1
  O  O43  1  0.23680000  0.95006200  0.06270800  1
  O  O44  1  0.26608800  0.44878600  0.43774900  1
  O  O45  1  0.26758100  0.02864100  0.72330800  1
  O  O46  1  0.31109000  0.32417200  0.06501200  1
  O  O47  1  0.32689000  0.23001500  0.31233600  1
  O  O48  1  0.36229500  0.08028300  0.52743600  1
  O  O49  1  0.37241700  0.50606700  0.25406400  1
  O  O50  1  0.37246500  0.29425100  0.66889000  1
  O  O51  1  0.39936700  0.13997700  0.91765900  1
  O  O52  1  0.44572200  0.83625200  0.90012000  1
  O  O53  1  0.44620600  0.91745100  0.30917900  1
  O  O54  1  0.44869700  0.60493700  0.60539600  1
  O  O55  1  0.45151000  0.63263500  0.05607500  1
  O  O56  1  0.54618000  0.37454300  0.94652900  1
  O  O57  1  0.55300600  0.39157700  0.39780700  1
  O  O58  1  0.55417900  0.08168800  0.69096100  1
  O  O59  1  0.54958300  0.17040900  0.10312500  1
  O  O60  1  0.60179000  0.86430500  0.08445200  1
  O  O61  1  0.62842200  0.70538900  0.33130500  1
  O  O62  1  0.62987000  0.49203500  0.74900200  1
  O  O63  1  0.63632500  0.91821200  0.47398700  1
  O  O64  1  0.67257500  0.76973400  0.68943800  1
  O  O65  1  0.68649400  0.68133100  0.93515800  1
  O  O66  1  0.73287400  0.97282300  0.27983000  1
  O  O67  1  0.73472600  0.55078400  0.56393400  1
  O  O68  1  0.76335200  0.04896900  0.93540700  1
  O  O69  1  0.76965800  0.46854800  0.22156900  1
  O  O70  1  0.81125700  0.17977500  0.56561100  1
  O  O71  1  0.82908100  0.26822300  0.80995900  1
  O  O72  1  0.87098100  0.99267100  0.75006800  1
  O  O73  1  0.86219400  0.41932500  0.02534100  1
  O  O74  1  0.87525300  0.20308600  0.16594300  1
  O  O75  1  0.89935800  0.36306700  0.41804900  1
  O  O76  1  0.94238000  0.58028200  0.80761400  1
  O  O77  1  0.94578800  0.66453500  0.39836200  1
  O  O78  1  0.95474500  0.87018500  0.55381900  1
  O  O79  1  0.95088700  0.88658800  0.10298900  1
