# generated using pymatgen
data_Li2V3SnO8
_symmetry_space_group_name_H-M   'P 1'
_cell_length_a   6.06072657
_cell_length_b   6.03896265
_cell_length_c   8.56392883
_cell_angle_alpha   90.35878222
_cell_angle_beta   89.89968758
_cell_angle_gamma   89.71432639
_symmetry_Int_Tables_number   1
_chemical_formula_structural   Li2V3SnO8
_chemical_formula_sum   'Li4 V6 Sn2 O16'
_cell_volume   313.43355048
_cell_formula_units_Z   2
loop_
 _symmetry_equiv_pos_site_id
 _symmetry_equiv_pos_as_xyz
  1  'x, y, z'
loop_
 _atom_site_type_symbol
 _atom_site_label
 _atom_site_symmetry_multiplicity
 _atom_site_fract_x
 _atom_site_fract_y
 _atom_site_fract_z
 _atom_site_occupancy
  Li  Li0  1  0.99781100  0.24612400  0.12152400  1
  Li  Li1  1  0.50252900  0.74026400  0.62283300  1
  Li  Li2  1  0.99895700  0.99486100  0.50150900  1
  Li  Li3  1  0.50148200  0.50202500  0.99670200  1
  V  V4  1  0.99674700  0.51295700  0.49554800  1
  V  V5  1  0.49620700  0.02187700  0.99145500  1
  V  V6  1  0.26337900  0.25163600  0.75426300  1
  V  V7  1  0.22796200  0.75520300  0.25910400  1
  V  V8  1  0.74104600  0.25320500  0.75539800  1
  V  V9  1  0.75488600  0.74968300  0.25680100  1
  Sn  Sn10  1  0.99952700  0.76351200  0.88225700  1
  Sn  Sn11  1  0.49745400  0.26458800  0.38084700  1
  O  O12  1  0.00997400  0.52041900  0.25367900  1
  O  O13  1  0.50378700  0.00824800  0.76603500  1
  O  O14  1  0.00194000  0.49071000  0.74616800  1
  O  O15  1  0.49191600  0.99048800  0.24160500  1
  O  O16  1  0.24047200  0.73180400  0.47569600  1
  O  O17  1  0.73141300  0.22460600  0.98676500  1
  O  O18  1  0.76667600  0.73738300  0.48210400  1
  O  O19  1  0.27173200  0.22070500  0.99058900  1
  O  O20  1  0.01172800  0.96397100  0.24558100  1
  O  O21  1  0.49909900  0.46595600  0.75220100  1
  O  O22  1  0.00351800  0.02767000  0.74493200  1
  O  O23  1  0.49467400  0.53002400  0.24198900  1
  O  O24  1  0.22866800  0.25552200  0.51402700  1
  O  O25  1  0.72633500  0.76296400  0.01443800  1
  O  O26  1  0.76965100  0.25622400  0.51059800  1
  O  O27  1  0.27043100  0.75737100  0.01535500  1
