# generated using pymatgen
data_Li(BiO2)2
_symmetry_space_group_name_H-M   'P 1'
_cell_length_a   5.51597600
_cell_length_b   6.12331400
_cell_length_c   11.59319500
_cell_angle_alpha   90.00000000
_cell_angle_beta   90.00000000
_cell_angle_gamma   90.00000000
_symmetry_Int_Tables_number   1
_chemical_formula_structural   Li(BiO2)2
_chemical_formula_sum   'Li4 Bi8 O16'
_cell_volume   391.57236951
_cell_formula_units_Z   4
loop_
 _symmetry_equiv_pos_site_id
 _symmetry_equiv_pos_as_xyz
  1  'x, y, z'
loop_
 _atom_site_type_symbol
 _atom_site_label
 _atom_site_symmetry_multiplicity
 _atom_site_fract_x
 _atom_site_fract_y
 _atom_site_fract_z
 _atom_site_occupancy
  Li  Li0  1  0.00000000  0.00000000  0.00000000  1
  Li  Li1  1  0.00000000  0.50000000  0.50000000  1
  Li  Li2  1  0.50000000  0.50000000  0.00000000  1
  Li  Li3  1  0.50000000  0.00000000  0.50000000  1
  Bi  Bi4  1  0.00893400  0.59784000  0.13966300  1
  Bi  Bi5  1  0.00893400  0.90216000  0.63966300  1
  Bi  Bi6  1  0.49106600  0.40216000  0.63966300  1
  Bi  Bi7  1  0.49106600  0.09784000  0.13966300  1
  Bi  Bi8  1  0.50893400  0.90216000  0.86033700  1
  Bi  Bi9  1  0.50893400  0.59784000  0.36033700  1
  Bi  Bi10  1  0.99106600  0.09784000  0.36033700  1
  Bi  Bi11  1  0.99106600  0.40216000  0.86033700  1
  O  O12  1  0.17807200  0.32384700  0.03538000  1
  O  O13  1  0.17807200  0.17615300  0.53538000  1
  O  O14  1  0.15927100  0.05905600  0.81219100  1
  O  O15  1  0.15927100  0.44094400  0.31219100  1
  O  O16  1  0.34072900  0.55905600  0.81219100  1
  O  O17  1  0.34072900  0.94094400  0.31219100  1
  O  O18  1  0.32192800  0.82384700  0.03538000  1
  O  O19  1  0.32192800  0.67615300  0.53538000  1
  O  O20  1  0.67807200  0.32384700  0.46462000  1
  O  O21  1  0.67807200  0.17615300  0.96462000  1
  O  O22  1  0.65927100  0.44094400  0.18780900  1
  O  O23  1  0.65927100  0.05905600  0.68780900  1
  O  O24  1  0.84072900  0.94094400  0.18780900  1
  O  O25  1  0.84072900  0.55905600  0.68780900  1
  O  O26  1  0.82192800  0.82384700  0.46462000  1
  O  O27  1  0.82192800  0.67615300  0.96462000  1
