# generated using pymatgen
data_Li9Mn2Co5O16
_symmetry_space_group_name_H-M   'P 1'
_cell_length_a   5.18769418
_cell_length_b   10.25830000
_cell_length_c   5.94581346
_cell_angle_alpha   103.79850796
_cell_angle_beta   70.10200679
_cell_angle_gamma   84.76376179
_symmetry_Int_Tables_number   1
_chemical_formula_structural   Li9Mn2Co5O16
_chemical_formula_sum   'Li9 Mn2 Co5 O16'
_cell_volume   283.74282839
_cell_formula_units_Z   1
loop_
 _symmetry_equiv_pos_site_id
 _symmetry_equiv_pos_as_xyz
  1  'x, y, z'
loop_
 _atom_site_type_symbol
 _atom_site_label
 _atom_site_symmetry_multiplicity
 _atom_site_fract_x
 _atom_site_fract_y
 _atom_site_fract_z
 _atom_site_occupancy
  Li  Li0  1  0.49838703  0.12801207  0.93953852  1
  Li  Li1  1  0.49913170  0.37944731  0.31401101  1
  Li  Li2  1  0.48778620  0.62181296  0.67961288  1
  Li  Li3  1  0.50968542  0.86644249  0.04976905  1
  Li  Li4  1  0.50050006  0.13128259  0.44539236  1
  Li  Li5  1  0.50386946  0.37693990  0.81275558  1
  Li  Li6  1  0.49233142  0.62745319  0.19833232  1
  Li  Li7  1  0.50004262  0.86589235  0.55631632  1
  Li  Li8  1  0.00556501  0.74559059  0.62351632  1
  Mn  Mn9  1  0.99502692  0.99803470  0.99378894  1
  Mn  Mn10  1  0.99436244  0.99722634  0.49651487  1
  Co  Co11  1  0.99560478  0.25319759  0.37421880  1
  Co  Co12  1  0.00744012  0.50089011  0.75203050  1
  Co  Co13  1  0.99915488  0.74849314  0.12501366  1
  Co  Co14  1  0.00197899  0.25111329  0.87463518  1
  Co  Co15  1  0.00682536  0.50484208  0.26056001  1
  O  O16  1  0.23642923  0.06721808  0.73882488  1
  O  O17  1  0.22342352  0.32007408  0.11622320  1
  O  O18  1  0.23492951  0.55816954  0.48951734  1
  O  O19  1  0.23092263  0.81986677  0.86935985  1
  O  O20  1  0.20424598  0.06491490  0.21431675  1
  O  O21  1  0.22605037  0.31446536  0.61025099  1
  O  O22  1  0.23420827  0.57236326  0.00043878  1
  O  O23  1  0.21013668  0.81551143  0.32750283  1
  O  O24  1  0.76750909  0.18171277  0.13347446  1
  O  O25  1  0.77122137  0.43318810  0.51167127  1
  O  O26  1  0.79970716  0.68242803  0.92627080  1
  O  O27  1  0.75674072  0.92999480  0.25324440  1
  O  O28  1  0.76927393  0.18450232  0.63335184  1
  O  O29  1  0.78043568  0.43058755  0.00707088  1
  O  O30  1  0.77431810  0.68288549  0.38323659  1
  O  O31  1  0.78275532  0.94544684  0.78923884  1
