# generated using pymatgen
data_Li2TiCrO4
_symmetry_space_group_name_H-M   'P 1'
_cell_length_a   5.22994615
_cell_length_b   7.96333513
_cell_length_c   7.79001101
_cell_angle_alpha   73.34619564
_cell_angle_beta   105.20203985
_cell_angle_gamma   91.53211243
_symmetry_Int_Tables_number   1
_chemical_formula_structural   Li2TiCrO4
_chemical_formula_sum   'Li8 Ti4 Cr4 O16'
_cell_volume   299.53976985
_cell_formula_units_Z   4
loop_
 _symmetry_equiv_pos_site_id
 _symmetry_equiv_pos_as_xyz
  1  'x, y, z'
loop_
 _atom_site_type_symbol
 _atom_site_label
 _atom_site_symmetry_multiplicity
 _atom_site_fract_x
 _atom_site_fract_y
 _atom_site_fract_z
 _atom_site_occupancy
  Li  Li0  1  0.32361200  0.37099300  0.43504400  1
  Li  Li1  1  0.56114100  0.87488100  0.18823200  1
  Li  Li2  1  0.06110400  0.87526200  0.68770000  1
  Li  Li3  1  0.82312900  0.37075800  0.93550700  1
  Li  Li4  1  0.86990000  0.25283800  0.62568000  1
  Li  Li5  1  0.11339400  0.75466700  0.37728300  1
  Li  Li6  1  0.61312300  0.75465300  0.87746800  1
  Li  Li7  1  0.36906500  0.25288300  0.12610100  1
  Ti  Ti8  1  0.68591100  0.62795500  0.56242600  1
  Ti  Ti9  1  0.93137600  0.12349100  0.31515400  1
  Ti  Ti10  1  0.43143000  0.12336600  0.81515800  1
  Ti  Ti11  1  0.18570100  0.62800100  0.06174500  1
  Cr  Cr12  1  0.49487200  0.00192400  0.50132200  1
  Cr  Cr13  1  0.75770600  0.49674000  0.24848900  1
  Cr  Cr14  1  0.25752800  0.49665100  0.74862900  1
  Cr  Cr15  1  0.99475700  0.00206900  0.00085000  1
  O  O16  1  0.40079700  0.72239600  0.62546400  1
  O  O17  1  0.65690700  0.25583300  0.36220100  1
  O  O18  1  0.15735300  0.25542200  0.86246900  1
  O  O19  1  0.90161900  0.72235500  0.12538200  1
  O  O20  1  0.97726200  0.51010800  0.50401600  1
  O  O21  1  0.21920600  0.01185200  0.25630200  1
  O  O22  1  0.71927000  0.01210100  0.75629400  1
  O  O23  1  0.47739700  0.51022800  0.00418500  1
  O  O24  1  0.80229400  0.87912700  0.43953800  1
  O  O25  1  0.05041800  0.37963600  0.18981500  1
  O  O26  1  0.55019800  0.37953500  0.69017700  1
  O  O27  1  0.30220300  0.87905400  0.93956300  1
  O  O28  1  0.19401500  0.11965100  0.56240800  1
  O  O29  1  0.46148700  0.61758900  0.30651000  1
  O  O30  1  0.96212700  0.61829200  0.80691500  1
  O  O31  1  0.69369800  0.11968900  0.06197100  1
