# generated using pymatgen
data_LiScAg2
_symmetry_space_group_name_H-M   'P 1'
_cell_length_a   11.58282046
_cell_length_b   11.58282046
_cell_length_c   11.58282046
_cell_angle_alpha   123.87219197
_cell_angle_beta   118.38557438
_cell_angle_gamma   88.12351858
_symmetry_Int_Tables_number   1
_chemical_formula_structural   LiScAg2
_chemical_formula_sum   'Li1 Sc1 Ag2'
_cell_volume   1076.22129715
_cell_formula_units_Z   1
loop_
 _symmetry_equiv_pos_site_id
 _symmetry_equiv_pos_as_xyz
  1  'x, y, z'
loop_
 _atom_site_type_symbol
 _atom_site_label
 _atom_site_symmetry_multiplicity
 _atom_site_fract_x
 _atom_site_fract_y
 _atom_site_fract_z
 _atom_site_occupancy
  Li  Li0  1  0.00000000  0.00000000  0.00000000  1
  Sc  Sc1  1  0.00000000  0.50000000  0.50000000  1
  Ag  Ag2  1  0.00000000  0.24429200  0.24429200  1
  Ag  Ag3  1  0.00000000  0.75570800  0.75570800  1
