# generated using pymatgen
data_Li9Mn2Co5O16
_symmetry_space_group_name_H-M   'P 1'
_cell_length_a   2.90094500
_cell_length_b   10.11012949
_cell_length_c   10.61014346
_cell_angle_alpha   113.77555669
_cell_angle_beta   96.53049505
_cell_angle_gamma   90.77693556
_symmetry_Int_Tables_number   1
_chemical_formula_structural   Li9Mn2Co5O16
_chemical_formula_sum   'Li9 Mn2 Co5 O16'
_cell_volume   282.32203402
_cell_formula_units_Z   1
loop_
 _symmetry_equiv_pos_site_id
 _symmetry_equiv_pos_as_xyz
  1  'x, y, z'
loop_
 _atom_site_type_symbol
 _atom_site_label
 _atom_site_symmetry_multiplicity
 _atom_site_fract_x
 _atom_site_fract_y
 _atom_site_fract_z
 _atom_site_occupancy
  Li  Li0  1  0.12754100  0.68611300  0.25201600  1
  Li  Li1  1  0.87587900  0.82440700  0.75780800  1
  Li  Li2  1  0.61697300  0.94138100  0.24489900  1
  Li  Li3  1  0.62283300  0.43833300  0.25000500  1
  Li  Li4  1  0.37716700  0.56166700  0.74999500  1
  Li  Li5  1  0.12412100  0.17559300  0.24219200  1
  Li  Li6  1  0.87245900  0.31388700  0.74798400  1
  Li  Li7  1  0.38302700  0.05861900  0.75510100  1
  Li  Li8  1  0.50000000  0.00000000  0.00000000  1
  Mn  Mn9  1  0.00169800  0.75634300  0.00234000  1
  Mn  Mn10  1  0.99830200  0.24365700  0.99766000  1
  Co  Co11  1  0.75189800  0.87501900  0.50002100  1
  Co  Co12  1  0.24810200  0.12498100  0.49997900  1
  Co  Co13  1  0.74795300  0.37544500  0.50006400  1
  Co  Co14  1  0.50000000  0.50000000  0.00000000  1
  Co  Co15  1  0.25204700  0.62455500  0.49993600  1
  O  O16  1  0.54680200  0.70854800  0.10636800  1
  O  O17  1  0.32691600  0.84012000  0.61610000  1
  O  O18  1  0.05999100  0.94834000  0.11776800  1
  O  O19  1  0.04607300  0.46454000  0.10587900  1
  O  O20  1  0.81899400  0.59034200  0.61623800  1
  O  O21  1  0.55012800  0.22549800  0.11130000  1
  O  O22  1  0.31615100  0.34264900  0.61769700  1
  O  O23  1  0.82380300  0.09352500  0.61473100  1
  O  O24  1  0.68384900  0.65735100  0.38230300  1
  O  O25  1  0.44987200  0.77450200  0.88870000  1
  O  O26  1  0.17619700  0.90647500  0.38526900  1
  O  O27  1  0.18100600  0.40965800  0.38376200  1
  O  O28  1  0.95392700  0.53546000  0.89412100  1
  O  O29  1  0.67308400  0.15988000  0.38390000  1
  O  O30  1  0.45319800  0.29145200  0.89363200  1
  O  O31  1  0.94000900  0.05166000  0.88223200  1
