# generated using pymatgen
data_Li5Fe3(SbO5)2
_symmetry_space_group_name_H-M   'P 1'
_cell_length_a   6.93898967
_cell_length_b   8.17818436
_cell_length_c   8.22762262
_cell_angle_alpha   114.96180873
_cell_angle_beta   89.48882727
_cell_angle_gamma   91.24735071
_symmetry_Int_Tables_number   1
_chemical_formula_structural   Li5Fe3(SbO5)2
_chemical_formula_sum   'Li10 Fe6 Sb4 O20'
_cell_volume   423.18975008
_cell_formula_units_Z   2
loop_
 _symmetry_equiv_pos_site_id
 _symmetry_equiv_pos_as_xyz
  1  'x, y, z'
loop_
 _atom_site_type_symbol
 _atom_site_label
 _atom_site_symmetry_multiplicity
 _atom_site_fract_x
 _atom_site_fract_y
 _atom_site_fract_z
 _atom_site_occupancy
  Li  Li0  1  0.24839700  0.75418700  0.49990200  1
  Li  Li1  1  0.75823900  0.25485300  0.50559800  1
  Li  Li2  1  0.12868200  0.37512000  0.40939400  1
  Li  Li3  1  0.64326000  0.87297900  0.39298500  1
  Li  Li4  1  0.36959700  0.11941300  0.59214600  1
  Li  Li5  1  0.85574900  0.64881600  0.59352700  1
  Li  Li6  1  0.55611800  0.94682800  0.79701300  1
  Li  Li7  1  0.04938100  0.44957900  0.79991300  1
  Li  Li8  1  0.94566100  0.54794900  0.19311100  1
  Li  Li9  1  0.45964100  0.04008900  0.19514900  1
  Fe  Fe10  1  0.25338000  0.24762400  0.99866100  1
  Fe  Fe11  1  0.65238400  0.34642700  0.89652800  1
  Fe  Fe12  1  0.84582700  0.14817800  0.10761200  1
  Fe  Fe13  1  0.75162800  0.75372800  0.99935700  1
  Fe  Fe14  1  0.14841600  0.84682200  0.88811800  1
  Fe  Fe15  1  0.35246200  0.65412100  0.11068900  1
  Sb  Sb16  1  0.44299300  0.54796000  0.70260600  1
  Sb  Sb17  1  0.94488600  0.05088800  0.69935300  1
  Sb  Sb18  1  0.06660900  0.95132400  0.29365200  1
  Sb  Sb19  1  0.55629700  0.45068200  0.30397800  1
  O  O20  1  0.85599200  0.90500400  0.83526100  1
  O  O21  1  0.35991700  0.41362100  0.85211200  1
  O  O22  1  0.64768200  0.58378800  0.15740000  1
  O  O23  1  0.15969700  0.08950000  0.12199400  1
  O  O24  1  0.44936100  0.78373200  0.92086400  1
  O  O25  1  0.94765800  0.27775000  0.94148900  1
  O  O26  1  0.04856700  0.69725600  0.05585700  1
  O  O27  1  0.54856600  0.22051100  0.07736000  1
  O  O28  1  0.54208100  0.67360200  0.54461800  1
  O  O29  1  0.02661400  0.21190800  0.58390000  1
  O  O30  1  0.94546900  0.81772500  0.47376700  1
  O  O31  1  0.45761900  0.32309400  0.46435300  1
  O  O32  1  0.28044000  0.48903400  0.25293300  1
  O  O33  1  0.73586000  0.98736700  0.22236200  1
  O  O34  1  0.22507400  0.01045700  0.74290300  1
  O  O35  1  0.71964300  0.51617800  0.75972600  1
  O  O36  1  0.17127400  0.59535800  0.65883100  1
  O  O37  1  0.66338600  0.10046800  0.66850000  1
  O  O38  1  0.35570500  0.89075700  0.33851700  1
  O  O39  1  0.82978600  0.40532100  0.34796200  1
