# generated using pymatgen
data_Li6V3P8O29
_symmetry_space_group_name_H-M   'P 1'
_cell_length_a   9.79197400
_cell_length_b   9.81105580
_cell_length_c   13.99262945
_cell_angle_alpha   90.07001439
_cell_angle_beta   89.96627595
_cell_angle_gamma   119.87583862
_symmetry_Int_Tables_number   1
_chemical_formula_structural   Li6V3P8O29
_chemical_formula_sum   'Li12 V6 P16 O58'
_cell_volume   1165.62174136
_cell_formula_units_Z   2
loop_
 _symmetry_equiv_pos_site_id
 _symmetry_equiv_pos_as_xyz
  1  'x, y, z'
loop_
 _atom_site_type_symbol
 _atom_site_label
 _atom_site_symmetry_multiplicity
 _atom_site_fract_x
 _atom_site_fract_y
 _atom_site_fract_z
 _atom_site_occupancy
  Li  Li0  1  0.76862500  0.67481100  0.94276400  1
  Li  Li1  1  0.90541900  0.66411100  0.43500100  1
  Li  Li2  1  0.33945500  0.23823300  0.43508100  1
  Li  Li3  1  0.66418200  0.33248400  0.11674400  1
  Li  Li4  1  0.32596300  0.09468000  0.94033300  1
  Li  Li5  1  0.90548500  0.23032500  0.94287500  1
  Li  Li6  1  0.76308700  0.09797600  0.43515800  1
  Li  Li7  1  0.33290000  0.66832900  0.89174300  1
  Li  Li8  1  0.66455400  0.76394000  0.55684800  1
  Li  Li9  1  0.10042300  0.33548800  0.55718900  1
  Li  Li10  1  0.00283500  0.99975100  0.01648600  1
  Li  Li11  1  0.02862700  0.98349100  0.49533300  1
  V  V12  1  0.43178700  0.00021100  0.74824600  1
  V  V13  1  0.56102900  0.99878400  0.25015700  1
  V  V14  1  0.00379200  0.56494300  0.24810000  1
  V  V15  1  0.99775400  0.43380600  0.74948000  1
  V  V16  1  0.56635900  0.56572000  0.75181000  1
  V  V17  1  0.43509700  0.43804000  0.24741200  1
  P  P18  1  0.77844000  0.68569800  0.15695800  1
  P  P19  1  0.91521500  0.68777700  0.65423500  1
  P  P20  1  0.31467200  0.23011700  0.65731200  1
  P  P21  1  0.66604500  0.33199900  0.87373300  1
  P  P22  1  0.66826400  0.33591200  0.37131600  1
  P  P23  1  0.31315400  0.09121000  0.15422600  1
  P  P24  1  0.22172800  0.91762100  0.33958500  1
  P  P25  1  0.90611600  0.22101000  0.15850900  1
  P  P26  1  0.08716400  0.77749800  0.83971400  1
  P  P27  1  0.76988600  0.08371000  0.65549900  1
  P  P28  1  0.68936800  0.91321000  0.84126500  1
  P  P29  1  0.33384400  0.66615000  0.63135300  1
  P  P30  1  0.33473300  0.66750900  0.13021100  1
  P  P31  1  0.68745200  0.77365000  0.34119700  1
  P  P32  1  0.08582000  0.31153100  0.34218600  1
  P  P33  1  0.22154500  0.31123900  0.84186500  1
  O  O34  1  0.78039000  0.77797500  0.42963700  1
  O  O35  1  0.74649800  0.66264200  0.66299400  1
  O  O36  1  0.99176000  0.78353700  0.92103400  1
  O  O37  1  0.91910000  0.65905300  0.16315900  1
  O  O38  1  0.62705700  0.52128100  0.16917100  1
  O  O39  1  0.67389600  0.48602900  0.83563400  1
  O  O40  1  0.47008600  0.38601900  0.67406900  1
  O  O41  1  0.21468400  0.20982800  0.92306000  1
  O  O42  1  0.33885900  0.25766400  0.16321500  1
  O  O43  1  0.81549900  0.48794500  0.33017300  1
  O  O44  1  0.91535900  0.53151900  0.67149500  1
  O  O45  1  0.51608100  0.33037800  0.32895700  1
  O  O46  1  0.66828000  0.33133700  0.98150200  1
  O  O47  1  0.66690100  0.33845900  0.47832600  1
  O  O48  1  0.51273000  0.18720000  0.83476900  1
  O  O49  1  0.89269000  0.37191300  0.17062900  1
  O  O50  1  0.81268400  0.32571700  0.83311400  1
  O  O51  1  0.34208500  0.08985800  0.66417100  1
  O  O52  1  0.20086800  0.98948100  0.24089000  1
  O  O53  1  0.20880700  0.01228300  0.42039700  1
  O  O54  1  0.23063900  0.01275800  0.06309900  1
  O  O55  1  0.47778800  0.10545000  0.16924900  1
  O  O56  1  0.67522300  0.18938000  0.33194000  1
  O  O57  1  0.25803900  0.92024900  0.84133300  1
  O  O58  1  0.61784000  0.08919200  0.67306400  1
  O  O59  1  0.91666100  0.24985900  0.65957200  1
  O  O60  1  0.01365200  0.80010900  0.74125200  1
  O  O61  1  0.98689000  0.76729400  0.56129200  1
  O  O62  1  0.99776300  0.22106200  0.43108700  1
  O  O63  1  0.08556800  0.74702400  0.34182400  1
  O  O64  1  0.38347400  0.92655000  0.33292500  1
  O  O65  1  0.73751300  0.08029100  0.16597600  1
  O  O66  1  0.32455100  0.80634400  0.67734500  1
  O  O67  1  0.52634000  0.90163300  0.83203900  1
  O  O68  1  0.79194900  0.00660300  0.92251100  1
  O  O69  1  0.76814000  0.00009600  0.56423700  1
  O  O70  1  0.78615900  0.98653700  0.74286900  1
  O  O71  1  0.66302200  0.91732100  0.34143100  1
  O  O72  1  0.18299800  0.65945800  0.17336600  1
  O  O73  1  0.10168800  0.62735000  0.83010700  1
  O  O74  1  0.47648600  0.81453700  0.17391000  1
  O  O75  1  0.33237500  0.66356900  0.02365100  1
  O  O76  1  0.33849900  0.66286600  0.52482200  1
  O  O77  1  0.48922700  0.67413200  0.67229100  1
  O  O78  1  0.08479100  0.46638100  0.33205800  1
  O  O79  1  0.18651600  0.50898600  0.67004700  1
  O  O80  1  0.65970400  0.74119000  0.84221800  1
  O  O81  1  0.79230000  0.79367200  0.24803900  1
  O  O82  1  0.78167600  0.77068700  0.06723300  1
  O  O83  1  0.53226700  0.61875900  0.33195100  1
  O  O84  1  0.33911500  0.52206600  0.17378200  1
  O  O85  1  0.37098900  0.47530700  0.83216700  1
  O  O86  1  0.07793700  0.33876000  0.84162100  1
  O  O87  1  0.98554500  0.21543700  0.06821300  1
  O  O88  1  0.00024500  0.20626600  0.24882900  1
  O  O89  1  0.25355800  0.33666400  0.34196300  1
  O  O90  1  0.23299600  0.22924600  0.56529500  1
  O  O91  1  0.20007500  0.21468300  0.74348600  1
