# generated using pymatgen
data_Li4Mn3O7
_symmetry_space_group_name_H-M   'P 1'
_cell_length_a   5.07744100
_cell_length_b   5.28039680
_cell_length_c   10.18821875
_cell_angle_alpha   96.11953990
_cell_angle_beta   101.49717573
_cell_angle_gamma   102.30032238
_symmetry_Int_Tables_number   1
_chemical_formula_structural   Li4Mn3O7
_chemical_formula_sum   'Li8 Mn6 O14'
_cell_volume   258.34055132
_cell_formula_units_Z   2
loop_
 _symmetry_equiv_pos_site_id
 _symmetry_equiv_pos_as_xyz
  1  'x, y, z'
loop_
 _atom_site_type_symbol
 _atom_site_label
 _atom_site_symmetry_multiplicity
 _atom_site_fract_x
 _atom_site_fract_y
 _atom_site_fract_z
 _atom_site_occupancy
  Li  Li0  1  0.26931400  0.08824200  0.57217300  1
  Li  Li1  1  0.86559100  0.21014000  0.70582900  1
  Li  Li2  1  0.42403900  0.36807700  0.85822000  1
  Li  Li3  1  0.13440900  0.78986000  0.29417100  1
  Li  Li4  1  0.73068600  0.91175800  0.42782700  1
  Li  Li5  1  0.00000000  0.50000000  0.00000000  1
  Li  Li6  1  0.57596100  0.63192300  0.14178000  1
  Li  Li7  1  0.00000000  0.50000000  0.50000000  1
  Mn  Mn8  1  0.56853400  0.62586300  0.63786600  1
  Mn  Mn9  1  0.43146600  0.37413700  0.36213400  1
  Mn  Mn10  1  0.14226300  0.76760300  0.77771500  1
  Mn  Mn11  1  0.71670200  0.92560000  0.92650300  1
  Mn  Mn12  1  0.28329800  0.07440000  0.07349700  1
  Mn  Mn13  1  0.85773700  0.23239700  0.22228500  1
  O  O14  1  0.37676400  0.68157400  0.46451600  1
  O  O15  1  0.92052600  0.84798500  0.61806600  1
  O  O16  1  0.50260400  0.94736800  0.74238400  1
  O  O17  1  0.20699900  0.43230800  0.19341100  1
  O  O18  1  0.75942500  0.56943200  0.32541400  1
  O  O19  1  0.06643200  0.13585600  0.90369900  1
  O  O20  1  0.63309500  0.27507700  0.04548200  1
  O  O21  1  0.24057500  0.43056800  0.67458600  1
  O  O22  1  0.79300100  0.56769200  0.80658900  1
  O  O23  1  0.36690500  0.72492300  0.95451800  1
  O  O24  1  0.07947400  0.15201500  0.38193400  1
  O  O25  1  0.62323600  0.31842600  0.53548400  1
  O  O26  1  0.93356800  0.86414400  0.09630100  1
  O  O27  1  0.49739600  0.05263200  0.25761600  1
