# generated using pymatgen
data_Li5Ti2V3O10
_symmetry_space_group_name_H-M   'P 1'
_cell_length_a   5.16516798
_cell_length_b   5.18441452
_cell_length_c   14.43214998
_cell_angle_alpha   94.65586422
_cell_angle_beta   85.70517868
_cell_angle_gamma   99.91059099
_symmetry_Int_Tables_number   1
_chemical_formula_structural   Li5Ti2V3O10
_chemical_formula_sum   'Li10 Ti4 V6 O20'
_cell_volume   378.71508399
_cell_formula_units_Z   2
loop_
 _symmetry_equiv_pos_site_id
 _symmetry_equiv_pos_as_xyz
  1  'x, y, z'
loop_
 _atom_site_type_symbol
 _atom_site_label
 _atom_site_symmetry_multiplicity
 _atom_site_fract_x
 _atom_site_fract_y
 _atom_site_fract_z
 _atom_site_occupancy
  Li  Li0  1  0.74933300  0.74858500  0.24623700  1
  Li  Li1  1  0.24512800  0.24710600  0.75040800  1
  Li  Li2  1  0.19550200  0.51585400  0.29534200  1
  Li  Li3  1  0.69386600  0.01935700  0.79620100  1
  Li  Li4  1  0.30098000  0.97524800  0.20082900  1
  Li  Li5  1  0.79905700  0.47898200  0.70160300  1
  Li  Li6  1  0.41103400  0.50557900  0.10943500  1
  Li  Li7  1  0.90634000  0.00140600  0.60930900  1
  Li  Li8  1  0.08874100  0.99347100  0.38775300  1
  Li  Li9  1  0.58431100  0.48940700  0.88776100  1
  Ti  Ti10  1  0.86425000  0.24594700  0.15452800  1
  Ti  Ti11  1  0.36808700  0.75414900  0.65144800  1
  Ti  Ti12  1  0.62686500  0.24121300  0.34533200  1
  Ti  Ti13  1  0.13104100  0.74922700  0.84230100  1
  V  V14  1  0.49737900  0.99691200  0.99857200  1
  V  V15  1  0.43960400  0.24162400  0.55047500  1
  V  V16  1  0.55555000  0.75341700  0.44644400  1
  V  V17  1  0.99739100  0.49701300  0.49852400  1
  V  V18  1  0.94784000  0.73244600  0.04808300  1
  V  V19  1  0.04749800  0.26300800  0.94880900  1
  O  O20  1  0.15517200  0.11611000  0.07550600  1
  O  O21  1  0.66487300  0.62339400  0.57529600  1
  O  O22  1  0.33004900  0.37143900  0.42173000  1
  O  O23  1  0.84028700  0.88023400  0.92133600  1
  O  O24  1  0.55002900  0.36037700  0.22938900  1
  O  O25  1  0.04624600  0.86051500  0.72710500  1
  O  O26  1  0.94868400  0.13464500  0.26981600  1
  O  O27  1  0.44487400  0.63505100  0.76759600  1
  O  O28  1  0.72573000  0.36697100  0.03288100  1
  O  O29  1  0.21773000  0.85410000  0.53093400  1
  O  O30  1  0.77715600  0.14069500  0.46604800  1
  O  O31  1  0.26986400  0.62661600  0.96369500  1
  O  O32  1  0.87688500  0.60253200  0.37869200  1
  O  O33  1  0.35177900  0.10733300  0.87432300  1
  O  O34  1  0.64234100  0.88790600  0.12279800  1
  O  O35  1  0.11813500  0.39224600  0.61840100  1
  O  O36  1  0.06554300  0.59409100  0.16927100  1
  O  O37  1  0.55981900  0.09671400  0.67093200  1
  O  O38  1  0.43528100  0.89841500  0.32608300  1
  O  O39  1  0.92922600  0.40110900  0.82781400  1
