# generated using pymatgen
data_Li9Mn2Co5O16
_symmetry_space_group_name_H-M   'P 1'
_cell_length_a   5.13647000
_cell_length_b   7.71830936
_cell_length_c   7.79100997
_cell_angle_alpha   98.74034747
_cell_angle_beta   101.94351236
_cell_angle_gamma   102.52339048
_symmetry_Int_Tables_number   1
_chemical_formula_structural   Li9Mn2Co5O16
_chemical_formula_sum   'Li9 Mn2 Co5 O16'
_cell_volume   288.66463853
_cell_formula_units_Z   1
loop_
 _symmetry_equiv_pos_site_id
 _symmetry_equiv_pos_as_xyz
  1  'x, y, z'
loop_
 _atom_site_type_symbol
 _atom_site_label
 _atom_site_symmetry_multiplicity
 _atom_site_fract_x
 _atom_site_fract_y
 _atom_site_fract_z
 _atom_site_occupancy
  Li  Li0  1  0.50048700  0.87566600  0.62642200  1
  Li  Li1  1  0.49040200  0.74783700  0.24419800  1
  Li  Li2  1  0.49951300  0.12433400  0.37357800  1
  Li  Li3  1  0.50000000  0.00000000  0.00000000  1
  Li  Li4  1  0.50428200  0.38069300  0.11925600  1
  Li  Li5  1  0.50959800  0.25216300  0.75580200  1
  Li  Li6  1  0.49571800  0.61930700  0.88074400  1
  Li  Li7  1  0.50000000  0.50000000  0.50000000  1
  Li  Li8  1  0.00000000  0.50000000  0.00000000  1
  Mn  Mn9  1  0.00516700  0.74939300  0.75169700  1
  Mn  Mn10  1  0.99483300  0.25060700  0.24830300  1
  Co  Co11  1  0.00443200  0.62398300  0.36951400  1
  Co  Co12  1  0.99556800  0.37601700  0.63048600  1
  Co  Co13  1  0.00727300  0.13646900  0.87834100  1
  Co  Co14  1  0.00000000  0.00000000  0.50000000  1
  Co  Co15  1  0.99272700  0.86353100  0.12165900  1
  O  O16  1  0.78205800  0.87655700  0.86927100  1
  O  O17  1  0.78109200  0.74899100  0.51190500  1
  O  O18  1  0.76727000  0.12421400  0.62569100  1
  O  O19  1  0.77288600  0.01430000  0.25607500  1
  O  O20  1  0.77295200  0.37312700  0.36939800  1
  O  O21  1  0.77210400  0.24411500  0.01631300  1
  O  O22  1  0.76116600  0.64365800  0.13433500  1
  O  O23  1  0.77574100  0.50784800  0.74013200  1
  O  O24  1  0.23273000  0.87578600  0.37430900  1
  O  O25  1  0.22789600  0.75588500  0.98368700  1
  O  O26  1  0.21794200  0.12344300  0.13072900  1
  O  O27  1  0.22711400  0.98570000  0.74392500  1
  O  O28  1  0.23883400  0.35634200  0.86566500  1
  O  O29  1  0.21890800  0.25100900  0.48809500  1
  O  O30  1  0.22704800  0.62687300  0.63060200  1
  O  O31  1  0.22425900  0.49215200  0.25986800  1
