# generated using pymatgen
data_Li4MnCo2O7
_symmetry_space_group_name_H-M   'P 1'
_cell_length_a   7.79995557
_cell_length_b   7.79995557
_cell_length_c   13.01089718
_cell_angle_alpha   61.79049846
_cell_angle_beta   61.79049846
_cell_angle_gamma   21.35819245
_symmetry_Int_Tables_number   1
_chemical_formula_structural   Li4MnCo2O7
_chemical_formula_sum   'Li8 Mn2 Co4 O14'
_cell_volume   252.74455975
_cell_formula_units_Z   2
loop_
 _symmetry_equiv_pos_site_id
 _symmetry_equiv_pos_as_xyz
  1  'x, y, z'
loop_
 _atom_site_type_symbol
 _atom_site_label
 _atom_site_symmetry_multiplicity
 _atom_site_fract_x
 _atom_site_fract_y
 _atom_site_fract_z
 _atom_site_occupancy
  Li  Li0  1  0.64811900  0.64811900  0.78118600  1
  Li  Li1  1  0.92508300  0.92508300  0.36282300  1
  Li  Li2  1  0.22425500  0.22425500  0.91452000  1
  Li  Li3  1  0.06790500  0.06790500  0.64153800  1
  Li  Li4  1  0.35784900  0.35784900  0.21888100  1
  Li  Li5  1  0.49860600  0.49860600  0.51329700  1
  Li  Li6  1  0.78403900  0.78403900  0.06476300  1
  Li  Li7  1  0.85355300  0.85355300  0.71455000  1
  Mn  Mn8  1  0.99702300  0.99702300  0.00002300  1
  Mn  Mn9  1  0.28702300  0.28702300  0.57776000  1
  Co  Co10  1  0.57504900  0.57504900  0.14140200  1
  Co  Co11  1  0.14357800  0.14357800  0.28840600  1
  Co  Co12  1  0.42631000  0.42631000  0.83848700  1
  Co  Co13  1  0.71247100  0.71247100  0.43157100  1
  O  O14  1  0.59352600  0.59352600  0.96895600  1
  O  O15  1  0.88257800  0.88257800  0.53809600  1
  O  O16  1  0.17113400  0.17113400  0.10755500  1
  O  O17  1  0.02224600  0.02224600  0.84219900  1
  O  O18  1  0.31564200  0.31564200  0.40308600  1
  O  O19  1  0.46686000  0.46686000  0.68566500  1
  O  O20  1  0.73828700  0.73828700  0.25892900  1
  O  O21  1  0.69167400  0.69167400  0.60080800  1
  O  O22  1  0.97382500  0.97382500  0.16630500  1
  O  O23  1  0.25217200  0.25217200  0.73378700  1
  O  O24  1  0.11152100  0.11152100  0.46418200  1
  O  O25  1  0.40245900  0.40245900  0.03826900  1
  O  O26  1  0.55042400  0.55042400  0.31088100  1
  O  O27  1  0.82679200  0.82679200  0.89207800  1
