# generated using pymatgen
data_Li4MnCo2O7
_symmetry_space_group_name_H-M   'P 1'
_cell_length_a   5.09190036
_cell_length_b   5.09190036
_cell_length_c   18.02724031
_cell_angle_alpha   83.42724665
_cell_angle_beta   83.42724665
_cell_angle_gamma   32.69335610
_symmetry_Int_Tables_number   1
_chemical_formula_structural   Li4MnCo2O7
_chemical_formula_sum   'Li8 Mn2 Co4 O14'
_cell_volume   250.66028440
_cell_formula_units_Z   2
loop_
 _symmetry_equiv_pos_site_id
 _symmetry_equiv_pos_as_xyz
  1  'x, y, z'
loop_
 _atom_site_type_symbol
 _atom_site_label
 _atom_site_symmetry_multiplicity
 _atom_site_fract_x
 _atom_site_fract_y
 _atom_site_fract_z
 _atom_site_occupancy
  Li  Li0  1  0.28614500  0.28614500  0.91930700  1
  Li  Li1  1  0.86785300  0.86785300  0.79366600  1
  Li  Li2  1  0.43001500  0.43001500  0.64875200  1
  Li  Li3  1  0.00634200  0.00634200  0.50108200  1
  Li  Li4  1  0.56972500  0.56972500  0.36177800  1
  Li  Li5  1  0.13925400  0.13925400  0.21214800  1
  Li  Li6  1  0.71036100  0.71036100  0.06471100  1
  Li  Li7  1  0.56852200  0.56852200  0.85719700  1
  Mn  Mn8  1  0.99201200  0.99201200  0.99149200  1
  Mn  Mn9  1  0.85981300  0.85981300  0.28620900  1
  Co  Co10  1  0.14985300  0.14985300  0.72768300  1
  Co  Co11  1  0.71379200  0.71379200  0.57449400  1
  Co  Co12  1  0.29117100  0.29117100  0.43303800  1
  Co  Co13  1  0.42087900  0.42087900  0.13746500  1
  O  O14  1  0.36404200  0.36404200  0.02850800  1
  O  O15  1  0.93124500  0.93124500  0.89995200  1
  O  O16  1  0.51470100  0.51470100  0.74557800  1
  O  O17  1  0.09107900  0.09107900  0.60377000  1
  O  O18  1  0.65614200  0.65614200  0.47417200  1
  O  O19  1  0.22894600  0.22894600  0.32159600  1
  O  O20  1  0.79413800  0.79413800  0.17004800  1
  O  O21  1  0.21995400  0.21995400  0.81378800  1
  O  O22  1  0.77095600  0.77095600  0.66996400  1
  O  O23  1  0.33908400  0.33908400  0.54286500  1
  O  O24  1  0.92774100  0.92774100  0.39970900  1
  O  O25  1  0.48860600  0.48860600  0.25052500  1
  O  O26  1  0.04624500  0.04624500  0.10240200  1
  O  O27  1  0.62138300  0.62138300  0.96810000  1
