# generated using pymatgen
data_LiMn2O4
_symmetry_space_group_name_H-M   'P 1'
_cell_length_a   5.20771099
_cell_length_b   5.76092250
_cell_length_c   5.91167837
_cell_angle_alpha   117.27694343
_cell_angle_beta   89.62999660
_cell_angle_gamma   106.47153500
_symmetry_Int_Tables_number   1
_chemical_formula_structural   LiMn2O4
_chemical_formula_sum   'Li2 Mn4 O8'
_cell_volume   149.57150409
_cell_formula_units_Z   2
loop_
 _symmetry_equiv_pos_site_id
 _symmetry_equiv_pos_as_xyz
  1  'x, y, z'
loop_
 _atom_site_type_symbol
 _atom_site_label
 _atom_site_symmetry_multiplicity
 _atom_site_fract_x
 _atom_site_fract_y
 _atom_site_fract_z
 _atom_site_occupancy
  Li  Li0  1  0.50000000  0.00000100  0.25000600  1
  Li  Li1  1  0.50000100  0.99999800  0.74999300  1
  Mn  Mn2  1  0.99999900  0.00000400  0.50000100  1
  Mn  Mn3  1  0.00000000  0.50000000  0.00000000  1
  Mn  Mn4  1  0.99999800  0.99999800  0.99999900  1
  Mn  Mn5  1  0.00000300  0.50000100  0.50000100  1
  O  O6  1  0.78110100  0.23819500  0.59951300  1
  O  O7  1  0.78108500  0.23816700  0.09950400  1
  O  O8  1  0.21890000  0.76180400  0.40048700  1
  O  O9  1  0.21891400  0.76183300  0.90049600  1
  O  O10  1  0.20035100  0.22048600  0.34850400  1
  O  O11  1  0.20034500  0.22048800  0.84855300  1
  O  O12  1  0.79964900  0.77951400  0.65149600  1
  O  O13  1  0.79965500  0.77951100  0.15144700  1
