# generated using pymatgen
data_Li2Mn3GaO8
_symmetry_space_group_name_H-M   'P 1'
_cell_length_a   5.87792690
_cell_length_b   6.01997309
_cell_length_c   10.14763914
_cell_angle_alpha   90.02503267
_cell_angle_beta   74.15600360
_cell_angle_gamma   120.77348206
_symmetry_Int_Tables_number   1
_chemical_formula_structural   Li2Mn3GaO8
_chemical_formula_sum   'Li4 Mn6 Ga2 O16'
_cell_volume   292.55187984
_cell_formula_units_Z   2
loop_
 _symmetry_equiv_pos_site_id
 _symmetry_equiv_pos_as_xyz
  1  'x, y, z'
loop_
 _atom_site_type_symbol
 _atom_site_label
 _atom_site_symmetry_multiplicity
 _atom_site_fract_x
 _atom_site_fract_y
 _atom_site_fract_z
 _atom_site_occupancy
  Li  Li0  1  0.88421800  0.94066300  0.18115900  1
  Li  Li1  1  0.88451700  0.44495900  0.68095000  1
  Li  Li2  1  0.11553100  0.55505200  0.31909200  1
  Li  Li3  1  0.11577800  0.05929400  0.81884200  1
  Mn  Mn4  1  0.49995800  0.50003100  0.00000700  1
  Mn  Mn5  1  0.49999200  0.99998900  0.00006600  1
  Mn  Mn6  1  0.00002200  0.99996400  0.49994500  1
  Mn  Mn7  1  0.50004600  0.00000100  0.49991900  1
  Mn  Mn8  1  0.49998500  0.49996900  0.49996400  1
  Mn  Mn9  1  0.00002100  0.49999900  0.00008300  1
  Ga  Ga10  1  0.50030700  0.75186100  0.74997900  1
  Ga  Ga11  1  0.49965100  0.24819700  0.25003200  1
  O  O12  1  0.75290900  0.90308700  0.38912200  1
  O  O13  1  0.75243100  0.35036700  0.88945100  1
  O  O14  1  0.24764300  0.64963600  0.11065800  1
  O  O15  1  0.24706700  0.09686600  0.61078300  1
  O  O16  1  0.29401600  0.65378000  0.61171400  1
  O  O17  1  0.29337300  0.13940100  0.11214000  1
  O  O18  1  0.74429400  0.65294400  0.61498300  1
  O  O19  1  0.74651800  0.15003900  0.11452000  1
  O  O20  1  0.74605400  0.09655500  0.61461000  1
  O  O21  1  0.74402200  0.59122100  0.11517000  1
  O  O22  1  0.25350300  0.84996800  0.88558500  1
  O  O23  1  0.25559200  0.34698100  0.38498500  1
  O  O24  1  0.25595800  0.40880500  0.88485500  1
  O  O25  1  0.25402200  0.90351500  0.38529300  1
  O  O26  1  0.70658800  0.86056200  0.88787200  1
  O  O27  1  0.70598300  0.34629500  0.38822000  1
