# generated using pymatgen
data_Li2SnS3
_symmetry_space_group_name_H-M   'P 1'
_cell_length_a   6.44676995
_cell_length_b   6.44676995
_cell_length_c   12.47810078
_cell_angle_alpha   85.06947561
_cell_angle_beta   85.06947561
_cell_angle_gamma   120.00861973
_symmetry_Int_Tables_number   1
_chemical_formula_structural   Li2SnS3
_chemical_formula_sum   'Li8 Sn4 S12'
_cell_volume   442.39584123
_cell_formula_units_Z   4
loop_
 _symmetry_equiv_pos_site_id
 _symmetry_equiv_pos_as_xyz
  1  'x, y, z'
loop_
 _atom_site_type_symbol
 _atom_site_label
 _atom_site_symmetry_multiplicity
 _atom_site_fract_x
 _atom_site_fract_y
 _atom_site_fract_z
 _atom_site_occupancy
  Li  Li0  1  0.83886600  0.67002800  0.49956900  1
  Li  Li1  1  0.32997200  0.16113400  0.00043100  1
  Li  Li2  1  0.16113400  0.32997200  0.50043100  1
  Li  Li3  1  0.67002800  0.83886600  0.99956900  1
  Li  Li4  1  0.41694700  0.58305300  0.75000000  1
  Li  Li5  1  0.58305300  0.41694700  0.25000000  1
  Li  Li6  1  0.00000000  0.50000000  0.00000000  1
  Li  Li7  1  0.50000000  0.00000000  0.50000000  1
  Sn  Sn8  1  0.08327300  0.91672700  0.75000000  1
  Sn  Sn9  1  0.91672700  0.08327300  0.25000000  1
  Sn  Sn10  1  0.74988100  0.25011900  0.75000000  1
  Sn  Sn11  1  0.25011900  0.74988100  0.25000000  1
  S  S12  1  0.97020900  0.80424500  0.12979300  1
  S  S13  1  0.19575500  0.02979100  0.37020700  1
  S  S14  1  0.02979100  0.19575500  0.87020700  1
  S  S15  1  0.80424500  0.97020900  0.62979300  1
  S  S16  1  0.10805200  0.62293100  0.62977000  1
  S  S17  1  0.37706900  0.89194800  0.87023000  1
  S  S18  1  0.89194800  0.37706900  0.37023000  1
  S  S19  1  0.62293100  0.10805200  0.12977000  1
  S  S20  1  0.72470700  0.54232700  0.87222100  1
  S  S21  1  0.45767300  0.27529300  0.62777900  1
  S  S22  1  0.27529300  0.45767300  0.12777900  1
  S  S23  1  0.54232700  0.72470700  0.37222100  1
