# generated using pymatgen
data_Li6MnV3(PO4)6
_symmetry_space_group_name_H-M   'P 1'
_cell_length_a   10.17380894
_cell_length_b   10.17380894
_cell_length_c   11.80617855
_cell_angle_alpha   55.20300812
_cell_angle_beta   55.20300812
_cell_angle_gamma   70.31933980
_symmetry_Int_Tables_number   1
_chemical_formula_structural   Li6MnV3(PO4)6
_chemical_formula_sum   'Li12 Mn2 V6 P12 O48'
_cell_volume   823.93579922
_cell_formula_units_Z   2
loop_
 _symmetry_equiv_pos_site_id
 _symmetry_equiv_pos_as_xyz
  1  'x, y, z'
loop_
 _atom_site_type_symbol
 _atom_site_label
 _atom_site_symmetry_multiplicity
 _atom_site_fract_x
 _atom_site_fract_y
 _atom_site_fract_z
 _atom_site_occupancy
  Li  Li0  1  0.25081500  0.24999000  0.37342200  1
  Li  Li1  1  0.62427400  0.37572600  0.75000000  1
  Li  Li2  1  0.87682900  0.37439800  0.87339900  1
  Li  Li3  1  0.12460000  0.87540000  0.75000000  1
  Li  Li4  1  0.62560200  0.12317100  0.62660100  1
  Li  Li5  1  0.24999000  0.25081500  0.87342200  1
  Li  Li6  1  0.75001000  0.74918500  0.12657800  1
  Li  Li7  1  0.37439800  0.87682900  0.37339900  1
  Li  Li8  1  0.87540000  0.12460000  0.25000000  1
  Li  Li9  1  0.12317100  0.62560200  0.12660100  1
  Li  Li10  1  0.37572600  0.62427400  0.25000000  1
  Li  Li11  1  0.74918500  0.75001000  0.62657800  1
  Mn  Mn12  1  0.00000000  0.00000000  0.00000000  1
  Mn  Mn13  1  0.00000000  0.00000000  0.50000000  1
  V  V14  1  0.00000000  0.50000000  0.50000000  1
  V  V15  1  0.50000000  0.50000000  0.00000000  1
  V  V16  1  0.50000000  0.50000000  0.50000000  1
  V  V17  1  0.00000000  0.50000000  0.00000000  1
  V  V18  1  0.50000000  0.00000000  0.00000000  1
  V  V19  1  0.50000000  0.00000000  0.50000000  1
  P  P20  1  0.87669400  0.37327900  0.37569900  1
  P  P21  1  0.62540900  0.37459100  0.25000000  1
  P  P22  1  0.87452300  0.12547700  0.75000000  1
  P  P23  1  0.25170900  0.25276400  0.62273700  1
  P  P24  1  0.25276400  0.25170900  0.12273700  1
  P  P25  1  0.62672100  0.12330600  0.12430100  1
  P  P26  1  0.37327900  0.87669400  0.87569900  1
  P  P27  1  0.74829100  0.74723600  0.37726300  1
  P  P28  1  0.74723600  0.74829100  0.87726300  1
  P  P29  1  0.12547700  0.87452300  0.25000000  1
  P  P30  1  0.37459100  0.62540900  0.75000000  1
  P  P31  1  0.12330600  0.62672100  0.62430100  1
  O  O32  1  0.29360200  0.39496100  0.11256600  1
  O  O33  1  0.70447500  0.38161800  0.50555300  1
  O  O34  1  0.40892100  0.49341500  0.70783400  1
  O  O35  1  0.00856700  0.40684100  0.38454400  1
  O  O36  1  0.49341500  0.40892100  0.20783400  1
  O  O37  1  0.21029700  0.39036000  0.49032800  1
  O  O38  1  0.88352500  0.29833700  0.70764500  1
  O  O39  1  0.00538600  0.08737200  0.61244700  1
  O  O40  1  0.70166300  0.11647500  0.79235500  1
  O  O41  1  0.39036000  0.21029600  0.99032800  1
  O  O42  1  0.61907300  0.20107600  0.38762500  1
  O  O43  1  0.09072800  0.49778400  0.79508200  1
  O  O44  1  0.61838200  0.29552500  0.99444700  1
  O  O45  1  0.39496100  0.29360200  0.61256600  1
  O  O46  1  0.29392300  0.11158200  0.58870900  1
  O  O47  1  0.11561100  0.21595500  0.79160100  1
  O  O48  1  0.88626100  0.19736200  0.40993700  1
  O  O49  1  0.79892400  0.38092700  0.11237500  1
  O  O50  1  0.91262800  0.99461400  0.88755300  1
  O  O51  1  0.21595500  0.11561100  0.29160100  1
  O  O52  1  0.59315900  0.99143300  0.11545600  1
  O  O53  1  0.80263800  0.11373900  0.09006300  1
  O  O54  1  0.50221600  0.90927200  0.70491800  1
  O  O55  1  0.11158200  0.29392300  0.08870900  1
  O  O56  1  0.88841800  0.70607700  0.91129100  1
  O  O57  1  0.49778400  0.09072800  0.29508200  1
  O  O58  1  0.19736200  0.88626100  0.90993700  1
  O  O59  1  0.40684100  0.00856700  0.88454400  1
  O  O60  1  0.78404500  0.88438900  0.70839900  1
  O  O61  1  0.08737200  0.00538600  0.11244700  1
  O  O62  1  0.20107600  0.61907300  0.88762500  1
  O  O63  1  0.11373900  0.80263800  0.59006300  1
  O  O64  1  0.88438900  0.78404500  0.20839900  1
  O  O65  1  0.70607700  0.88841800  0.41129100  1
  O  O66  1  0.60503900  0.70639800  0.38743400  1
  O  O67  1  0.38161800  0.70447500  0.00555300  1
  O  O68  1  0.90927200  0.50221600  0.20491800  1
  O  O69  1  0.38092700  0.79892400  0.61237500  1
  O  O70  1  0.60964000  0.78970300  0.00967200  1
  O  O71  1  0.29833700  0.88352500  0.20764500  1
  O  O72  1  0.99461400  0.91262800  0.38755300  1
  O  O73  1  0.11647500  0.70166300  0.29235500  1
  O  O74  1  0.78970300  0.60964000  0.50967200  1
  O  O75  1  0.50658500  0.59107900  0.79216600  1
  O  O76  1  0.99143300  0.59315900  0.61545600  1
  O  O77  1  0.59107900  0.50658500  0.29216600  1
  O  O78  1  0.29552500  0.61838200  0.49444700  1
  O  O79  1  0.70639800  0.60503900  0.88743400  1
