# generated using pymatgen
data_Li9Mn2Co5O16
_symmetry_space_group_name_H-M   'P 1'
_cell_length_a   3.02233700
_cell_length_b   9.97438313
_cell_length_c   10.08024134
_cell_angle_alpha   106.51297637
_cell_angle_beta   91.61386947
_cell_angle_gamma   92.44416244
_symmetry_Int_Tables_number   1
_chemical_formula_structural   Li9Mn2Co5O16
_chemical_formula_sum   'Li9 Mn2 Co5 O16'
_cell_volume   290.82249176
_cell_formula_units_Z   1
loop_
 _symmetry_equiv_pos_site_id
 _symmetry_equiv_pos_as_xyz
  1  'x, y, z'
loop_
 _atom_site_type_symbol
 _atom_site_label
 _atom_site_symmetry_multiplicity
 _atom_site_fract_x
 _atom_site_fract_y
 _atom_site_fract_z
 _atom_site_occupancy
  Li  Li0  1  0.99866000  0.25204300  0.25800300  1
  Li  Li1  1  0.50400300  0.49985200  0.74656500  1
  Li  Li2  1  0.99756200  0.75088500  0.25005200  1
  Li  Li3  1  0.50311300  0.50081300  0.25253800  1
  Li  Li4  1  0.00315300  0.74818800  0.74956300  1
  Li  Li5  1  0.49509900  0.99926100  0.25505900  1
  Li  Li6  1  0.49763700  0.00004200  0.74621100  1
  Li  Li7  1  0.00115800  0.24900800  0.74272000  1
  Li  Li8  1  0.50004200  0.25013400  0.50007300  1
  Mn  Mn9  1  0.99990900  0.99716000  0.99983500  1
  Mn  Mn10  1  0.49519800  0.25166100  0.99959100  1
  Co  Co11  1  0.00032100  0.50392600  0.00041800  1
  Co  Co12  1  0.50014900  0.74988400  0.49992600  1
  Co  Co13  1  0.00138600  0.49062500  0.49860000  1
  Co  Co14  1  0.50472800  0.74868000  0.00076100  1
  Co  Co15  1  0.99888000  0.00946900  0.50149200  1
  O  O16  1  0.46833100  0.12519100  0.11848100  1
  O  O17  1  0.99649900  0.39115700  0.61488200  1
  O  O18  1  0.51219800  0.62654200  0.11510000  1
  O  O19  1  0.96681800  0.37878800  0.11561800  1
  O  O20  1  0.47101500  0.62625800  0.61351500  1
  O  O21  1  0.97340200  0.86948500  0.11344400  1
  O  O22  1  0.00680700  0.87925700  0.61085000  1
  O  O23  1  0.47914600  0.11480100  0.61388600  1
  O  O24  1  0.52283800  0.38533000  0.38579300  1
  O  O25  1  0.03232400  0.62756200  0.88644000  1
  O  O26  1  0.52765300  0.87361500  0.38664600  1
  O  O27  1  0.99303500  0.62122800  0.38955000  1
  O  O28  1  0.52697800  0.87075000  0.88351300  1
  O  O29  1  0.00368400  0.10860900  0.38461500  1
  O  O30  1  0.02829200  0.12341200  0.88385500  1
  O  O31  1  0.48998300  0.37638500  0.88240700  1
