# generated using pymatgen
data_Li7Mn5O12
_symmetry_space_group_name_H-M   'P 1'
_cell_length_a   6.92176700
_cell_length_b   8.19573847
_cell_length_c   8.76387580
_cell_angle_alpha   75.70194214
_cell_angle_beta   80.09413643
_cell_angle_gamma   107.33776836
_symmetry_Int_Tables_number   1
_chemical_formula_structural   Li7Mn5O12
_chemical_formula_sum   'Li14 Mn10 O24'
_cell_volume   443.36634866
_cell_formula_units_Z   2
loop_
 _symmetry_equiv_pos_site_id
 _symmetry_equiv_pos_as_xyz
  1  'x, y, z'
loop_
 _atom_site_type_symbol
 _atom_site_label
 _atom_site_symmetry_multiplicity
 _atom_site_fract_x
 _atom_site_fract_y
 _atom_site_fract_z
 _atom_site_occupancy
  Li  Li0  1  0.43610000  0.17188200  0.75613800  1
  Li  Li1  1  0.89718400  0.16147200  0.24385600  1
  Li  Li2  1  0.66669500  0.16669900  0.99998900  1
  Li  Li3  1  0.16667200  0.16668400  0.49995400  1
  Li  Li4  1  0.42027100  0.66456300  0.75024500  1
  Li  Li5  1  0.91303400  0.66874900  0.24974400  1
  Li  Li6  1  0.74587900  0.50424700  0.74490700  1
  Li  Li7  1  0.27235600  0.51215000  0.24875800  1
  Li  Li8  1  0.06101200  0.82122000  0.75117400  1
  Li  Li9  1  0.58739200  0.82905300  0.25508600  1
  Li  Li10  1  0.49458400  0.50320300  0.51137600  1
  Li  Li11  1  0.99498200  0.50529400  0.00274700  1
  Li  Li12  1  0.83872200  0.83016800  0.48861600  1
  Li  Li13  1  0.33833300  0.82795600  0.99721100  1
  Mn  Mn14  1  0.16650300  0.66660900  0.49996400  1
  Mn  Mn15  1  0.66674100  0.66670900  0.00000900  1
  Mn  Mn16  1  0.49528500  0.99583700  0.50217400  1
  Mn  Mn17  1  0.99182700  0.99642100  0.00443300  1
  Mn  Mn18  1  0.34155100  0.33697600  0.99567900  1
  Mn  Mn19  1  0.83819000  0.33751600  0.49782000  1
  Mn  Mn20  1  0.24145600  0.99288100  0.24914000  1
  Mn  Mn21  1  0.74354500  0.99764300  0.74784500  1
  Mn  Mn22  1  0.58984900  0.33579800  0.25204200  1
  Mn  Mn23  1  0.09176800  0.34034000  0.75090300  1
  O  O24  1  0.58192800  0.09536600  0.26019000  1
  O  O25  1  0.04554000  0.08248200  0.75928700  1
  O  O26  1  0.75141700  0.23798700  0.73979600  1
  O  O27  1  0.28779400  0.25086300  0.24078700  1
  O  O28  1  0.33149600  0.08623700  0.01124900  1
  O  O29  1  0.83701100  0.09050300  0.51290200  1
  O  O30  1  0.00188100  0.24702000  0.98881000  1
  O  O31  1  0.49632000  0.24286400  0.48708200  1
  O  O32  1  0.41650700  0.40799500  0.76312300  1
  O  O33  1  0.87934200  0.40275300  0.26262600  1
  O  O34  1  0.91683200  0.92531500  0.23702700  1
  O  O35  1  0.45399700  0.93057600  0.73737600  1
  O  O36  1  0.67736200  0.42961300  0.01333600  1
  O  O37  1  0.17364500  0.43019200  0.50946000  1
  O  O38  1  0.15960100  0.90309900  0.49051400  1
  O  O39  1  0.65604800  0.90371300  0.98666000  1
  O  O40  1  0.74644100  0.75964500  0.76214500  1
  O  O41  1  0.24509100  0.75290100  0.26304700  1
  O  O42  1  0.08815500  0.58038900  0.73698100  1
  O  O43  1  0.58697300  0.57371200  0.23783500  1
  O  O44  1  0.96535500  0.75458000  0.99791200  1
  O  O45  1  0.46684700  0.75398800  0.49831800  1
  O  O46  1  0.86634700  0.57938000  0.50164600  1
  O  O47  1  0.36814000  0.57875700  0.00208200  1
