# generated using pymatgen
data_LiMnSiO4
_symmetry_space_group_name_H-M   'P 1'
_cell_length_a   6.02725458
_cell_length_b   10.04363600
_cell_length_c   4.81138330
_cell_angle_alpha   89.99985419
_cell_angle_beta   90.03033167
_cell_angle_gamma   89.99651969
_symmetry_Int_Tables_number   1
_chemical_formula_structural   LiMnSiO4
_chemical_formula_sum   'Li4 Mn4 Si4 O16'
_cell_volume   291.25969849
_cell_formula_units_Z   4
loop_
 _symmetry_equiv_pos_site_id
 _symmetry_equiv_pos_as_xyz
  1  'x, y, z'
loop_
 _atom_site_type_symbol
 _atom_site_label
 _atom_site_symmetry_multiplicity
 _atom_site_fract_x
 _atom_site_fract_y
 _atom_site_fract_z
 _atom_site_occupancy
  Li  Li0  1  0.26512500  0.29950400  0.24910200  1
  Li  Li1  1  0.23592000  0.79369300  0.74724000  1
  Li  Li2  1  0.76402800  0.29369100  0.25263300  1
  Li  Li3  1  0.73477700  0.79948700  0.75075400  1
  Mn  Mn4  1  0.99730500  0.02249900  0.26975600  1
  Mn  Mn5  1  0.50057900  0.07167100  0.76925500  1
  Mn  Mn6  1  0.50004500  0.57155200  0.23144400  1
  Mn  Mn7  1  0.00252700  0.52259500  0.73047000  1
  Si  Si8  1  0.01952100  0.20361200  0.81544100  1
  Si  Si9  1  0.47938500  0.89078300  0.31434000  1
  Si  Si10  1  0.52053500  0.39075500  0.68573100  1
  Si  Si11  1  0.98054800  0.70361000  0.18444300  1
  O  O12  1  0.01558400  0.35750600  0.93474600  1
  O  O13  1  0.01139700  0.19274300  0.47729700  1
  O  O14  1  0.18557800  0.62543300  0.01931100  1
  O  O15  1  0.24036800  0.13585900  0.96835200  1
  O  O16  1  0.25771500  0.95715500  0.46716500  1
  O  O17  1  0.51228800  0.23708000  0.56549200  1
  O  O18  1  0.48724300  0.90113400  0.97603400  1
  O  O19  1  0.31675900  0.47023000  0.52033300  1
  O  O20  1  0.68325500  0.97022200  0.47956500  1
  O  O21  1  0.51280600  0.40112100  0.02397100  1
  O  O22  1  0.48770400  0.73710900  0.43459600  1
  O  O23  1  0.74220800  0.45719200  0.53274400  1
  O  O24  1  0.75960100  0.63588900  0.03156600  1
  O  O25  1  0.81438800  0.12544000  0.98053500  1
  O  O26  1  0.98847500  0.69278600  0.52260300  1
  O  O27  1  0.98433500  0.85748600  0.06508000  1
