# generated using pymatgen
data_Li4MnCo3O8
_symmetry_space_group_name_H-M   'P 1'
_cell_length_a   3.04683582
_cell_length_b   12.03987896
_cell_length_c   8.05016604
_cell_angle_alpha   89.16633374
_cell_angle_beta   89.32615605
_cell_angle_gamma   93.56523391
_symmetry_Int_Tables_number   1
_chemical_formula_structural   Li4MnCo3O8
_chemical_formula_sum   'Li8 Mn2 Co6 O16'
_cell_volume   294.68208377
_cell_formula_units_Z   2
loop_
 _symmetry_equiv_pos_site_id
 _symmetry_equiv_pos_as_xyz
  1  'x, y, z'
loop_
 _atom_site_type_symbol
 _atom_site_label
 _atom_site_symmetry_multiplicity
 _atom_site_fract_x
 _atom_site_fract_y
 _atom_site_fract_z
 _atom_site_occupancy
  Li  Li0  1  0.50848700  0.12702100  0.24932600  1
  Li  Li1  1  0.49148400  0.62301300  0.25064200  1
  Li  Li2  1  0.49998500  0.37498400  0.75001500  1
  Li  Li3  1  0.50002100  0.87500200  0.75001000  1
  Li  Li4  1  0.99997000  0.25358100  0.00257700  1
  Li  Li5  1  0.99153300  0.75064100  0.00535800  1
  Li  Li6  1  0.99990500  0.49646800  0.49743300  1
  Li  Li7  1  0.00859700  0.99934900  0.49461800  1
  Mn  Mn8  1  0.52815500  0.12683200  0.74852900  1
  Mn  Mn9  1  0.47191200  0.62316200  0.75153000  1
  Co  Co10  1  0.49986600  0.37500100  0.24997700  1
  Co  Co11  1  0.02882500  0.00050200  0.00006300  1
  Co  Co12  1  0.97126500  0.74952300  0.49994000  1
  Co  Co13  1  0.50000700  0.87498700  0.24999100  1
  Co  Co14  1  0.98808200  0.49782700  0.00302900  1
  Co  Co15  1  0.01179900  0.25218300  0.49695300  1
  O  O16  1  0.54373700  0.11994800  0.98907600  1
  O  O17  1  0.44928100  0.61632100  0.99343800  1
  O  O18  1  0.55123300  0.13360700  0.50652800  1
  O  O19  1  0.45639500  0.63006300  0.51094000  1
  O  O20  1  0.96207300  0.49227000  0.23861200  1
  O  O21  1  0.02404300  0.99416500  0.23794300  1
  O  O22  1  0.03769300  0.25772800  0.26134100  1
  O  O23  1  0.97602300  0.75579600  0.26206100  1
  O  O24  1  0.99224400  0.24845800  0.73518500  1
  O  O25  1  0.94284800  0.74458400  0.73945300  1
  O  O26  1  0.05726000  0.00542500  0.76058200  1
  O  O27  1  0.00771300  0.50155300  0.76484300  1
  O  O28  1  0.47430400  0.36930900  0.48586300  1
  O  O29  1  0.49463700  0.87002200  0.48803200  1
  O  O30  1  0.52522000  0.38071500  0.01413300  1
  O  O31  1  0.50540300  0.87996000  0.01197900  1
