# generated using pymatgen
data_Li32Mn13Cr3O48
_symmetry_space_group_name_H-M   'P 1'
_cell_length_a   5.01095100
_cell_length_b   8.70281619
_cell_length_c   19.46258574
_cell_angle_alpha   98.36818229
_cell_angle_beta   94.72403792
_cell_angle_gamma   89.89653223
_symmetry_Int_Tables_number   1
_chemical_formula_structural   Li32Mn13Cr3O48
_chemical_formula_sum   'Li32 Mn13 Cr3 O48'
_cell_volume   836.81782545
_cell_formula_units_Z   1
loop_
 _symmetry_equiv_pos_site_id
 _symmetry_equiv_pos_as_xyz
  1  'x, y, z'
loop_
 _atom_site_type_symbol
 _atom_site_label
 _atom_site_symmetry_multiplicity
 _atom_site_fract_x
 _atom_site_fract_y
 _atom_site_fract_z
 _atom_site_occupancy
  Li  Li0  1  0.99220200  0.16794400  0.24968900  1
  Li  Li1  1  0.87230800  0.37446900  0.37524300  1
  Li  Li2  1  0.74935200  0.24981400  0.00010500  1
  Li  Li3  1  0.74232400  0.91878800  0.99997600  1
  Li  Li4  1  0.99247500  0.16915600  0.75046200  1
  Li  Li5  1  0.75651500  0.57944600  0.49993200  1
  Li  Li6  1  0.87667900  0.37435100  0.87487400  1
  Li  Li7  1  0.74890000  0.25133800  0.49970600  1
  Li  Li8  1  0.74431100  0.91965400  0.50018800  1
  Li  Li9  1  0.62486900  0.12498800  0.12497700  1
  Li  Li10  1  0.75762400  0.58159000  0.99988100  1
  Li  Li11  1  0.50992300  0.33142200  0.24971700  1
  Li  Li12  1  0.62631600  0.12436200  0.62486100  1
  Li  Li13  1  0.49989300  0.00001900  0.24996200  1
  Li  Li14  1  0.49091600  0.66843600  0.24984400  1
  Li  Li15  1  0.50767900  0.33205600  0.74983500  1
  Li  Li16  1  0.37459600  0.87451600  0.37474600  1
  Li  Li17  1  0.49949200  0.99983200  0.74993900  1
  Li  Li18  1  0.25095000  0.75024200  0.00011100  1
  Li  Li19  1  0.48936500  0.66792000  0.74911300  1
  Li  Li20  1  0.24238200  0.42012800  0.00077900  1
  Li  Li21  1  0.37550300  0.87449900  0.87512900  1
  Li  Li22  1  0.25591600  0.07926600  0.49944300  1
  Li  Li23  1  0.25095400  0.75078800  0.50021100  1
  Li  Li24  1  0.12485100  0.62520500  0.12506600  1
  Li  Li25  1  0.24315500  0.41977100  0.50026900  1
  Li  Li26  1  0.00891300  0.83096100  0.25042500  1
  Li  Li27  1  0.25702900  0.08011500  0.99987000  1
  Li  Li28  1  0.12503200  0.62440000  0.62512600  1
  Li  Li29  1  0.99836900  0.50160100  0.24990100  1
  Li  Li30  1  0.00861000  0.83093800  0.75045400  1
  Li  Li31  1  0.00136500  0.50063900  0.74996500  1
  Mn  Mn32  1  0.87260100  0.70990800  0.37429700  1
  Mn  Mn33  1  0.87606400  0.04133700  0.37496200  1
  Mn  Mn34  1  0.87522300  0.71045000  0.87555000  1
  Mn  Mn35  1  0.87499900  0.04128500  0.87502100  1
  Mn  Mn36  1  0.62586200  0.79156600  0.12508500  1
  Mn  Mn37  1  0.62444600  0.45873700  0.12509100  1
  Mn  Mn38  1  0.62550800  0.79131900  0.62488800  1
  Mn  Mn39  1  0.62534700  0.46026500  0.62540800  1
  Mn  Mn40  1  0.37639200  0.20753300  0.37563100  1
  Mn  Mn41  1  0.37255900  0.20672800  0.87442300  1
  Mn  Mn42  1  0.12457000  0.95857600  0.12514800  1
  Mn  Mn43  1  0.12580300  0.29133800  0.12514400  1
  Mn  Mn44  1  0.12305600  0.95655600  0.62435600  1
  Cr  Cr45  1  0.37017300  0.53961200  0.37508800  1
  Cr  Cr46  1  0.38026000  0.53953800  0.87493600  1
  Cr  Cr47  1  0.13091600  0.28925400  0.62502700  1
  O  O48  1  0.96417200  0.10663300  0.06915800  1
  O  O49  1  0.92884000  0.78540100  0.06918500  1
  O  O50  1  0.92798900  0.42742100  0.06806400  1
  O  O51  1  0.96232900  0.10263200  0.56858400  1
  O  O52  1  0.82182000  0.96468300  0.18088800  1
  O  O53  1  0.82228300  0.32266800  0.18188000  1
  O  O54  1  0.92855000  0.78452400  0.56913300  1
  O  O55  1  0.92688700  0.42710200  0.56805300  1
  O  O56  1  0.78551000  0.64339700  0.18060700  1
  O  O57  1  0.71229500  0.85753000  0.31903800  1
  O  O58  1  0.82151100  0.96494000  0.68097900  1
  O  O59  1  0.82341900  0.32377100  0.68184900  1
  O  O60  1  0.67810700  0.53596500  0.31893100  1
  O  O61  1  0.67861000  0.17780100  0.31808500  1
  O  O62  1  0.78669500  0.64411900  0.68080700  1
  O  O63  1  0.71388500  0.85706600  0.81934200  1
  O  O64  1  0.46399900  0.60632400  0.06901600  1
  O  O65  1  0.57266500  0.71369200  0.43095300  1
  O  O66  1  0.57194300  0.07158900  0.43180900  1
  O  O67  1  0.67431600  0.53762500  0.81942000  1
  O  O68  1  0.67770600  0.17776800  0.81823800  1
  O  O69  1  0.42783300  0.92762800  0.06820600  1
  O  O70  1  0.42824100  0.28524100  0.06905900  1
  O  O71  1  0.53807100  0.38968800  0.43173900  1
  O  O72  1  0.46359900  0.60691100  0.56916900  1
  O  O73  1  0.57586100  0.71757600  0.93164900  1
  O  O74  1  0.57213600  0.07234500  0.93185700  1
  O  O75  1  0.32241500  0.82264500  0.18171400  1
  O  O76  1  0.32195900  0.46467700  0.18093400  1
  O  O77  1  0.42802200  0.92780900  0.56821100  1
  O  O78  1  0.42401300  0.28700800  0.56930600  1
  O  O79  1  0.53224200  0.39345200  0.93083200  1
  O  O80  1  0.28603200  0.14359800  0.18088000  1
  O  O81  1  0.21869900  0.35720100  0.31920300  1
  O  O82  1  0.32267900  0.82229500  0.68186700  1
  O  O83  1  0.32651600  0.46731400  0.68172200  1
  O  O84  1  0.17297600  0.67991800  0.31722400  1
  O  O85  1  0.17794400  0.03530600  0.31897500  1
  O  O86  1  0.28323100  0.14296600  0.68085600  1
  O  O87  1  0.21213300  0.35293200  0.81855600  1
  O  O88  1  0.07533800  0.57448100  0.43168400  1
  O  O89  1  0.07204400  0.21509400  0.43090100  1
  O  O90  1  0.17622600  0.67739700  0.81814300  1
  O  O91  1  0.17792100  0.03439900  0.81910800  1
  O  O92  1  0.03598500  0.89370400  0.43062600  1
  O  O93  1  0.07351900  0.57381600  0.93187500  1
  O  O94  1  0.07112500  0.21497100  0.93091000  1
  O  O95  1  0.03715500  0.89431900  0.93092700  1
