# generated using pymatgen
data_Li5Mn3O8
_symmetry_space_group_name_H-M   'P 1'
_cell_length_a   5.00093446
_cell_length_b   7.80630170
_cell_length_c   7.80950761
_cell_angle_alpha   81.39415987
_cell_angle_beta   77.94879672
_cell_angle_gamma   102.10910387
_symmetry_Int_Tables_number   1
_chemical_formula_structural   Li5Mn3O8
_chemical_formula_sum   'Li10 Mn6 O16'
_cell_volume   285.49362460
_cell_formula_units_Z   2
loop_
 _symmetry_equiv_pos_site_id
 _symmetry_equiv_pos_as_xyz
  1  'x, y, z'
loop_
 _atom_site_type_symbol
 _atom_site_label
 _atom_site_symmetry_multiplicity
 _atom_site_fract_x
 _atom_site_fract_y
 _atom_site_fract_z
 _atom_site_occupancy
  Li  Li0  1  0.00009400  0.37502600  0.87497500  1
  Li  Li1  1  0.00000000  0.87499800  0.37495700  1
  Li  Li2  1  0.99627600  0.62771600  0.12234500  1
  Li  Li3  1  0.00380000  0.12231100  0.62761200  1
  Li  Li4  1  0.49971200  0.12635500  0.12660000  1
  Li  Li5  1  0.50028200  0.62370600  0.62335500  1
  Li  Li6  1  0.49581700  0.49737500  0.99035000  1
  Li  Li7  1  0.50411600  0.99027800  0.49738600  1
  Li  Li8  1  0.50419400  0.25260200  0.75960900  1
  Li  Li9  1  0.49578600  0.75977200  0.25255600  1
  Mn  Mn10  1  0.50013500  0.87506700  0.87487100  1
  Mn  Mn11  1  0.49994500  0.37498300  0.37496100  1
  Mn  Mn12  1  0.00020300  0.50259800  0.50245500  1
  Mn  Mn13  1  0.99941400  0.00156500  0.00192600  1
  Mn  Mn14  1  0.99972200  0.24740100  0.24761400  1
  Mn  Mn15  1  0.00040800  0.74821800  0.74823500  1
  O  O16  1  0.22258600  0.25477500  0.01856900  1
  O  O17  1  0.22365100  0.73161700  0.49458800  1
  O  O18  1  0.77733900  0.49525500  0.73155000  1
  O  O19  1  0.77631100  0.01840900  0.25545300  1
  O  O20  1  0.24169000  0.48286600  0.26712900  1
  O  O21  1  0.26931800  0.99378900  0.75542200  1
  O  O22  1  0.73077600  0.75616300  0.99456000  1
  O  O23  1  0.75821700  0.26709800  0.48292700  1
  O  O24  1  0.74872000  0.60031500  0.38038800  1
  O  O25  1  0.74892600  0.10138600  0.88217500  1
  O  O26  1  0.74837100  0.36965400  0.14972100  1
  O  O27  1  0.74929400  0.86775300  0.64882900  1
  O  O28  1  0.25117200  0.64861400  0.86778300  1
  O  O29  1  0.25127400  0.14968600  0.36966100  1
  O  O30  1  0.25082600  0.88225800  0.10112200  1
  O  O31  1  0.25162300  0.38038900  0.60031400  1
