# generated using pymatgen
data_Li9Mn2Co5O16
_symmetry_space_group_name_H-M   'P 1'
_cell_length_a   5.93617700
_cell_length_b   6.54331592
_cell_length_c   7.71113270
_cell_angle_alpha   89.76635899
_cell_angle_beta   98.99471206
_cell_angle_gamma   103.34441580
_symmetry_Int_Tables_number   1
_chemical_formula_structural   Li9Mn2Co5O16
_chemical_formula_sum   'Li9 Mn2 Co5 O16'
_cell_volume   287.68759729
_cell_formula_units_Z   1
loop_
 _symmetry_equiv_pos_site_id
 _symmetry_equiv_pos_as_xyz
  1  'x, y, z'
loop_
 _atom_site_type_symbol
 _atom_site_label
 _atom_site_symmetry_multiplicity
 _atom_site_fract_x
 _atom_site_fract_y
 _atom_site_fract_z
 _atom_site_occupancy
  Li  Li0  1  0.50078100  0.00063400  0.00027000  1
  Li  Li1  1  0.25000500  0.75644500  0.25531700  1
  Li  Li2  1  0.88103400  0.37237400  0.13109900  1
  Li  Li3  1  0.63134700  0.12863300  0.38308900  1
  Li  Li4  1  0.00136900  0.49220100  0.49520600  1
  Li  Li5  1  0.36748700  0.87486100  0.61897200  1
  Li  Li6  1  0.12187700  0.62212200  0.86697300  1
  Li  Li7  1  0.74697600  0.25497000  0.74973500  1
  Li  Li8  1  0.12382900  0.12325100  0.37307400  1
  Mn  Mn9  1  0.00621000  0.99864400  0.00439900  1
  Mn  Mn10  1  0.75844300  0.75292500  0.25218200  1
  Co  Co11  1  0.49206000  0.49941000  0.50271600  1
  Co  Co12  1  0.24958800  0.24638400  0.74070800  1
  Co  Co13  1  0.88033800  0.88456300  0.61933500  1
  Co  Co14  1  0.62482500  0.62726600  0.87567200  1
  Co  Co15  1  0.36732100  0.37061500  0.13198300  1
  O  O16  1  0.17071900  0.93953400  0.81707900  1
  O  O17  1  0.94217500  0.70813000  0.07363800  1
  O  O18  1  0.55065800  0.33703100  0.93661800  1
  O  O19  1  0.29323000  0.06322500  0.16715500  1
  O  O20  1  0.68004500  0.45452500  0.31276100  1
  O  O21  1  0.03218100  0.80316100  0.42867600  1
  O  O22  1  0.79222100  0.57929700  0.69127800  1
  O  O23  1  0.43057900  0.19637100  0.57351300  1
  O  O24  1  0.82017900  0.04161200  0.18078300  1
  O  O25  1  0.57727300  0.80683500  0.42773800  1
  O  O26  1  0.20639400  0.43786000  0.30396300  1
  O  O27  1  0.93600800  0.17224400  0.57363000  1
  O  O28  1  0.31266200  0.55685800  0.67915000  1
  O  O29  1  0.71071700  0.92291000  0.82874700  1
  O  O30  1  0.47427300  0.68375500  0.06670900  1
  O  O31  1  0.06719800  0.29135200  0.93783400  1
