# generated using pymatgen
data_Li4TiNi3O8
_symmetry_space_group_name_H-M   'P 1'
_cell_length_a   5.91500998
_cell_length_b   5.96349149
_cell_length_c   8.17278116
_cell_angle_alpha   89.51066411
_cell_angle_beta   89.97887205
_cell_angle_gamma   89.99724794
_symmetry_Int_Tables_number   1
_chemical_formula_structural   Li4TiNi3O8
_chemical_formula_sum   'Li8 Ti2 Ni6 O16'
_cell_volume   288.27706120
_cell_formula_units_Z   2
loop_
 _symmetry_equiv_pos_site_id
 _symmetry_equiv_pos_as_xyz
  1  'x, y, z'
loop_
 _atom_site_type_symbol
 _atom_site_label
 _atom_site_symmetry_multiplicity
 _atom_site_fract_x
 _atom_site_fract_y
 _atom_site_fract_z
 _atom_site_occupancy
  Li  Li0  1  0.00001500  0.00008700  0.50002500  1
  Li  Li1  1  0.49997800  0.49995100  0.99999400  1
  Li  Li2  1  0.24843700  0.74773300  0.75071700  1
  Li  Li3  1  0.75158800  0.25227800  0.24929900  1
  Li  Li4  1  0.25174600  0.24754000  0.25062300  1
  Li  Li5  1  0.74828400  0.75243500  0.74938500  1
  Li  Li6  1  0.00005000  0.50007600  0.99994200  1
  Li  Li7  1  0.49996000  0.99991200  0.50003500  1
  Ti  Ti8  1  0.99999300  0.00003000  0.00001800  1
  Ti  Ti9  1  0.50009200  0.49992800  0.49998200  1
  Ni  Ni10  1  0.25123400  0.24951400  0.74970900  1
  Ni  Ni11  1  0.74872600  0.75052200  0.25027900  1
  Ni  Ni12  1  0.50004900  0.99993400  0.99996300  1
  Ni  Ni13  1  0.24882400  0.74970300  0.24967200  1
  Ni  Ni14  1  0.75115400  0.25033300  0.75035400  1
  Ni  Ni15  1  0.00004800  0.50004300  0.49998700  1
  O  O16  1  0.99811400  0.53870000  0.25172000  1
  O  O17  1  0.50176600  0.03835400  0.75174100  1
  O  O18  1  0.49819000  0.96162700  0.24827500  1
  O  O19  1  0.00184900  0.46137100  0.74826700  1
  O  O20  1  0.26040400  0.26152800  0.51351000  1
  O  O21  1  0.75803900  0.76300300  0.01376200  1
  O  O22  1  0.24185500  0.23698900  0.98624900  1
  O  O23  1  0.73966200  0.73845900  0.48646000  1
  O  O24  1  0.25815600  0.73695800  0.48623100  1
  O  O25  1  0.76019900  0.23838800  0.98661600  1
  O  O26  1  0.23966600  0.76156100  0.01335300  1
  O  O27  1  0.74196800  0.26304200  0.51382400  1
  O  O28  1  0.00088400  0.98738100  0.76278000  1
  O  O29  1  0.49919500  0.48731600  0.26274900  1
  O  O30  1  0.50081800  0.51265100  0.73723000  1
  O  O31  1  0.99905700  0.01265200  0.23725100  1
