# generated using pymatgen
data_Li2VFeP2(HO5)2
_symmetry_space_group_name_H-M   'P 1'
_cell_length_a   5.43307300
_cell_length_b   7.38772532
_cell_length_c   10.19417447
_cell_angle_alpha   104.51733041
_cell_angle_beta   101.05499310
_cell_angle_gamma   106.16557687
_symmetry_Int_Tables_number   1
_chemical_formula_structural   Li2VFeP2(HO5)2
_chemical_formula_sum   'Li4 V2 Fe2 P4 H4 O20'
_cell_volume   365.08696283
_cell_formula_units_Z   2
loop_
 _symmetry_equiv_pos_site_id
 _symmetry_equiv_pos_as_xyz
  1  'x, y, z'
loop_
 _atom_site_type_symbol
 _atom_site_label
 _atom_site_symmetry_multiplicity
 _atom_site_fract_x
 _atom_site_fract_y
 _atom_site_fract_z
 _atom_site_occupancy
  Li  Li0  1  0.47570900  0.05055200  0.87296500  1
  Li  Li1  1  0.97590000  0.54981900  0.37334500  1
  Li  Li2  1  0.02410000  0.45018100  0.62665500  1
  Li  Li3  1  0.52429100  0.94944800  0.12703500  1
  V  V4  1  0.50000000  0.00000000  0.50000000  1
  V  V5  1  0.00000000  0.00000000  0.00000000  1
  Fe  Fe6  1  0.00000000  0.50000000  0.00000000  1
  Fe  Fe7  1  0.50000000  0.50000000  0.50000000  1
  P  P8  1  0.47634300  0.60613700  0.83802100  1
  P  P9  1  0.02383700  0.89422000  0.66189600  1
  P  P10  1  0.97616300  0.10578000  0.33810400  1
  P  P11  1  0.52365700  0.39386300  0.16197900  1
  H  H12  1  0.62149200  0.34258200  0.68046300  1
  H  H13  1  0.12132800  0.83937400  0.18094800  1
  H  H14  1  0.87867200  0.16062600  0.81905200  1
  H  H15  1  0.37850800  0.65741800  0.31953700  1
  O  O16  1  0.86991200  0.19650700  0.91850100  1
  O  O17  1  0.36941500  0.69417500  0.41900100  1
  O  O18  1  0.65865900  0.48386600  0.86356000  1
  O  O19  1  0.30845900  0.99591900  0.65471900  1
  O  O20  1  0.15986900  0.98335300  0.36309400  1
  O  O21  1  0.80928700  0.49367600  0.15364100  1
  O  O22  1  0.43447500  0.61375600  0.68411100  1
  O  O23  1  0.60224300  0.82387500  0.94316900  1
  O  O24  1  0.93330600  0.11395200  0.18504000  1
  O  O25  1  0.10188600  0.32297400  0.44375300  1
  O  O26  1  0.89811400  0.67702600  0.55624700  1
  O  O27  1  0.06669400  0.88604800  0.81496000  1
  O  O28  1  0.39775700  0.17612500  0.05683100  1
  O  O29  1  0.56552500  0.38624400  0.31588900  1
  O  O30  1  0.19071300  0.50632400  0.84635900  1
  O  O31  1  0.84013100  0.01664700  0.63690600  1
  O  O32  1  0.69154100  0.00408100  0.34528100  1
  O  O33  1  0.34134100  0.51613400  0.13644000  1
  O  O34  1  0.63058500  0.30582500  0.58099900  1
  O  O35  1  0.13008800  0.80349300  0.08149900  1
