# generated using pymatgen
data_LiMn2O4
_symmetry_space_group_name_H-M   'P 1'
_cell_length_a   5.66985906
_cell_length_b   5.66985906
_cell_length_c   5.70941383
_cell_angle_alpha   63.57722654
_cell_angle_beta   63.39348100
_cell_angle_gamma   95.79209301
_symmetry_Int_Tables_number   1
_chemical_formula_structural   LiMn2O4
_chemical_formula_sum   'Li2 Mn4 O8'
_cell_volume   136.24149405
_cell_formula_units_Z   2
loop_
 _symmetry_equiv_pos_site_id
 _symmetry_equiv_pos_as_xyz
  1  'x, y, z'
loop_
 _atom_site_type_symbol
 _atom_site_label
 _atom_site_symmetry_multiplicity
 _atom_site_fract_x
 _atom_site_fract_y
 _atom_site_fract_z
 _atom_site_occupancy
  Li  Li0  1  -0.00000000  -0.00000000  0.50000000  1
  Li  Li1  1  -0.00000000  0.50000000  0.00000000  1
  Mn  Mn2  1  -0.00000000  -0.00000000  0.00000000  1
  Mn  Mn3  1  0.50000000  -0.00000000  0.50000000  1
  Mn  Mn4  1  0.50000000  0.50000000  0.00000000  1
  Mn  Mn5  1  -0.00000000  0.50000000  0.50000000  1
  O  O6  1  0.24372983  0.75285848  0.01981348  1
  O  O7  1  0.72732804  0.73645669  0.51981348  1
  O  O8  1  0.78768027  0.25385361  0.45853600  1
  O  O9  1  0.78761039  0.75378373  0.95853600  1
  O  O10  1  0.75627017  0.24714152  0.98018652  1
  O  O11  1  0.27267196  0.26354331  0.48018652  1
  O  O12  1  0.21231973  0.74614639  0.54146400  1
  O  O13  1  0.21238961  0.24621627  0.04146400  1
