# generated using pymatgen
data_Li2Mn3TeO8
_symmetry_space_group_name_H-M   'P 1'
_cell_length_a   6.13652775
_cell_length_b   6.09163054
_cell_length_c   10.83969150
_cell_angle_alpha   90.95498215
_cell_angle_beta   73.25362294
_cell_angle_gamma   119.96903999
_symmetry_Int_Tables_number   1
_chemical_formula_structural   Li2Mn3TeO8
_chemical_formula_sum   'Li4 Mn6 Te2 O16'
_cell_volume   332.15952895
_cell_formula_units_Z   2
loop_
 _symmetry_equiv_pos_site_id
 _symmetry_equiv_pos_as_xyz
  1  'x, y, z'
loop_
 _atom_site_type_symbol
 _atom_site_label
 _atom_site_symmetry_multiplicity
 _atom_site_fract_x
 _atom_site_fract_y
 _atom_site_fract_z
 _atom_site_occupancy
  Li  Li0  1  0.85374300  0.92408800  0.20991200  1
  Li  Li1  1  0.86055400  0.42024200  0.70941800  1
  Li  Li2  1  0.13953700  0.57985800  0.29057800  1
  Li  Li3  1  0.14644400  0.07620000  0.79010500  1
  Mn  Mn4  1  0.00021800  0.50042900  0.00002300  1
  Mn  Mn5  1  0.50034600  0.50004500  0.99996200  1
  Mn  Mn6  1  0.50027000  0.99993600  0.99993200  1
  Mn  Mn7  1  0.99983900  0.99987100  0.50001700  1
  Mn  Mn8  1  0.49953400  0.99973400  0.50024500  1
  Mn  Mn9  1  0.49969300  0.49985000  0.49991300  1
  Te  Te10  1  0.51442700  0.74845200  0.75003800  1
  Te  Te11  1  0.48543600  0.25132100  0.24999900  1
  O  O12  1  0.73944500  0.84819000  0.40922800  1
  O  O13  1  0.70135300  0.34738200  0.90918000  1
  O  O14  1  0.29918900  0.65277100  0.09080000  1
  O  O15  1  0.26008000  0.15168800  0.59072600  1
  O  O16  1  0.74238000  0.08126600  0.63228800  1
  O  O17  1  0.70713800  0.58367200  0.13210500  1
  O  O18  1  0.73444800  0.63123200  0.63665600  1
  O  O19  1  0.70884300  0.13255300  0.13898200  1
  O  O20  1  0.28913500  0.62805500  0.63621400  1
  O  O21  1  0.26670300  0.13089200  0.13427000  1
  O  O22  1  0.73352200  0.86908300  0.86561500  1
  O  O23  1  0.71058300  0.37183000  0.36382800  1
  O  O24  1  0.29143500  0.86767000  0.86104700  1
  O  O25  1  0.26528900  0.36858300  0.36323500  1
  O  O26  1  0.29298300  0.41644600  0.86796900  1
  O  O27  1  0.25743100  0.91866200  0.36771700  1
