# generated using pymatgen
data_LiHo6B3O14
_symmetry_space_group_name_H-M   'P 1'
_cell_length_a   15.55300200
_cell_length_b   8.39371400
_cell_length_c   12.00334102
_cell_angle_alpha   47.52432972
_cell_angle_beta   90.00000000
_cell_angle_gamma   90.00000000
_symmetry_Int_Tables_number   1
_chemical_formula_structural   LiHo6B3O14
_chemical_formula_sum   'Li4 Ho24 B12 O56'
_cell_volume   1155.76712853
_cell_formula_units_Z   4
loop_
 _symmetry_equiv_pos_site_id
 _symmetry_equiv_pos_as_xyz
  1  'x, y, z'
loop_
 _atom_site_type_symbol
 _atom_site_label
 _atom_site_symmetry_multiplicity
 _atom_site_fract_x
 _atom_site_fract_y
 _atom_site_fract_z
 _atom_site_occupancy
  Li  Li0  1  0.60396400  0.88017400  0.43935500  1
  Li  Li1  1  0.39603600  0.11982600  0.56064500  1
  Li  Li2  1  0.10396400  0.11982600  0.06064500  1
  Li  Li3  1  0.89603600  0.88017400  0.93935500  1
  Ho  Ho4  1  0.82211900  0.55023700  0.30723200  1
  Ho  Ho5  1  0.17788100  0.44976300  0.69276800  1
  Ho  Ho6  1  0.32211900  0.44976300  0.19276800  1
  Ho  Ho7  1  0.67788100  0.55023700  0.80723200  1
  Ho  Ho8  1  0.32598300  0.98420800  0.05556100  1
  Ho  Ho9  1  0.67401700  0.01579200  0.94443900  1
  Ho  Ho10  1  0.82598300  0.01579200  0.44443900  1
  Ho  Ho11  1  0.17401700  0.98420800  0.55556100  1
  Ho  Ho12  1  0.35609500  0.84841000  0.42462400  1
  Ho  Ho13  1  0.64390500  0.15159000  0.57537600  1
  Ho  Ho14  1  0.85609500  0.15159000  0.07537600  1
  Ho  Ho15  1  0.14390500  0.84841000  0.92462400  1
  Ho  Ho16  1  0.51329200  0.66579000  0.28242800  1
  Ho  Ho17  1  0.48670800  0.33421000  0.71757200  1
  Ho  Ho18  1  0.01329200  0.33421000  0.21757200  1
  Ho  Ho19  1  0.98670800  0.66579000  0.78242800  1
  Ho  Ho20  1  0.50388800  0.23907100  0.06120300  1
  Ho  Ho21  1  0.49611200  0.76092900  0.93879700  1
  Ho  Ho22  1  0.00388800  0.76092900  0.43879700  1
  Ho  Ho23  1  0.99611200  0.23907100  0.56120300  1
  Ho  Ho24  1  0.66592100  0.41275600  0.16552700  1
  Ho  Ho25  1  0.33407900  0.58724400  0.83447300  1
  Ho  Ho26  1  0.16592100  0.58724400  0.33447300  1
  Ho  Ho27  1  0.83407900  0.41275600  0.66552700  1
  B  B28  1  0.82699300  0.54388400  0.02729100  1
  B  B29  1  0.17300700  0.45611600  0.97270900  1
  B  B30  1  0.32699300  0.45611600  0.47270900  1
  B  B31  1  0.67300700  0.54388400  0.52729100  1
  B  B32  1  0.99949900  0.79074900  0.14530500  1
  B  B33  1  0.00050100  0.20925100  0.85469500  1
  B  B34  1  0.49949900  0.20925100  0.35469500  1
  B  B35  1  0.50050100  0.79074900  0.64530500  1
  B  B36  1  0.69294500  0.95811800  0.22149800  1
  B  B37  1  0.30705500  0.04188200  0.77850200  1
  B  B38  1  0.19294500  0.04188200  0.27850200  1
  B  B39  1  0.80705500  0.95811800  0.72149800  1
  O  O40  1  0.75143500  0.88258900  0.17736900  1
  O  O41  1  0.24856500  0.11741100  0.82263100  1
  O  O42  1  0.25143500  0.11741100  0.32263100  1
  O  O43  1  0.74856500  0.88258900  0.67736900  1
  O  O44  1  0.46650700  0.69633200  0.59333700  1
  O  O45  1  0.53349300  0.30366800  0.40666300  1
  O  O46  1  0.96650700  0.30366800  0.90666300  1
  O  O47  1  0.03349300  0.69633200  0.09333700  1
  O  O48  1  0.42066200  0.93495600  0.22101400  1
  O  O49  1  0.57933800  0.06504400  0.77898600  1
  O  O50  1  0.92066200  0.06504400  0.27898600  1
  O  O51  1  0.07933800  0.93495600  0.72101400  1
  O  O52  1  0.91423000  0.85342100  0.11832900  1
  O  O53  1  0.08577000  0.14657900  0.88167100  1
  O  O54  1  0.41423000  0.14657900  0.38167100  1
  O  O55  1  0.58577000  0.85342100  0.61832900  1
  O  O56  1  0.91275000  0.52483300  0.00906800  1
  O  O57  1  0.08725000  0.47516700  0.99093200  1
  O  O58  1  0.41275000  0.47516700  0.49093200  1
  O  O59  1  0.58725000  0.52483300  0.50906800  1
  O  O60  1  0.79527300  0.64074500  0.07692500  1
  O  O61  1  0.20472700  0.35925500  0.92307500  1
  O  O62  1  0.29527300  0.35925500  0.42307500  1
  O  O63  1  0.70472700  0.64074500  0.57692500  1
  O  O64  1  0.44835400  0.82103300  0.72221500  1
  O  O65  1  0.55164600  0.17896700  0.27778500  1
  O  O66  1  0.94835400  0.17896700  0.77778500  1
  O  O67  1  0.05164600  0.82103300  0.22221500  1
  O  O68  1  0.59819700  0.70213400  0.10532200  1
  O  O69  1  0.40180300  0.29786600  0.89467800  1
  O  O70  1  0.09819700  0.29786600  0.39467800  1
  O  O71  1  0.90180300  0.70213400  0.60532200  1
  O  O72  1  0.91046700  0.52714900  0.46395900  1
  O  O73  1  0.08953300  0.47285100  0.53604100  1
  O  O74  1  0.41046700  0.47285100  0.03604100  1
  O  O75  1  0.58953300  0.52714900  0.96395900  1
  O  O76  1  0.41454600  0.71369600  0.12407100  1
  O  O77  1  0.58545400  0.28630400  0.87592900  1
  O  O78  1  0.91454600  0.28630400  0.37592900  1
  O  O79  1  0.08545400  0.71369600  0.62407100  1
  O  O80  1  0.23178500  0.72372000  0.12224300  1
  O  O81  1  0.76821500  0.27628000  0.87775700  1
  O  O82  1  0.73178500  0.27628000  0.37775700  1
  O  O83  1  0.26821500  0.72372000  0.62224300  1
  O  O84  1  0.22521700  0.94636600  0.22783700  1
  O  O85  1  0.77478300  0.05363400  0.77216300  1
  O  O86  1  0.72521700  0.05363400  0.27216300  1
  O  O87  1  0.27478300  0.94636600  0.72783700  1
  O  O88  1  0.60632100  0.94788100  0.20061100  1
  O  O89  1  0.39367900  0.05211900  0.79938900  1
  O  O90  1  0.10632100  0.05211900  0.29938900  1
  O  O91  1  0.89367900  0.94788100  0.70061100  1
  O  O92  1  0.76733700  0.44681300  0.00323100  1
  O  O93  1  0.23266300  0.55318700  0.99676900  1
  O  O94  1  0.26733700  0.55318700  0.49676900  1
  O  O95  1  0.73266300  0.44681300  0.50323100  1
