# generated using pymatgen
data_Li4Sc3In(SiO3)8
_symmetry_space_group_name_H-M   'P 1'
_cell_length_a   5.42422200
_cell_length_b   6.74052809
_cell_length_c   13.16983305
_cell_angle_alpha   89.14250724
_cell_angle_beta   98.49498416
_cell_angle_gamma   104.95026753
_symmetry_Int_Tables_number   1
_chemical_formula_structural   Li4Sc3In(SiO3)8
_chemical_formula_sum   'Li4 Sc3 In1 Si8 O24'
_cell_volume   459.97875317
_cell_formula_units_Z   1
loop_
 _symmetry_equiv_pos_site_id
 _symmetry_equiv_pos_as_xyz
  1  'x, y, z'
loop_
 _atom_site_type_symbol
 _atom_site_label
 _atom_site_symmetry_multiplicity
 _atom_site_fract_x
 _atom_site_fract_y
 _atom_site_fract_z
 _atom_site_occupancy
  Li  Li0  1  0.12387100  0.74807400  0.87393600  1
  Li  Li1  1  0.62367500  0.74700100  0.37360000  1
  Li  Li2  1  0.37639900  0.25286900  0.62660500  1
  Li  Li3  1  0.87600400  0.25201400  0.12586000  1
  Sc  Sc4  1  0.30358300  0.10768600  0.05354100  1
  Sc  Sc5  1  0.69638500  0.89224900  0.94612700  1
  Sc  Sc6  1  0.19521900  0.89097600  0.44546300  1
  In  In7  1  0.80249200  0.10464600  0.55256900  1
  Si  Si8  1  0.82960400  0.61513400  0.60701200  1
  Si  Si9  1  0.32924400  0.61501000  0.10618200  1
  Si  Si10  1  0.08513500  0.21289700  0.80819900  1
  Si  Si11  1  0.58432000  0.21343800  0.30686900  1
  Si  Si12  1  0.67071500  0.38530200  0.89405400  1
  Si  Si13  1  0.17172500  0.38609000  0.39345000  1
  Si  Si14  1  0.41515100  0.78734400  0.69317900  1
  Si  Si15  1  0.91556200  0.78768700  0.19250600  1
  O  O16  1  0.11878900  0.63764900  0.67341400  1
  O  O17  1  0.61846200  0.63835100  0.17302500  1
  O  O18  1  0.87329800  0.34620900  0.81928200  1
  O  O19  1  0.37394800  0.34671500  0.31873900  1
  O  O20  1  0.38194700  0.36288300  0.82793500  1
  O  O21  1  0.88134900  0.36162300  0.32731100  1
  O  O22  1  0.62763800  0.65647000  0.68138700  1
  O  O23  1  0.12651000  0.65394700  0.18083700  1
  O  O24  1  0.70490600  0.38505300  0.56154700  1
  O  O25  1  0.21528400  0.38040700  0.06283900  1
  O  O26  1  0.04944800  0.12329000  0.69291100  1
  O  O27  1  0.53776700  0.12557700  0.18985900  1
  O  O28  1  0.78512800  0.61987300  0.93742500  1
  O  O29  1  0.28458600  0.62013700  0.43693800  1
  O  O30  1  0.46261400  0.87440200  0.81043300  1
  O  O31  1  0.96202700  0.87429000  0.30957300  1
  O  O32  1  0.86198200  0.79252900  0.51778500  1
  O  O33  1  0.36167600  0.79520200  0.01875200  1
  O  O34  1  0.05480900  0.03778400  0.89849600  1
  O  O35  1  0.55192300  0.03529800  0.39542600  1
  O  O36  1  0.63850300  0.20487800  0.98144900  1
  O  O37  1  0.14648900  0.20537800  0.48037100  1
  O  O38  1  0.43631400  0.96082400  0.60259000  1
  O  O39  1  0.94552200  0.96281400  0.10252400  1
