# generated using pymatgen
data_Li4Si2NiO7
_symmetry_space_group_name_H-M   'P 1'
_cell_length_a   4.51285401
_cell_length_b   17.12503290
_cell_length_c   7.93368677
_cell_angle_alpha   97.38964505
_cell_angle_beta   106.52547975
_cell_angle_gamma   82.41933819
_symmetry_Int_Tables_number   1
_chemical_formula_structural   Li4Si2NiO7
_chemical_formula_sum   'Li16 Si8 Ni4 O28'
_cell_volume   579.99024165
_cell_formula_units_Z   4
loop_
 _symmetry_equiv_pos_site_id
 _symmetry_equiv_pos_as_xyz
  1  'x, y, z'
loop_
 _atom_site_type_symbol
 _atom_site_label
 _atom_site_symmetry_multiplicity
 _atom_site_fract_x
 _atom_site_fract_y
 _atom_site_fract_z
 _atom_site_occupancy
  Li  Li0  1  0.45308500  0.28399900  0.15122400  1
  Li  Li1  1  0.69248700  0.53397800  0.89945900  1
  Li  Li2  1  0.94576500  0.78679600  0.65311600  1
  Li  Li3  1  0.20654900  0.03656400  0.40397700  1
  Li  Li4  1  0.08912400  0.21338600  0.34605500  1
  Li  Li5  1  0.32967800  0.46330100  0.09692200  1
  Li  Li6  1  0.57705800  0.71612800  0.85049100  1
  Li  Li7  1  0.83572000  0.96594300  0.59867300  1
  Li  Li8  1  0.90541400  0.17952700  0.96398900  1
  Li  Li9  1  0.14561200  0.43191400  0.71614200  1
  Li  Li10  1  0.39301300  0.68152900  0.46877800  1
  Li  Li11  1  0.65233000  0.92901200  0.21581200  1
  Li  Li12  1  0.61565200  0.32090800  0.53410400  1
  Li  Li13  1  0.85582400  0.56844200  0.28125400  1
  Li  Li14  1  0.11135600  0.81817800  0.03400500  1
  Li  Li15  1  0.37089400  0.07050200  0.78604900  1
  Si  Si16  1  0.95970700  0.38966000  0.32215300  1
  Si  Si17  1  0.19620100  0.63984000  0.07057300  1
  Si  Si18  1  0.45083000  0.89113800  0.81954300  1
  Si  Si19  1  0.71438200  0.14080700  0.57106000  1
  Si  Si20  1  0.53424100  0.10912400  0.17901900  1
  Si  Si21  1  0.77253400  0.35894600  0.93047500  1
  Si  Si22  1  0.01530900  0.61022400  0.67929300  1
  Si  Si23  1  0.27726500  0.86026100  0.42785100  1
  Ni  Ni24  1  0.49072300  0.50310900  0.49038500  1
  Ni  Ni25  1  0.75369400  0.74671200  0.25961500  1
  Ni  Ni26  1  0.00968000  0.99691700  0.00923200  1
  Ni  Ni27  1  0.24723900  0.25309600  0.74066800  1
  O  O28  1  0.81653900  0.12498600  0.37504900  1
  O  O29  1  0.05783200  0.37396000  0.12561800  1
  O  O30  1  0.29747900  0.62503600  0.87493800  1
  O  O31  1  0.55620200  0.87601600  0.62444000  1
  O  O32  1  0.61269300  0.27955000  0.94364800  1
  O  O33  1  0.85345600  0.53107700  0.69233100  1
  O  O34  1  0.11640100  0.78191200  0.44616300  1
  O  O35  1  0.37567800  0.03039300  0.19701100  1
  O  O36  1  0.45917400  0.21959500  0.55311000  1
  O  O37  1  0.70227600  0.46803700  0.30391600  1
  O  O38  1  0.94220800  0.71899000  0.05753900  1
  O  O39  1  0.19835700  0.97054200  0.80621600  1
  O  O40  1  0.27281900  0.40798500  0.48329600  1
  O  O41  1  0.51026400  0.65534900  0.23231100  1
  O  O42  1  0.76593500  0.90572500  0.98064000  1
  O  O43  1  0.02854500  0.15807000  0.73188300  1
  O  O44  1  0.70474800  0.09190800  0.01819700  1
  O  O45  1  0.94124600  0.34436300  0.76944400  1
  O  O46  1  0.18342100  0.59459000  0.51764600  1
  O  O47  1  0.44766100  0.84184600  0.26678100  1
  O  O48  1  0.81944200  0.31111600  0.34811800  1
  O  O49  1  0.05510200  0.56086900  0.09451600  1
  O  O50  1  0.30519400  0.81285800  0.84307100  1
  O  O51  1  0.56870700  0.06290200  0.59556500  1
  O  O52  1  0.28605400  0.18707100  0.15443100  1
  O  O53  1  0.52525000  0.43729100  0.90705800  1
  O  O54  1  0.77146600  0.68920400  0.65534700  1
  O  O55  1  0.03248400  0.93881500  0.40179900  1
