# generated using pymatgen
data_Li3Fe3(PO4)4
_symmetry_space_group_name_H-M   'P 1'
_cell_length_a   8.58172500
_cell_length_b   8.97931388
_cell_length_c   9.44667029
_cell_angle_alpha   103.10211443
_cell_angle_beta   105.00266750
_cell_angle_gamma   114.10860259
_symmetry_Int_Tables_number   1
_chemical_formula_structural   Li3Fe3(PO4)4
_chemical_formula_sum   'Li6 Fe6 P8 O32'
_cell_volume   594.42919125
_cell_formula_units_Z   2
loop_
 _symmetry_equiv_pos_site_id
 _symmetry_equiv_pos_as_xyz
  1  'x, y, z'
loop_
 _atom_site_type_symbol
 _atom_site_label
 _atom_site_symmetry_multiplicity
 _atom_site_fract_x
 _atom_site_fract_y
 _atom_site_fract_z
 _atom_site_occupancy
  Li  Li0  1  0.21785200  0.02061500  0.46062400  1
  Li  Li1  1  0.18921100  0.93796800  0.84609100  1
  Li  Li2  1  0.42082700  0.90298100  0.69806700  1
  Li  Li3  1  0.57917300  0.09701900  0.30193300  1
  Li  Li4  1  0.81078900  0.06203200  0.15390900  1
  Li  Li5  1  0.78214800  0.97938500  0.53937600  1
  Fe  Fe6  1  0.99353900  0.51769800  0.23568400  1
  Fe  Fe7  1  0.65683200  0.64413500  0.17543800  1
  Fe  Fe8  1  0.70830100  0.77672500  0.73764900  1
  Fe  Fe9  1  0.29169900  0.22327500  0.26235100  1
  Fe  Fe10  1  0.34316800  0.35586500  0.82456200  1
  Fe  Fe11  1  0.00646100  0.48230200  0.76431600  1
  P  P12  1  0.43384300  0.66318400  0.37282400  1
  P  P13  1  0.97763100  0.80680400  0.08171700  1
  P  P14  1  0.43766900  0.76679000  0.95345800  1
  P  P15  1  0.95164000  0.70782300  0.53189900  1
  P  P16  1  0.04836000  0.29217700  0.46810100  1
  P  P17  1  0.56233100  0.23321000  0.04654200  1
  P  P18  1  0.02236900  0.19319600  0.91828300  1
  P  P19  1  0.56615700  0.33681600  0.62717600  1
  O  O20  1  0.17263100  0.95497800  0.20206500  1
  O  O21  1  0.54372900  0.92108200  0.10873300  1
  O  O22  1  0.15502400  0.84346100  0.57687500  1
  O  O23  1  0.59220200  0.76797300  0.32080300  1
  O  O24  1  0.25620400  0.66252100  0.28370700  1
  O  O25  1  0.83200900  0.83543700  0.14134000  1
  O  O26  1  0.51015800  0.77444600  0.55139600  1
  O  O27  1  0.23001000  0.71737800  0.87694600  1
  O  O28  1  0.85343000  0.80295900  0.59357200  1
  O  O29  1  0.53040100  0.79374600  0.83454000  1
  O  O30  1  0.41345900  0.47866800  0.33189800  1
  O  O31  1  0.94675300  0.62363400  0.07725600  1
  O  O32  1  0.85694800  0.62398800  0.34173900  1
  O  O33  1  0.07485900  0.44017700  0.40538700  1
  O  O34  1  0.93744200  0.81218800  0.91359200  1
  O  O35  1  0.56301600  0.40318800  0.01932700  1
  O  O36  1  0.43698400  0.59681200  0.98067300  1
  O  O37  1  0.06255800  0.18781200  0.08640800  1
  O  O38  1  0.92514100  0.55982300  0.59461300  1
  O  O39  1  0.14305200  0.37601200  0.65826100  1
  O  O40  1  0.05324700  0.37636600  0.92274400  1
  O  O41  1  0.58654100  0.52133200  0.66810200  1
  O  O42  1  0.46959900  0.20625400  0.16546000  1
  O  O43  1  0.14657000  0.19704100  0.40642800  1
  O  O44  1  0.76999000  0.28262200  0.12305400  1
  O  O45  1  0.48984200  0.22555400  0.44860400  1
  O  O46  1  0.16799100  0.16456300  0.85866000  1
  O  O47  1  0.74379600  0.33747900  0.71629300  1
  O  O48  1  0.40779800  0.23202700  0.67919700  1
  O  O49  1  0.84497600  0.15653900  0.42312500  1
  O  O50  1  0.45627100  0.07891800  0.89126700  1
  O  O51  1  0.82736900  0.04502200  0.79793500  1
