# generated using pymatgen
data_Li9Mn2Co5O16
_symmetry_space_group_name_H-M   'P 1'
_cell_length_a   5.93241500
_cell_length_b   6.56791251
_cell_length_c   7.73494754
_cell_angle_alpha   89.68373533
_cell_angle_beta   100.02724802
_cell_angle_gamma   103.88851733
_symmetry_Int_Tables_number   1
_chemical_formula_structural   Li9Mn2Co5O16
_chemical_formula_sum   'Li9 Mn2 Co5 O16'
_cell_volume   287.89378176
_cell_formula_units_Z   1
loop_
 _symmetry_equiv_pos_site_id
 _symmetry_equiv_pos_as_xyz
  1  'x, y, z'
loop_
 _atom_site_type_symbol
 _atom_site_label
 _atom_site_symmetry_multiplicity
 _atom_site_fract_x
 _atom_site_fract_y
 _atom_site_fract_z
 _atom_site_occupancy
  Li  Li0  1  0.49541000  0.99907500  0.00115000  1
  Li  Li1  1  0.25403500  0.75743400  0.25801300  1
  Li  Li2  1  0.87729800  0.36911100  0.13231600  1
  Li  Li3  1  0.63351900  0.12956700  0.38369200  1
  Li  Li4  1  0.99606700  0.48941600  0.49211200  1
  Li  Li5  1  0.37220800  0.87835600  0.61663600  1
  Li  Li6  1  0.12586100  0.62616500  0.87261800  1
  Li  Li7  1  0.75155300  0.25328000  0.74826000  1
  Li  Li8  1  0.12530000  0.12564400  0.37411200  1
  Mn  Mn9  1  0.00359400  0.99872800  0.00075300  1
  Mn  Mn10  1  0.62438500  0.62533900  0.87586600  1
  Co  Co11  1  0.74885500  0.75431700  0.25355900  1
  Co  Co12  1  0.49788700  0.49592800  0.49967900  1
  Co  Co13  1  0.24370800  0.24990600  0.73946100  1
  Co  Co14  1  0.88547200  0.87736500  0.61245800  1
  Co  Co15  1  0.36645600  0.37147300  0.13311300  1
  O  O16  1  0.17251400  0.94775000  0.81558900  1
  O  O17  1  0.92185200  0.69856900  0.04970900  1
  O  O18  1  0.55206700  0.33499000  0.93934800  1
  O  O19  1  0.28880100  0.05919600  0.16883800  1
  O  O20  1  0.68014800  0.44966200  0.30797300  1
  O  O21  1  0.04502300  0.80552800  0.44517000  1
  O  O22  1  0.79381800  0.56951800  0.69681100  1
  O  O23  1  0.43804400  0.20740500  0.57077200  1
  O  O24  1  0.81920800  0.03947600  0.17656700  1
  O  O25  1  0.57026800  0.80423700  0.44079500  1
  O  O26  1  0.20894900  0.44236500  0.30557300  1
  O  O27  1  0.94595400  0.18452600  0.57439600  1
  O  O28  1  0.33534000  0.56463700  0.69982100  1
  O  O29  1  0.70693400  0.92204600  0.81942200  1
  O  O30  1  0.45464600  0.67957900  0.05481100  1
  O  O31  1  0.06482500  0.28941000  0.94060800  1
