# generated using pymatgen
data_Li3MnV(PO4)3
_symmetry_space_group_name_H-M   'P 1'
_cell_length_a   9.00003488
_cell_length_b   8.46741972
_cell_length_c   14.67370775
_cell_angle_alpha   91.01609105
_cell_angle_beta   73.41608548
_cell_angle_gamma   63.33593326
_symmetry_Int_Tables_number   1
_chemical_formula_structural   Li3MnV(PO4)3
_chemical_formula_sum   'Li12 Mn4 V4 P12 O48'
_cell_volume   943.76723392
_cell_formula_units_Z   4
loop_
 _symmetry_equiv_pos_site_id
 _symmetry_equiv_pos_as_xyz
  1  'x, y, z'
loop_
 _atom_site_type_symbol
 _atom_site_label
 _atom_site_symmetry_multiplicity
 _atom_site_fract_x
 _atom_site_fract_y
 _atom_site_fract_z
 _atom_site_occupancy
  Li  Li0  1  0.14310342  0.25942207  0.33352261  1
  Li  Li1  1  0.15497382  0.79467830  0.13270894  1
  Li  Li2  1  0.14561619  0.29876957  0.63073627  1
  Li  Li3  1  0.14747962  0.72662862  0.45833779  1
  Li  Li4  1  0.14788166  0.22956209  0.95991490  1
  Li  Li5  1  0.14689007  0.76185088  0.83334407  1
  Li  Li6  1  0.85261637  0.24009476  0.16803741  1
  Li  Li7  1  0.85461321  0.76902936  0.04030087  1
  Li  Li8  1  0.85259024  0.27269447  0.54039921  1
  Li  Li9  1  0.85274271  0.70125490  0.36866463  1
  Li  Li10  1  0.84974077  0.20188572  0.86914130  1
  Li  Li11  1  0.85026864  0.74072829  0.66701266  1
  Mn  Mn12  1  0.04322658  0.97930626  0.32576835  1
  Mn  Mn13  1  0.56343586  0.22257696  0.07239785  1
  Mn  Mn14  1  0.55748369  0.72770132  0.57322925  1
  Mn  Mn15  1  0.43822435  0.77515320  0.92680931  1
  V  V16  1  0.04602110  0.47725998  0.82525907  1
  V  V17  1  0.43621022  0.28221635  0.42700809  1
  V  V18  1  0.95632754  0.52086638  0.17490232  1
  V  V19  1  0.95062847  0.02439328  0.67477269  1
  P  P20  1  0.25469751  0.08520279  0.12279132  1
  P  P21  1  0.24521367  0.02390976  0.47583945  1
  P  P22  1  0.25352902  0.51737090  0.26834054  1
  P  P23  1  0.24639670  0.02633058  0.76889162  1
  P  P24  1  0.24935078  0.58934626  0.62451817  1
  P  P25  1  0.25148476  0.52267593  0.97779848  1
  P  P26  1  0.74982531  0.47695771  0.02241721  1
  P  P27  1  0.74827616  0.41946068  0.37823939  1
  P  P28  1  0.75714309  0.97070667  0.23143786  1
  P  P29  1  0.75079483  0.47566356  0.73107352  1
  P  P30  1  0.74513242  0.98134337  0.52128619  1
  P  P31  1  0.74636972  0.91305348  0.87733941  1
  O  O32  1  0.10275531  0.25621063  0.10315199  1
  O  O33  1  0.19721496  0.06766449  0.23053747  1
  O  O34  1  0.09706325  0.61784581  0.07760025  1
  O  O35  1  0.09043076  0.11952171  0.57577168  1
  O  O36  1  0.09953521  0.47407303  0.26726551  1
  O  O37  1  0.42702768  0.09373823  0.09557963  1
  O  O38  1  0.26136216  0.18220910  0.43056768  1
  O  O39  1  0.20306750  0.70985272  0.24965181  1
  O  O40  1  0.19490821  0.22081485  0.74861184  1
  O  O41  1  0.26667184  0.49629310  0.37102514  1
  O  O42  1  0.42768743  0.38142675  0.19367943  1
  O  O43  1  0.09814000  0.75961489  0.60369218  1
  O  O44  1  0.27202887  0.92440086  0.05905220  1
  O  O45  1  0.26596677  0.42878907  0.56180991  1
  O  O46  1  0.58652550  0.10417237  0.30709132  1
  O  O47  1  0.19085629  0.57363538  0.73264838  1
  O  O48  1  0.18579157  0.92933196  0.41139779  1
  O  O49  1  0.18878526  0.43241967  0.91436684  1
  O  O50  1  0.75297196  0.98971081  0.12841631  1
  O  O51  1  0.58277327  0.61068711  0.00848693  1
  O  O52  1  0.57968351  0.11387198  0.50368881  1
  O  O53  1  0.09481558  0.98026652  0.76588087  1
  O  O54  1  0.73632603  0.31605346  0.06842837  1
  O  O55  1  0.57887372  0.40662839  0.40321474  1
  O  O56  1  0.42163937  0.59757387  0.59737934  1
  O  O57  1  0.26448481  0.68395192  0.93177887  1
  O  O58  1  0.91387379  0.01335977  0.23336476  1
  O  O59  1  0.41011892  0.88640184  0.49058771  1
  O  O60  1  0.41879476  0.38914610  0.99142191  1
  O  O61  1  0.25594796  0.00956011  0.87107560  1
  O  O62  1  0.81255101  0.56728929  0.08574158  1
  O  O63  1  0.80417006  0.07382832  0.58543539  1
  O  O64  1  0.80730725  0.43324888  0.26953881  1
  O  O65  1  0.42065886  0.89277844  0.69336505  1
  O  O66  1  0.72526030  0.58446703  0.44110013  1
  O  O67  1  0.72808486  0.07479296  0.94074973  1
  O  O68  1  0.90085702  0.25358063  0.39864348  1
  O  O69  1  0.57654981  0.60759958  0.80697414  1
  O  O70  1  0.74202347  0.49348307  0.62874409  1
  O  O71  1  0.80841400  0.77630636  0.25057390  1
  O  O72  1  0.80378307  0.28035187  0.75042173  1
  O  O73  1  0.72727480  0.82441593  0.56938816  1
  O  O74  1  0.57523662  0.90312427  0.90300322  1
  O  O75  1  0.90235382  0.52176493  0.73426080  1
  O  O76  1  0.90311972  0.88027770  0.42341148  1
  O  O77  1  0.90473300  0.38093923  0.92258192  1
  O  O78  1  0.80501865  0.93127118  0.76947826  1
  O  O79  1  0.89818896  0.74315535  0.89712512  1
