# generated using pymatgen
data_Li2CoOF3
_symmetry_space_group_name_H-M   'P 1'
_cell_length_a   5.35539300
_cell_length_b   8.10165197
_cell_length_c   7.88785123
_cell_angle_alpha   72.00910532
_cell_angle_beta   72.44717281
_cell_angle_gamma   72.26724322
_symmetry_Int_Tables_number   1
_chemical_formula_structural   Li2CoOF3
_chemical_formula_sum   'Li8 Co4 O4 F12'
_cell_volume   301.79236543
_cell_formula_units_Z   4
loop_
 _symmetry_equiv_pos_site_id
 _symmetry_equiv_pos_as_xyz
  1  'x, y, z'
loop_
 _atom_site_type_symbol
 _atom_site_label
 _atom_site_symmetry_multiplicity
 _atom_site_fract_x
 _atom_site_fract_y
 _atom_site_fract_z
 _atom_site_occupancy
  Li  Li0  1  0.58754000  0.67673300  0.01072700  1
  Li  Li1  1  0.08754100  0.17672700  0.51073200  1
  Li  Li2  1  0.86179600  0.45963100  0.72550700  1
  Li  Li3  1  0.36178700  0.95964400  0.22550200  1
  Li  Li4  1  0.06021500  0.59553300  0.25486000  1
  Li  Li5  1  0.56017900  0.09554400  0.75485300  1
  Li  Li6  1  0.25987200  0.35502300  0.98498100  1
  Li  Li7  1  0.75988300  0.85501300  0.48498500  1
  Co  Co8  1  0.24355100  0.80312700  0.72191900  1
  Co  Co9  1  0.93424500  0.98258000  0.03457400  1
  Co  Co10  1  0.74355700  0.30312900  0.22192000  1
  Co  Co11  1  0.43425900  0.48257800  0.53457300  1
  O  O12  1  0.47444900  0.49556400  0.29742100  1
  O  O13  1  0.97444900  0.99556600  0.79741800  1
  O  O14  1  0.66893500  0.15375100  0.13691700  1
  O  O15  1  0.16893800  0.65374600  0.63691900  1
  F  F16  1  0.68516600  0.81536200  0.12191100  1
  F  F17  1  0.18518700  0.31534800  0.62191600  1
  F  F18  1  0.85301600  0.46529000  0.96704400  1
  F  F19  1  0.35300800  0.96529100  0.46704200  1
  F  F20  1  0.07435800  0.34027200  0.24962000  1
  F  F21  1  0.57435600  0.84028400  0.74961300  1
  F  F22  1  0.55821400  0.34795600  0.76253700  1
  F  F23  1  0.05820600  0.84795900  0.26253100  1
  F  F24  1  0.24413900  0.65504800  0.98399100  1
  F  F25  1  0.74413800  0.15504700  0.48399100  1
  F  F26  1  0.24450400  0.10412700  0.99799600  1
  F  F27  1  0.74451800  0.60412000  0.49799800  1
