# generated using pymatgen
data_LiTiS2
_symmetry_space_group_name_H-M   'P 1'
_cell_length_a   6.43570339
_cell_length_b   6.43570339
_cell_length_c   6.43570390
_cell_angle_alpha   31.44540514
_cell_angle_beta   31.44540514
_cell_angle_gamma   31.44540549
_symmetry_Int_Tables_number   1
_chemical_formula_structural   LiTiS2
_chemical_formula_sum   'Li1 Ti1 S2'
_cell_volume   64.39980772
_cell_formula_units_Z   1
loop_
 _symmetry_equiv_pos_site_id
 _symmetry_equiv_pos_as_xyz
  1  'x, y, z'
loop_
 _atom_site_type_symbol
 _atom_site_label
 _atom_site_symmetry_multiplicity
 _atom_site_fract_x
 _atom_site_fract_y
 _atom_site_fract_z
 _atom_site_occupancy
  Li  Li0  1  0.50000000  0.50000000  0.50000000  1
  Ti  Ti1  1  0.00000000  0.00000000  0.00000000  1
  S  S2  1  0.74577900  0.74577900  0.74577900  1
  S  S3  1  0.25422100  0.25422100  0.25422100  1
