# generated using pymatgen
data_Li4Ni3SbO8
_symmetry_space_group_name_H-M   'P 1'
_cell_length_a   5.99885268
_cell_length_b   5.97161663
_cell_length_c   8.43339221
_cell_angle_alpha   90.07460501
_cell_angle_beta   89.97408433
_cell_angle_gamma   90.00005713
_symmetry_Int_Tables_number   1
_chemical_formula_structural   Li4Ni3SbO8
_chemical_formula_sum   'Li8 Ni6 Sb2 O16'
_cell_volume   302.10784385
_cell_formula_units_Z   2
loop_
 _symmetry_equiv_pos_site_id
 _symmetry_equiv_pos_as_xyz
  1  'x, y, z'
loop_
 _atom_site_type_symbol
 _atom_site_label
 _atom_site_symmetry_multiplicity
 _atom_site_fract_x
 _atom_site_fract_y
 _atom_site_fract_z
 _atom_site_occupancy
  Li  Li0  1  0.99709200  0.00066800  0.49892000  1
  Li  Li1  1  0.50332000  0.49990400  0.00046900  1
  Li  Li2  1  0.25017400  0.24997400  0.24999200  1
  Li  Li3  1  0.75033400  0.74981300  0.74997300  1
  Li  Li4  1  0.25019000  0.75014300  0.74997100  1
  Li  Li5  1  0.75064800  0.25069300  0.24995100  1
  Li  Li6  1  0.49897200  0.99988700  0.49924500  1
  Li  Li7  1  0.00115200  0.50014000  0.00035500  1
  Ni  Ni8  1  0.74986100  0.75001800  0.25004200  1
  Ni  Ni9  1  0.25002800  0.24982700  0.75001500  1
  Ni  Ni10  1  0.24987600  0.74986900  0.25004400  1
  Ni  Ni11  1  0.74988500  0.24979400  0.74997000  1
  Ni  Ni12  1  0.49842600  0.00009600  0.00021400  1
  Ni  Ni13  1  0.00143600  0.50005300  0.49993300  1
  Sb  Sb14  1  0.99743700  0.99999200  0.00004200  1
  Sb  Sb15  1  0.50249100  0.49999200  0.50006100  1
  O  O16  1  0.48219500  0.02905000  0.75669100  1
  O  O17  1  0.01728800  0.52721700  0.25671200  1
  O  O18  1  0.01739000  0.47058700  0.74350300  1
  O  O19  1  0.48217700  0.97270300  0.24336800  1
  O  O20  1  0.23841300  0.76197000  0.00972800  1
  O  O21  1  0.74153300  0.26324200  0.49952500  1
  O  O22  1  0.26152700  0.73813900  0.49039900  1
  O  O23  1  0.75845700  0.23671600  0.00049500  1
  O  O24  1  0.26181700  0.26179100  0.51019400  1
  O  O25  1  0.75908600  0.76317500  0.99881600  1
  O  O26  1  0.00017000  0.00043800  0.76096000  1
  O  O27  1  0.50013900  0.49966800  0.26129400  1
  O  O28  1  0.23817600  0.23821400  0.98980600  1
  O  O29  1  0.74092300  0.73684100  0.50120100  1
  O  O30  1  0.49967400  0.49932700  0.73909700  1
  O  O31  1  0.99971700  0.00006700  0.23902100  1
