# generated using pymatgen
data_Li4MnCo2O7
_symmetry_space_group_name_H-M   'P 1'
_cell_length_a   3.02181500
_cell_length_b   8.04661501
_cell_length_c   10.70372005
_cell_angle_alpha   78.39087105
_cell_angle_beta   86.76489806
_cell_angle_gamma   89.04616022
_symmetry_Int_Tables_number   1
_chemical_formula_structural   Li4MnCo2O7
_chemical_formula_sum   'Li8 Mn2 Co4 O14'
_cell_volume   254.53084737
_cell_formula_units_Z   2
loop_
 _symmetry_equiv_pos_site_id
 _symmetry_equiv_pos_as_xyz
  1  'x, y, z'
loop_
 _atom_site_type_symbol
 _atom_site_label
 _atom_site_symmetry_multiplicity
 _atom_site_fract_x
 _atom_site_fract_y
 _atom_site_fract_z
 _atom_site_occupancy
  Li  Li0  1  0.93064500  0.71124300  0.63826700  1
  Li  Li1  1  0.63775200  0.57470300  0.21624600  1
  Li  Li2  1  0.36224800  0.42529700  0.78375400  1
  Li  Li3  1  0.50000000  0.00000000  0.50000000  1
  Li  Li4  1  0.21239200  0.85844000  0.07312100  1
  Li  Li5  1  0.06935500  0.28875700  0.36173300  1
  Li  Li6  1  0.78760800  0.14156000  0.92687900  1
  Li  Li7  1  0.50000000  0.50000000  0.50000000  1
  Mn  Mn8  1  0.78673900  0.64610000  0.92549700  1
  Mn  Mn9  1  0.21326100  0.35390000  0.07450300  1
  Co  Co10  1  0.93374600  0.22533900  0.63671600  1
  Co  Co11  1  0.64060500  0.06675100  0.21701200  1
  Co  Co12  1  0.35939500  0.93324900  0.78298800  1
  Co  Co13  1  0.06625400  0.77466100  0.36328400  1
  O  O14  1  0.37994200  0.69204700  0.78576700  1
  O  O15  1  0.07800100  0.56119900  0.35427000  1
  O  O16  1  0.81003100  0.39978200  0.93344100  1
  O  O17  1  0.94647000  0.98276800  0.65093500  1
  O  O18  1  0.66119400  0.83107500  0.22347600  1
  O  O19  1  0.51682800  0.24575100  0.51081100  1
  O  O20  1  0.23527600  0.11076400  0.08014000  1
  O  O21  1  0.48317200  0.75424900  0.48918900  1
  O  O22  1  0.18996900  0.60021800  0.06655900  1
  O  O23  1  0.92199900  0.43880100  0.64573000  1
  O  O24  1  0.05353000  0.01723200  0.34906500  1
  O  O25  1  0.76472400  0.88923600  0.91986000  1
  O  O26  1  0.62005800  0.30795300  0.21423300  1
  O  O27  1  0.33880600  0.16892500  0.77652400  1
