# generated using pymatgen
data_Li7Mn5O12
_symmetry_space_group_name_H-M   'P 1'
_cell_length_a   6.91345842
_cell_length_b   8.76523351
_cell_length_c   8.63132326
_cell_angle_alpha   119.34283021
_cell_angle_beta   77.71094503
_cell_angle_gamma   92.12907185
_symmetry_Int_Tables_number   1
_chemical_formula_structural   Li7Mn5O12
_chemical_formula_sum   'Li14 Mn10 O24'
_cell_volume   444.10313819
_cell_formula_units_Z   2
loop_
 _symmetry_equiv_pos_site_id
 _symmetry_equiv_pos_as_xyz
  1  'x, y, z'
loop_
 _atom_site_type_symbol
 _atom_site_label
 _atom_site_symmetry_multiplicity
 _atom_site_fract_x
 _atom_site_fract_y
 _atom_site_fract_z
 _atom_site_occupancy
  Li  Li0  1  0.24669100  0.25187000  0.24890700  1
  Li  Li1  1  0.75329800  0.74812500  0.75108300  1
  Li  Li2  1  0.35816600  0.86599200  0.71206000  1
  Li  Li3  1  0.87948600  0.38235400  0.21228600  1
  Li  Li4  1  0.12048600  0.61769500  0.78768600  1
  Li  Li5  1  0.64185200  0.13401100  0.28794900  1
  Li  Li6  1  0.62974500  0.11897900  0.95738600  1
  Li  Li7  1  0.13090600  0.60735200  0.44897900  1
  Li  Li8  1  0.86910300  0.39261200  0.55093300  1
  Li  Li9  1  0.37021600  0.88105800  0.04260900  1
  Li  Li10  1  0.64334400  0.13155500  0.62694500  1
  Li  Li11  1  0.12682600  0.61430200  0.11812600  1
  Li  Li12  1  0.87310100  0.38569600  0.88179000  1
  Li  Li13  1  0.35668100  0.86848900  0.37306300  1
  Mn  Mn14  1  0.50021300  0.50012700  0.50014800  1
  Mn  Mn15  1  0.99998100  0.99977300  0.99983800  1
  Mn  Mn16  1  0.75095100  0.74837100  0.41896800  1
  Mn  Mn17  1  0.24324000  0.25071400  0.92244500  1
  Mn  Mn18  1  0.75675400  0.74911800  0.07728000  1
  Mn  Mn19  1  0.24907600  0.25159400  0.58151100  1
  Mn  Mn20  1  0.99193100  0.99661500  0.66731600  1
  Mn  Mn21  1  0.49079200  0.49577400  0.16733100  1
  Mn  Mn22  1  0.50914200  0.50443700  0.83270100  1
  Mn  Mn23  1  0.00822300  0.00354100  0.33254400  1
  O  O24  1  0.55665800  0.33060000  0.24050800  1
  O  O25  1  0.05602000  0.83332400  0.73875100  1
  O  O26  1  0.94403400  0.16653200  0.26122600  1
  O  O27  1  0.44325600  0.66952300  0.75955100  1
  O  O28  1  0.27762500  0.06251500  0.97529500  1
  O  O29  1  0.77825100  0.56291500  0.47745300  1
  O  O30  1  0.22166600  0.43706800  0.52263900  1
  O  O31  1  0.72237400  0.93747000  0.02459300  1
  O  O32  1  0.80988800  0.58178600  0.15674700  1
  O  O33  1  0.27420500  0.07065900  0.65544100  1
  O  O34  1  0.72580600  0.92925000  0.34460400  1
  O  O35  1  0.19006200  0.41827300  0.84322600  1
  O  O36  1  0.55839300  0.32573400  0.90078200  1
  O  O37  1  0.06237400  0.83247200  0.40806800  1
  O  O38  1  0.93764600  0.16746200  0.59210200  1
  O  O39  1  0.44156200  0.67433900  0.09909100  1
  O  O40  1  0.56450300  0.32829700  0.56593200  1
  O  O41  1  0.07102400  0.83639800  0.07346400  1
  O  O42  1  0.92894200  0.16364100  0.92657800  1
  O  O43  1  0.43550000  0.67160800  0.43406800  1
  O  O44  1  0.81622200  0.57235100  0.82590300  1
  O  O45  1  0.27932400  0.06537400  0.32780400  1
  O  O46  1  0.72066400  0.93463300  0.67235000  1
  O  O47  1  0.18379600  0.42762400  0.17394200  1
