# generated using pymatgen
data_Li3Co2(CO3)4
_symmetry_space_group_name_H-M   'P 1'
_cell_length_a   6.38846587
_cell_length_b   8.59274752
_cell_length_c   9.92573692
_cell_angle_alpha   107.08787703
_cell_angle_beta   99.98710956
_cell_angle_gamma   97.36253052
_symmetry_Int_Tables_number   1
_chemical_formula_structural   Li3Co2(CO3)4
_chemical_formula_sum   'Li6 Co4 C8 O24'
_cell_volume   503.55369560
_cell_formula_units_Z   2
loop_
 _symmetry_equiv_pos_site_id
 _symmetry_equiv_pos_as_xyz
  1  'x, y, z'
loop_
 _atom_site_type_symbol
 _atom_site_label
 _atom_site_symmetry_multiplicity
 _atom_site_fract_x
 _atom_site_fract_y
 _atom_site_fract_z
 _atom_site_occupancy
  Li  Li0  1  0.36647600  0.30835700  0.41494300  1
  Li  Li1  1  0.87964600  0.31873000  0.91823900  1
  Li  Li2  1  0.77934900  0.67594500  0.73311500  1
  Li  Li3  1  0.28484600  0.67484200  0.22889100  1
  Li  Li4  1  0.05747800  0.85870900  0.53805800  1
  Li  Li5  1  0.55828200  0.84163300  0.02899100  1
  Co  Co6  1  0.56222200  0.00264100  0.57015900  1
  Co  Co7  1  0.69248600  0.47948500  0.17535600  1
  Co  Co8  1  0.07148000  0.00166500  0.06933600  1
  Co  Co9  1  0.16684500  0.49293900  0.66032300  1
  C  C10  1  0.74839300  0.20545500  0.13403700  1
  C  C11  1  0.24548600  0.21360000  0.63916600  1
  C  C12  1  0.74898900  0.29621100  0.62656600  1
  C  C13  1  0.25968300  0.29970600  0.13306300  1
  C  C14  1  0.41418800  0.69718000  0.53605600  1
  C  C15  1  0.92516700  0.69691400  0.04482500  1
  C  C16  1  0.22290700  0.78852400  0.82754500  1
  C  C17  1  0.71296000  0.79541200  0.32761200  1
  O  O18  1  0.77659200  0.05712000  0.11061700  1
  O  O19  1  0.28273500  0.06813700  0.63104600  1
  O  O20  1  0.14758400  0.24794500  0.52780900  1
  O  O21  1  0.64390600  0.25642200  0.03376300  1
  O  O22  1  0.59685300  0.23155100  0.51372100  1
  O  O23  1  0.10459400  0.24365700  0.02120200  1
  O  O24  1  0.29929500  0.20236700  0.20947300  1
  O  O25  1  0.79219200  0.20955700  0.71129400  1
  O  O26  1  0.85777700  0.44852300  0.65866500  1
  O  O27  1  0.37559700  0.45046000  0.17430800  1
  O  O28  1  0.82099200  0.32404100  0.25669700  1
  O  O29  1  0.30381400  0.33918000  0.75743100  1
  O  O30  1  0.34222000  0.54380800  0.52684600  1
  O  O31  1  0.86520200  0.54496500  0.04321000  1
  O  O32  1  0.08533700  0.75092000  0.70329100  1
  O  O33  1  0.57925800  0.77815000  0.20992200  1
  O  O34  1  0.57669100  0.78802600  0.63732300  1
  O  O35  1  0.08305400  0.79706000  0.14499400  1
  O  O36  1  0.79821600  0.66664300  0.34117900  1
  O  O37  1  0.32251400  0.67018300  0.84738700  1
  O  O38  1  0.32338000  0.76272100  0.44460400  1
  O  O39  1  0.83079300  0.75143500  0.94630200  1
  O  O40  1  0.26387200  0.92801300  0.92779500  1
  O  O41  1  0.77343500  0.92679900  0.43872100  1
