# generated using pymatgen
data_Li2V2P4H6O17
_symmetry_space_group_name_H-M   'P 1'
_cell_length_a   8.92788200
_cell_length_b   9.13330170
_cell_length_c   9.33429897
_cell_angle_alpha   118.13594539
_cell_angle_beta   89.90801906
_cell_angle_gamma   100.06185154
_symmetry_Int_Tables_number   1
_chemical_formula_structural   Li2V2P4H6O17
_chemical_formula_sum   'Li4 V4 P8 H12 O34'
_cell_volume   657.99728232
_cell_formula_units_Z   2
loop_
 _symmetry_equiv_pos_site_id
 _symmetry_equiv_pos_as_xyz
  1  'x, y, z'
loop_
 _atom_site_type_symbol
 _atom_site_label
 _atom_site_symmetry_multiplicity
 _atom_site_fract_x
 _atom_site_fract_y
 _atom_site_fract_z
 _atom_site_occupancy
  Li  Li0  1  0.75571200  0.10776400  0.20233500  1
  Li  Li1  1  0.31784200  0.51825400  0.73150900  1
  Li  Li2  1  0.68215800  0.48174600  0.26849100  1
  Li  Li3  1  0.24428800  0.89223600  0.79766500  1
  V  V4  1  0.86939200  0.24723000  0.71014900  1
  V  V5  1  0.37289200  0.26421000  0.21959500  1
  V  V6  1  0.62710800  0.73579000  0.78040500  1
  V  V7  1  0.13060800  0.75277000  0.28985100  1
  P  P8  1  0.58864900  0.14231200  0.91026000  1
  P  P9  1  0.10491300  0.16239500  0.41559800  1
  P  P10  1  0.57359000  0.30648500  0.54845500  1
  P  P11  1  0.85897400  0.65125800  0.99215500  1
  P  P12  1  0.14102600  0.34874200  0.00784500  1
  P  P13  1  0.42641000  0.69351500  0.45154500  1
  P  P14  1  0.89508700  0.83760500  0.58440200  1
  P  P15  1  0.41135100  0.85768800  0.08974000  1
  H  H16  1  0.02682700  0.05082400  0.79802200  1
  H  H17  1  0.43229600  0.11122200  0.71496100  1
  H  H18  1  0.34949600  0.11299700  0.49635800  1
  H  H19  1  0.29662600  0.55900200  0.01533000  1
  H  H20  1  0.88306700  0.39788300  0.39539300  1
  H  H21  1  0.94359200  0.40495100  0.23919600  1
  H  H22  1  0.05640800  0.59504900  0.76080400  1
  H  H23  1  0.11693300  0.60211700  0.60460700  1
  H  H24  1  0.70337400  0.44099800  0.98467000  1
  H  H25  1  0.65050400  0.88700300  0.50364200  1
  H  H26  1  0.56770400  0.88877800  0.28503900  1
  H  H27  1  0.97317300  0.94917600  0.20197800  1
  O  O28  1  0.65561400  0.99877600  0.90824700  1
  O  O29  1  0.43274000  0.06322900  0.79247500  1
  O  O30  1  0.69374900  0.24998000  0.84856800  1
  O  O31  1  0.18058100  0.01901500  0.40913600  1
  O  O32  1  0.96726000  0.07543400  0.27472200  1
  O  O33  1  0.01014700  0.23020000  0.87246700  1
  O  O34  1  0.44498400  0.17720400  0.57581300  1
  O  O35  1  0.72679400  0.25066800  0.54740700  1
  O  O36  1  0.25845600  0.43680500  0.92889200  1
  O  O37  1  0.91834200  0.51267100  0.84442500  1
  O  O38  1  0.04283700  0.26289100  0.58031700  1
  O  O39  1  0.54030100  0.29104600  0.38057600  1
  O  O40  1  0.56529100  0.47976400  0.69253800  1
  O  O41  1  0.22144500  0.29107200  0.38971400  1
  O  O42  1  0.85229500  0.36203100  0.28156100  1
  O  O43  1  0.55505400  0.26649400  0.08218000  1
  O  O44  1  0.21652800  0.23350500  0.04921800  1
  O  O45  1  0.78347200  0.76649500  0.95078200  1
  O  O46  1  0.44494600  0.73350600  0.91782000  1
  O  O47  1  0.14770500  0.63796900  0.71843900  1
  O  O48  1  0.77855500  0.70892800  0.61028600  1
  O  O49  1  0.43470900  0.52023600  0.30746200  1
  O  O50  1  0.45969900  0.70895400  0.61942400  1
  O  O51  1  0.95716300  0.73710900  0.41968300  1
  O  O52  1  0.08165800  0.48732900  0.15557500  1
  O  O53  1  0.74154400  0.56319500  0.07110800  1
  O  O54  1  0.27320600  0.74933200  0.45259300  1
  O  O55  1  0.55501600  0.82279600  0.42418700  1
  O  O56  1  0.98985300  0.76980000  0.12753300  1
  O  O57  1  0.03274000  0.92456600  0.72527800  1
  O  O58  1  0.81941900  0.98098500  0.59086400  1
  O  O59  1  0.30625100  0.75002000  0.15143200  1
  O  O60  1  0.56726000  0.93677100  0.20752500  1
  O  O61  1  0.34438600  0.00122400  0.09175300  1
