# generated using pymatgen
data_Li3MnV(PO4)3
_symmetry_space_group_name_H-M   'P 1'
_cell_length_a   8.68169500
_cell_length_b   8.77245995
_cell_length_c   15.09810246
_cell_angle_alpha   73.13820374
_cell_angle_beta   73.86486743
_cell_angle_gamma   61.53641856
_symmetry_Int_Tables_number   1
_chemical_formula_structural   Li3MnV(PO4)3
_chemical_formula_sum   'Li12 Mn4 V4 P12 O48'
_cell_volume   953.99067862
_cell_formula_units_Z   4
loop_
 _symmetry_equiv_pos_site_id
 _symmetry_equiv_pos_as_xyz
  1  'x, y, z'
loop_
 _atom_site_type_symbol
 _atom_site_label
 _atom_site_symmetry_multiplicity
 _atom_site_fract_x
 _atom_site_fract_y
 _atom_site_fract_z
 _atom_site_occupancy
  Li  Li0  1  0.29532700  0.43880300  0.31804600  1
  Li  Li1  1  0.18613500  0.15931600  0.55273400  1
  Li  Li2  1  0.68706900  0.66319800  0.05096400  1
  Li  Li3  1  0.17555600  0.06973400  0.17961200  1
  Li  Li4  1  0.21166500  0.85113500  0.82757300  1
  Li  Li5  1  0.71288900  0.34938000  0.32885500  1
  Li  Li6  1  0.27016400  0.57912800  0.63359800  1
  Li  Li7  1  0.77263300  0.07973700  0.13041800  1
  Li  Li8  1  0.81160900  0.92553300  0.82130800  1
  Li  Li9  1  0.68737800  0.55706600  0.68809600  1
  Li  Li10  1  0.36002400  0.20143000  0.97689400  1
  Li  Li11  1  0.86388700  0.69865100  0.48107500  1
  Mn  Mn12  1  0.28852500  0.77907700  0.07500500  1
  Mn  Mn13  1  0.03005400  0.53388200  0.82153300  1
  Mn  Mn14  1  0.78717100  0.27797200  0.57290100  1
  Mn  Mn15  1  0.47604400  0.96153600  0.67611700  1
  V  V16  1  0.53311300  0.03810600  0.32027500  1
  V  V17  1  0.21802200  0.71710000  0.42534600  1
  V  V18  1  0.97219700  0.46173800  0.17929900  1
  V  V19  1  0.71483000  0.21660900  0.92351200  1
  P  P20  1  0.01198700  0.21712700  0.73512800  1
  P  P21  1  0.51387700  0.72150400  0.23612700  1
  P  P22  1  0.01910100  0.23783300  0.02093100  1
  P  P23  1  0.09656600  0.16407400  0.37547500  1
  P  P24  1  0.40434500  0.32623700  0.12547500  1
  P  P25  1  0.47646100  0.28032000  0.47504900  1
  P  P26  1  0.52140200  0.73890900  0.52488500  1
  P  P27  1  0.59398900  0.66291800  0.87683400  1
  P  P28  1  0.90809000  0.81944000  0.62863500  1
  P  P29  1  0.97738900  0.77897500  0.97912200  1
  P  P30  1  0.48750400  0.26923400  0.76005700  1
  P  P31  1  0.98727700  0.77671400  0.26232900  1
  O  O32  1  0.02217200  0.60219500  0.23921200  1
  O  O33  1  0.46048900  0.78558700  0.13628700  1
  O  O34  1  0.39396600  0.64053400  0.30861200  1
  O  O35  1  0.00401400  0.21538000  0.47311700  1
  O  O36  1  0.29938700  0.45046800  0.46526500  1
  O  O37  1  0.36058500  0.51301200  0.12989700  1
  O  O38  1  0.23443600  0.29440200  0.14704500  1
  O  O39  1  0.26524000  0.19765500  0.35257400  1
  O  O40  1  0.20238200  0.06748300  0.72783300  1
  O  O41  1  0.70343800  0.56859900  0.22858600  1
  O  O42  1  0.20146400  0.07852700  0.03538500  1
  O  O43  1  0.14460700  0.97196200  0.37478200  1
  O  O44  1  0.10775400  0.85916000  0.18855600  1
  O  O45  1  0.02090000  0.74862700  0.53689900  1
  O  O46  1  0.12562300  0.81278500  0.99624200  1
  O  O47  1  0.42526600  0.14720000  0.55321100  1
  O  O48  1  0.50506500  0.26529500  0.03039900  1
  O  O49  1  0.02938300  0.70490000  0.70601800  1
  O  O50  1  0.04802000  0.72651700  0.88005600  1
  O  O51  1  0.62487500  0.31489700  0.49162700  1
  O  O52  1  0.93104200  0.63988900  0.05620800  1
  O  O53  1  0.02995800  0.72448200  0.36311400  1
  O  O54  1  0.53181800  0.20284300  0.19811800  1
  O  O55  1  0.55169300  0.22206300  0.37673800  1
  O  O56  1  0.52339000  0.09289100  0.73770500  1
  O  O57  1  0.49497400  0.88376300  0.26367500  1
  O  O58  1  0.43050700  0.81878700  0.61740000  1
  O  O59  1  0.93252100  0.31298400  0.11333300  1
  O  O60  1  0.95890800  0.27747800  0.63492100  1
  O  O61  1  0.46670900  0.77744300  0.80509000  1
  O  O62  1  0.06912900  0.36996200  0.93832900  1
  O  O63  1  0.38396100  0.68722200  0.51113100  1
  O  O64  1  0.97096000  0.27958600  0.30169400  1
  O  O65  1  0.56591100  0.87235800  0.44226700  1
  O  O66  1  0.88264600  0.18795100  0.00452500  1
  O  O67  1  0.89434000  0.13323800  0.80810000  1
  O  O68  1  0.50507900  0.70680000  0.97674000  1
  O  O69  1  0.79788600  0.94786900  0.97409300  1
  O  O70  1  0.86435200  0.00883600  0.62640100  1
  O  O71  1  0.29737600  0.41414800  0.75658300  1
  O  O72  1  0.79723800  0.92247100  0.25817800  1
  O  O73  1  0.74112100  0.78547600  0.64719600  1
  O  O74  1  0.76112800  0.69926800  0.85538600  1
  O  O75  1  0.70197100  0.57918200  0.54045900  1
  O  O76  1  0.64985800  0.47011300  0.87162300  1
  O  O77  1  0.60712800  0.35233800  0.68664800  1
  O  O78  1  0.53350900  0.21553900  0.86036400  1
  O  O79  1  0.98653400  0.38625000  0.75816300  1
