# generated using pymatgen
data_Li2MnCo3O8
_symmetry_space_group_name_H-M   'P 1'
_cell_length_a   5.93836586
_cell_length_b   5.99291962
_cell_length_c   8.11655714
_cell_angle_alpha   87.42918269
_cell_angle_beta   90.02052861
_cell_angle_gamma   89.95433016
_symmetry_Int_Tables_number   1
_chemical_formula_structural   Li2MnCo3O8
_chemical_formula_sum   'Li4 Mn2 Co6 O16'
_cell_volume   288.56241520
_cell_formula_units_Z   2
loop_
 _symmetry_equiv_pos_site_id
 _symmetry_equiv_pos_as_xyz
  1  'x, y, z'
loop_
 _atom_site_type_symbol
 _atom_site_label
 _atom_site_symmetry_multiplicity
 _atom_site_fract_x
 _atom_site_fract_y
 _atom_site_fract_z
 _atom_site_occupancy
  Li  Li0  1  0.99427800  0.00093300  0.49961200  1
  Li  Li1  1  0.50523100  0.49868900  0.00070100  1
  Li  Li2  1  0.50404100  0.00112900  0.49955300  1
  Li  Li3  1  0.99624000  0.49890700  0.00012100  1
  Mn  Mn4  1  0.50550000  0.50018700  0.50015500  1
  Mn  Mn5  1  0.99271200  0.99955900  0.00005900  1
  Co  Co6  1  0.49784900  0.99914500  0.99963200  1
  Co  Co7  1  0.00128000  0.50073800  0.50035400  1
  Co  Co8  1  0.25043300  0.74924300  0.25003800  1
  Co  Co9  1  0.75021200  0.25020200  0.75003000  1
  Co  Co10  1  0.75029900  0.74960300  0.25000400  1
  Co  Co11  1  0.25058300  0.25086900  0.75003200  1
  O  O12  1  0.51781100  0.96327500  0.23531000  1
  O  O13  1  0.98159700  0.46351700  0.73548300  1
  O  O14  1  0.51868600  0.03767100  0.76385500  1
  O  O15  1  0.98297100  0.53593500  0.26484500  1
  O  O16  1  0.98290400  0.03508300  0.76100600  1
  O  O17  1  0.51552400  0.53407400  0.26167800  1
  O  O18  1  0.98468000  0.96601300  0.23827100  1
  O  O19  1  0.51699900  0.46583500  0.73957400  1
  O  O20  1  0.73786000  0.27180900  0.51545000  1
  O  O21  1  0.23377000  0.77455200  0.01061700  1
  O  O22  1  0.26642300  0.27468800  0.51254800  1
  O  O23  1  0.76257500  0.76809600  0.01710400  1
  O  O24  1  0.73718600  0.73012500  0.48275300  1
  O  O25  1  0.23395400  0.22555700  0.98721300  1
  O  O26  1  0.26638500  0.72529800  0.48966900  1
  O  O27  1  0.76201900  0.22926800  0.98433400  1
