# generated using pymatgen
data_LiV2NiO6
_symmetry_space_group_name_H-M   'P 1'
_cell_length_a   5.64341656
_cell_length_b   7.06757101
_cell_length_c   6.77288732
_cell_angle_alpha   102.31268436
_cell_angle_beta   69.90730107
_cell_angle_gamma   105.30441611
_symmetry_Int_Tables_number   1
_chemical_formula_structural   LiV2NiO6
_chemical_formula_sum   'Li2 V4 Ni2 O12'
_cell_volume   242.44979586
_cell_formula_units_Z   2
loop_
 _symmetry_equiv_pos_site_id
 _symmetry_equiv_pos_as_xyz
  1  'x, y, z'
loop_
 _atom_site_type_symbol
 _atom_site_label
 _atom_site_symmetry_multiplicity
 _atom_site_fract_x
 _atom_site_fract_y
 _atom_site_fract_z
 _atom_site_occupancy
  Li  Li0  1  0.24529900  0.26123600  0.28662800  1
  Li  Li1  1  0.75479800  0.73889300  0.71335900  1
  V  V2  1  0.75604500  0.21419000  0.63654900  1
  V  V3  1  0.24387800  0.78579800  0.36343500  1
  V  V4  1  0.19561400  0.38160000  0.85723700  1
  V  V5  1  0.80438200  0.61822800  0.14274800  1
  Ni  Ni6  1  0.74697700  0.07978500  0.08503000  1
  Ni  Ni7  1  0.25306000  0.92022700  0.91493400  1
  O  O8  1  0.64838800  0.01435800  0.78875000  1
  O  O9  1  0.16076600  0.18812400  0.00097400  1
  O  O10  1  0.83925000  0.81186900  0.99906100  1
  O  O11  1  0.35158200  0.98568100  0.21127000  1
  O  O12  1  0.77549200  0.12026800  0.38262200  1
  O  O13  1  0.79320300  0.36231800  0.03460400  1
  O  O14  1  0.20675500  0.63760100  0.96540500  1
  O  O15  1  0.22450500  0.87976800  0.61739100  1
  O  O16  1  0.56643500  0.39678400  0.71560200  1
  O  O17  1  0.09236300  0.31814300  0.60680900  1
  O  O18  1  0.90764500  0.68188500  0.39319000  1
  O  O19  1  0.43356200  0.60324400  0.28440100  1
