# generated using pymatgen
data_Li4V3P8O29
_symmetry_space_group_name_H-M   'P 1'
_cell_length_a   9.77681300
_cell_length_b   9.79100048
_cell_length_c   14.28856582
_cell_angle_alpha   90.02961672
_cell_angle_beta   90.15738894
_cell_angle_gamma   119.94143098
_symmetry_Int_Tables_number   1
_chemical_formula_structural   Li4V3P8O29
_chemical_formula_sum   'Li8 V6 P16 O58'
_cell_volume   1185.21459840
_cell_formula_units_Z   2
loop_
 _symmetry_equiv_pos_site_id
 _symmetry_equiv_pos_as_xyz
  1  'x, y, z'
loop_
 _atom_site_type_symbol
 _atom_site_label
 _atom_site_symmetry_multiplicity
 _atom_site_fract_x
 _atom_site_fract_y
 _atom_site_fract_z
 _atom_site_occupancy
  Li  Li0  1  0.77652800  0.68338700  0.55578600  1
  Li  Li1  1  0.92014800  0.22771900  0.55725600  1
  Li  Li2  1  0.76111900  0.08942200  0.05883900  1
  Li  Li3  1  0.32804200  0.22843200  0.06139600  1
  Li  Li4  1  0.68931100  0.91413100  0.43976300  1
  Li  Li5  1  0.31030800  0.08463700  0.55691400  1
  Li  Li6  1  0.09204000  0.32647000  0.94199800  1
  Li  Li7  1  0.98520000  0.91946700  0.01484800  1
  V  V8  1  0.56443200  0.00155000  0.24819900  1
  V  V9  1  0.43048800  0.99805100  0.75417200  1
  V  V10  1  0.56589900  0.56831400  0.75391500  1
  V  V11  1  0.43421100  0.43597100  0.24982600  1
  V  V12  1  0.99526900  0.56725000  0.24797400  1
  V  V13  1  0.00101800  0.43737200  0.74748800  1
  P  P14  1  0.91690600  0.68979400  0.84159400  1
  P  P15  1  0.77063300  0.68387000  0.33965300  1
  P  P16  1  0.91100700  0.22955000  0.34177500  1
  P  P17  1  0.66845200  0.33112400  0.12924300  1
  P  P18  1  0.66181000  0.33047600  0.63291500  1
  P  P19  1  0.77376100  0.08966500  0.84127400  1
  P  P20  1  0.68081200  0.91159100  0.66071200  1
  P  P21  1  0.31407500  0.22951900  0.84224800  1
  P  P22  1  0.69017300  0.77672500  0.15859400  1
  P  P23  1  0.32094900  0.09085700  0.34132700  1
  P  P24  1  0.21988300  0.91406300  0.16246000  1
  P  P25  1  0.33323300  0.66893900  0.36518100  1
  P  P26  1  0.33518800  0.66649500  0.86935800  1
  P  P27  1  0.08655900  0.77276300  0.66005200  1
  P  P28  1  0.22907200  0.31524400  0.66077300  1
  P  P29  1  0.08517800  0.31519900  0.16067200  1
  O  O30  1  0.99647900  0.76651700  0.57501100  1
  O  O31  1  0.91446800  0.66038200  0.33366800  1
  O  O32  1  0.79133100  0.79331600  0.07778600  1
  O  O33  1  0.74347000  0.65716100  0.82691200  1
  O  O34  1  0.91620000  0.53421100  0.82967700  1
  O  O35  1  0.81256800  0.48239400  0.17618300  1
  O  O36  1  0.90452300  0.38173200  0.32105500  1
  O  O37  1  0.99953300  0.23106700  0.07219400  1
  O  O38  1  0.91807100  0.25847600  0.83440000  1
  O  O39  1  0.66291100  0.48063200  0.67375700  1
  O  O40  1  0.61902000  0.52213900  0.31993500  1
  O  O41  1  0.81213700  0.32811800  0.67022700  1
  O  O42  1  0.67581200  0.32846500  0.02518400  1
  O  O43  1  0.65260500  0.32540800  0.52878100  1
  O  O44  1  0.68054700  0.18995900  0.17146100  1
  O  O45  1  0.47371000  0.38401100  0.82727200  1
  O  O46  1  0.51394600  0.32782800  0.16542500  1
  O  O47  1  0.74416900  0.08090900  0.33740300  1
  O  O48  1  0.79035800  0.99857100  0.75099000  1
  O  O49  1  0.75849100  0.99872600  0.57228000  1
  O  O50  1  0.77592800  0.01447000  0.93131700  1
  O  O51  1  0.61747400  0.09235600  0.82416200  1
  O  O52  1  0.51357900  0.18100000  0.67720200  1
  O  O53  1  0.65271500  0.91333400  0.16107300  1
  O  O54  1  0.48200600  0.10338400  0.31946200  1
  O  O55  1  0.34288300  0.25888500  0.32552100  1
  O  O56  1  0.78663200  0.79957000  0.25634600  1
  O  O57  1  0.75738700  0.75380500  0.43039400  1
  O  O58  1  0.23793500  0.22657300  0.57942600  1
  O  O59  1  0.66066200  0.74419100  0.66029900  1
  O  O60  1  0.52165100  0.90457500  0.67892700  1
  O  O61  1  0.34007500  0.08632300  0.83434300  1
  O  O62  1  0.48429100  0.81517300  0.32536000  1
  O  O63  1  0.37821400  0.91880000  0.16651900  1
  O  O64  1  0.19766400  0.00128400  0.08275000  1
  O  O65  1  0.25600500  0.02074200  0.43345800  1
  O  O66  1  0.20055300  0.98930400  0.25939300  1
  O  O67  1  0.25713200  0.91862900  0.66276300  1
  O  O68  1  0.48572000  0.67180300  0.82191200  1
  O  O69  1  0.53636100  0.61560500  0.17033800  1
  O  O70  1  0.33330500  0.81451000  0.82388600  1
  O  O71  1  0.34839800  0.67406100  0.97273500  1
  O  O72  1  0.33783700  0.66515700  0.46879900  1
  O  O73  1  0.18277200  0.66089400  0.32132600  1
  O  O74  1  0.38101900  0.47504000  0.67983100  1
  O  O75  1  0.33969500  0.52251900  0.31779100  1
  O  O76  1  0.08081500  0.74131300  0.16736400  1
  O  O77  1  0.00612300  0.79747000  0.75143300  1
  O  O78  1  0.99013700  0.78332800  0.92681300  1
  O  O79  1  0.09840000  0.62175100  0.67720600  1
  O  O80  1  0.18950400  0.51361900  0.83206400  1
  O  O81  1  0.08930900  0.47333400  0.17394900  1
  O  O82  1  0.25555500  0.34057500  0.15983600  1
  O  O83  1  0.23668300  0.23154100  0.93281100  1
  O  O84  1  0.20141800  0.21294400  0.75691800  1
  O  O85  1  0.08348000  0.33818300  0.65897400  1
  O  O86  1  0.99053600  0.23461100  0.43151200  1
  O  O87  1  0.00234500  0.20953900  0.25166100  1
