# generated using pymatgen
data_Li9Co7O16
_symmetry_space_group_name_H-M   'P 1'
_cell_length_a   5.68855400
_cell_length_b   6.41098207
_cell_length_c   7.54563154
_cell_angle_alpha   86.10145554
_cell_angle_beta   78.97348488
_cell_angle_gamma   77.16334188
_symmetry_Int_Tables_number   1
_chemical_formula_structural   Li9Co7O16
_chemical_formula_sum   'Li9 Co7 O16'
_cell_volume   263.25900371
_cell_formula_units_Z   1
loop_
 _symmetry_equiv_pos_site_id
 _symmetry_equiv_pos_as_xyz
  1  'x, y, z'
loop_
 _atom_site_type_symbol
 _atom_site_label
 _atom_site_symmetry_multiplicity
 _atom_site_fract_x
 _atom_site_fract_y
 _atom_site_fract_z
 _atom_site_occupancy
  Li  Li0  1  0.93769300  0.87600600  0.37488600  1
  Li  Li1  1  0.68370600  0.37162400  0.87571600  1
  Li  Li2  1  0.43813700  0.87585700  0.37198100  1
  Li  Li3  1  0.80757700  0.62965100  0.12467200  1
  Li  Li4  1  0.56186300  0.12414300  0.62801900  1
  Li  Li5  1  0.31629400  0.62837600  0.12428400  1
  Li  Li6  1  0.19242300  0.37034900  0.87532800  1
  Li  Li7  1  0.06230700  0.12399400  0.62511400  1
  Li  Li8  1  0.50000000  0.00000000  0.00000000  1
  Co  Co9  1  0.86956500  0.75252900  0.75407100  1
  Co  Co10  1  0.00000000  0.00000000  0.00000000  1
  Co  Co11  1  0.62461100  0.24911100  0.24677400  1
  Co  Co12  1  0.37538900  0.75088900  0.75322600  1
  Co  Co13  1  0.13043500  0.24747100  0.24592900  1
  Co  Co14  1  0.24991600  0.49967200  0.49984800  1
  Co  Co15  1  0.75008400  0.50032800  0.50015200  1
  O  O16  1  0.15744800  0.79175600  0.57713600  1
  O  O17  1  0.91038600  0.29376300  0.07321200  1
  O  O18  1  0.65638000  0.79615800  0.57783300  1
  O  O19  1  0.03299300  0.54145100  0.32629000  1
  O  O20  1  0.80061700  0.04368700  0.82077300  1
  O  O21  1  0.53430600  0.54438600  0.32602300  1
  O  O22  1  0.40218700  0.30949800  0.08336200  1
  O  O23  1  0.26661400  0.04385700  0.82042500  1
  O  O24  1  0.73338600  0.95614300  0.17957500  1
  O  O25  1  0.46569400  0.45561400  0.67397700  1
  O  O26  1  0.19938300  0.95631300  0.17922700  1
  O  O27  1  0.59781300  0.69050200  0.91663800  1
  O  O28  1  0.34362000  0.20384200  0.42216700  1
  O  O29  1  0.08961400  0.70623700  0.92678800  1
  O  O30  1  0.96700700  0.45854900  0.67371000  1
  O  O31  1  0.84255200  0.20824400  0.42286400  1
