# generated using pymatgen
data_Li2TiFeO4
_symmetry_space_group_name_H-M   'P 1'
_cell_length_a   5.80985339
_cell_length_b   7.88145366
_cell_length_c   7.88014696
_cell_angle_alpha   69.73988820
_cell_angle_beta   68.50376996
_cell_angle_gamma   68.51432781
_symmetry_Int_Tables_number   1
_chemical_formula_structural   Li2TiFeO4
_chemical_formula_sum   'Li8 Ti4 Fe4 O16'
_cell_volume   302.88678994
_cell_formula_units_Z   4
loop_
 _symmetry_equiv_pos_site_id
 _symmetry_equiv_pos_as_xyz
  1  'x, y, z'
loop_
 _atom_site_type_symbol
 _atom_site_label
 _atom_site_symmetry_multiplicity
 _atom_site_fract_x
 _atom_site_fract_y
 _atom_site_fract_z
 _atom_site_occupancy
  Li  Li0  1  0.12335300  0.87520600  0.37566500  1
  Li  Li1  1  0.37718800  0.12490000  0.62540200  1
  Li  Li2  1  0.62634600  0.37616000  0.87357900  1
  Li  Li3  1  0.87314600  0.62512500  0.12385600  1
  Li  Li4  1  0.49977700  0.50068500  0.50144700  1
  Li  Li5  1  0.74955600  0.74934000  0.75022600  1
  Li  Li6  1  0.00207900  0.99826700  0.99926300  1
  Li  Li7  1  0.24882400  0.25005200  0.25080300  1
  Ti  Ti8  1  0.49988600  0.00105700  0.00006300  1
  Ti  Ti9  1  0.75119000  0.25046500  0.24907100  1
  Ti  Ti10  1  0.00070500  0.50060300  0.49883400  1
  Ti  Ti11  1  0.25074800  0.75069100  0.74942900  1
  Fe  Fe12  1  0.12734300  0.37196700  0.87702200  1
  Fe  Fe13  1  0.37106900  0.62222100  0.12852700  1
  Fe  Fe14  1  0.62326200  0.87847600  0.37095600  1
  Fe  Fe15  1  0.87821600  0.12556200  0.62514600  1
  O  O16  1  0.25556300  0.96638200  0.53196100  1
  O  O17  1  0.50566300  0.21282800  0.78235400  1
  O  O18  1  0.75029800  0.46352000  0.03587100  1
  O  O19  1  0.98791700  0.71998300  0.28672700  1
  O  O20  1  0.49666000  0.78018400  0.21206500  1
  O  O21  1  0.74899400  0.03841200  0.46683700  1
  O  O22  1  0.00300700  0.28524800  0.71790800  1
  O  O23  1  0.25034800  0.53268200  0.96699900  1
  O  O24  1  0.12634100  0.12450100  0.12513800  1
  O  O25  1  0.37187100  0.37650500  0.37464100  1
  O  O26  1  0.62401900  0.62423000  0.62614000  1
  O  O27  1  0.87702000  0.87491100  0.87463600  1
  O  O28  1  0.37346000  0.87491600  0.87422700  1
  O  O29  1  0.62365400  0.12391400  0.12529100  1
  O  O30  1  0.87679300  0.37526400  0.37543200  1
  O  O31  1  0.12570500  0.62574800  0.62448300  1
