# generated using pymatgen
data_Li10Zn7(PS4)8
_symmetry_space_group_name_H-M   'P 1'
_cell_length_a   9.20836300
_cell_length_b   11.61783300
_cell_length_c   23.23096106
_cell_angle_alpha   89.97585932
_cell_angle_beta   90.00000000
_cell_angle_gamma   90.00000000
_symmetry_Int_Tables_number   1
_chemical_formula_structural   Li10Zn7(PS4)8
_chemical_formula_sum   'Li20 Zn14 P16 S64'
_cell_volume   2485.27641777
_cell_formula_units_Z   2
loop_
 _symmetry_equiv_pos_site_id
 _symmetry_equiv_pos_as_xyz
  1  'x, y, z'
loop_
 _atom_site_type_symbol
 _atom_site_label
 _atom_site_symmetry_multiplicity
 _atom_site_fract_x
 _atom_site_fract_y
 _atom_site_fract_z
 _atom_site_occupancy
  Li  Li0  1  0.25140100  0.12230000  0.05995700  1
  Li  Li1  1  0.75140100  0.87770000  0.94004300  1
  Li  Li2  1  0.00001600  0.37676700  0.06213300  1
  Li  Li3  1  0.99854900  0.37355500  0.81312400  1
  Li  Li4  1  0.99953600  0.37484600  0.56255800  1
  Li  Li5  1  0.99902800  0.37532000  0.31263200  1
  Li  Li6  1  0.99818500  0.87322700  0.06341100  1
  Li  Li7  1  0.00375000  0.87565400  0.81059600  1
  Li  Li8  1  0.49818500  0.12677300  0.93658900  1
  Li  Li9  1  0.99965000  0.87510700  0.56243300  1
  Li  Li10  1  0.49827400  0.12399600  0.68673900  1
  Li  Li11  1  0.99827400  0.87600400  0.31326100  1
  Li  Li12  1  0.49965000  0.12489300  0.43756700  1
  Li  Li13  1  0.50375000  0.12434600  0.18940400  1
  Li  Li14  1  0.50001600  0.62323300  0.93786700  1
  Li  Li15  1  0.49902800  0.62468000  0.68736800  1
  Li  Li16  1  0.49953600  0.62515400  0.43744200  1
  Li  Li17  1  0.49854900  0.62644500  0.18687600  1
  Li  Li18  1  0.00058000  0.12662100  0.93627000  1
  Li  Li19  1  0.50058000  0.87337900  0.06373000  1
  Zn  Zn20  1  0.00010300  0.62614300  0.18747700  1
  Zn  Zn21  1  0.00668900  0.62332900  0.93885300  1
  Zn  Zn22  1  0.00058800  0.62539800  0.68707700  1
  Zn  Zn23  1  0.00033700  0.62506900  0.43747900  1
  Zn  Zn24  1  0.99452100  0.12577000  0.18792400  1
  Zn  Zn25  1  0.50668900  0.37667100  0.06114700  1
  Zn  Zn26  1  0.00006100  0.12458800  0.68787100  1
  Zn  Zn27  1  0.50010300  0.37385700  0.81252300  1
  Zn  Zn28  1  0.00042000  0.12490400  0.43761500  1
  Zn  Zn29  1  0.50033700  0.37493100  0.56252100  1
  Zn  Zn30  1  0.50058800  0.37460200  0.31292300  1
  Zn  Zn31  1  0.49452100  0.87423000  0.81207600  1
  Zn  Zn32  1  0.50042000  0.87509600  0.56238500  1
  Zn  Zn33  1  0.50006100  0.87541200  0.31212900  1
  P  P34  1  0.24760900  0.37436500  0.18749600  1
  P  P35  1  0.25325900  0.37548900  0.93970900  1
  P  P36  1  0.24990000  0.37493800  0.68761500  1
  P  P37  1  0.24997800  0.37504300  0.43752300  1
  P  P38  1  0.25262000  0.87137000  0.18785300  1
  P  P39  1  0.24668500  0.87864900  0.93551600  1
  P  P40  1  0.74668500  0.12135100  0.06448400  1
  P  P41  1  0.24988800  0.87478900  0.68714900  1
  P  P42  1  0.75262000  0.12863000  0.81214700  1
  P  P43  1  0.25016700  0.87495800  0.43747900  1
  P  P44  1  0.75016700  0.12504200  0.56252100  1
  P  P45  1  0.74988800  0.12521100  0.31285100  1
  P  P46  1  0.75325900  0.62451100  0.06029100  1
  P  P47  1  0.74760900  0.62563500  0.81250400  1
  P  P48  1  0.74997800  0.62495700  0.56247700  1
  P  P49  1  0.74990000  0.62506200  0.31238500  1
  S  S50  1  0.36256800  0.76930400  0.13318900  1
  S  S51  1  0.37099900  0.77104900  0.88383400  1
  S  S52  1  0.36504900  0.77065900  0.63157900  1
  S  S53  1  0.36498200  0.77097400  0.38176500  1
  S  S54  1  0.37093700  0.27114200  0.13207300  1
  S  S55  1  0.36525900  0.27162500  0.88286300  1
  S  S56  1  0.86905900  0.51812700  0.00624100  1
  S  S57  1  0.36421600  0.27092300  0.63164500  1
  S  S58  1  0.86633800  0.52288200  0.75786300  1
  S  S59  1  0.36436200  0.27052100  0.38179200  1
  S  S60  1  0.86484800  0.52075900  0.50683400  1
  S  S61  1  0.86458100  0.52085100  0.25665500  1
  S  S62  1  0.87032800  0.02106100  0.00959800  1
  S  S63  1  0.86295000  0.02079000  0.75644100  1
  S  S64  1  0.86467100  0.02074000  0.50676200  1
  S  S65  1  0.86363500  0.02047900  0.25718700  1
  S  S66  1  0.13262100  0.26731000  0.99062500  1
  S  S67  1  0.13508400  0.26377100  0.73975300  1
  S  S68  1  0.13525100  0.26374300  0.48969500  1
  S  S69  1  0.13509500  0.26239200  0.23963500  1
  S  S70  1  0.13482400  0.76634200  0.98946800  1
  S  S71  1  0.13638700  0.76272400  0.73931200  1
  S  S72  1  0.63083000  0.01426400  0.86385500  1
  S  S73  1  0.13532100  0.76360700  0.48966400  1
  S  S74  1  0.63539900  0.01345400  0.61457100  1
  S  S75  1  0.12794300  0.76718900  0.24016800  1
  S  S76  1  0.63508100  0.01369800  0.36481000  1
  S  S77  1  0.62775600  0.01818700  0.11613800  1
  S  S78  1  0.63467900  0.51435000  0.86469100  1
  S  S79  1  0.63541200  0.51356200  0.61471600  1
  S  S80  1  0.63494500  0.51372400  0.36462200  1
  S  S81  1  0.63678600  0.51566700  0.11343300  1
  S  S82  1  0.36633800  0.47711800  0.24213700  1
  S  S83  1  0.36905900  0.48187300  0.99375900  1
  S  S84  1  0.36458100  0.47914900  0.74334500  1
  S  S85  1  0.36484800  0.47924100  0.49316600  1
  S  S86  1  0.36295000  0.97921000  0.24355900  1
  S  S87  1  0.37032800  0.97893900  0.99040200  1
  S  S88  1  0.87099900  0.22895100  0.11616600  1
  S  S89  1  0.36363500  0.97952100  0.74281300  1
  S  S90  1  0.86256800  0.23069600  0.86681100  1
  S  S91  1  0.36467100  0.97926000  0.49323800  1
  S  S92  1  0.86498200  0.22902600  0.61823500  1
  S  S93  1  0.86505000  0.22934100  0.36842100  1
  S  S94  1  0.86525900  0.72837500  0.11713700  1
  S  S95  1  0.87093700  0.72885800  0.86792700  1
  S  S96  1  0.86436200  0.72947900  0.61820800  1
  S  S97  1  0.86421600  0.72907700  0.36835500  1
  S  S98  1  0.13467900  0.48565000  0.13530900  1
  S  S99  1  0.13678600  0.48433300  0.88656700  1
  S  S100  1  0.13494500  0.48627600  0.63537800  1
  S  S101  1  0.13541200  0.48643800  0.38528400  1
  S  S102  1  0.13083000  0.98573600  0.13614500  1
  S  S103  1  0.12775600  0.98181300  0.88386200  1
  S  S104  1  0.63482400  0.23365800  0.01053200  1
  S  S105  1  0.13508100  0.98630200  0.63519000  1
  S  S106  1  0.62794300  0.23281100  0.75983200  1
  S  S107  1  0.13539900  0.98654600  0.38542900  1
  S  S108  1  0.63532100  0.23639300  0.51033600  1
  S  S109  1  0.63638700  0.23727600  0.26068800  1
  S  S110  1  0.63262100  0.73269000  0.00937500  1
  S  S111  1  0.63509500  0.73760800  0.76036500  1
  S  S112  1  0.63525100  0.73625700  0.51030500  1
  S  S113  1  0.63508400  0.73622900  0.26024700  1
