# generated using pymatgen
data_LiTi3Zn2O8
_symmetry_space_group_name_H-M   'P 1'
_cell_length_a   8.48733800
_cell_length_b   8.48733800
_cell_length_c   8.48733800
_cell_angle_alpha   90.00000000
_cell_angle_beta   90.00000000
_cell_angle_gamma   90.00000000
_symmetry_Int_Tables_number   1
_chemical_formula_structural   LiTi3Zn2O8
_chemical_formula_sum   'Li4 Ti12 Zn8 O32'
_cell_volume   611.38459779
_cell_formula_units_Z   4
loop_
 _symmetry_equiv_pos_site_id
 _symmetry_equiv_pos_as_xyz
  1  'x, y, z'
loop_
 _atom_site_type_symbol
 _atom_site_label
 _atom_site_symmetry_multiplicity
 _atom_site_fract_x
 _atom_site_fract_y
 _atom_site_fract_z
 _atom_site_occupancy
  Li  Li0  1  0.37500000  0.37500000  0.37500000  1
  Li  Li1  1  0.12500000  0.62500000  0.87500000  1
  Li  Li2  1  0.62500000  0.87500000  0.12500000  1
  Li  Li3  1  0.87500000  0.12500000  0.62500000  1
  Ti  Ti4  1  0.12500000  0.13033600  0.38033600  1
  Ti  Ti5  1  0.37500000  0.86966400  0.88033600  1
  Ti  Ti6  1  0.87500000  0.63033600  0.11966400  1
  Ti  Ti7  1  0.38033600  0.12500000  0.13033600  1
  Ti  Ti8  1  0.88033600  0.37500000  0.86966400  1
  Ti  Ti9  1  0.62500000  0.36966400  0.61966400  1
  Ti  Ti10  1  0.61966400  0.62500000  0.36966400  1
  Ti  Ti11  1  0.11966400  0.87500000  0.63033600  1
  Ti  Ti12  1  0.13033600  0.38033600  0.12500000  1
  Ti  Ti13  1  0.63033600  0.11966400  0.87500000  1
  Ti  Ti14  1  0.36966400  0.61966400  0.62500000  1
  Ti  Ti15  1  0.86966400  0.88033600  0.37500000  1
  Zn  Zn16  1  0.74923500  0.74923500  0.74923500  1
  Zn  Zn17  1  0.75076500  0.25076500  0.24923500  1
  Zn  Zn18  1  0.25076500  0.24923500  0.75076500  1
  Zn  Zn19  1  0.49923500  0.99923500  0.50076500  1
  Zn  Zn20  1  0.24923500  0.75076500  0.25076500  1
  Zn  Zn21  1  0.00076500  0.00076500  0.00076500  1
  Zn  Zn22  1  0.99923500  0.50076500  0.49923500  1
  Zn  Zn23  1  0.50076500  0.49923500  0.99923500  1
  O  O24  1  0.13658700  0.13658700  0.13658700  1
  O  O25  1  0.36341300  0.86341300  0.63658700  1
  O  O26  1  0.86341300  0.63658700  0.36341300  1
  O  O27  1  0.88658700  0.38658700  0.11341300  1
  O  O28  1  0.63658700  0.36341300  0.86341300  1
  O  O29  1  0.61341300  0.61341300  0.61341300  1
  O  O30  1  0.38658700  0.11341300  0.88658700  1
  O  O31  1  0.11341300  0.88658700  0.38658700  1
  O  O32  1  0.12347300  0.35865300  0.36094300  1
  O  O33  1  0.37652700  0.64134700  0.86094300  1
  O  O34  1  0.87652700  0.85865300  0.13905700  1
  O  O35  1  0.36094300  0.12347300  0.35865300  1
  O  O36  1  0.10865300  0.37347300  0.88905700  1
  O  O37  1  0.62347300  0.14134700  0.63905700  1
  O  O38  1  0.86094300  0.37652700  0.64134700  1
  O  O39  1  0.39134700  0.62652700  0.38905700  1
  O  O40  1  0.13905700  0.87652700  0.85865300  1
  O  O41  1  0.60865300  0.12652700  0.11094300  1
  O  O42  1  0.63905700  0.62347300  0.14134700  1
  O  O43  1  0.89134700  0.87347300  0.61094300  1
  O  O44  1  0.35865300  0.36094300  0.12347300  1
  O  O45  1  0.87347300  0.61094300  0.89134700  1
  O  O46  1  0.85865300  0.13905700  0.87652700  1
  O  O47  1  0.62652700  0.38905700  0.39134700  1
  O  O48  1  0.14134700  0.63905700  0.62347300  1
  O  O49  1  0.37347300  0.88905700  0.10865300  1
  O  O50  1  0.64134700  0.86094300  0.37652700  1
  O  O51  1  0.12652700  0.11094300  0.60865300  1
  O  O52  1  0.88905700  0.10865300  0.37347300  1
  O  O53  1  0.38905700  0.39134700  0.62652700  1
  O  O54  1  0.61094300  0.89134700  0.87347300  1
  O  O55  1  0.11094300  0.60865300  0.12652700  1
