# generated using pymatgen
data_SrLiTl2
_symmetry_space_group_name_H-M   'P 1'
_cell_length_a   13.44636918
_cell_length_b   13.44636918
_cell_length_c   13.44636918
_cell_angle_alpha   125.38978831
_cell_angle_beta   118.35194838
_cell_angle_gamma   86.90324834
_symmetry_Int_Tables_number   1
_chemical_formula_structural   SrLiTl2
_chemical_formula_sum   'Sr1 Li1 Tl2'
_cell_volume   1659.40573264
_cell_formula_units_Z   1
loop_
 _symmetry_equiv_pos_site_id
 _symmetry_equiv_pos_as_xyz
  1  'x, y, z'
loop_
 _atom_site_type_symbol
 _atom_site_label
 _atom_site_symmetry_multiplicity
 _atom_site_fract_x
 _atom_site_fract_y
 _atom_site_fract_z
 _atom_site_occupancy
  Sr  Sr0  1  0.00000000  0.50000000  0.50000000  1
  Li  Li1  1  0.00000000  0.00000000  0.00000000  1
  Tl  Tl2  1  0.00000000  0.22228600  0.22228600  1
  Tl  Tl3  1  0.00000000  0.77771400  0.77771400  1
