# generated using pymatgen
data_LiIrN2
_symmetry_space_group_name_H-M   'P 1'
_cell_length_a   5.70637022
_cell_length_b   6.59349536
_cell_length_c   5.34294349
_cell_angle_alpha   90.00000000
_cell_angle_beta   90.00000000
_cell_angle_gamma   90.00000000
_symmetry_Int_Tables_number   1
_chemical_formula_structural   LiIrN2
_chemical_formula_sum   'Li4 Ir4 N8'
_cell_volume   201.02785113
_cell_formula_units_Z   4
loop_
 _symmetry_equiv_pos_site_id
 _symmetry_equiv_pos_as_xyz
  1  'x, y, z'
loop_
 _atom_site_type_symbol
 _atom_site_label
 _atom_site_symmetry_multiplicity
 _atom_site_fract_x
 _atom_site_fract_y
 _atom_site_fract_z
 _atom_site_occupancy
  Li  Li0  1  0.59126495  0.37342263  0.99865439  1
  Li  Li1  1  0.40873505  0.62657737  0.49865439  1
  Li  Li2  1  0.90873505  0.87342263  0.49865439  1
  Li  Li3  1  0.09126495  0.12657737  0.99865439  1
  Ir  Ir4  1  0.57813763  0.85750534  0.01182299  1
  Ir  Ir5  1  0.42186237  0.14249466  0.51182299  1
  Ir  Ir6  1  0.92186237  0.35750534  0.51182299  1
  Ir  Ir7  1  0.07813763  0.64249466  0.01182299  1
  N  N8  1  0.60474853  0.36970762  0.39746669  1
  N  N9  1  0.39525147  0.63029238  0.89746669  1
  N  N10  1  0.89525147  0.86970762  0.89746669  1
  N  N11  1  0.10474853  0.13029238  0.39746669  1
  N  N12  1  0.55758705  0.90183067  0.36205593  1
  N  N13  1  0.44241295  0.09816933  0.86205593  1
  N  N14  1  0.94241295  0.40183067  0.86205593  1
  N  N15  1  0.05758705  0.59816933  0.36205593  1
