# generated using pymatgen
data_Li3MnV3O8
_symmetry_space_group_name_H-M   'P 1'
_cell_length_a   5.97699071
_cell_length_b   10.37261172
_cell_length_c   5.96441135
_cell_angle_alpha   106.88081588
_cell_angle_beta   59.90111858
_cell_angle_gamma   89.98979808
_symmetry_Int_Tables_number   1
_chemical_formula_structural   Li3MnV3O8
_chemical_formula_sum   'Li6 Mn2 V6 O16'
_cell_volume   301.34568805
_cell_formula_units_Z   2
loop_
 _symmetry_equiv_pos_site_id
 _symmetry_equiv_pos_as_xyz
  1  'x, y, z'
loop_
 _atom_site_type_symbol
 _atom_site_label
 _atom_site_symmetry_multiplicity
 _atom_site_fract_x
 _atom_site_fract_y
 _atom_site_fract_z
 _atom_site_occupancy
  Li  Li0  1  0.49641500  0.00031800  0.50069400  1
  Li  Li1  1  0.99998900  0.49936600  0.50315700  1
  Li  Li2  1  0.99709300  0.00024000  0.50011800  1
  Li  Li3  1  0.50332300  0.50008500  0.49549800  1
  Li  Li4  1  0.74772900  0.25162600  0.50544300  1
  Li  Li5  1  0.25250400  0.74863800  0.49506800  1
  Mn  Mn6  1  0.75254300  0.74963500  0.49655400  1
  Mn  Mn7  1  0.24695800  0.25039200  0.50367400  1
  V  V8  1  0.00425000  0.50017800  0.99993500  1
  V  V9  1  0.75216100  0.75169200  0.99650500  1
  V  V10  1  0.74826400  0.24889700  0.00265600  1
  V  V11  1  0.49934200  0.99989400  0.99976200  1
  V  V12  1  0.24813600  0.24892700  0.00352300  1
  V  V13  1  0.25191400  0.75021000  0.99736100  1
  O  O14  1  0.88833400  0.37112800  0.22719300  1
  O  O15  1  0.38554900  0.87174500  0.22350300  1
  O  O16  1  0.60832900  0.12817100  0.77577400  1
  O  O17  1  0.11634700  0.62886500  0.77274900  1
  O  O18  1  0.87069300  0.85926700  0.25665000  1
  O  O19  1  0.37374700  0.35903900  0.26377100  1
  O  O20  1  0.09903500  0.63726700  0.25489300  1
  O  O21  1  0.58951700  0.13166400  0.25850000  1
  O  O22  1  0.65172900  0.63506600  0.25199900  1
  O  O23  1  0.14232600  0.13911000  0.26045400  1
  O  O24  1  0.85452800  0.86508000  0.73844200  1
  O  O25  1  0.35303700  0.36078400  0.74722700  1
  O  O26  1  0.40716600  0.86472800  0.74098900  1
  O  O27  1  0.90338500  0.36642000  0.74828800  1
  O  O28  1  0.63286400  0.64139900  0.73781000  1
  O  O29  1  0.12281700  0.14016300  0.74175600  1
