# generated using pymatgen
data_Li4Fe(PO4)2
_symmetry_space_group_name_H-M   'P 1'
_cell_length_a   7.64585584
_cell_length_b   10.90773486
_cell_length_c   8.27358057
_cell_angle_alpha   105.88177793
_cell_angle_beta   76.74084263
_cell_angle_gamma   83.81680268
_symmetry_Int_Tables_number   1
_chemical_formula_structural   Li4Fe(PO4)2
_chemical_formula_sum   'Li16 Fe4 P8 O32'
_cell_volume   635.17797350
_cell_formula_units_Z   4
loop_
 _symmetry_equiv_pos_site_id
 _symmetry_equiv_pos_as_xyz
  1  'x, y, z'
loop_
 _atom_site_type_symbol
 _atom_site_label
 _atom_site_symmetry_multiplicity
 _atom_site_fract_x
 _atom_site_fract_y
 _atom_site_fract_z
 _atom_site_occupancy
  Li  Li0  1  0.26283900  0.14647700  0.25275200  1
  Li  Li1  1  0.76279300  0.14647600  0.75283300  1
  Li  Li2  1  0.51269900  0.64644000  0.00263500  1
  Li  Li3  1  0.01270900  0.64649500  0.50270000  1
  Li  Li4  1  0.48712100  0.35348000  0.99716500  1
  Li  Li5  1  0.98721200  0.35354100  0.49720100  1
  Li  Li6  1  0.73731200  0.85352600  0.74730300  1
  Li  Li7  1  0.23725000  0.85351800  0.24731500  1
  Li  Li8  1  0.12006200  0.30901200  0.08348000  1
  Li  Li9  1  0.62007500  0.30908100  0.58343300  1
  Li  Li10  1  0.37016300  0.80893800  0.83338700  1
  Li  Li11  1  0.87015100  0.80903300  0.33348500  1
  Li  Li12  1  0.62996300  0.19106500  0.16653000  1
  Li  Li13  1  0.12990300  0.19089200  0.66652500  1
  Li  Li14  1  0.87985300  0.69103900  0.91655900  1
  Li  Li15  1  0.37985500  0.69100500  0.41650900  1
  Fe  Fe16  1  0.50002700  0.00017800  0.50004600  1
  Fe  Fe17  1  0.75006000  0.50001300  0.24983800  1
  Fe  Fe18  1  0.00021500  0.99987700  0.00017300  1
  Fe  Fe19  1  0.24989800  0.49990900  0.74992400  1
  P  P20  1  0.34302600  0.41054200  0.38767900  1
  P  P21  1  0.84298400  0.41055200  0.88768000  1
  P  P22  1  0.59301500  0.91055100  0.13774100  1
  P  P23  1  0.09304800  0.91052500  0.63773900  1
  P  P24  1  0.40701700  0.08940900  0.86230400  1
  P  P25  1  0.90697500  0.08950200  0.36234000  1
  P  P26  1  0.65697300  0.58943900  0.61226700  1
  P  P27  1  0.15693900  0.58947600  0.11230600  1
  O  O28  1  0.39595300  0.34437400  0.51916600  1
  O  O29  1  0.89584600  0.34437300  0.01922300  1
  O  O30  1  0.64589900  0.84437800  0.26925300  1
  O  O31  1  0.14603500  0.84434400  0.76920100  1
  O  O32  1  0.35412000  0.15562200  0.73080900  1
  O  O33  1  0.85399900  0.15563400  0.23086300  1
  O  O34  1  0.60411600  0.65561900  0.48074400  1
  O  O35  1  0.10400500  0.65562600  0.98081800  1
  O  O36  1  0.20907500  0.33778900  0.30045800  1
  O  O37  1  0.70905600  0.33775600  0.80046600  1
  O  O38  1  0.45908300  0.83778600  0.05047200  1
  O  O39  1  0.95908300  0.83779500  0.55047500  1
  O  O40  1  0.54090400  0.16222000  0.94954800  1
  O  O41  1  0.04096600  0.16225200  0.44952800  1
  O  O42  1  0.79089800  0.66221800  0.69954200  1
  O  O43  1  0.29092400  0.66220800  0.19952000  1
  O  O44  1  0.23149400  0.09570300  0.00768800  1
  O  O45  1  0.73150900  0.09577200  0.50776300  1
  O  O46  1  0.48146700  0.59571700  0.75765000  1
  O  O47  1  0.98146900  0.59576700  0.25775300  1
  O  O48  1  0.51848800  0.40422800  0.24224300  1
  O  O49  1  0.01849400  0.40426400  0.74230400  1
  O  O50  1  0.76851800  0.90428500  0.99235100  1
  O  O51  1  0.26848400  0.90426300  0.49230200  1
  O  O52  1  0.49632600  0.05207700  0.25039500  1
  O  O53  1  0.99636800  0.05206400  0.75043300  1
  O  O54  1  0.74620100  0.55204000  0.00035900  1
  O  O55  1  0.24629900  0.55207400  0.50041200  1
  O  O56  1  0.25361700  0.44794900  0.99958900  1
  O  O57  1  0.75366300  0.44792000  0.49960500  1
  O  O58  1  0.50381000  0.94793700  0.74961500  1
  O  O59  1  0.00369900  0.94795900  0.24960300  1
