# generated using pymatgen
data_Li2TiNi2O5
_symmetry_space_group_name_H-M   'P 1'
_cell_length_a   7.83612353
_cell_length_b   7.83612353
_cell_length_c   5.93116266
_cell_angle_alpha   78.26774494
_cell_angle_beta   78.26774494
_cell_angle_gamma   30.33727179
_symmetry_Int_Tables_number   1
_chemical_formula_structural   Li2TiNi2O5
_chemical_formula_sum   'Li4 Ti2 Ni4 O10'
_cell_volume   179.82572109
_cell_formula_units_Z   2
loop_
 _symmetry_equiv_pos_site_id
 _symmetry_equiv_pos_as_xyz
  1  'x, y, z'
loop_
 _atom_site_type_symbol
 _atom_site_label
 _atom_site_symmetry_multiplicity
 _atom_site_fract_x
 _atom_site_fract_y
 _atom_site_fract_z
 _atom_site_occupancy
  Li  Li0  1  0.50000000  0.50000000  0.00000000  1
  Li  Li1  1  0.69468800  0.69468800  0.39134600  1
  Li  Li2  1  0.50000000  0.50000000  0.50000000  1
  Li  Li3  1  0.30531200  0.30531200  0.60865400  1
  Ti  Ti4  1  0.89630200  0.89630200  0.31223100  1
  Ti  Ti5  1  0.10369800  0.10369800  0.68776900  1
  Ni  Ni6  1  0.70034900  0.70034900  0.90029500  1
  Ni  Ni7  1  0.90185800  0.90185800  0.80055600  1
  Ni  Ni8  1  0.29965100  0.29965100  0.09970500  1
  Ni  Ni9  1  0.09814200  0.09814200  0.19944400  1
  O  O10  1  0.19380000  0.19380000  0.88740000  1
  O  O11  1  0.39436000  0.39436000  0.81030300  1
  O  O12  1  0.00000000  0.00000000  0.00000000  1
  O  O13  1  0.80620000  0.80620000  0.11260000  1
  O  O14  1  0.19147900  0.19147900  0.41912500  1
  O  O15  1  0.60564000  0.60564000  0.18969700  1
  O  O16  1  0.39918100  0.39918100  0.30049500  1
  O  O17  1  0.00000000  0.00000000  0.50000000  1
  O  O18  1  0.80852100  0.80852100  0.58087500  1
  O  O19  1  0.60081900  0.60081900  0.69950500  1
