# generated using pymatgen
data_LiMn2O3F
_symmetry_space_group_name_H-M   'P 1'
_cell_length_a   6.16212422
_cell_length_b   10.17390395
_cell_length_c   6.16897993
_cell_angle_alpha   89.98623797
_cell_angle_beta   59.96208473
_cell_angle_gamma   106.48271616
_symmetry_Int_Tables_number   1
_chemical_formula_structural   LiMn2O3F
_chemical_formula_sum   'Li4 Mn8 O12 F4'
_cell_volume   316.29940358
_cell_formula_units_Z   4
loop_
 _symmetry_equiv_pos_site_id
 _symmetry_equiv_pos_as_xyz
  1  'x, y, z'
loop_
 _atom_site_type_symbol
 _atom_site_label
 _atom_site_symmetry_multiplicity
 _atom_site_fract_x
 _atom_site_fract_y
 _atom_site_fract_z
 _atom_site_occupancy
  Li  Li0  1  0.10468500  0.15912100  0.93962200  1
  Li  Li1  1  0.10354600  0.65926200  0.45658900  1
  Li  Li2  1  0.89557400  0.84088900  0.04424000  1
  Li  Li3  1  0.89613300  0.34074000  0.56043000  1
  Mn  Mn4  1  0.50244300  0.25148800  0.25097400  1
  Mn  Mn5  1  0.49753400  0.74850100  0.75336400  1
  Mn  Mn6  1  0.50306000  0.50089500  0.50918100  1
  Mn  Mn7  1  0.49641400  0.49908900  0.01255400  1
  Mn  Mn8  1  0.99979400  0.49999800  0.01632900  1
  Mn  Mn9  1  0.49757200  0.99987000  0.99078500  1
  Mn  Mn10  1  0.50295900  0.00017900  0.48802400  1
  Mn  Mn11  1  0.00022500  0.99999100  0.48288300  1
  O  O12  1  0.75058500  0.39997100  0.36060900  1
  O  O13  1  0.74200500  0.89161200  0.83276500  1
  O  O14  1  0.74137500  0.39191500  0.92448400  1
  O  O15  1  0.75080600  0.89993500  0.38856400  1
  O  O16  1  0.31006500  0.38887500  0.35569400  1
  O  O17  1  0.31078000  0.88844600  0.83357100  1
  O  O18  1  0.68945500  0.61113300  0.66591100  1
  O  O19  1  0.68963300  0.11154600  0.14405900  1
  O  O20  1  0.25803600  0.60794200  0.66597500  1
  O  O21  1  0.24953100  0.09995300  0.13901100  1
  O  O22  1  0.24911400  0.60012600  0.11118400  1
  O  O23  1  0.25860000  0.10852600  0.57433600  1
  F  F24  1  0.75429200  0.64236000  0.12821800  1
  F  F25  1  0.75422200  0.14275200  0.61672000  1
  F  F26  1  0.24532100  0.35762200  0.88295500  1
  F  F27  1  0.24624100  0.85726300  0.37097100  1
