# generated using pymatgen
data_LiVTeO5
_symmetry_space_group_name_H-M   'P 1'
_cell_length_a   6.29508000
_cell_length_b   7.95197900
_cell_length_c   11.22807100
_cell_angle_alpha   90.00000000
_cell_angle_beta   90.00000000
_cell_angle_gamma   90.00000000
_symmetry_Int_Tables_number   1
_chemical_formula_structural   LiVTeO5
_chemical_formula_sum   'Li4 V4 Te4 O20'
_cell_volume   562.05864016
_cell_formula_units_Z   4
loop_
 _symmetry_equiv_pos_site_id
 _symmetry_equiv_pos_as_xyz
  1  'x, y, z'
loop_
 _atom_site_type_symbol
 _atom_site_label
 _atom_site_symmetry_multiplicity
 _atom_site_fract_x
 _atom_site_fract_y
 _atom_site_fract_z
 _atom_site_occupancy
  Li  Li0  1  0.09227600  0.89429800  0.97404100  1
  Li  Li1  1  0.90772400  0.39429800  0.52595900  1
  Li  Li2  1  0.59227600  0.60570200  0.02595900  1
  Li  Li3  1  0.40772400  0.10570200  0.47404100  1
  V  V4  1  0.94791600  0.04020900  0.65703800  1
  V  V5  1  0.44791600  0.45979100  0.34296200  1
  V  V6  1  0.05208400  0.54020900  0.84296200  1
  V  V7  1  0.55208400  0.95979100  0.15703800  1
  Te  Te8  1  0.89159200  0.04089200  0.34898300  1
  Te  Te9  1  0.60840800  0.95910800  0.84898300  1
  Te  Te10  1  0.10840800  0.54089200  0.15101700  1
  Te  Te11  1  0.39159200  0.45910800  0.65101700  1
  O  O12  1  0.57581700  0.16466400  0.94562200  1
  O  O13  1  0.30166500  0.92720000  0.11013900  1
  O  O14  1  0.14587900  0.35513800  0.92752200  1
  O  O15  1  0.19833500  0.07280000  0.61013900  1
  O  O16  1  0.64587900  0.14486200  0.07247800  1
  O  O17  1  0.92418300  0.83533600  0.44562200  1
  O  O18  1  0.80166500  0.57280000  0.88986100  1
  O  O19  1  0.85412100  0.85513800  0.57247800  1
  O  O20  1  0.69833500  0.42720000  0.38986100  1
  O  O21  1  0.07998800  0.48724000  0.68130600  1
  O  O22  1  0.70576700  0.79266300  0.12009100  1
  O  O23  1  0.92001200  0.98724000  0.81869400  1
  O  O24  1  0.29423300  0.29266300  0.37990900  1
  O  O25  1  0.20576700  0.70733700  0.87990900  1
  O  O26  1  0.42418300  0.66466400  0.55437800  1
  O  O27  1  0.57998800  0.01276000  0.31869400  1
  O  O28  1  0.42001200  0.51276000  0.18130600  1
  O  O29  1  0.07581700  0.33533600  0.05437800  1
  O  O30  1  0.79423300  0.20733700  0.62009100  1
  O  O31  1  0.35412100  0.64486200  0.42752200  1
