# generated using pymatgen
data_Li2MnO3
_symmetry_space_group_name_H-M   'P 1'
_cell_length_a   2.98268253
_cell_length_b   2.98268253
_cell_length_c   14.70498300
_cell_angle_alpha   90.00000000
_cell_angle_beta   90.00000000
_cell_angle_gamma   120.00001184
_symmetry_Int_Tables_number   1
_chemical_formula_structural   Li2MnO3
_chemical_formula_sum   'Li4 Mn2 O6'
_cell_volume   113.29458914
_cell_formula_units_Z   2
loop_
 _symmetry_equiv_pos_site_id
 _symmetry_equiv_pos_as_xyz
  1  'x, y, z'
loop_
 _atom_site_type_symbol
 _atom_site_label
 _atom_site_symmetry_multiplicity
 _atom_site_fract_x
 _atom_site_fract_y
 _atom_site_fract_z
 _atom_site_occupancy
  Li  Li0  1  0.33333300  0.66666700  0.35273300  1
  Li  Li1  1  0.66666700  0.33333300  0.64726700  1
  Li  Li2  1  0.00000000  0.00000000  0.00000000  1
  Li  Li3  1  0.00000000  0.00000000  0.50000000  1
  Mn  Mn4  1  0.33333300  0.66666700  0.83230400  1
  Mn  Mn5  1  0.66666700  0.33333300  0.16769600  1
  O  O6  1  0.33333300  0.66666700  0.58556400  1
  O  O7  1  0.66666700  0.33333300  0.91015100  1
  O  O8  1  0.00000000  0.00000000  0.23579500  1
  O  O9  1  0.33333300  0.66666700  0.08984900  1
  O  O10  1  0.66666700  0.33333300  0.41443600  1
  O  O11  1  0.00000000  0.00000000  0.76420500  1
