# generated using pymatgen
data_LiFe2(CO3)3
_symmetry_space_group_name_H-M   'P 1'
_cell_length_a   7.51848400
_cell_length_b   7.60684579
_cell_length_c   7.64247858
_cell_angle_alpha   111.11244163
_cell_angle_beta   106.78606622
_cell_angle_gamma   107.53632778
_symmetry_Int_Tables_number   1
_chemical_formula_structural   LiFe2(CO3)3
_chemical_formula_sum   'Li2 Fe4 C6 O18'
_cell_volume   347.85628813
_cell_formula_units_Z   2
loop_
 _symmetry_equiv_pos_site_id
 _symmetry_equiv_pos_as_xyz
  1  'x, y, z'
loop_
 _atom_site_type_symbol
 _atom_site_label
 _atom_site_symmetry_multiplicity
 _atom_site_fract_x
 _atom_site_fract_y
 _atom_site_fract_z
 _atom_site_occupancy
  Li  Li0  1  0.30276800  0.60362800  0.85466500  1
  Li  Li1  1  0.79127600  0.81652500  0.81608700  1
  Fe  Fe2  1  0.03933100  0.54514900  0.16331900  1
  Fe  Fe3  1  0.16050800  0.04745700  0.53928900  1
  Fe  Fe4  1  0.44338300  0.43684300  0.43227500  1
  Fe  Fe5  1  0.54537700  0.16482800  0.03557300  1
  C  C6  1  0.18065100  0.25906000  0.94175000  1
  C  C7  1  0.25658100  0.93522800  0.16516900  1
  C  C8  1  0.39182900  0.80350300  0.59790200  1
  C  C9  1  0.60037200  0.41852400  0.81692600  1
  C  C10  1  0.80387200  0.60086600  0.41073400  1
  C  C11  1  0.93351600  0.17036400  0.24167600  1
  O  O12  1  0.13041500  0.41354500  0.95619500  1
  O  O13  1  0.07664600  0.77303400  0.08520000  1
  O  O14  1  0.06843400  0.07547800  0.78529900  1
  O  O15  1  0.08478100  0.34779800  0.29123400  1
  O  O16  1  0.39501900  0.98224000  0.70965700  1
  O  O17  1  0.33820800  0.73356000  0.40044400  1
  O  O18  1  0.44365000  0.69838300  0.68485500  1
  O  O19  1  0.36482200  0.92260500  0.05914600  1
  O  O20  1  0.40539900  0.36581400  0.77018100  1
  O  O21  1  0.35313600  0.30350200  0.09240200  1
  O  O22  1  0.31882600  0.09902200  0.34052300  1
  O  O23  1  0.70991000  0.39232500  0.96942400  1
  O  O24  1  0.72335200  0.70023000  0.50520100  1
  O  O25  1  0.68747200  0.49350400  0.72375900  1
  O  O26  1  0.72559000  0.39509200  0.33453100  1
  O  O27  1  0.96554600  0.69843600  0.38948400  1
  O  O28  1  0.93930800  0.08935700  0.35888900  1
  O  O29  1  0.77067300  0.07335200  0.05562400  1
