# generated using pymatgen
data_Li4V3OF11
_symmetry_space_group_name_H-M   'P 1'
_cell_length_a   5.24981000
_cell_length_b   5.48028987
_cell_length_c   16.14870562
_cell_angle_alpha   80.84365474
_cell_angle_beta   89.60980806
_cell_angle_gamma   88.13119320
_symmetry_Int_Tables_number   1
_chemical_formula_structural   Li4V3OF11
_chemical_formula_sum   'Li8 V6 O2 F22'
_cell_volume   458.44133069
_cell_formula_units_Z   2
loop_
 _symmetry_equiv_pos_site_id
 _symmetry_equiv_pos_as_xyz
  1  'x, y, z'
loop_
 _atom_site_type_symbol
 _atom_site_label
 _atom_site_symmetry_multiplicity
 _atom_site_fract_x
 _atom_site_fract_y
 _atom_site_fract_z
 _atom_site_occupancy
  Li  Li0  1  0.48777900  0.11289000  0.89791900  1
  Li  Li1  1  0.33104300  0.53157800  0.48822100  1
  Li  Li2  1  0.54397600  0.57090600  0.77423500  1
  Li  Li3  1  0.01141700  0.55525600  0.90273700  1
  Li  Li4  1  0.83915300  0.95940200  0.50511900  1
  Li  Li5  1  0.78099800  0.19346500  0.17644200  1
  Li  Li6  1  0.97732400  0.03268600  0.77756700  1
  Li  Li7  1  0.23931300  0.66223800  0.15088300  1
  V  V8  1  0.00220500  0.65342600  0.66679300  1
  V  V9  1  0.49688200  0.49722400  0.00126800  1
  V  V10  1  0.50011400  0.83755500  0.32999300  1
  V  V11  1  0.99497800  0.00409800  0.00029200  1
  V  V12  1  0.99939900  0.33725800  0.33322500  1
  V  V13  1  0.49350900  0.16109000  0.66656900  1
  O  O14  1  0.77791800  0.30826700  0.97232100  1
  O  O15  1  0.22074600  0.69128400  0.01435500  1
  F  F16  1  0.17005700  0.30454900  0.70921900  1
  F  F17  1  0.64580500  0.49043300  0.65550400  1
  F  F18  1  0.08760800  0.70241200  0.54206100  1
  F  F19  1  0.37693900  0.49979800  0.88025000  1
  F  F20  1  0.41247700  0.86569300  0.21478800  1
  F  F21  1  0.91983500  0.93948800  0.11788100  1
  F  F22  1  0.58557400  0.79608500  0.44893000  1
  F  F23  1  0.88242300  0.67348100  0.79202700  1
  F  F24  1  0.18576300  0.01613200  0.35421700  1
  F  F25  1  0.33058100  0.83783100  0.70675100  1
  F  F26  1  0.31072700  0.18554400  0.02538400  1
  F  F27  1  0.69955400  0.80955100  0.95902000  1
  F  F28  1  0.69360300  0.15682000  0.29685500  1
  F  F29  1  0.82098400  0.00149400  0.63480300  1
  F  F30  1  0.07840500  0.38123300  0.21374600  1
  F  F31  1  0.40320900  0.21409200  0.55215900  1
  F  F32  1  0.12746200  0.04517700  0.88260900  1
  F  F33  1  0.62748400  0.14812800  0.78472100  1
  F  F34  1  0.58347000  0.46689900  0.11751000  1
  F  F35  1  0.90064400  0.28052800  0.44810700  1
  F  F36  1  0.30972300  0.51591100  0.36606800  1
  F  F37  1  0.81824300  0.65981700  0.31003400  1
