# generated using pymatgen
data_LiMnH2OF4
_symmetry_space_group_name_H-M   'P 1'
_cell_length_a   5.43371100
_cell_length_b   5.51544700
_cell_length_c   12.49103600
_cell_angle_alpha   90.00000000
_cell_angle_beta   90.00000000
_cell_angle_gamma   90.00000000
_symmetry_Int_Tables_number   1
_chemical_formula_structural   LiMnH2OF4
_chemical_formula_sum   'Li4 Mn4 H8 O4 F16'
_cell_volume   374.34816771
_cell_formula_units_Z   4
loop_
 _symmetry_equiv_pos_site_id
 _symmetry_equiv_pos_as_xyz
  1  'x, y, z'
loop_
 _atom_site_type_symbol
 _atom_site_label
 _atom_site_symmetry_multiplicity
 _atom_site_fract_x
 _atom_site_fract_y
 _atom_site_fract_z
 _atom_site_occupancy
  Li  Li0  1  0.71786000  0.26548300  0.75000000  1
  Li  Li1  1  0.21786000  0.23451700  0.75000000  1
  Li  Li2  1  0.28214000  0.73451700  0.25000000  1
  Li  Li3  1  0.78214000  0.76548300  0.25000000  1
  Mn  Mn4  1  0.50000000  0.00000000  0.50000000  1
  Mn  Mn5  1  0.00000000  0.50000000  0.00000000  1
  Mn  Mn6  1  0.50000000  0.00000000  0.00000000  1
  Mn  Mn7  1  0.00000000  0.50000000  0.50000000  1
  H  H8  1  0.91486000  0.86824200  0.81309600  1
  H  H9  1  0.41486000  0.63175800  0.68690400  1
  H  H10  1  0.08514000  0.13175800  0.31309600  1
  H  H11  1  0.58514000  0.36824200  0.18690400  1
  H  H12  1  0.08514000  0.13175800  0.18690400  1
  H  H13  1  0.58514000  0.36824200  0.31309600  1
  H  H14  1  0.91486000  0.86824200  0.68690400  1
  H  H15  1  0.41486000  0.63175800  0.81309600  1
  O  O16  1  0.96048000  0.96313100  0.75000000  1
  O  O17  1  0.46048000  0.53686900  0.75000000  1
  O  O18  1  0.03952000  0.03686900  0.25000000  1
  O  O19  1  0.53952000  0.46313100  0.25000000  1
  F  F20  1  0.78124100  0.81568500  0.54253800  1
  F  F21  1  0.28124100  0.68431500  0.95746200  1
  F  F22  1  0.21875900  0.18431500  0.04253800  1
  F  F23  1  0.71875900  0.31568500  0.45746200  1
  F  F24  1  0.21875900  0.18431500  0.45746200  1
  F  F25  1  0.71875900  0.31568500  0.04253800  1
  F  F26  1  0.78124100  0.81568500  0.95746200  1
  F  F27  1  0.28124100  0.68431500  0.54253800  1
  F  F28  1  0.46764600  0.10635300  0.64120800  1
  F  F29  1  0.96764600  0.39364700  0.85879200  1
  F  F30  1  0.53235400  0.89364700  0.14120800  1
  F  F31  1  0.03235400  0.60635300  0.35879200  1
  F  F32  1  0.53235400  0.89364700  0.35879200  1
  F  F33  1  0.03235400  0.60635300  0.14120800  1
  F  F34  1  0.46764600  0.10635300  0.85879200  1
  F  F35  1  0.96764600  0.39364700  0.64120800  1
