# generated using pymatgen
data_LiSnPO4
_symmetry_space_group_name_H-M   'P 1'
_cell_length_a   10.00729800
_cell_length_b   5.76403300
_cell_length_c   8.96340949
_cell_angle_alpha   58.51322809
_cell_angle_beta   90.00000000
_cell_angle_gamma   90.00000000
_symmetry_Int_Tables_number   1
_chemical_formula_structural   LiSnPO4
_chemical_formula_sum   'Li4 Sn4 P4 O16'
_cell_volume   440.90369942
_cell_formula_units_Z   4
loop_
 _symmetry_equiv_pos_site_id
 _symmetry_equiv_pos_as_xyz
  1  'x, y, z'
loop_
 _atom_site_type_symbol
 _atom_site_label
 _atom_site_symmetry_multiplicity
 _atom_site_fract_x
 _atom_site_fract_y
 _atom_site_fract_z
 _atom_site_occupancy
  Li  Li0  1  0.16721700  0.78985700  0.50376700  1
  Li  Li1  1  0.66721700  0.21014300  0.99623300  1
  Li  Li2  1  0.33278300  0.78985700  0.00376700  1
  Li  Li3  1  0.83278300  0.21014300  0.49623300  1
  Sn  Sn4  1  0.64130200  0.75841500  0.48377500  1
  Sn  Sn5  1  0.14130200  0.24158500  0.01622500  1
  Sn  Sn6  1  0.85869800  0.75841500  0.98377500  1
  Sn  Sn7  1  0.35869800  0.24158500  0.51622500  1
  P  P8  1  0.40751800  0.11519000  0.22292600  1
  P  P9  1  0.90751800  0.88481000  0.27707400  1
  P  P10  1  0.09248200  0.11519000  0.72292600  1
  P  P11  1  0.59248200  0.88481000  0.77707400  1
  O  O12  1  0.63056200  0.58861800  0.84822800  1
  O  O13  1  0.82897700  0.99376000  0.37904400  1
  O  O14  1  0.36625700  0.94509200  0.42370500  1
  O  O15  1  0.55993900  0.06301400  0.21714700  1
  O  O16  1  0.05993900  0.93698600  0.28285300  1
  O  O17  1  0.86625700  0.05490800  0.07629500  1
  O  O18  1  0.32897700  0.00624000  0.12095600  1
  O  O19  1  0.13056200  0.41138200  0.65177200  1
  O  O20  1  0.86943800  0.58861800  0.34822800  1
  O  O21  1  0.67102300  0.99376000  0.87904400  1
  O  O22  1  0.13374300  0.94509200  0.92370500  1
  O  O23  1  0.94006100  0.06301400  0.71714700  1
  O  O24  1  0.44006100  0.93698600  0.78285300  1
  O  O25  1  0.63374300  0.05490800  0.57629500  1
  O  O26  1  0.17102300  0.00624000  0.62095600  1
  O  O27  1  0.36943800  0.41138200  0.15177200  1
