# generated using pymatgen
data_LiFe(PO3)4
_symmetry_space_group_name_H-M   'P 1'
_cell_length_a   9.09949700
_cell_length_b   9.49402000
_cell_length_c   10.50089900
_cell_angle_alpha   90.00000000
_cell_angle_beta   90.00000000
_cell_angle_gamma   90.00000000
_symmetry_Int_Tables_number   1
_chemical_formula_structural   LiFe(PO3)4
_chemical_formula_sum   'Li4 Fe4 P16 O48'
_cell_volume   907.18113367
_cell_formula_units_Z   4
loop_
 _symmetry_equiv_pos_site_id
 _symmetry_equiv_pos_as_xyz
  1  'x, y, z'
loop_
 _atom_site_type_symbol
 _atom_site_label
 _atom_site_symmetry_multiplicity
 _atom_site_fract_x
 _atom_site_fract_y
 _atom_site_fract_z
 _atom_site_occupancy
  Li  Li0  1  0.85304400  0.75220600  0.30993600  1
  Li  Li1  1  0.35304400  0.74779400  0.69006400  1
  Li  Li2  1  0.14695600  0.25220600  0.19006400  1
  Li  Li3  1  0.64695600  0.24779400  0.80993600  1
  Fe  Fe4  1  0.49879900  0.73739800  0.28621000  1
  Fe  Fe5  1  0.00120100  0.26260200  0.78621000  1
  Fe  Fe6  1  0.50120100  0.23739800  0.21379000  1
  Fe  Fe7  1  0.99879900  0.76260200  0.71379000  1
  P  P8  1  0.50045500  0.51575800  0.01764600  1
  P  P9  1  0.79695800  0.53068800  0.89428800  1
  P  P10  1  0.99954500  0.48424200  0.51764600  1
  P  P11  1  0.19712100  0.54386200  0.88868100  1
  P  P12  1  0.50516300  0.95098700  0.88730200  1
  P  P13  1  0.69712100  0.95613800  0.11131900  1
  P  P14  1  0.29695800  0.96931200  0.10571200  1
  P  P15  1  0.00045500  0.98424200  0.98235400  1
  P  P16  1  0.49954500  0.01575800  0.48235400  1
  P  P17  1  0.20304200  0.03068800  0.60571200  1
  P  P18  1  0.80287900  0.04386200  0.61131900  1
  P  P19  1  0.99483700  0.04901300  0.38730200  1
  P  P20  1  0.49483700  0.45098700  0.61269800  1
  P  P21  1  0.30287900  0.45613800  0.38868100  1
  P  P22  1  0.70304200  0.46931200  0.39428800  1
  P  P23  1  0.00516300  0.54901300  0.11269800  1
  O  O24  1  0.87459100  0.11372400  0.48916900  1
  O  O25  1  0.99201700  0.63714400  0.55591800  1
  O  O26  1  0.85029300  0.63421900  0.79606100  1
  O  O27  1  0.99576900  0.64995100  0.21938800  1
  O  O28  1  0.49576900  0.85004900  0.78061200  1
  O  O29  1  0.67819300  0.85251800  0.22054200  1
  O  O30  1  0.35029300  0.86578100  0.20393900  1
  O  O31  1  0.49201700  0.86285600  0.44408200  1
  O  O32  1  0.00076500  0.87657200  0.87795100  1
  O  O33  1  0.17484000  0.87643700  0.63747500  1
  O  O34  1  0.62540900  0.88627600  0.98916900  1
  O  O35  1  0.85544100  0.89591900  0.63601500  1
  O  O36  1  0.96649500  0.89687300  0.37307400  1
  O  O37  1  0.35252000  0.92794300  0.96826200  1
  O  O38  1  0.12488900  0.94820000  0.08622900  1
  O  O39  1  0.86639400  0.95709500  0.07731500  1
  O  O40  1  0.63360600  0.04290500  0.57731500  1
  O  O41  1  0.37511100  0.05180000  0.58622900  1
  O  O42  1  0.14748000  0.07205700  0.46826200  1
  O  O43  1  0.53350500  0.10312700  0.87307400  1
  O  O44  1  0.64455900  0.10408100  0.13601500  1
  O  O45  1  0.17819300  0.64748200  0.77945800  1
  O  O46  1  0.32516000  0.12356300  0.13747500  1
  O  O47  1  0.49923500  0.12342800  0.37795100  1
  O  O48  1  0.00798300  0.13714400  0.94408200  1
  O  O49  1  0.14970700  0.13421900  0.70393900  1
  O  O50  1  0.82180700  0.14748200  0.72054200  1
  O  O51  1  0.00423100  0.14995100  0.28061200  1
  O  O52  1  0.50423100  0.35004900  0.71938800  1
  O  O53  1  0.32180700  0.35251800  0.27945800  1
  O  O54  1  0.64970700  0.36578100  0.29606100  1
  O  O55  1  0.50798300  0.36285600  0.05591800  1
  O  O56  1  0.99923500  0.37657200  0.62204900  1
  O  O57  1  0.82516000  0.37643700  0.86252500  1
  O  O58  1  0.37459100  0.38627600  0.51083100  1
  O  O59  1  0.14455900  0.39591900  0.86398500  1
  O  O60  1  0.03350500  0.39687300  0.12692600  1
  O  O61  1  0.64748000  0.42794300  0.53173800  1
  O  O62  1  0.87511100  0.44820000  0.41377100  1
  O  O63  1  0.13360600  0.45709500  0.42268500  1
  O  O64  1  0.36639400  0.54290500  0.92268500  1
  O  O65  1  0.62488900  0.55180000  0.91377100  1
  O  O66  1  0.85252000  0.57205700  0.03173800  1
  O  O67  1  0.46649500  0.60312700  0.62692600  1
  O  O68  1  0.35544100  0.60408100  0.36398500  1
  O  O69  1  0.50076500  0.62342800  0.12204900  1
  O  O70  1  0.67484000  0.62356300  0.36252500  1
  O  O71  1  0.12540900  0.61372400  0.01083100  1
