# generated using pymatgen
data_LiNb2(PO4)3
_symmetry_space_group_name_H-M   'P 1'
_cell_length_a   8.67207300
_cell_length_b   8.67806306
_cell_length_c   9.12914196
_cell_angle_alpha   90.82209519
_cell_angle_beta   118.07085947
_cell_angle_gamma   119.13711427
_symmetry_Int_Tables_number   1
_chemical_formula_structural   LiNb2(PO4)3
_chemical_formula_sum   'Li2 Nb4 P6 O24'
_cell_volume   502.38614414
_cell_formula_units_Z   2
loop_
 _symmetry_equiv_pos_site_id
 _symmetry_equiv_pos_as_xyz
  1  'x, y, z'
loop_
 _atom_site_type_symbol
 _atom_site_label
 _atom_site_symmetry_multiplicity
 _atom_site_fract_x
 _atom_site_fract_y
 _atom_site_fract_z
 _atom_site_occupancy
  Li  Li0  1  0.76720100  0.23618100  0.58576900  1
  Li  Li1  1  0.23279900  0.76381900  0.41423100  1
  Nb  Nb2  1  0.78821400  0.13301500  0.93069700  1
  Nb  Nb3  1  0.21020500  0.35650000  0.56308400  1
  Nb  Nb4  1  0.21178600  0.86698500  0.06930300  1
  Nb  Nb5  1  0.78979500  0.64350000  0.43691600  1
  P  P6  1  0.72258200  0.46728100  0.75060600  1
  P  P7  1  0.28800100  0.75179000  0.74534700  1
  P  P8  1  0.71199900  0.24821000  0.25465300  1
  P  P9  1  0.99231700  0.96026800  0.24850500  1
  P  P10  1  0.27741800  0.53271900  0.24939400  1
  P  P11  1  0.00768300  0.03973200  0.75149500  1
  O  O12  1  0.23556300  0.52438100  0.39953100  1
  O  O13  1  0.31251900  0.72022700  0.22330700  1
  O  O14  1  0.68748100  0.27977300  0.77669300  1
  O  O15  1  0.50275800  0.10350900  0.23887000  1
  O  O16  1  0.47164200  0.52981400  0.30166400  1
  O  O17  1  0.86585100  0.96877500  0.06492200  1
  O  O18  1  0.52835800  0.47018600  0.69833600  1
  O  O19  1  0.25835500  0.56002300  0.72696400  1
  O  O20  1  0.13104100  0.89330400  0.25270500  1
  O  O21  1  0.14234000  0.15906500  0.38165100  1
  O  O22  1  0.28960000  0.80899800  0.90525100  1
  O  O23  1  0.15793900  0.17495100  0.70131200  1
  O  O24  1  0.91698500  0.63152900  0.91757000  1
  O  O25  1  0.13414900  0.03122500  0.93507800  1
  O  O26  1  0.76443700  0.47561900  0.60046900  1
  O  O27  1  0.86895900  0.10669600  0.74729500  1
  O  O28  1  0.08301500  0.36847100  0.08243000  1
  O  O29  1  0.11445300  0.74314400  0.57096400  1
  O  O30  1  0.71040000  0.19100200  0.09474900  1
  O  O31  1  0.74164500  0.43997700  0.27303600  1
  O  O32  1  0.88554700  0.25685600  0.42903600  1
  O  O33  1  0.49724200  0.89649100  0.76113000  1
  O  O34  1  0.84206100  0.82504900  0.29868800  1
  O  O35  1  0.85766000  0.84093500  0.61834900  1
