# generated using pymatgen
data_Li2Mn(PO3)4
_symmetry_space_group_name_H-M   'P 1'
_cell_length_a   9.39103400
_cell_length_b   9.57316400
_cell_length_c   10.34489700
_cell_angle_alpha   90.00000000
_cell_angle_beta   90.00000000
_cell_angle_gamma   90.00000000
_symmetry_Int_Tables_number   1
_chemical_formula_structural   Li2Mn(PO3)4
_chemical_formula_sum   'Li8 Mn4 P16 O48'
_cell_volume   930.02598469
_cell_formula_units_Z   4
loop_
 _symmetry_equiv_pos_site_id
 _symmetry_equiv_pos_as_xyz
  1  'x, y, z'
loop_
 _atom_site_type_symbol
 _atom_site_label
 _atom_site_symmetry_multiplicity
 _atom_site_fract_x
 _atom_site_fract_y
 _atom_site_fract_z
 _atom_site_occupancy
  Li  Li0  1  0.09929500  0.00596900  0.18183600  1
  Li  Li1  1  0.40070500  0.00596900  0.18183600  1
  Li  Li2  1  0.59929500  0.49403100  0.68183600  1
  Li  Li3  1  0.90070500  0.49403100  0.68183600  1
  Li  Li4  1  0.09929500  0.50596900  0.31816400  1
  Li  Li5  1  0.40070500  0.50596900  0.31816400  1
  Li  Li6  1  0.59929500  0.99403100  0.81816400  1
  Li  Li7  1  0.90070500  0.99403100  0.81816400  1
  Mn  Mn8  1  0.25000000  0.01122000  0.80078900  1
  Mn  Mn9  1  0.75000000  0.48878000  0.30078900  1
  Mn  Mn10  1  0.25000000  0.51122000  0.69921100  1
  Mn  Mn11  1  0.75000000  0.98878000  0.19921100  1
  P  P12  1  0.75000000  0.19806700  0.60546700  1
  P  P13  1  0.53652700  0.20992600  0.38944000  1
  P  P14  1  0.96347300  0.20992600  0.38944000  1
  P  P15  1  0.25000000  0.22829400  0.51829400  1
  P  P16  1  0.75000000  0.27170600  0.01829400  1
  P  P17  1  0.03652700  0.29007400  0.88944000  1
  P  P18  1  0.46347300  0.29007400  0.88944000  1
  P  P19  1  0.25000000  0.30193300  0.10546700  1
  P  P20  1  0.75000000  0.69806700  0.89453300  1
  P  P21  1  0.53652700  0.70992600  0.11056000  1
  P  P22  1  0.96347300  0.70992600  0.11056000  1
  P  P23  1  0.25000000  0.72829400  0.98170600  1
  P  P24  1  0.75000000  0.77170600  0.48170600  1
  P  P25  1  0.03652700  0.79007400  0.61056000  1
  P  P26  1  0.46347300  0.79007400  0.61056000  1
  P  P27  1  0.25000000  0.80193300  0.39453300  1
  O  O28  1  0.75000000  0.10070600  0.71885300  1
  O  O29  1  0.56947700  0.11527600  0.27690600  1
  O  O30  1  0.93052300  0.11527600  0.27690600  1
  O  O31  1  0.75000000  0.11475500  0.02638600  1
  O  O32  1  0.05929100  0.13467600  0.87543200  1
  O  O33  1  0.44070900  0.13467600  0.87543200  1
  O  O34  1  0.61608400  0.15257600  0.51680100  1
  O  O35  1  0.88391600  0.15257600  0.51680100  1
  O  O36  1  0.25000000  0.14709900  0.12698500  1
  O  O37  1  0.25000000  0.14297700  0.63819800  1
  O  O38  1  0.12425700  0.17564300  0.42441000  1
  O  O39  1  0.37574300  0.17564300  0.42441000  1
  O  O40  1  0.62425700  0.32435700  0.92441000  1
  O  O41  1  0.87574300  0.32435700  0.92441000  1
  O  O42  1  0.75000000  0.35702300  0.13819800  1
  O  O43  1  0.75000000  0.35290100  0.62698500  1
  O  O44  1  0.11608400  0.34742400  0.01680100  1
  O  O45  1  0.38391600  0.34742400  0.01680100  1
  O  O46  1  0.55929100  0.36532400  0.37543200  1
  O  O47  1  0.94070900  0.36532400  0.37543200  1
  O  O48  1  0.25000000  0.38524500  0.52638600  1
  O  O49  1  0.06947700  0.38472400  0.77690600  1
  O  O50  1  0.43052300  0.38472400  0.77690600  1
  O  O51  1  0.25000000  0.39929400  0.21885300  1
  O  O52  1  0.75000000  0.60070600  0.78114700  1
  O  O53  1  0.56947700  0.61527600  0.22309400  1
  O  O54  1  0.93052300  0.61527600  0.22309400  1
  O  O55  1  0.75000000  0.61475500  0.47361400  1
  O  O56  1  0.05929100  0.63467600  0.62456800  1
  O  O57  1  0.44070900  0.63467600  0.62456800  1
  O  O58  1  0.61608400  0.65257600  0.98319900  1
  O  O59  1  0.88391600  0.65257600  0.98319900  1
  O  O60  1  0.25000000  0.64709900  0.37301500  1
  O  O61  1  0.25000000  0.64297700  0.86180200  1
  O  O62  1  0.12425700  0.67564300  0.07559000  1
  O  O63  1  0.37574300  0.67564300  0.07559000  1
  O  O64  1  0.62425700  0.82435700  0.57559000  1
  O  O65  1  0.87574300  0.82435700  0.57559000  1
  O  O66  1  0.75000000  0.85702300  0.36180200  1
  O  O67  1  0.75000000  0.85290100  0.87301500  1
  O  O68  1  0.11608400  0.84742400  0.48319900  1
  O  O69  1  0.38391600  0.84742400  0.48319900  1
  O  O70  1  0.55929100  0.86532400  0.12456800  1
  O  O71  1  0.94070900  0.86532400  0.12456800  1
  O  O72  1  0.25000000  0.88524500  0.97361400  1
  O  O73  1  0.06947700  0.88472400  0.72309400  1
  O  O74  1  0.43052300  0.88472400  0.72309400  1
  O  O75  1  0.25000000  0.89929400  0.28114700  1
