# generated using pymatgen
data_Li2Mo4O13
_symmetry_space_group_name_H-M   'P 1'
_cell_length_a   8.39412047
_cell_length_b   8.76748376
_cell_length_c   11.86346480
_cell_angle_alpha   110.95214466
_cell_angle_beta   94.44961563
_cell_angle_gamma   96.32477593
_symmetry_Int_Tables_number   1
_chemical_formula_structural   Li2Mo4O13
_chemical_formula_sum   'Li6 Mo12 O39'
_cell_volume   803.94176994
_cell_formula_units_Z   3
loop_
 _symmetry_equiv_pos_site_id
 _symmetry_equiv_pos_as_xyz
  1  'x, y, z'
loop_
 _atom_site_type_symbol
 _atom_site_label
 _atom_site_symmetry_multiplicity
 _atom_site_fract_x
 _atom_site_fract_y
 _atom_site_fract_z
 _atom_site_occupancy
  Li  Li0  1  0.69212368  0.03664293  0.37489262  1
  Li  Li1  1  0.30787632  0.96335707  0.62510738  1
  Li  Li2  1  0.70639243  0.47636960  0.98934111  1
  Li  Li3  1  0.29360757  0.52363040  0.01065889  1
  Li  Li4  1  0.89644194  0.01264597  0.62951812  1
  Li  Li5  1  0.10355806  0.98735403  0.37048188  1
  Mo  Mo6  1  0.02829874  0.83717130  0.03638230  1
  Mo  Mo7  1  0.97170126  0.16282870  0.96361770  1
  Mo  Mo8  1  0.63389122  0.85465523  0.03504183  1
  Mo  Mo9  1  0.36610878  0.14534477  0.96495817  1
  Mo  Mo10  1  0.77327334  0.67747073  0.36568610  1
  Mo  Mo11  1  0.22672666  0.32252927  0.63431390  1
  Mo  Mo12  1  0.37874535  0.69661291  0.36310887  1
  Mo  Mo13  1  0.62125465  0.30338709  0.63689113  1
  Mo  Mo14  1  0.58414320  0.67180398  0.63663783  1
  Mo  Mo15  1  0.41585680  0.32819602  0.36336217  1
  Mo  Mo16  1  0.97264648  0.65389630  0.63528385  1
  Mo  Mo17  1  0.02735352  0.34610370  0.36471615  1
  O  O18  1  0.93616592  0.07795147  0.80520667  1
  O  O19  1  0.06383408  0.92204853  0.19479333  1
  O  O20  1  0.98149621  0.70805061  0.79060404  1
  O  O21  1  0.01850379  0.29194939  0.20939596  1
  O  O22  1  0.88917465  0.19430686  0.38067200  1
  O  O23  1  0.11082535  0.80569314  0.61932800  1
  O  O24  1  0.50000000  0.00000000  0.00000000  1
  O  O25  1  0.49284248  0.67587029  0.99638153  1
  O  O26  1  0.50715752  0.32412971  0.00361847  1
  O  O27  1  0.40285478  0.18793388  0.61631170  1
  O  O28  1  0.59714522  0.81206612  0.38368830  1
  O  O29  1  0.43896964  0.46669229  0.60130155  1
  O  O30  1  0.56103036  0.53330771  0.39869845  1
  O  O31  1  0.45269476  0.78244904  0.58084354  1
  O  O32  1  0.54730524  0.21755096  0.41915646  1
  O  O33  1  0.39360998  0.23560870  0.20714256  1
  O  O34  1  0.60639002  0.76439130  0.79285744  1
  O  O35  1  0.34113231  0.62244711  0.20621837  1
  O  O36  1  0.65886769  0.37755289  0.79378163  1
  O  O37  1  0.34482076  0.06221673  0.80727284  1
  O  O38  1  0.65517924  0.93778327  0.19272716  1
  O  O39  1  0.24090448  0.41905159  0.78911254  1
  O  O40  1  0.75909552  0.58094841  0.21088746  1
  O  O41  1  0.21441696  0.23614015  0.40767955  1
  O  O42  1  0.78558304  0.76385985  0.59232045  1
  O  O43  1  0.25872573  0.51041950  0.38948874  1
  O  O44  1  0.74127427  0.48958050  0.61051126  1
  O  O45  1  0.26676425  0.86069465  0.41364825  1
  O  O46  1  0.73323575  0.13930535  0.58635175  1
  O  O47  1  0.15171437  1.00140418  0.99156225  1
  O  O48  1  0.84828563  -0.00140418  0.00843775  1
  O  O49  1  0.18926978  0.28519211  0.99354675  1
  O  O50  1  0.81073022  0.71480789  0.00645325  1
  O  O51  1  0.13708657  0.67211733  0.99775662  1
  O  O52  1  0.86291343  0.32788267  0.00224338  1
  O  O53  1  0.08367303  0.14536281  0.59684482  1
  O  O54  1  0.91632697  0.85463719  0.40315518  1
  O  O55  1  0.08748378  0.46323569  0.58192554  1
  O  O56  1  0.91251622  0.53676431  0.41807446  1
