# generated using pymatgen
data_Li8SiO6
_symmetry_space_group_name_H-M   'P 1'
_cell_length_a   5.45122806
_cell_length_b   5.45122806
_cell_length_c   10.69737000
_cell_angle_alpha   90.00000000
_cell_angle_beta   90.00000000
_cell_angle_gamma   120.00000074
_symmetry_Int_Tables_number   1
_chemical_formula_structural   Li8SiO6
_chemical_formula_sum   'Li16 Si2 O12'
_cell_volume   275.29374860
_cell_formula_units_Z   2
loop_
 _symmetry_equiv_pos_site_id
 _symmetry_equiv_pos_as_xyz
  1  'x, y, z'
loop_
 _atom_site_type_symbol
 _atom_site_label
 _atom_site_symmetry_multiplicity
 _atom_site_fract_x
 _atom_site_fract_y
 _atom_site_fract_z
 _atom_site_occupancy
  Li  Li0  1  0.00000000  0.30809200  0.27012400  1
  Li  Li1  1  0.69190800  0.00000000  0.77012400  1
  Li  Li2  1  0.33333300  0.66666700  0.41152700  1
  Li  Li3  1  0.66666700  0.33333300  0.91152700  1
  Li  Li4  1  0.33333300  0.66666700  0.91152700  1
  Li  Li5  1  0.66666700  0.33333300  0.41152700  1
  Li  Li6  1  0.39397100  0.00000000  0.62932300  1
  Li  Li7  1  0.39397100  0.39397100  0.12932300  1
  Li  Li8  1  0.00000000  0.60602900  0.12932300  1
  Li  Li9  1  0.00000000  0.39397100  0.62932300  1
  Li  Li10  1  0.60602900  0.60602900  0.62932300  1
  Li  Li11  1  0.60602900  0.00000000  0.12932300  1
  Li  Li12  1  0.30809200  0.00000000  0.27012400  1
  Li  Li13  1  0.69190800  0.69190800  0.27012400  1
  Li  Li14  1  0.00000000  0.69190800  0.77012400  1
  Li  Li15  1  0.30809200  0.30809200  0.77012400  1
  Si  Si16  1  0.00000000  0.00000000  0.49945700  1
  Si  Si17  1  0.00000000  0.00000000  0.99945700  1
  O  O18  1  0.00000000  0.28836400  0.45296900  1
  O  O19  1  0.71163600  0.71163600  0.45296900  1
  O  O20  1  0.00000000  0.00000000  0.15684400  1
  O  O21  1  0.00000000  0.00000000  0.65684400  1
  O  O22  1  0.33333300  0.66666700  0.21984800  1
  O  O23  1  0.66666700  0.33333300  0.71984800  1
  O  O24  1  0.33333300  0.66666700  0.71984800  1
  O  O25  1  0.71163600  0.00000000  0.95296900  1
  O  O26  1  0.28836400  0.00000000  0.45296900  1
  O  O27  1  0.28836400  0.28836400  0.95296900  1
  O  O28  1  0.00000000  0.71163600  0.95296900  1
  O  O29  1  0.66666700  0.33333300  0.21984800  1
