# generated using pymatgen
data_LiCoPO4
_symmetry_space_group_name_H-M   'P 1'
_cell_length_a   5.49723759
_cell_length_b   6.25566500
_cell_length_c   8.23988913
_cell_angle_alpha   90.00007528
_cell_angle_beta   90.00026410
_cell_angle_gamma   90.00072800
_symmetry_Int_Tables_number   1
_chemical_formula_structural   LiCoPO4
_chemical_formula_sum   'Li4 Co4 P4 O16'
_cell_volume   283.36053200
_cell_formula_units_Z   4
loop_
 _symmetry_equiv_pos_site_id
 _symmetry_equiv_pos_as_xyz
  1  'x, y, z'
loop_
 _atom_site_type_symbol
 _atom_site_label
 _atom_site_symmetry_multiplicity
 _atom_site_fract_x
 _atom_site_fract_y
 _atom_site_fract_z
 _atom_site_occupancy
  Li  Li0  1  0.99999900  0.25000100  0.67030100  1
  Li  Li1  1  0.50000000  0.25000100  0.17030600  1
  Li  Li2  1  0.00000100  0.74999900  0.32969900  1
  Li  Li3  1  0.50000000  0.74999900  0.82969400  1
  Co  Co4  1  0.50000000  0.00000000  0.50000000  1
  Co  Co5  1  0.50000000  0.50000000  0.50000000  1
  Co  Co6  1  0.00000000  0.00000000  0.00000000  1
  Co  Co7  1  0.99999900  0.50000000  0.00000000  1
  P  P8  1  0.99999800  0.74999300  0.65004800  1
  P  P9  1  0.49999800  0.74999400  0.15006000  1
  P  P10  1  0.00000200  0.25000700  0.34995200  1
  P  P11  1  0.50000200  0.25000600  0.84994000  1
  O  O12  1  0.00000200  0.04666500  0.24488800  1
  O  O13  1  0.50000000  0.04666800  0.74488300  1
  O  O14  1  0.00000000  0.54666300  0.75511200  1
  O  O15  1  0.49999900  0.54667000  0.25511600  1
  O  O16  1  0.99999800  0.95333500  0.75511200  1
  O  O17  1  0.50000000  0.95333200  0.25511700  1
  O  O18  1  0.00000000  0.45333700  0.24488800  1
  O  O19  1  0.50000100  0.45333000  0.74488400  1
  O  O20  1  0.22830100  0.74999800  0.53379900  1
  O  O21  1  0.72830200  0.74999800  0.03380800  1
  O  O22  1  0.77169900  0.25000100  0.46620100  1
  O  O23  1  0.27169800  0.25000200  0.96619200  1
  O  O24  1  0.22831000  0.25000700  0.46620000  1
  O  O25  1  0.72830500  0.25000200  0.96619300  1
  O  O26  1  0.77169000  0.74999300  0.53380000  1
  O  O27  1  0.27169500  0.74999800  0.03380700  1
