# generated using pymatgen
data_Li3Ni3(PO4)4
_symmetry_space_group_name_H-M   'P 1'
_cell_length_a   9.85573364
_cell_length_b   9.85573364
_cell_length_c   10.37816041
_cell_angle_alpha   89.05148633
_cell_angle_beta   89.05148633
_cell_angle_gamma   38.28347702
_symmetry_Int_Tables_number   1
_chemical_formula_structural   Li3Ni3(PO4)4
_chemical_formula_sum   'Li6 Ni6 P8 O32'
_cell_volume   624.46752531
_cell_formula_units_Z   2
loop_
 _symmetry_equiv_pos_site_id
 _symmetry_equiv_pos_as_xyz
  1  'x, y, z'
loop_
 _atom_site_type_symbol
 _atom_site_label
 _atom_site_symmetry_multiplicity
 _atom_site_fract_x
 _atom_site_fract_y
 _atom_site_fract_z
 _atom_site_occupancy
  Li  Li0  1  0.76432100  0.07619700  0.46092500  1
  Li  Li1  1  0.43560300  0.56439700  0.25000000  1
  Li  Li2  1  0.07619700  0.76432100  0.96092500  1
  Li  Li3  1  0.56439700  0.43560300  0.75000000  1
  Li  Li4  1  0.23567900  0.92380300  0.53907500  1
  Li  Li5  1  0.92380300  0.23567900  0.03907500  1
  Ni  Ni6  1  0.67697300  0.63603500  0.24828700  1
  Ni  Ni7  1  0.36396500  0.32302700  0.25171300  1
  Ni  Ni8  1  0.63603500  0.67697300  0.74828700  1
  Ni  Ni9  1  0.32302700  0.36396500  0.75171300  1
  Ni  Ni10  1  0.00000000  0.50000000  0.50000000  1
  Ni  Ni11  1  0.50000000  0.00000000  0.00000000  1
  P  P12  1  0.17928500  0.21621000  0.75339900  1
  P  P13  1  0.74654800  0.41330800  0.50596700  1
  P  P14  1  0.21621000  0.17928500  0.25339900  1
  P  P15  1  0.41330800  0.74654800  0.00596700  1
  P  P16  1  0.25345200  0.58669200  0.49403300  1
  P  P17  1  0.78379000  0.82071500  0.74660100  1
  P  P18  1  0.82071500  0.78379000  0.24660100  1
  P  P19  1  0.58669200  0.25345200  0.99403300  1
  O  O20  1  0.59244700  0.57873000  0.11107200  1
  O  O21  1  0.96019300  0.32979400  0.50710400  1
  O  O22  1  0.71936700  0.77102800  0.13744900  1
  O  O23  1  0.42127000  0.40755300  0.38892800  1
  O  O24  1  0.20381500  0.31200100  0.64342800  1
  O  O25  1  0.05396300  0.64162300  0.21020200  1
  O  O26  1  0.78315600  0.19079200  0.96115000  1
  O  O27  1  0.48127700  0.36917500  0.12667100  1
  O  O28  1  0.77102800  0.71936700  0.63744900  1
  O  O29  1  0.01188800  0.68765300  0.78600000  1
  O  O30  1  0.94603700  0.35837700  0.78979800  1
  O  O31  1  0.79618500  0.68799900  0.35657200  1
  O  O32  1  0.28063300  0.22897200  0.86255100  1
  O  O33  1  0.51872300  0.63082500  0.87332900  1
  O  O34  1  0.21684400  0.80920800  0.03885000  1
  O  O35  1  0.68799900  0.79618500  0.85657200  1
  O  O36  1  0.03980700  0.67020600  0.49289600  1
  O  O37  1  0.80920800  0.21684400  0.53885000  1
  O  O38  1  0.63082500  0.51872300  0.37332900  1
  O  O39  1  0.57873000  0.59244700  0.61107200  1
  O  O40  1  0.19079200  0.78315600  0.46115000  1
  O  O41  1  0.36917500  0.48127700  0.62667100  1
  O  O42  1  0.35837700  0.94603700  0.28979800  1
  O  O43  1  0.31200100  0.20381500  0.14342800  1
  O  O44  1  0.98811200  0.31234700  0.21400000  1
  O  O45  1  0.67020600  0.03980700  0.99289600  1
  O  O46  1  0.22897200  0.28063300  0.36255100  1
  O  O47  1  0.32979400  0.96019300  0.00710400  1
  O  O48  1  0.64162300  0.05396300  0.71020200  1
  O  O49  1  0.68765300  0.01188800  0.28600000  1
  O  O50  1  0.31234700  0.98811200  0.71400000  1
  O  O51  1  0.40755300  0.42127000  0.88892800  1
