# generated using pymatgen
data_LiCr2(PO4)3
_symmetry_space_group_name_H-M   'P 1'
_cell_length_a   10.03778328
_cell_length_b   10.03778328
_cell_length_c   10.03778328
_cell_angle_alpha   109.40788337
_cell_angle_beta   109.40788337
_cell_angle_gamma   109.59796957
_symmetry_Int_Tables_number   1
_chemical_formula_structural   LiCr2(PO4)3
_chemical_formula_sum   'Li4 Cr8 P12 O48'
_cell_volume   778.55618522
_cell_formula_units_Z   4
loop_
 _symmetry_equiv_pos_site_id
 _symmetry_equiv_pos_as_xyz
  1  'x, y, z'
loop_
 _atom_site_type_symbol
 _atom_site_label
 _atom_site_symmetry_multiplicity
 _atom_site_fract_x
 _atom_site_fract_y
 _atom_site_fract_z
 _atom_site_occupancy
  Li  Li0  1  0.75000000  0.75000000  0.00000000  1
  Li  Li1  1  0.50000000  0.00000000  0.50000000  1
  Li  Li2  1  0.00000000  0.50000000  0.50000000  1
  Li  Li3  1  0.25000000  0.25000000  0.00000000  1
  Cr  Cr4  1  0.12500000  0.87500000  0.25000000  1
  Cr  Cr5  1  0.12500000  0.87500000  0.75000000  1
  Cr  Cr6  1  0.62500000  0.37500000  0.75000000  1
  Cr  Cr7  1  0.62500000  0.37500000  0.25000000  1
  Cr  Cr8  1  0.12500000  0.37500000  0.25000000  1
  Cr  Cr9  1  0.12500000  0.37500000  0.75000000  1
  Cr  Cr10  1  0.62500000  0.87500000  0.75000000  1
  Cr  Cr11  1  0.62500000  0.87500000  0.25000000  1
  P  P12  1  0.87500000  0.75099300  0.37599300  1
  P  P13  1  0.74900700  0.62500000  0.62400700  1
  P  P14  1  0.50000000  0.50000000  0.00000000  1
  P  P15  1  0.50099300  0.12500000  0.87599300  1
  P  P16  1  0.37500000  0.99900700  0.12400700  1
  P  P17  1  0.75000000  0.25000000  0.50000000  1
  P  P18  1  0.25000000  0.75000000  0.50000000  1
  P  P19  1  0.87500000  0.25099300  0.87599300  1
  P  P20  1  0.00099300  0.12500000  0.37599300  1
  P  P21  1  0.37500000  0.49900700  0.62400700  1
  P  P22  1  0.00000000  0.00000000  0.00000000  1
  P  P23  1  0.24900700  0.62500000  0.12400700  1
  O  O24  1  0.32074900  0.37123100  0.86228000  1
  O  O25  1  0.73244600  0.07258900  0.74744600  1
  O  O26  1  0.51710800  0.96414200  0.14129500  1
  O  O27  1  0.32514300  0.98500000  0.25255400  1
  O  O28  1  0.70847000  0.07074900  0.44951800  1
  O  O29  1  0.23244600  0.48500000  0.65985600  1
  O  O30  1  0.21414200  0.57284700  0.94703400  1
  O  O31  1  0.42925100  0.79153000  0.55048200  1
  O  O32  1  0.82074900  0.95847000  0.94951800  1
  O  O33  1  0.03585800  0.17715300  0.55296600  1
  O  O34  1  0.01755400  0.26500000  0.84014400  1
  O  O35  1  0.82258900  0.98244600  0.24744600  1
  O  O36  1  0.51755400  0.67741100  0.75255400  1
  O  O37  1  0.54153000  0.67925100  0.05048200  1
  O  O38  1  0.73289200  0.78585800  0.35870500  1
  O  O39  1  0.92485700  0.76500000  0.24744600  1
  O  O40  1  0.04153000  0.99104900  0.86228000  1
  O  O41  1  0.01710800  0.87581300  0.55296600  1
  O  O42  1  0.42715300  0.37418700  0.64129500  1
  O  O43  1  0.23500000  0.48244600  0.15985600  1
  O  O44  1  0.71414200  0.76710800  0.64129500  1
  O  O45  1  0.42741100  0.76755400  0.25255400  1
  O  O46  1  0.62876900  0.49104900  0.94951800  1
  O  O47  1  0.12581300  0.07284700  0.35870500  1
  O  O48  1  0.50895100  0.45847000  0.13772000  1
  O  O49  1  0.32284700  0.46414200  0.44703400  1
  O  O50  1  0.00895100  0.87123100  0.05048200  1
  O  O51  1  0.82514300  0.57258900  0.34014400  1
  O  O52  1  0.92741100  0.67485700  0.65985600  1
  O  O53  1  0.62418700  0.48289200  0.44703400  1
  O  O54  1  0.12876900  0.17925100  0.13772000  1
  O  O55  1  0.51500000  0.17485700  0.74744600  1
  O  O56  1  0.73500000  0.57514300  0.75255400  1
  O  O57  1  0.12123100  0.57074900  0.36228000  1
  O  O58  1  0.62581300  0.26710800  0.05296600  1
  O  O59  1  0.32258900  0.07514300  0.84014400  1
  O  O60  1  0.42485700  0.17741100  0.15985600  1
  O  O61  1  0.24104900  0.87876900  0.44951800  1
  O  O62  1  0.92715300  0.28585800  0.05296600  1
  O  O63  1  0.74104900  0.29153000  0.36228000  1
  O  O64  1  0.12418700  0.67715300  0.14129500  1
  O  O65  1  0.62123100  0.25895100  0.55048200  1
  O  O66  1  0.20847000  0.75895100  0.63772000  1
  O  O67  1  0.53585800  0.98289200  0.85870500  1
  O  O68  1  0.01500000  0.26755400  0.34014400  1
  O  O69  1  0.82284700  0.37581300  0.85870500  1
  O  O70  1  0.23289200  0.87418700  0.94703400  1
  O  O71  1  0.92925100  0.37876900  0.63772000  1
