# generated using pymatgen
data_LiSn(PO3)4
_symmetry_space_group_name_H-M   'P 1'
_cell_length_a   8.38828700
_cell_length_b   9.94393200
_cell_length_c   13.16651900
_cell_angle_alpha   90.00000000
_cell_angle_beta   90.00000000
_cell_angle_gamma   90.00000000
_symmetry_Int_Tables_number   1
_chemical_formula_structural   LiSn(PO3)4
_chemical_formula_sum   'Li4 Sn4 P16 O48'
_cell_volume   1098.25299715
_cell_formula_units_Z   4
loop_
 _symmetry_equiv_pos_site_id
 _symmetry_equiv_pos_as_xyz
  1  'x, y, z'
loop_
 _atom_site_type_symbol
 _atom_site_label
 _atom_site_symmetry_multiplicity
 _atom_site_fract_x
 _atom_site_fract_y
 _atom_site_fract_z
 _atom_site_occupancy
  Li  Li0  1  0.00983200  0.25000000  0.00000000  1
  Li  Li1  1  0.99016800  0.75000000  0.00000000  1
  Li  Li2  1  0.49016800  0.75000000  0.50000000  1
  Li  Li3  1  0.50983200  0.25000000  0.50000000  1
  Sn  Sn4  1  0.38111200  0.75000000  0.00000000  1
  Sn  Sn5  1  0.61888800  0.25000000  0.00000000  1
  Sn  Sn6  1  0.11888800  0.25000000  0.50000000  1
  Sn  Sn7  1  0.88111200  0.75000000  0.50000000  1
  P  P8  1  0.16980100  0.50609000  0.13200300  1
  P  P9  1  0.83019900  0.00609000  0.13200300  1
  P  P10  1  0.46920400  0.00704600  0.15940300  1
  P  P11  1  0.53079600  0.50704600  0.15940300  1
  P  P12  1  0.03079600  0.50704600  0.34059700  1
  P  P13  1  0.96920400  0.00704600  0.34059700  1
  P  P14  1  0.33019900  0.00609000  0.36799700  1
  P  P15  1  0.66980100  0.50609000  0.36799700  1
  P  P16  1  0.33019900  0.49391000  0.63200300  1
  P  P17  1  0.66980100  0.99391000  0.63200300  1
  P  P18  1  0.03079600  0.99295400  0.65940300  1
  P  P19  1  0.96920400  0.49295400  0.65940300  1
  P  P20  1  0.46920400  0.49295400  0.84059700  1
  P  P21  1  0.53079600  0.99295400  0.84059700  1
  P  P22  1  0.16980100  0.99391000  0.86799700  1
  P  P23  1  0.83019900  0.49391000  0.86799700  1
  O  O24  1  0.17616300  0.62871200  0.06213300  1
  O  O25  1  0.82383700  0.12871200  0.06213300  1
  O  O26  1  0.44630500  0.11689400  0.08116000  1
  O  O27  1  0.55369500  0.61689400  0.08116000  1
  O  O28  1  0.09758000  0.37972200  0.09512600  1
  O  O29  1  0.90242000  0.87972200  0.09512600  1
  O  O30  1  0.38108700  0.87706300  0.13984900  1
  O  O31  1  0.61891300  0.37706300  0.13984900  1
  O  O32  1  0.34574700  0.47586000  0.17646700  1
  O  O33  1  0.65425300  0.97586000  0.17646700  1
  O  O34  1  0.08183400  0.56510400  0.23215800  1
  O  O35  1  0.91816600  0.06510400  0.23215800  1
  O  O36  1  0.41816600  0.06510400  0.26784200  1
  O  O37  1  0.58183400  0.56510400  0.26784200  1
  O  O38  1  0.15425300  0.97586000  0.32353300  1
  O  O39  1  0.84574700  0.47586000  0.32353300  1
  O  O40  1  0.11891300  0.37706300  0.36015100  1
  O  O41  1  0.88108700  0.87706300  0.36015100  1
  O  O42  1  0.40242000  0.87972200  0.40487400  1
  O  O43  1  0.59758000  0.37972200  0.40487400  1
  O  O44  1  0.05369500  0.61689400  0.41884000  1
  O  O45  1  0.94630500  0.11689400  0.41884000  1
  O  O46  1  0.32383700  0.12871200  0.43786700  1
  O  O47  1  0.67616300  0.62871200  0.43786700  1
  O  O48  1  0.32383700  0.37128800  0.56213300  1
  O  O49  1  0.67616300  0.87128800  0.56213300  1
  O  O50  1  0.05369500  0.88310600  0.58116000  1
  O  O51  1  0.94630500  0.38310600  0.58116000  1
  O  O52  1  0.40242000  0.62027800  0.59512600  1
  O  O53  1  0.59758000  0.12027800  0.59512600  1
  O  O54  1  0.11891300  0.12293700  0.63984900  1
  O  O55  1  0.88108700  0.62293700  0.63984900  1
  O  O56  1  0.15425300  0.52414000  0.67646700  1
  O  O57  1  0.84574700  0.02414000  0.67646700  1
  O  O58  1  0.41816600  0.43489600  0.73215800  1
  O  O59  1  0.58183400  0.93489600  0.73215800  1
  O  O60  1  0.08183400  0.93489600  0.76784200  1
  O  O61  1  0.91816600  0.43489600  0.76784200  1
  O  O62  1  0.34574700  0.02414000  0.82353300  1
  O  O63  1  0.65425300  0.52414000  0.82353300  1
  O  O64  1  0.38108700  0.62293700  0.86015100  1
  O  O65  1  0.61891300  0.12293700  0.86015100  1
  O  O66  1  0.09758000  0.12027800  0.90487400  1
  O  O67  1  0.90242000  0.62027800  0.90487400  1
  O  O68  1  0.44630500  0.38310600  0.91884000  1
  O  O69  1  0.55369500  0.88310600  0.91884000  1
  O  O70  1  0.17616300  0.87128800  0.93786700  1
  O  O71  1  0.82383700  0.37128800  0.93786700  1
