# generated using pymatgen
data_LiMn2P3O10
_symmetry_space_group_name_H-M   'P 1'
_cell_length_a   9.03385841
_cell_length_b   9.03385841
_cell_length_c   11.93460124
_cell_angle_alpha   43.97393205
_cell_angle_beta   43.97393205
_cell_angle_gamma   57.53396787
_symmetry_Int_Tables_number   1
_chemical_formula_structural   LiMn2P3O10
_chemical_formula_sum   'Li2 Mn4 P6 O20'
_cell_volume   469.19543954
_cell_formula_units_Z   2
loop_
 _symmetry_equiv_pos_site_id
 _symmetry_equiv_pos_as_xyz
  1  'x, y, z'
loop_
 _atom_site_type_symbol
 _atom_site_label
 _atom_site_symmetry_multiplicity
 _atom_site_fract_x
 _atom_site_fract_y
 _atom_site_fract_z
 _atom_site_occupancy
  Li  Li0  1  0.83888000  0.16112000  0.25000000  1
  Li  Li1  1  0.16112000  0.83888000  0.75000000  1
  Mn  Mn2  1  0.20646000  0.66270700  0.58512500  1
  Mn  Mn3  1  0.66270700  0.20646000  0.08512500  1
  Mn  Mn4  1  0.33729300  0.79354000  0.91487500  1
  Mn  Mn5  1  0.79354000  0.33729300  0.41487500  1
  P  P6  1  0.25306800  0.35828900  0.07225300  1
  P  P7  1  0.66950700  0.33049300  0.75000000  1
  P  P8  1  0.35828900  0.25306800  0.57225300  1
  P  P9  1  0.64171100  0.74693200  0.42774700  1
  P  P10  1  0.74693200  0.64171100  0.92774700  1
  P  P11  1  0.33049300  0.66950700  0.25000000  1
  O  O12  1  0.74549700  0.22531000  0.65907400  1
  O  O13  1  0.72839600  0.64524300  0.32843800  1
  O  O14  1  0.22531000  0.74549700  0.15907400  1
  O  O15  1  0.04260300  0.25520500  0.21349200  1
  O  O16  1  0.25450300  0.77469000  0.34092600  1
  O  O17  1  0.27160400  0.35475700  0.67156200  1
  O  O18  1  0.77469000  0.25450300  0.84092600  1
  O  O19  1  0.95739700  0.74479500  0.78650800  1
  O  O20  1  0.35475700  0.27160400  0.17156200  1
  O  O21  1  0.77739900  0.39677200  0.04272900  1
  O  O22  1  0.58558100  0.69803000  0.08977900  1
  O  O23  1  0.74479500  0.95739700  0.28650800  1
  O  O24  1  0.39677200  0.77739900  0.54272900  1
  O  O25  1  0.30197000  0.41441900  0.41022100  1
  O  O26  1  0.69803000  0.58558100  0.58977900  1
  O  O27  1  0.60322800  0.22260100  0.45727100  1
  O  O28  1  0.25520500  0.04260300  0.71349200  1
  O  O29  1  0.41441900  0.30197000  0.91022100  1
  O  O30  1  0.22260100  0.60322800  0.95727100  1
  O  O31  1  0.64524300  0.72839600  0.82843800  1
