# generated using pymatgen
data_Li3V3(PO4)4
_symmetry_space_group_name_H-M   'P 1'
_cell_length_a   8.07245400
_cell_length_b   8.82876703
_cell_length_c   13.20032422
_cell_angle_alpha   85.10910428
_cell_angle_beta   89.81687038
_cell_angle_gamma   89.97238646
_symmetry_Int_Tables_number   1
_chemical_formula_structural   Li3V3(PO4)4
_chemical_formula_sum   'Li9 V9 P12 O48'
_cell_volume   937.35433342
_cell_formula_units_Z   3
loop_
 _symmetry_equiv_pos_site_id
 _symmetry_equiv_pos_as_xyz
  1  'x, y, z'
loop_
 _atom_site_type_symbol
 _atom_site_label
 _atom_site_symmetry_multiplicity
 _atom_site_fract_x
 _atom_site_fract_y
 _atom_site_fract_z
 _atom_site_occupancy
  Li  Li0  1  0.86192300  0.77197200  0.83677500  1
  Li  Li1  1  0.13862300  0.89671200  0.49821000  1
  Li  Li2  1  0.63770000  0.25906500  0.83704700  1
  Li  Li3  1  0.63223500  0.59424200  0.50592700  1
  Li  Li4  1  0.64066300  0.94115800  0.16808000  1
  Li  Li5  1  0.36613300  0.07490200  0.82594500  1
  Li  Li6  1  0.36565900  0.40492500  0.49913000  1
  Li  Li7  1  0.86804700  0.42714000  0.16700100  1
  Li  Li8  1  0.13321600  0.23762900  0.16373800  1
  V  V9  1  0.51429200  0.66788500  0.83274500  1
  V  V10  1  0.49058500  0.99626100  0.50127300  1
  V  V11  1  0.14371400  0.56137000  0.83023300  1
  V  V12  1  0.99538200  0.16226500  0.83275000  1
  V  V13  1  0.00180300  0.50531300  0.50419000  1
  V  V14  1  0.98786900  0.83816200  0.16790000  1
  V  V15  1  0.35843500  0.73019200  0.16551800  1
  V  V16  1  0.85182800  0.10081600  0.50150800  1
  V  V17  1  0.50645500  0.32688700  0.16276300  1
  P  P18  1  0.20416600  0.85203100  0.94274000  1
  P  P19  1  0.69597700  0.98209800  0.72384000  1
  P  P20  1  0.31676500  0.35182400  0.94884700  1
  P  P21  1  0.30654100  0.68531000  0.61152700  1
  P  P22  1  0.80646400  0.47760400  0.72053100  1
  P  P23  1  0.80031400  0.81109400  0.38843600  1
  P  P24  1  0.19003900  0.19074300  0.61328400  1
  P  P25  1  0.18314700  0.51975600  0.28332000  1
  P  P26  1  0.68257300  0.31403300  0.38317100  1
  P  P27  1  0.69480800  0.64470700  0.05350600  1
  P  P28  1  0.30249300  0.02011300  0.27988400  1
  P  P29  1  0.81229600  0.14932900  0.05225200  1
  O  O30  1  0.87489300  0.99414900  0.76683500  1
  O  O31  1  0.37849400  0.83820400  0.89703900  1
  O  O32  1  0.08207000  0.73609900  0.89966100  1
  O  O33  1  0.69537100  0.67849100  0.93588500  1
  O  O34  1  0.64899900  0.81276000  0.74256500  1
  O  O35  1  0.35796100  0.52476100  0.91799100  1
  O  O36  1  0.35836500  0.85511400  0.59127800  1
  O  O37  1  0.30407100  0.65447500  0.73425700  1
  O  O38  1  0.92876800  0.58765900  0.76823600  1
  O  O39  1  0.30567600  0.98879500  0.39698300  1
  O  O40  1  0.91984800  0.92858200  0.43485700  1
  O  O41  1  0.13533700  0.35097300  0.89664300  1
  O  O42  1  0.63226900  0.49756300  0.76810400  1
  O  O43  1  0.62719500  0.82228100  0.43650300  1
  O  O44  1  0.12773900  0.67693600  0.56943200  1
  O  O45  1  0.42921400  0.24269600  0.90247700  1
  O  O46  1  0.81213300  0.16898900  0.93316100  1
  O  O47  1  0.42675700  0.57482600  0.57253000  1
  O  O48  1  0.80956600  0.50916300  0.60341400  1
  O  O49  1  0.42190200  0.90249700  0.23316200  1
  O  O50  1  0.85933100  0.31128900  0.74786500  1
  O  O51  1  0.80306800  0.84325300  0.27165200  1
  O  O52  1  0.86786900  0.64903200  0.41682600  1
  O  O53  1  0.85886100  0.97821300  0.08270700  1
  O  O54  1  0.13974000  0.01396100  0.91983500  1
  O  O55  1  0.13550700  0.35850600  0.58657700  1
  O  O56  1  0.18509000  0.15882300  0.73064600  1
  O  O57  1  0.13863400  0.69187500  0.24686200  1
  O  O58  1  0.57400700  0.09120700  0.76232900  1
  O  O59  1  0.19260500  0.50329900  0.39991300  1
  O  O60  1  0.56985900  0.42506400  0.42784900  1
  O  O61  1  0.20132100  0.81450700  0.06289000  1
  O  O62  1  0.57208300  0.75592800  0.09949300  1
  O  O63  1  0.36311100  0.17348400  0.56591100  1
  O  O64  1  0.86219900  0.31163600  0.43727200  1
  O  O65  1  0.36437800  0.52047300  0.23098800  1
  O  O66  1  0.86788600  0.66093300  0.10071900  1
  O  O67  1  0.06689300  0.08185800  0.56508600  1
  O  O68  1  0.69881800  0.01455900  0.60100900  1
  O  O69  1  0.07076700  0.40765700  0.24009700  1
  O  O70  1  0.69442600  0.33526800  0.26654400  1
  O  O71  1  0.63724800  0.14117000  0.41432900  1
  O  O72  1  0.63735400  0.47857300  0.07986500  1
  O  O73  1  0.36924500  0.18188800  0.24977800  1
  O  O74  1  0.30890700  0.33014600  0.06581900  1
  O  O75  1  0.93209200  0.25899700  0.09349000  1
  O  O76  1  0.63330600  0.16000900  0.09731000  1
  O  O77  1  0.12862400  0.00784700  0.23325300  1
