# generated using pymatgen
data_LiMnPO4
_symmetry_space_group_name_H-M   'P 1'
_cell_length_a   10.29236400
_cell_length_b   5.13934500
_cell_length_c   6.91101102
_cell_angle_alpha   89.83113044
_cell_angle_beta   90.00000000
_cell_angle_gamma   90.00000000
_symmetry_Int_Tables_number   1
_chemical_formula_structural   LiMnPO4
_chemical_formula_sum   'Li4 Mn4 P4 O16'
_cell_volume   365.56331636
_cell_formula_units_Z   4
loop_
 _symmetry_equiv_pos_site_id
 _symmetry_equiv_pos_as_xyz
  1  'x, y, z'
loop_
 _atom_site_type_symbol
 _atom_site_label
 _atom_site_symmetry_multiplicity
 _atom_site_fract_x
 _atom_site_fract_y
 _atom_site_fract_z
 _atom_site_occupancy
  Li  Li0  1  0.84603900  0.19622700  0.00079600  1
  Li  Li1  1  0.34603900  0.30377300  0.49920400  1
  Li  Li2  1  0.65396100  0.69622700  0.50079600  1
  Li  Li3  1  0.15396100  0.80377300  0.99920400  1
  Mn  Mn4  1  0.84745900  0.19887000  0.49975800  1
  Mn  Mn5  1  0.34745900  0.30113000  0.00024200  1
  Mn  Mn6  1  0.65254100  0.69887000  0.99975800  1
  Mn  Mn7  1  0.15254100  0.80113000  0.50024200  1
  P  P8  1  0.40421000  0.80505100  0.25289400  1
  P  P9  1  0.90421000  0.69494900  0.24710600  1
  P  P10  1  0.09579000  0.30505100  0.75289400  1
  P  P11  1  0.59579000  0.19494900  0.74710600  1
  O  O12  1  0.62095800  0.89591800  0.74482400  1
  O  O13  1  0.83902800  0.81936900  0.06656400  1
  O  O14  1  0.84216500  0.80685000  0.43593600  1
  O  O15  1  0.05208100  0.75525100  0.24470200  1
  O  O16  1  0.37904200  0.10408200  0.25517600  1
  O  O17  1  0.16097200  0.18063100  0.93343600  1
  O  O18  1  0.15783500  0.19315000  0.56406400  1
  O  O19  1  0.94791900  0.24474900  0.75529800  1
  O  O20  1  0.44791900  0.25525100  0.74470200  1
  O  O21  1  0.65783500  0.30685000  0.93593600  1
  O  O22  1  0.66097200  0.31936900  0.56656400  1
  O  O23  1  0.87904200  0.39591800  0.24482400  1
  O  O24  1  0.12095800  0.60408200  0.75517600  1
  O  O25  1  0.33902800  0.68063100  0.43343600  1
  O  O26  1  0.34216500  0.69315000  0.06406400  1
  O  O27  1  0.55208100  0.74474900  0.25529800  1
