# generated using pymatgen
data_Li3V(PO4)2
_symmetry_space_group_name_H-M   'P 1'
_cell_length_a   17.95289300
_cell_length_b   4.92223000
_cell_length_c   7.89951279
_cell_angle_alpha   54.34013911
_cell_angle_beta   90.00000000
_cell_angle_gamma   90.00000000
_symmetry_Int_Tables_number   1
_chemical_formula_structural   Li3V(PO4)2
_chemical_formula_sum   'Li12 V4 P8 O32'
_cell_volume   567.17335084
_cell_formula_units_Z   4
loop_
 _symmetry_equiv_pos_site_id
 _symmetry_equiv_pos_as_xyz
  1  'x, y, z'
loop_
 _atom_site_type_symbol
 _atom_site_label
 _atom_site_symmetry_multiplicity
 _atom_site_fract_x
 _atom_site_fract_y
 _atom_site_fract_z
 _atom_site_occupancy
  Li  Li0  1  0.12033700  0.28424200  0.49754300  1
  Li  Li1  1  0.44771200  0.97489900  0.78765700  1
  Li  Li2  1  0.37966300  0.28424200  0.99754300  1
  Li  Li3  1  0.05228800  0.97489900  0.28765700  1
  Li  Li4  1  0.94771200  0.02510100  0.71234300  1
  Li  Li5  1  0.87966300  0.71575800  0.50245700  1
  Li  Li6  1  0.80174400  0.37958700  0.31069100  1
  Li  Li7  1  0.55228800  0.02510100  0.21234300  1
  Li  Li8  1  0.69825600  0.37958700  0.81069100  1
  Li  Li9  1  0.30174400  0.62041300  0.18930900  1
  Li  Li10  1  0.62033700  0.71575800  0.00245700  1
  Li  Li11  1  0.19825600  0.62041300  0.68930900  1
  V  V12  1  0.37286400  0.81422000  0.48477400  1
  V  V13  1  0.62713600  0.18578000  0.51522600  1
  V  V14  1  0.87286400  0.18578000  0.01522600  1
  V  V15  1  0.12713600  0.81422000  0.98477400  1
  P  P16  1  0.53558100  0.49338800  0.72969400  1
  P  P17  1  0.78528900  0.89058000  0.78656300  1
  P  P18  1  0.28528900  0.10942000  0.71343700  1
  P  P19  1  0.96441900  0.49338800  0.22969400  1
  P  P20  1  0.46441900  0.50661200  0.27030600  1
  P  P21  1  0.71471100  0.89058000  0.28656300  1
  P  P22  1  0.03558100  0.50661200  0.77030600  1
  P  P23  1  0.21471100  0.10942000  0.21343700  1
  O  O24  1  0.93483900  0.44488700  0.42502200  1
  O  O25  1  0.30950600  0.45515300  0.51219500  1
  O  O26  1  0.56628900  0.82578200  0.53221400  1
  O  O27  1  0.19855500  0.82703800  0.18366300  1
  O  O28  1  0.32739200  0.03535300  0.90315400  1
  O  O29  1  0.69855500  0.17296200  0.31633700  1
  O  O30  1  0.19049400  0.45515300  0.01219500  1
  O  O31  1  0.69049400  0.54484700  0.48780500  1
  O  O32  1  0.80073600  0.85658000  0.26579900  1
  O  O33  1  0.69926400  0.85658000  0.76579900  1
  O  O34  1  0.43371100  0.17421800  0.46778600  1
  O  O35  1  0.82739200  0.96464700  0.59684600  1
  O  O36  1  0.80950600  0.54484700  0.98780500  1
  O  O37  1  0.93971600  0.18893900  0.22615000  1
  O  O38  1  0.80144500  0.17296200  0.81633700  1
  O  O39  1  0.17260800  0.03535300  0.40315400  1
  O  O40  1  0.30144500  0.82703800  0.68366300  1
  O  O41  1  0.44818700  0.49188900  0.72634000  1
  O  O42  1  0.56028400  0.18893900  0.72615000  1
  O  O43  1  0.06628900  0.17421800  0.96778600  1
  O  O44  1  0.06516100  0.55511300  0.57497800  1
  O  O45  1  0.06028400  0.81106100  0.77385000  1
  O  O46  1  0.30073600  0.14342000  0.23420100  1
  O  O47  1  0.43483900  0.55511300  0.07497800  1
  O  O48  1  0.94818700  0.50811100  0.77366000  1
  O  O49  1  0.93371100  0.82578200  0.03221400  1
  O  O50  1  0.05181300  0.49188900  0.22634000  1
  O  O51  1  0.56516100  0.44488700  0.92502200  1
  O  O52  1  0.67260800  0.96464700  0.09684600  1
  O  O53  1  0.19926400  0.14342000  0.73420100  1
  O  O54  1  0.43971600  0.81106100  0.27385000  1
  O  O55  1  0.55181300  0.50811100  0.27366000  1
