# generated using pymatgen
data_LiSn2(PO4)3
_symmetry_space_group_name_H-M   'P 1'
_cell_length_a   8.52997677
_cell_length_b   9.16473317
_cell_length_c   14.70908275
_cell_angle_alpha   74.42373016
_cell_angle_beta   89.74444727
_cell_angle_gamma   62.10605838
_symmetry_Int_Tables_number   1
_chemical_formula_structural   LiSn2(PO4)3
_chemical_formula_sum   'Li4 Sn8 P12 O48'
_cell_volume   968.99401240
_cell_formula_units_Z   4
loop_
 _symmetry_equiv_pos_site_id
 _symmetry_equiv_pos_as_xyz
  1  'x, y, z'
loop_
 _atom_site_type_symbol
 _atom_site_label
 _atom_site_symmetry_multiplicity
 _atom_site_fract_x
 _atom_site_fract_y
 _atom_site_fract_z
 _atom_site_occupancy
  Li  Li0  1  0.72422751  0.87402350  0.65599282  1
  Li  Li1  1  0.81712391  0.12328468  0.12159407  1
  Li  Li2  1  0.18287609  0.87671532  0.87840593  1
  Li  Li3  1  0.27577249  0.12597650  0.34400718  1
  O  O4  1  0.90132301  0.88592445  0.42346633  1
  O  O5  1  0.93558196  0.80350371  0.76523270  1
  O  O6  1  0.91607807  0.57623383  0.89673582  1
  O  O7  1  0.82348511  0.73168928  0.56911811  1
  O  O8  1  0.73578023  0.89362765  0.89229512  1
  O  O9  1  0.78245821  0.79696720  0.24125451  1
  O  O10  1  0.98707545  0.26659493  0.87190861  1
  O  O11  1  0.89561173  0.41232467  0.69361677  1
  O  O12  1  0.88279125  0.43050848  0.48735990  1
  O  O13  1  0.93164909  0.26427139  0.06527907  1
  O  O14  1  0.99596240  0.08808274  0.77083061  1
  O  O15  1  0.92418956  0.20254665  0.41238919  1
  O  O16  1  0.53265139  0.89084587  0.73579333  1
  O  O17  1  0.56470138  0.80595883  0.08316965  1
  O  O18  1  0.56684992  0.73469321  0.44320655  1
  O  O19  1  0.62480912  0.57400712  0.01035474  1
  O  O20  1  0.59802600  0.57749668  0.81082590  1
  O  O21  1  0.51634440  0.72447658  0.63291128  1
  O  O22  1  0.44980834  0.79339097  0.27179986  1
  O  O23  1  0.39945088  0.88808375  0.91656095  1
  O  O24  1  0.68521979  0.26368857  0.94720719  1
  O  O25  1  0.71597902  0.19441828  0.25280309  1
  O  O26  1  0.59992576  0.41160635  0.59747160  1
  O  O27  1  0.75843727  0.08763921  0.61168812  1
  O  O28  1  0.24156273  0.91236079  0.38831188  1
  O  O29  1  0.40007424  0.58839365  0.40252840  1
  O  O30  1  0.28402098  0.80558172  0.74719691  1
  O  O31  1  0.31478021  0.73631143  0.05279281  1
  O  O32  1  0.60054912  0.11191625  0.08343905  1
  O  O33  1  0.55019166  0.20660903  0.72820014  1
  O  O34  1  0.48365560  0.27552342  0.36708872  1
  O  O35  1  0.40197400  0.42250332  0.18917410  1
  O  O36  1  0.37519088  0.42599288  0.98964526  1
  O  O37  1  0.43315008  0.26530679  0.55679345  1
  O  O38  1  0.43529862  0.19404117  0.91683035  1
  O  O39  1  0.46734861  0.10915413  0.26420667  1
  O  O40  1  0.07581044  0.79745335  0.58761081  1
  O  O41  1  0.00403760  0.91191726  0.22916939  1
  O  O42  1  0.06835091  0.73572861  0.93472093  1
  O  O43  1  0.11720875  0.56949152  0.51264010  1
  O  O44  1  0.10438827  0.58767533  0.30638323  1
  O  O45  1  0.01292455  0.73340507  0.12809139  1
  O  O46  1  0.21754179  0.20303280  0.75874549  1
  O  O47  1  0.26421977  0.10637235  0.10770488  1
  O  O48  1  0.17651489  0.26831072  0.43088189  1
  O  O49  1  0.08392193  0.42376617  0.10326418  1
  O  O50  1  0.06441804  0.19649629  0.23476730  1
  O  O51  1  0.09867699  0.11407555  0.57653367  1
  P  P52  1  0.98263530  0.74624795  0.52192926  1
  P  P53  1  0.97735614  0.75302812  0.22811139  1
  P  P54  1  0.91007762  0.75237493  0.87236447  1
  P  P55  1  0.48295136  0.74732450  0.73227587  1
  P  P56  1  0.48021173  0.74921603  0.01785411  1
  P  P57  1  0.41612962  0.75276431  0.37638038  1
  P  P58  1  0.58387038  0.24723569  0.62361962  1
  P  P59  1  0.51978827  0.25078397  0.98214589  1
  P  P60  1  0.51704864  0.25267550  0.26772413  1
  P  P61  1  0.08992238  0.24762507  0.12763553  1
  P  P62  1  0.02264386  0.24697188  0.77188861  1
  P  P63  1  0.01736470  0.25375205  0.47807074  1
  Sn  Sn64  1  0.78728084  0.43207721  0.92930364  1
  Sn  Sn65  1  0.71732715  0.56449588  0.57079189  1
  Sn  Sn66  1  0.52352341  0.94725405  0.17503790  1
  Sn  Sn67  1  0.97233052  0.04417218  0.32916935  1
  Sn  Sn68  1  0.02766948  0.95582782  0.67083065  1
  Sn  Sn69  1  0.47647659  0.05274595  0.82496210  1
  Sn  Sn70  1  0.28267285  0.43550412  0.42920811  1
  Sn  Sn71  1  0.21271916  0.56792279  0.07069636  1
