# generated using pymatgen
data_LiCoPO4
_symmetry_space_group_name_H-M   'P 1'
_cell_length_a   5.03629500
_cell_length_b   10.19458800
_cell_length_c   6.80037500
_cell_angle_alpha   89.99668504
_cell_angle_beta   89.99985044
_cell_angle_gamma   90.00042972
_symmetry_Int_Tables_number   1
_chemical_formula_structural   LiCoPO4
_chemical_formula_sum   'Li4 Co4 P4 O16'
_cell_volume   349.15133080
_cell_formula_units_Z   4
loop_
 _symmetry_equiv_pos_site_id
 _symmetry_equiv_pos_as_xyz
  1  'x, y, z'
loop_
 _atom_site_type_symbol
 _atom_site_label
 _atom_site_symmetry_multiplicity
 _atom_site_fract_x
 _atom_site_fract_y
 _atom_site_fract_z
 _atom_site_occupancy
  Li  Li0  1  0.68720300  0.15408100  0.71290400  1
  Li  Li1  1  0.18719900  0.34592500  0.21291600  1
  Li  Li2  1  0.31278600  0.84592100  0.21290100  1
  Li  Li3  1  0.81278300  0.65407600  0.71290400  1
  Co  Co4  1  0.18681600  0.34528000  0.71544700  1
  Co  Co5  1  0.68686300  0.15470300  0.21540300  1
  Co  Co6  1  0.81317100  0.65470600  0.21545400  1
  Co  Co7  1  0.31317900  0.84528100  0.71544900  1
  P  P8  1  0.18465100  0.09510600  0.96247800  1
  P  P9  1  0.68458700  0.40492800  0.46258100  1
  P  P10  1  0.31541900  0.59526000  0.96259000  1
  P  P11  1  0.81541400  0.90469500  0.46257500  1
  O  O12  1  0.19955300  0.66109700  0.77452900  1
  O  O13  1  0.30058700  0.16097500  0.77445700  1
  O  O14  1  0.80052500  0.33905500  0.27456100  1
  O  O15  1  0.69958800  0.83887000  0.27452100  1
  O  O16  1  0.25584500  0.94690800  0.96061700  1
  O  O17  1  0.24412200  0.44701500  0.96070000  1
  O  O18  1  0.75583500  0.55311200  0.46063900  1
  O  O19  1  0.74411500  0.05294200  0.46068600  1
  O  O20  1  0.69826500  0.83955300  0.65058700  1
  O  O21  1  0.19825000  0.66040700  0.15058200  1
  O  O22  1  0.80161200  0.33965300  0.65058200  1
  O  O23  1  0.30157300  0.16038600  0.15050600  1
  O  O24  1  0.12135700  0.88317100  0.46522500  1
  O  O25  1  0.37864400  0.38333500  0.46515900  1
  O  O26  1  0.62135500  0.61681800  0.96524900  1
  O  O27  1  0.87870500  0.11673900  0.96510300  1
