# generated using pymatgen
data_LiCr(PO3)4
_symmetry_space_group_name_H-M   'P 1'
_cell_length_a   10.48125291
_cell_length_b   10.48125291
_cell_length_c   5.16811749
_cell_angle_alpha   81.82361480
_cell_angle_beta   81.82361480
_cell_angle_gamma   71.28487961
_symmetry_Int_Tables_number   1
_chemical_formula_structural   LiCr(PO3)4
_chemical_formula_sum   'Li2 Cr2 P8 O24'
_cell_volume   529.43409684
_cell_formula_units_Z   2
loop_
 _symmetry_equiv_pos_site_id
 _symmetry_equiv_pos_as_xyz
  1  'x, y, z'
loop_
 _atom_site_type_symbol
 _atom_site_label
 _atom_site_symmetry_multiplicity
 _atom_site_fract_x
 _atom_site_fract_y
 _atom_site_fract_z
 _atom_site_occupancy
  Li  Li0  1  0.41738200  0.41738200  0.56415500  1
  Li  Li1  1  0.58261800  0.58261800  0.43584500  1
  Cr  Cr2  1  0.00000000  0.50000000  0.00000000  1
  Cr  Cr3  1  0.50000000  0.00000000  0.00000000  1
  P  P4  1  0.06066100  0.30401800  0.53306000  1
  P  P5  1  0.63312900  0.21178700  0.17456800  1
  P  P6  1  0.78821300  0.36687100  0.82543200  1
  P  P7  1  0.36687100  0.78821300  0.82543200  1
  P  P8  1  0.93933900  0.69598200  0.46694000  1
  P  P9  1  0.21178700  0.63312900  0.17456800  1
  P  P10  1  0.30401800  0.06066100  0.53306000  1
  P  P11  1  0.69598200  0.93933900  0.46694000  1
  O  O12  1  0.60262700  0.90682000  0.30609900  1
  O  O13  1  0.16334300  0.55551700  0.00383900  1
  O  O14  1  0.44448400  0.83665700  0.99616100  1
  O  O15  1  0.83665700  0.44448300  0.99616100  1
  O  O16  1  0.76573800  0.23426200  0.00000000  1
  O  O17  1  0.23426200  0.76573800  0.00000000  1
  O  O18  1  0.92244400  0.66575400  0.76072100  1
  O  O19  1  0.66575400  0.92244400  0.76072100  1
  O  O20  1  0.66992800  0.44060300  0.67892300  1
  O  O21  1  0.44060300  0.66992800  0.67892300  1
  O  O22  1  0.28896900  0.91419900  0.62618100  1
  O  O23  1  0.91419900  0.28896900  0.62618100  1
  O  O24  1  0.84937500  0.84937500  0.39332900  1
  O  O25  1  0.39737300  0.09318000  0.69390100  1
  O  O26  1  0.07755600  0.33424600  0.23927900  1
  O  O27  1  0.90682000  0.60262700  0.30609900  1
  O  O28  1  0.09318000  0.39737300  0.69390100  1
  O  O29  1  0.15062500  0.15062500  0.60667100  1
  O  O30  1  0.71103100  0.08580100  0.37381900  1
  O  O31  1  0.08580100  0.71103100  0.37381900  1
  O  O32  1  0.55939700  0.33007200  0.32107700  1
  O  O33  1  0.33007200  0.55939700  0.32107700  1
  O  O34  1  0.33424600  0.07755600  0.23927900  1
  O  O35  1  0.55551700  0.16334300  0.00383900  1
