# generated using pymatgen
data_Li2MnPCO7
_symmetry_space_group_name_H-M   'P 1'
_cell_length_a   6.29571500
_cell_length_b   8.58113163
_cell_length_c   10.35477455
_cell_angle_alpha   87.73958945
_cell_angle_beta   90.00000000
_cell_angle_gamma   90.00000000
_symmetry_Int_Tables_number   1
_chemical_formula_structural   Li2MnPCO7
_chemical_formula_sum   'Li8 Mn4 P4 C4 O28'
_cell_volume   558.97477414
_cell_formula_units_Z   4
loop_
 _symmetry_equiv_pos_site_id
 _symmetry_equiv_pos_as_xyz
  1  'x, y, z'
loop_
 _atom_site_type_symbol
 _atom_site_label
 _atom_site_symmetry_multiplicity
 _atom_site_fract_x
 _atom_site_fract_y
 _atom_site_fract_z
 _atom_site_occupancy
  Li  Li0  1  0.02070200  0.78663400  0.39031800  1
  Li  Li1  1  0.02070000  0.78663400  0.89031800  1
  Li  Li2  1  0.97929800  0.21336600  0.10968200  1
  Li  Li3  1  0.97929900  0.21336600  0.60968200  1
  Li  Li4  1  0.52070200  0.21336600  0.10968200  1
  Li  Li5  1  0.52070000  0.21336600  0.60968200  1
  Li  Li6  1  0.47929800  0.78663400  0.39031800  1
  Li  Li7  1  0.47929900  0.78663400  0.89031800  1
  Mn  Mn8  1  0.74999900  0.35176800  0.88670600  1
  Mn  Mn9  1  0.25000000  0.64823300  0.61329400  1
  Mn  Mn10  1  0.75000100  0.35178000  0.38671500  1
  Mn  Mn11  1  0.25000200  0.64822300  0.11329000  1
  P  P12  1  0.25000000  0.43203600  0.35386800  1
  P  P13  1  0.25000000  0.43203000  0.85386800  1
  P  P14  1  0.75000000  0.56796400  0.14613100  1
  P  P15  1  0.75000000  0.56796900  0.64613100  1
  C  C16  1  0.75000000  0.05489900  0.35959300  1
  C  C17  1  0.75000000  0.05489900  0.85959000  1
  C  C18  1  0.25000000  0.94510100  0.14040700  1
  C  C19  1  0.25000000  0.94510100  0.64040900  1
  O  O20  1  0.75000000  0.14072900  0.25393800  1
  O  O21  1  0.75000000  0.14073500  0.75394300  1
  O  O22  1  0.25000000  0.85927100  0.24606200  1
  O  O23  1  0.25000000  0.85926500  0.74605700  1
  O  O24  1  0.75000000  0.13525400  0.46764300  1
  O  O25  1  0.75000000  0.13525400  0.96764900  1
  O  O26  1  0.25000000  0.86474500  0.03235600  1
  O  O27  1  0.25000000  0.86474600  0.53235000  1
  O  O28  1  0.75000000  0.40152100  0.09480900  1
  O  O29  1  0.75000000  0.40151900  0.59480400  1
  O  O30  1  0.25000000  0.59847900  0.40519100  1
  O  O31  1  0.25000000  0.59848100  0.90519500  1
  O  O32  1  0.25000000  0.44496900  0.20212200  1
  O  O33  1  0.25000000  0.44497200  0.70212200  1
  O  O34  1  0.75000000  0.55503100  0.29787800  1
  O  O35  1  0.75000000  0.55502800  0.79787800  1
  O  O36  1  0.75000000  0.90723500  0.36623800  1
  O  O37  1  0.75000000  0.90723700  0.86625100  1
  O  O38  1  0.25000000  0.09276400  0.13376200  1
  O  O39  1  0.25000000  0.09276300  0.63374800  1
  O  O40  1  0.94337700  0.66450100  0.09771200  1
  O  O41  1  0.94338000  0.66449000  0.59771000  1
  O  O42  1  0.55662300  0.66450100  0.09771100  1
  O  O43  1  0.55662000  0.66449000  0.59771000  1
  O  O44  1  0.44337700  0.33549800  0.40228900  1
  O  O45  1  0.44338000  0.33550900  0.90229000  1
  O  O46  1  0.05662300  0.33549900  0.40228900  1
  O  O47  1  0.05662000  0.33550900  0.90229000  1
