# generated using pymatgen
data_LiPO3
_symmetry_space_group_name_H-M   'P 1'
_cell_length_a   17.30412300
_cell_length_b   5.41133100
_cell_length_c   9.00386549
_cell_angle_alpha   63.00597326
_cell_angle_beta   90.00000000
_cell_angle_gamma   90.00000000
_symmetry_Int_Tables_number   1
_chemical_formula_structural   LiPO3
_chemical_formula_sum   'Li12 P12 O36'
_cell_volume   751.25373118
_cell_formula_units_Z   12
loop_
 _symmetry_equiv_pos_site_id
 _symmetry_equiv_pos_as_xyz
  1  'x, y, z'
loop_
 _atom_site_type_symbol
 _atom_site_label
 _atom_site_symmetry_multiplicity
 _atom_site_fract_x
 _atom_site_fract_y
 _atom_site_fract_z
 _atom_site_occupancy
  Li  Li0  1  0.18971100  0.91763300  0.27452500  1
  Li  Li1  1  0.68971100  0.08236700  0.22547500  1
  Li  Li2  1  0.81028900  0.08236700  0.72547500  1
  Li  Li3  1  0.31028900  0.91763300  0.77452500  1
  Li  Li4  1  0.02100000  0.07512500  0.12896700  1
  Li  Li5  1  0.52100000  0.92487500  0.37103300  1
  Li  Li6  1  0.97900000  0.92487500  0.87103300  1
  Li  Li7  1  0.47900000  0.07512500  0.62896700  1
  Li  Li8  1  0.84340600  0.17583800  0.06246900  1
  Li  Li9  1  0.34340600  0.82416200  0.43753100  1
  Li  Li10  1  0.15659400  0.82416200  0.93753100  1
  Li  Li11  1  0.65659400  0.17583800  0.56246900  1
  P  P12  1  0.90159100  0.60418700  0.69381500  1
  P  P13  1  0.40159100  0.39581300  0.80618500  1
  P  P14  1  0.09840900  0.39581300  0.30618500  1
  P  P15  1  0.59840900  0.60418700  0.19381500  1
  P  P16  1  0.56322700  0.50523300  0.72030600  1
  P  P17  1  0.06322700  0.49476700  0.77969400  1
  P  P18  1  0.43677300  0.49476700  0.27969400  1
  P  P19  1  0.93677300  0.50523300  0.22030600  1
  P  P20  1  0.68930400  0.60763900  0.91051400  1
  P  P21  1  0.18930400  0.39236100  0.58948600  1
  P  P22  1  0.31069600  0.39236100  0.08948600  1
  P  P23  1  0.81069600  0.60763900  0.41051400  1
  O  O24  1  0.56676400  0.30812600  0.64537600  1
  O  O25  1  0.06676400  0.69187400  0.85462400  1
  O  O26  1  0.43323600  0.69187400  0.35462400  1
  O  O27  1  0.93323600  0.30812600  0.14537600  1
  O  O28  1  0.13042400  0.67967800  0.19403900  1
  O  O29  1  0.63042400  0.32032200  0.30596100  1
  O  O30  1  0.86957600  0.32032200  0.80596100  1
  O  O31  1  0.36957600  0.67967800  0.69403900  1
  O  O32  1  0.39650400  0.16980400  0.75335200  1
  O  O33  1  0.89650400  0.83019600  0.74664800  1
  O  O34  1  0.60349600  0.83019600  0.24664800  1
  O  O35  1  0.10349600  0.16980400  0.25335200  1
  O  O36  1  0.50879200  0.57410900  0.15127400  1
  O  O37  1  0.00879200  0.42589100  0.34872600  1
  O  O38  1  0.49120800  0.42589100  0.84872600  1
  O  O39  1  0.99120800  0.57410900  0.65127400  1
  O  O40  1  0.86755000  0.43029500  0.35198300  1
  O  O41  1  0.36755000  0.56970500  0.14801700  1
  O  O42  1  0.13245000  0.56970500  0.64801700  1
  O  O43  1  0.63245000  0.43029500  0.85198300  1
  O  O44  1  0.75639500  0.39804700  0.53208400  1
  O  O45  1  0.25639500  0.60195300  0.96791600  1
  O  O46  1  0.24360500  0.60195300  0.46791600  1
  O  O47  1  0.74360500  0.39804700  0.03208400  1
  O  O48  1  0.94026400  0.81224600  0.10467500  1
  O  O49  1  0.44026400  0.18775400  0.39532500  1
  O  O50  1  0.05973600  0.18775400  0.89532500  1
  O  O51  1  0.55973600  0.81224600  0.60467500  1
  O  O52  1  0.21766600  0.14057800  0.73867700  1
  O  O53  1  0.71766600  0.85942200  0.76132300  1
  O  O54  1  0.78233400  0.85942200  0.26132300  1
  O  O55  1  0.28233400  0.14057800  0.23867700  1
  O  O56  1  0.63205700  0.72326400  0.00753400  1
  O  O57  1  0.13205700  0.27673600  0.49246600  1
  O  O58  1  0.36794300  0.27673600  0.99246600  1
  O  O59  1  0.86794300  0.72326400  0.50753400  1
