# generated using pymatgen
data_Li3Cr2(PO4)3
_symmetry_space_group_name_H-M   'P 1'
_cell_length_a   8.49746725
_cell_length_b   8.49746725
_cell_length_c   6.34893837
_cell_angle_alpha   73.51538643
_cell_angle_beta   73.51538643
_cell_angle_gamma   92.06671546
_symmetry_Int_Tables_number   1
_chemical_formula_structural   Li3Cr2(PO4)3
_chemical_formula_sum   'Li6 Cr4 P6 O24'
_cell_volume   418.12284923
_cell_formula_units_Z   2
loop_
 _symmetry_equiv_pos_site_id
 _symmetry_equiv_pos_as_xyz
  1  'x, y, z'
loop_
 _atom_site_type_symbol
 _atom_site_label
 _atom_site_symmetry_multiplicity
 _atom_site_fract_x
 _atom_site_fract_y
 _atom_site_fract_z
 _atom_site_occupancy
  Li  Li0  1  0.27967500  0.72032500  0.75000000  1
  Li  Li1  1  0.50000000  0.50000000  0.00000000  1
  Li  Li2  1  0.72032500  0.27967500  0.25000000  1
  Li  Li3  1  0.02657300  0.97342700  0.25000000  1
  Li  Li4  1  0.50000000  0.50000000  0.50000000  1
  Li  Li5  1  0.97342700  0.02657300  0.75000000  1
  Cr  Cr6  1  0.05803400  0.38050900  0.36152000  1
  Cr  Cr7  1  0.38050900  0.05803400  0.86152000  1
  Cr  Cr8  1  0.61949100  0.94196600  0.13848000  1
  Cr  Cr9  1  0.94196600  0.61949100  0.63848000  1
  P  P10  1  0.86041400  0.65499100  0.13235100  1
  P  P11  1  0.71599200  0.28400800  0.75000000  1
  P  P12  1  0.28400800  0.71599200  0.25000000  1
  P  P13  1  0.13958600  0.34500900  0.86764900  1
  P  P14  1  0.65499100  0.86041400  0.63235100  1
  P  P15  1  0.34500900  0.13958600  0.36764900  1
  O  O16  1  0.74686300  0.16285700  0.96700900  1
  O  O17  1  0.40540700  0.05147900  0.17307600  1
  O  O18  1  0.15838800  0.16580200  0.39453200  1
  O  O19  1  0.00928000  0.34121200  0.09757000  1
  O  O20  1  0.99072000  0.65878800  0.90243000  1
  O  O21  1  0.84161200  0.83419800  0.60546800  1
  O  O22  1  0.59459300  0.94852100  0.82692400  1
  O  O23  1  0.65878800  0.99072000  0.40243000  1
  O  O24  1  0.83419800  0.84161200  0.10546800  1
  O  O25  1  0.94852100  0.59459300  0.32692400  1
  O  O26  1  0.53856300  0.70338100  0.69968800  1
  O  O27  1  0.16580200  0.15838800  0.89453200  1
  O  O28  1  0.70338100  0.53856300  0.19968800  1
  O  O29  1  0.83714300  0.25313700  0.53299100  1
  O  O30  1  0.73684400  0.46046100  0.77120800  1
  O  O31  1  0.46046100  0.73684400  0.27120800  1
  O  O32  1  0.53953900  0.26315600  0.72879200  1
  O  O33  1  0.25313700  0.83714300  0.03299100  1
  O  O34  1  0.16285700  0.74686300  0.46700900  1
  O  O35  1  0.29661900  0.46143700  0.80031200  1
  O  O36  1  0.26315600  0.53953900  0.22879200  1
  O  O37  1  0.46143700  0.29661900  0.30031200  1
  O  O38  1  0.05147900  0.40540700  0.67307600  1
  O  O39  1  0.34121200  0.00928000  0.59757000  1
