# generated using pymatgen
data_Li3Cr2(PO4)3
_symmetry_space_group_name_H-M   'P 1'
_cell_length_a   9.73856543
_cell_length_b   9.73856543
_cell_length_c   9.67823153
_cell_angle_alpha   85.95794858
_cell_angle_beta   85.95794858
_cell_angle_gamma   85.77968649
_symmetry_Int_Tables_number   1
_chemical_formula_structural   Li3Cr2(PO4)3
_chemical_formula_sum   'Li12 Cr8 P12 O48'
_cell_volume   911.14494585
_cell_formula_units_Z   4
loop_
 _symmetry_equiv_pos_site_id
 _symmetry_equiv_pos_as_xyz
  1  'x, y, z'
loop_
 _atom_site_type_symbol
 _atom_site_label
 _atom_site_symmetry_multiplicity
 _atom_site_fract_x
 _atom_site_fract_y
 _atom_site_fract_z
 _atom_site_occupancy
  Li  Li0  1  0.23866600  0.03310400  0.39541000  1
  Li  Li1  1  0.96689600  0.76133400  0.60459000  1
  Li  Li2  1  0.73181300  0.78078300  0.17530700  1
  Li  Li3  1  0.50240400  0.97733100  0.26768800  1
  Li  Li4  1  0.75279400  0.62208000  0.82832500  1
  Li  Li5  1  0.56768500  0.76824800  0.47370900  1
  Li  Li6  1  0.91177600  0.32614100  0.97761100  1
  Li  Li7  1  0.67385900  0.08822400  0.02238900  1
  Li  Li8  1  0.23175200  0.43231500  0.52629100  1
  Li  Li9  1  0.21921700  0.26818700  0.82469300  1
  Li  Li10  1  0.02266900  0.49759600  0.73231200  1
  Li  Li11  1  0.37792000  0.24720600  0.17167500  1
  Cr  Cr12  1  0.25291600  0.96841100  0.78285600  1
  Cr  Cr13  1  0.96395200  0.24792800  0.27979100  1
  Cr  Cr14  1  0.46671300  0.53328700  0.00000000  1
  Cr  Cr15  1  0.24996200  0.75003800  0.00000000  1
  Cr  Cr16  1  0.74943500  0.25056500  0.50000000  1
  Cr  Cr17  1  0.53147100  0.46852900  0.50000000  1
  Cr  Cr18  1  0.75207200  0.03604800  0.72020900  1
  Cr  Cr19  1  0.03158900  0.74708400  0.21714400  1
  P  P20  1  0.44860700  0.15630500  0.57441200  1
  P  P21  1  0.65021700  0.32508100  0.19959100  1
  P  P22  1  0.34268800  0.67533700  0.30232400  1
  P  P23  1  0.32466300  0.65731200  0.69767600  1
  P  P24  1  0.67491900  0.34978300  0.80040900  1
  P  P25  1  0.84369500  0.55139300  0.42558800  1
  P  P26  1  0.55104300  0.84711700  0.93007000  1
  P  P27  1  0.82283400  0.94851000  0.40561500  1
  P  P28  1  0.16967800  0.04968500  0.09912500  1
  P  P29  1  0.05149000  0.17716600  0.59438500  1
  P  P30  1  0.15288300  0.44895700  0.06993000  1
  P  P31  1  0.95031500  0.83032200  0.90087500  1
  O  O32  1  0.09149700  0.40264400  0.94037800  1
  O  O33  1  0.61789600  0.90838300  0.79308400  1
  O  O34  1  0.69688000  0.89744900  0.34354000  1
  O  O35  1  0.90930800  0.80203500  0.05808800  1
  O  O36  1  0.91448800  0.71708300  0.81042800  1
  O  O37  1  0.81911200  0.91524400  0.56635600  1
  O  O38  1  0.96205700  0.88239400  0.34849000  1
  O  O39  1  0.88175300  0.97358300  0.85727300  1
  O  O40  1  0.02641700  0.11824700  0.14272700  1
  O  O41  1  0.11760600  0.03794300  0.65151000  1
  O  O42  1  0.08475600  0.18088800  0.43364400  1
  O  O43  1  0.28291700  0.08551200  0.18957200  1
  O  O44  1  0.19796500  0.09069200  0.94191200  1
  O  O45  1  0.10255100  0.30312000  0.65646000  1
  O  O46  1  0.09161700  0.38210400  0.20691600  1
  O  O47  1  0.41052100  0.08362000  0.45061000  1
  O  O48  1  0.37702400  0.10888900  0.71619100  1
  O  O49  1  0.91638000  0.58947900  0.54939000  1
  O  O50  1  0.31222100  0.41118100  0.06433900  1
  O  O51  1  0.12204800  0.61138600  0.07685300  1
  O  O52  1  0.57594400  0.20216100  0.15825800  1
  O  O53  1  0.41157900  0.31591200  0.56105700  1
  O  O54  1  0.61219600  0.12587000  0.58593500  1
  O  O55  1  0.20532100  0.58087000  0.65472600  1
  O  O56  1  0.18455500  0.69019600  0.33415100  1
  O  O57  1  0.39027400  0.53263900  0.37284100  1
  O  O58  1  0.82626000  0.11134800  0.37151700  1
  O  O59  1  0.62233500  0.33165900  0.36358400  1
  O  O60  1  0.69313300  0.19193200  0.84177000  1
  O  O61  1  0.37607000  0.66679600  0.13722400  1
  O  O62  1  0.16185400  0.88655300  0.12508500  1
  O  O63  1  0.59438400  0.46468000  0.13590600  1
  O  O64  1  0.53532000  0.40561600  0.86409400  1
  O  O65  1  0.11344700  0.83814600  0.87491500  1
  O  O66  1  0.33320400  0.62393000  0.86277600  1
  O  O67  1  0.80806800  0.30686700  0.15823000  1
  O  O68  1  0.66834100  0.37766500  0.63641600  1
  O  O69  1  0.88865200  0.17374000  0.62848300  1
  O  O70  1  0.46736100  0.60972600  0.62715900  1
  O  O71  1  0.30980400  0.81544500  0.66584900  1
  O  O72  1  0.89111100  0.62297600  0.28380900  1
  O  O73  1  0.87413000  0.38780400  0.41406500  1
  O  O74  1  0.68408800  0.58842100  0.43894300  1
  O  O75  1  0.79783900  0.42405600  0.84174200  1
  O  O76  1  0.38861400  0.87795200  0.92314700  1
  O  O77  1  0.58881900  0.68777900  0.93566100  1
  O  O78  1  0.59735600  0.90850300  0.05962200  1
  O  O79  1  0.41913000  0.79467900  0.34527400  1
