# generated using pymatgen
data_Li2V3(P2O7)2
_symmetry_space_group_name_H-M   'P 1'
_cell_length_a   7.93803200
_cell_length_b   7.43347900
_cell_length_c   9.61929555
_cell_angle_alpha   69.72492848
_cell_angle_beta   90.00000000
_cell_angle_gamma   90.00000000
_symmetry_Int_Tables_number   1
_chemical_formula_structural   Li2V3(P2O7)2
_chemical_formula_sum   'Li4 V6 P8 O28'
_cell_volume   532.43855305
_cell_formula_units_Z   2
loop_
 _symmetry_equiv_pos_site_id
 _symmetry_equiv_pos_as_xyz
  1  'x, y, z'
loop_
 _atom_site_type_symbol
 _atom_site_label
 _atom_site_symmetry_multiplicity
 _atom_site_fract_x
 _atom_site_fract_y
 _atom_site_fract_z
 _atom_site_occupancy
  Li  Li0  1  0.58006700  0.70600100  0.85722600  1
  Li  Li1  1  0.91993300  0.70600100  0.35722600  1
  Li  Li2  1  0.08006700  0.29399900  0.64277400  1
  Li  Li3  1  0.41993300  0.29399900  0.14277400  1
  V  V4  1  0.00000000  0.00000000  0.50000000  1
  V  V5  1  0.63030100  0.80937300  0.52091800  1
  V  V6  1  0.50000000  0.00000000  0.00000000  1
  V  V7  1  0.86969900  0.80937300  0.02091800  1
  V  V8  1  0.13030100  0.19062700  0.97908200  1
  V  V9  1  0.36969900  0.19062700  0.47908200  1
  P  P10  1  0.20336800  0.88035100  0.80768800  1
  P  P11  1  0.29663200  0.88035100  0.30768800  1
  P  P12  1  0.94775900  0.59821900  0.78139600  1
  P  P13  1  0.44775900  0.40178100  0.71860400  1
  P  P14  1  0.55224100  0.59821900  0.28139600  1
  P  P15  1  0.05224100  0.40178100  0.21860400  1
  P  P16  1  0.70336800  0.11964900  0.69231200  1
  P  P17  1  0.79663200  0.11964900  0.19231200  1
  O  O18  1  0.70440900  0.98915300  0.85769300  1
  O  O19  1  0.07883400  0.96089200  0.89447000  1
  O  O20  1  0.37519200  0.84298400  0.88091700  1
  O  O21  1  0.79559100  0.98915300  0.35769300  1
  O  O22  1  0.42116600  0.96089200  0.39447000  1
  O  O23  1  0.13118500  0.68001700  0.80737800  1
  O  O24  1  0.82747000  0.62139000  0.89829000  1
  O  O25  1  0.12480800  0.84298400  0.38091700  1
  O  O26  1  0.88820400  0.72159900  0.62244100  1
  O  O27  1  0.49119400  0.60784100  0.70313200  1
  O  O28  1  0.36881500  0.68001700  0.30737800  1
  O  O29  1  0.67253000  0.62139000  0.39829000  1
  O  O30  1  0.61179600  0.72159900  0.12244100  1
  O  O31  1  0.99119400  0.39215900  0.79686800  1
  O  O32  1  0.00880600  0.60784100  0.20313200  1
  O  O33  1  0.38820400  0.27840100  0.87755900  1
  O  O34  1  0.32747000  0.37861000  0.60171000  1
  O  O35  1  0.63118500  0.31998300  0.69262200  1
  O  O36  1  0.50880600  0.39215900  0.29686800  1
  O  O37  1  0.11179600  0.27840100  0.37755900  1
  O  O38  1  0.87519200  0.15701600  0.61908300  1
  O  O39  1  0.17253000  0.37861000  0.10171000  1
  O  O40  1  0.86881500  0.31998300  0.19262200  1
  O  O41  1  0.57883400  0.03910800  0.60553000  1
  O  O42  1  0.20440900  0.01084700  0.64230700  1
  O  O43  1  0.62480800  0.15701600  0.11908300  1
  O  O44  1  0.92116600  0.03910800  0.10553000  1
  O  O45  1  0.29559100  0.01084700  0.14230700  1
