# generated using pymatgen
data_Li3Mn2(PO4)3
_symmetry_space_group_name_H-M   'P 1'
_cell_length_a   8.77885553
_cell_length_b   8.77885553
_cell_length_c   6.19253655
_cell_angle_alpha   75.00310620
_cell_angle_beta   75.00310620
_cell_angle_gamma   99.29819596
_symmetry_Int_Tables_number   1
_chemical_formula_structural   Li3Mn2(PO4)3
_chemical_formula_sum   'Li6 Mn4 P6 O24'
_cell_volume   431.72798880
_cell_formula_units_Z   2
loop_
 _symmetry_equiv_pos_site_id
 _symmetry_equiv_pos_as_xyz
  1  'x, y, z'
loop_
 _atom_site_type_symbol
 _atom_site_label
 _atom_site_symmetry_multiplicity
 _atom_site_fract_x
 _atom_site_fract_y
 _atom_site_fract_z
 _atom_site_occupancy
  Li  Li0  1  0.69842200  0.30157800  0.25000000  1
  Li  Li1  1  0.98197600  0.01802400  0.25000000  1
  Li  Li2  1  0.50000000  0.50000000  0.50000000  1
  Li  Li3  1  0.01802400  0.98197600  0.75000000  1
  Li  Li4  1  0.30157800  0.69842200  0.75000000  1
  Li  Li5  1  0.50000000  0.50000000  0.00000000  1
  Mn  Mn6  1  0.05443800  0.36386700  0.37959600  1
  Mn  Mn7  1  0.36386700  0.05443800  0.87959600  1
  Mn  Mn8  1  0.63613300  0.94556200  0.12040400  1
  Mn  Mn9  1  0.94556200  0.63613300  0.62040400  1
  P  P10  1  0.67105000  0.86203400  0.63105200  1
  P  P11  1  0.86203400  0.67105000  0.13105200  1
  P  P12  1  0.70854100  0.29145900  0.75000000  1
  P  P13  1  0.29145900  0.70854100  0.25000000  1
  P  P14  1  0.32895000  0.13796600  0.36894800  1
  P  P15  1  0.13796600  0.32895000  0.86894800  1
  O  O16  1  0.98131600  0.66475000  0.89781200  1
  O  O17  1  0.85323300  0.85580800  0.58801600  1
  O  O18  1  0.62183700  0.95136800  0.81825400  1
  O  O19  1  0.66475000  0.98131600  0.39781200  1
  O  O20  1  0.01868400  0.33525000  0.10218800  1
  O  O21  1  0.14676700  0.14419200  0.41198400  1
  O  O22  1  0.37816300  0.04863200  0.18174600  1
  O  O23  1  0.33525000  0.01868400  0.60218800  1
  O  O24  1  0.14419200  0.14676700  0.91198400  1
  O  O25  1  0.04863200  0.37816300  0.68174600  1
  O  O26  1  0.44877000  0.30208000  0.29268000  1
  O  O27  1  0.25744500  0.53286700  0.23356200  1
  O  O28  1  0.30208000  0.44877000  0.79268000  1
  O  O29  1  0.27366100  0.81856900  0.02042000  1
  O  O30  1  0.53286700  0.25744500  0.73356200  1
  O  O31  1  0.18143100  0.72633900  0.47958000  1
  O  O32  1  0.81856900  0.27366100  0.52042000  1
  O  O33  1  0.46713300  0.74255500  0.26643800  1
  O  O34  1  0.72633900  0.18143100  0.97958000  1
  O  O35  1  0.69792000  0.55123000  0.20732000  1
  O  O36  1  0.74255500  0.46713300  0.76643800  1
  O  O37  1  0.55123000  0.69792000  0.70732000  1
  O  O38  1  0.95136800  0.62183700  0.31825400  1
  O  O39  1  0.85580800  0.85323300  0.08801600  1
