# generated using pymatgen
data_LiSb(PO3)5
_symmetry_space_group_name_H-M   'P 1'
_cell_length_a   14.06538100
_cell_length_b   9.67226100
_cell_length_c   10.83134139
_cell_angle_alpha   67.18446364
_cell_angle_beta   90.00000000
_cell_angle_gamma   90.00000000
_symmetry_Int_Tables_number   1
_chemical_formula_structural   LiSb(PO3)5
_chemical_formula_sum   'Li4 Sb4 P20 O60'
_cell_volume   1358.24678693
_cell_formula_units_Z   4
loop_
 _symmetry_equiv_pos_site_id
 _symmetry_equiv_pos_as_xyz
  1  'x, y, z'
loop_
 _atom_site_type_symbol
 _atom_site_label
 _atom_site_symmetry_multiplicity
 _atom_site_fract_x
 _atom_site_fract_y
 _atom_site_fract_z
 _atom_site_occupancy
  Li  Li0  1  0.35567300  0.07237100  0.75024300  1
  Li  Li1  1  0.64432700  0.92762900  0.24975700  1
  Li  Li2  1  0.14432700  0.07237100  0.25024300  1
  Li  Li3  1  0.85567300  0.92762900  0.74975700  1
  Sb  Sb4  1  0.00067200  0.50331000  0.74762300  1
  Sb  Sb5  1  0.99932800  0.49669000  0.25237700  1
  Sb  Sb6  1  0.49932800  0.50331000  0.24762300  1
  Sb  Sb7  1  0.50067200  0.49669000  0.75237700  1
  P  P8  1  0.74165200  0.99655100  0.47705100  1
  P  P9  1  0.09260900  0.82535900  0.51682300  1
  P  P10  1  0.42566800  0.81494200  0.50488600  1
  P  P11  1  0.14746600  0.53056000  0.49624500  1
  P  P12  1  0.35870000  0.52193200  0.49119400  1
  P  P13  1  0.64130000  0.47806800  0.50880600  1
  P  P14  1  0.85253400  0.46944000  0.50375500  1
  P  P15  1  0.57433200  0.18505800  0.49511400  1
  P  P16  1  0.90739100  0.17464100  0.48317700  1
  P  P17  1  0.25834800  0.00344900  0.52294900  1
  P  P18  1  0.75834800  0.99655100  0.97705100  1
  P  P19  1  0.40739100  0.82535900  0.01682300  1
  P  P20  1  0.07433200  0.81494200  0.00488600  1
  P  P21  1  0.35253400  0.53056000  0.99624500  1
  P  P22  1  0.14130000  0.52193200  0.99119400  1
  P  P23  1  0.85870000  0.47806800  0.00880600  1
  P  P24  1  0.64746600  0.46944000  0.00375500  1
  P  P25  1  0.92566800  0.18505800  0.99511400  1
  P  P26  1  0.59260900  0.17464100  0.98317700  1
  P  P27  1  0.24165200  0.00344900  0.02294900  1
  O  O28  1  0.75565800  0.93300800  0.62412700  1
  O  O29  1  0.17031800  0.88027000  0.59354000  1
  O  O30  1  0.34488600  0.87719000  0.56930000  1
  O  O31  1  0.48908400  0.71909200  0.62521800  1
  O  O32  1  0.01827300  0.73498300  0.62225800  1
  O  O33  1  0.62801200  0.49779600  0.64054900  1
  O  O34  1  0.87246800  0.48319900  0.63601500  1
  O  O35  1  0.08237400  0.43912500  0.61191000  1
  O  O36  1  0.42265600  0.42750300  0.60682700  1
  O  O37  1  0.15333300  0.69873500  0.47996000  1
  O  O38  1  0.36285100  0.69271800  0.46471200  1
  O  O39  1  0.72696200  0.90476500  0.39663900  1
  O  O40  1  0.25283000  0.47064900  0.54170400  1
  O  O41  1  0.05658700  0.93887800  0.39031900  1
  O  O42  1  0.47690400  0.91812100  0.38729300  1
  O  O43  1  0.52309600  0.08187900  0.61270700  1
  O  O44  1  0.94341300  0.06112200  0.60968100  1
  O  O45  1  0.74717000  0.52935100  0.45829600  1
  O  O46  1  0.27303800  0.09523500  0.60336100  1
  O  O47  1  0.63714900  0.30728200  0.53528800  1
  O  O48  1  0.84666700  0.30126500  0.52004000  1
  O  O49  1  0.57734400  0.57249700  0.39317300  1
  O  O50  1  0.91762600  0.56087500  0.38809000  1
  O  O51  1  0.12753200  0.51680100  0.36398500  1
  O  O52  1  0.37198800  0.50220400  0.35945100  1
  O  O53  1  0.98172700  0.26501700  0.37774200  1
  O  O54  1  0.51091600  0.28090800  0.37478200  1
  O  O55  1  0.65511400  0.12281000  0.43070000  1
  O  O56  1  0.82968200  0.11973000  0.40646000  1
  O  O57  1  0.74434200  0.93300800  0.12412700  1
  O  O58  1  0.24434200  0.06699200  0.37587300  1
  O  O59  1  0.32968200  0.88027000  0.09354000  1
  O  O60  1  0.15511400  0.87719000  0.06930000  1
  O  O61  1  0.01091600  0.71909200  0.12521800  1
  O  O62  1  0.48172700  0.73498300  0.12225800  1
  O  O63  1  0.87198800  0.49779600  0.14054900  1
  O  O64  1  0.62753200  0.48319900  0.13601500  1
  O  O65  1  0.41762600  0.43912500  0.11191000  1
  O  O66  1  0.07734400  0.42750300  0.10682700  1
  O  O67  1  0.34666700  0.69873500  0.97996000  1
  O  O68  1  0.13714900  0.69271800  0.96471200  1
  O  O69  1  0.77303800  0.90476500  0.89663900  1
  O  O70  1  0.24717000  0.47064900  0.04170400  1
  O  O71  1  0.44341300  0.93887800  0.89031900  1
  O  O72  1  0.02309600  0.91812100  0.88729300  1
  O  O73  1  0.97690400  0.08187900  0.11270700  1
  O  O74  1  0.55658700  0.06112200  0.10968100  1
  O  O75  1  0.75283000  0.52935100  0.95829600  1
  O  O76  1  0.22696200  0.09523500  0.10336100  1
  O  O77  1  0.86285100  0.30728200  0.03528800  1
  O  O78  1  0.65333300  0.30126500  0.02004000  1
  O  O79  1  0.92265600  0.57249700  0.89317300  1
  O  O80  1  0.58237400  0.56087500  0.88809000  1
  O  O81  1  0.37246800  0.51680100  0.86398500  1
  O  O82  1  0.12801200  0.50220400  0.85945100  1
  O  O83  1  0.51827300  0.26501700  0.87774200  1
  O  O84  1  0.98908400  0.28090800  0.87478200  1
  O  O85  1  0.84488600  0.12281000  0.93070000  1
  O  O86  1  0.67031800  0.11973000  0.90646000  1
  O  O87  1  0.25565800  0.06699200  0.87587300  1
