# generated using pymatgen
data_Na5LiN2
_symmetry_space_group_name_H-M   'P 1'
_cell_length_a   4.42927100
_cell_length_b   4.40026700
_cell_length_c   7.67275203
_cell_angle_alpha   89.99514617
_cell_angle_beta   90.00000000
_cell_angle_gamma   90.00000000
_symmetry_Int_Tables_number   1
_chemical_formula_structural   Na5LiN2
_chemical_formula_sum   'Na5 Li1 N2'
_cell_volume   149.54174478
_cell_formula_units_Z   1
loop_
 _symmetry_equiv_pos_site_id
 _symmetry_equiv_pos_as_xyz
  1  'x, y, z'
loop_
 _atom_site_type_symbol
 _atom_site_label
 _atom_site_symmetry_multiplicity
 _atom_site_fract_x
 _atom_site_fract_y
 _atom_site_fract_z
 _atom_site_occupancy
  Na  Na0  1  0.50000000  0.39482600  0.04414200  1
  Na  Na1  1  0.00000000  0.59292500  0.88194500  1
  Na  Na2  1  0.50000000  0.59139500  0.37212600  1
  Na  Na3  1  0.00000000  0.41917900  0.54328200  1
  Na  Na4  1  0.50000000  0.00161100  0.70600500  1
  Li  Li5  1  0.00000000  0.99859200  0.21270600  1
  N  N6  1  0.50000000  0.50181400  0.71164000  1
  N  N7  1  0.00000000  0.49665800  0.21115300  1
