# generated using pymatgen
data_LiCrP2O7
_symmetry_space_group_name_H-M   'P 1'
_cell_length_a   8.26300700
_cell_length_b   6.95884800
_cell_length_c   8.78623573
_cell_angle_alpha   68.47919067
_cell_angle_beta   90.00000000
_cell_angle_gamma   90.00000000
_symmetry_Int_Tables_number   1
_chemical_formula_structural   LiCrP2O7
_chemical_formula_sum   'Li4 Cr4 P8 O28'
_cell_volume   469.99588828
_cell_formula_units_Z   4
loop_
 _symmetry_equiv_pos_site_id
 _symmetry_equiv_pos_as_xyz
  1  'x, y, z'
loop_
 _atom_site_type_symbol
 _atom_site_label
 _atom_site_symmetry_multiplicity
 _atom_site_fract_x
 _atom_site_fract_y
 _atom_site_fract_z
 _atom_site_occupancy
  Li  Li0  1  0.95161200  0.86963600  0.84326400  1
  Li  Li1  1  0.04838800  0.13036400  0.15673600  1
  Li  Li2  1  0.54838800  0.36963600  0.34326400  1
  Li  Li3  1  0.45161200  0.63036400  0.65673600  1
  Cr  Cr4  1  0.41998500  0.12070800  0.11369700  1
  Cr  Cr5  1  0.91998500  0.37929200  0.38630300  1
  Cr  Cr6  1  0.08001500  0.62070800  0.61369700  1
  Cr  Cr7  1  0.58001500  0.87929200  0.88630300  1
  P  P8  1  0.22987300  0.68523300  0.25678400  1
  P  P9  1  0.77012700  0.31476700  0.74321600  1
  P  P10  1  0.27012700  0.18523300  0.75678400  1
  P  P11  1  0.76422200  0.43114800  0.03562500  1
  P  P12  1  0.73577800  0.93114800  0.53562500  1
  P  P13  1  0.23577800  0.56885200  0.96437500  1
  P  P14  1  0.26422200  0.06885200  0.46437500  1
  P  P15  1  0.72987300  0.81476700  0.24321600  1
  O  O16  1  0.73863800  0.57634000  0.30811100  1
  O  O17  1  0.10250100  0.17585900  0.40560700  1
  O  O18  1  0.24921800  0.33133600  0.04091700  1
  O  O19  1  0.40099100  0.13436000  0.33621900  1
  O  O20  1  0.59900900  0.86564000  0.66378100  1
  O  O21  1  0.75078200  0.66866400  0.95908300  1
  O  O22  1  0.89749900  0.82414100  0.59439300  1
  O  O23  1  0.39749900  0.67585900  0.90560700  1
  O  O24  1  0.25078200  0.83133600  0.54091700  1
  O  O25  1  0.65909400  0.85921900  0.39806600  1
  O  O26  1  0.09900900  0.63436000  0.83621900  1
  O  O27  1  0.88143800  0.93015400  0.17893100  1
  O  O28  1  0.23863800  0.92366000  0.19188900  1
  O  O29  1  0.58242600  0.89105600  0.12032300  1
  O  O30  1  0.08242600  0.60894400  0.37967700  1
  O  O31  1  0.74921800  0.16866400  0.45908300  1
  O  O32  1  0.61856200  0.43015400  0.67893100  1
  O  O33  1  0.26136200  0.42366000  0.69188900  1
  O  O34  1  0.84090600  0.35921900  0.89806600  1
  O  O35  1  0.38143800  0.56984600  0.32106900  1
  O  O36  1  0.15909400  0.64078100  0.10193400  1
  O  O37  1  0.91757400  0.39105600  0.62032300  1
  O  O38  1  0.41757400  0.10894400  0.87967700  1
  O  O39  1  0.76136200  0.07634000  0.80811100  1
  O  O40  1  0.11856200  0.06984600  0.82106900  1
  O  O41  1  0.90099100  0.36564000  0.16378100  1
  O  O42  1  0.34090600  0.14078100  0.60193400  1
  O  O43  1  0.60250100  0.32414100  0.09439300  1
