# generated using pymatgen
data_LiVPO5
_symmetry_space_group_name_H-M   'P 1'
_cell_length_a   10.46496700
_cell_length_b   4.97630100
_cell_length_c   7.22255703
_cell_angle_alpha   70.20623019
_cell_angle_beta   90.00000000
_cell_angle_gamma   90.00000000
_symmetry_Int_Tables_number   1
_chemical_formula_structural   LiVPO5
_chemical_formula_sum   'Li4 V4 P4 O20'
_cell_volume   353.90530679
_cell_formula_units_Z   4
loop_
 _symmetry_equiv_pos_site_id
 _symmetry_equiv_pos_as_xyz
  1  'x, y, z'
loop_
 _atom_site_type_symbol
 _atom_site_label
 _atom_site_symmetry_multiplicity
 _atom_site_fract_x
 _atom_site_fract_y
 _atom_site_fract_z
 _atom_site_occupancy
  Li  Li0  1  0.89488500  0.03744200  0.83588000  1
  Li  Li1  1  0.39488500  0.96255800  0.66412000  1
  Li  Li2  1  0.60511500  0.03744200  0.33588000  1
  Li  Li3  1  0.10511500  0.96255800  0.16412000  1
  V  V4  1  0.07764900  0.57971800  0.82003900  1
  V  V5  1  0.57764900  0.42028200  0.67996100  1
  V  V6  1  0.42235100  0.57971800  0.32003900  1
  V  V7  1  0.92235100  0.42028200  0.17996100  1
  P  P8  1  0.64996100  0.80201700  0.97264600  1
  P  P9  1  0.85003900  0.80201700  0.47264600  1
  P  P10  1  0.14996100  0.19798300  0.52735400  1
  P  P11  1  0.35003900  0.19798300  0.02735400  1
  O  O12  1  0.72289000  0.64459300  0.53438400  1
  O  O13  1  0.42711000  0.20022600  0.84440000  1
  O  O14  1  0.04090100  0.73366000  0.99917000  1
  O  O15  1  0.57035600  0.67509600  0.84202900  1
  O  O16  1  0.69049500  0.11648200  0.84801900  1
  O  O17  1  0.92711000  0.79977400  0.65560000  1
  O  O18  1  0.19049500  0.88351800  0.65198100  1
  O  O19  1  0.22289000  0.35540700  0.96561600  1
  O  O20  1  0.45909900  0.73366000  0.49917000  1
  O  O21  1  0.07035600  0.32490400  0.65797100  1
  O  O22  1  0.92964400  0.67509600  0.34202900  1
  O  O23  1  0.54090100  0.26634000  0.50083000  1
  O  O24  1  0.77711000  0.64459300  0.03438400  1
  O  O25  1  0.80950500  0.11648200  0.34801900  1
  O  O26  1  0.07289000  0.20022600  0.34440000  1
  O  O27  1  0.30950500  0.88351800  0.15198100  1
  O  O28  1  0.42964400  0.32490400  0.15797100  1
  O  O29  1  0.95909900  0.26634000  0.00083000  1
  O  O30  1  0.57289000  0.79977400  0.15560000  1
  O  O31  1  0.27711000  0.35540700  0.46561600  1
