# generated using pymatgen
data_LiMoPO5
_symmetry_space_group_name_H-M   'P 1'
_cell_length_a   6.53695900
_cell_length_b   10.80641400
_cell_length_c   13.12885800
_cell_angle_alpha   90.00000000
_cell_angle_beta   90.00000000
_cell_angle_gamma   90.00000000
_symmetry_Int_Tables_number   1
_chemical_formula_structural   LiMoPO5
_chemical_formula_sum   'Li8 Mo8 P8 O40'
_cell_volume   927.43677728
_cell_formula_units_Z   8
loop_
 _symmetry_equiv_pos_site_id
 _symmetry_equiv_pos_as_xyz
  1  'x, y, z'
loop_
 _atom_site_type_symbol
 _atom_site_label
 _atom_site_symmetry_multiplicity
 _atom_site_fract_x
 _atom_site_fract_y
 _atom_site_fract_z
 _atom_site_occupancy
  Li  Li0  1  0.43109900  0.55367100  0.40897300  1
  Li  Li1  1  0.06890100  0.55367100  0.90897300  1
  Li  Li2  1  0.76608600  0.26769800  0.26804100  1
  Li  Li3  1  0.26608600  0.76769800  0.23195900  1
  Li  Li4  1  0.73391400  0.26769800  0.76804100  1
  Li  Li5  1  0.56890100  0.05367100  0.59102700  1
  Li  Li6  1  0.93109900  0.05367100  0.09102700  1
  Li  Li7  1  0.23391400  0.76769800  0.73195900  1
  Mo  Mo8  1  0.77280700  0.74845500  0.27151300  1
  Mo  Mo9  1  0.27280700  0.24845500  0.22848700  1
  Mo  Mo10  1  0.02316700  0.51338600  0.13228800  1
  Mo  Mo11  1  0.22719300  0.24845500  0.72848700  1
  Mo  Mo12  1  0.52316700  0.01338600  0.36771200  1
  Mo  Mo13  1  0.72719300  0.74845500  0.77151300  1
  Mo  Mo14  1  0.97683300  0.01338600  0.86771200  1
  Mo  Mo15  1  0.47683300  0.51338600  0.63228800  1
  P  P16  1  0.34116600  0.27267900  0.48156900  1
  P  P17  1  0.52792200  0.50637400  0.18932900  1
  P  P18  1  0.02792200  0.00637400  0.31067100  1
  P  P19  1  0.65883400  0.77267900  0.51843100  1
  P  P20  1  0.84116600  0.77267900  0.01843100  1
  P  P21  1  0.15883400  0.27267900  0.98156900  1
  P  P22  1  0.97207800  0.50637400  0.68932900  1
  P  P23  1  0.47207800  0.00637400  0.81067100  1
  O  O24  1  0.97766100  0.86053000  0.78705900  1
  O  O25  1  0.02233900  0.36053000  0.21294100  1
  O  O26  1  0.94945900  0.60351300  0.77846100  1
  O  O27  1  0.21027800  0.00404400  0.38273700  1
  O  O28  1  0.51213300  0.13972800  0.25979300  1
  O  O29  1  0.80297100  0.74823400  0.42673900  1
  O  O30  1  0.48934600  0.87977600  0.75486700  1
  O  O31  1  0.69702900  0.74823400  0.92673900  1
  O  O32  1  0.55054100  0.60351300  0.27846100  1
  O  O33  1  0.78972200  0.50404400  0.61726300  1
  O  O34  1  0.21403600  0.27117200  0.38273200  1
  O  O35  1  0.83723200  0.03944900  0.37230600  1
  O  O36  1  0.19702900  0.24823400  0.57326100  1
  O  O37  1  0.98786700  0.13972800  0.75979300  1
  O  O38  1  0.51065400  0.37977600  0.24513300  1
  O  O39  1  0.71027800  0.50404400  0.11726300  1
  O  O40  1  0.44108500  0.40360500  0.49389700  1
  O  O41  1  0.30297100  0.24823400  0.07326100  1
  O  O42  1  0.33723200  0.53944900  0.12769400  1
  O  O43  1  0.50951900  0.16944900  0.47835300  1
  O  O44  1  0.01213300  0.63972800  0.24020700  1
  O  O45  1  0.49048100  0.66944900  0.52164700  1
  O  O46  1  0.71403600  0.77117200  0.11726800  1
  O  O47  1  0.66276800  0.03944900  0.87230600  1
  O  O48  1  0.94108500  0.90360500  0.00610300  1
  O  O49  1  0.78596400  0.77117200  0.61726800  1
  O  O50  1  0.44945900  0.10351300  0.72153900  1
  O  O51  1  0.16276800  0.53944900  0.62769400  1
  O  O52  1  0.55891500  0.90360500  0.50610300  1
  O  O53  1  0.99048100  0.16944900  0.97835300  1
  O  O54  1  0.28596400  0.27117200  0.88273200  1
  O  O55  1  0.47766100  0.36053000  0.71294100  1
  O  O56  1  0.05054100  0.10351300  0.22153900  1
  O  O57  1  0.48786700  0.63972800  0.74020700  1
  O  O58  1  0.52233900  0.86053000  0.28705900  1
  O  O59  1  0.05891500  0.40360500  0.99389700  1
  O  O60  1  0.01065400  0.87977600  0.25486700  1
  O  O61  1  0.98934600  0.37977600  0.74513300  1
  O  O62  1  0.28972200  0.00404400  0.88273700  1
  O  O63  1  0.00951900  0.66944900  0.02164700  1
