# generated using pymatgen
data_Li6Si2O7
_symmetry_space_group_name_H-M   'P 1'
_cell_length_a   7.76932700
_cell_length_b   7.76932700
_cell_length_c   4.90626200
_cell_angle_alpha   90.00000000
_cell_angle_beta   90.00000000
_cell_angle_gamma   90.00000000
_symmetry_Int_Tables_number   1
_chemical_formula_structural   Li6Si2O7
_chemical_formula_sum   'Li12 Si4 O14'
_cell_volume   296.15395557
_cell_formula_units_Z   2
loop_
 _symmetry_equiv_pos_site_id
 _symmetry_equiv_pos_as_xyz
  1  'x, y, z'
loop_
 _atom_site_type_symbol
 _atom_site_label
 _atom_site_symmetry_multiplicity
 _atom_site_fract_x
 _atom_site_fract_y
 _atom_site_fract_z
 _atom_site_occupancy
  Li  Li0  1  0.63656000  0.41754800  0.70335000  1
  Li  Li1  1  0.36344000  0.58245200  0.70335000  1
  Li  Li2  1  0.41754800  0.36344000  0.29665000  1
  Li  Li3  1  0.58245200  0.63656000  0.29665000  1
  Li  Li4  1  0.13656000  0.08245200  0.29665000  1
  Li  Li5  1  0.08245200  0.86344000  0.70335000  1
  Li  Li6  1  0.88922800  0.61077200  0.68570700  1
  Li  Li7  1  0.38922800  0.88922800  0.31429300  1
  Li  Li8  1  0.61077200  0.11077200  0.31429300  1
  Li  Li9  1  0.11077200  0.38922800  0.68570700  1
  Li  Li10  1  0.91754800  0.13656000  0.70335000  1
  Li  Li11  1  0.86344000  0.91754800  0.29665000  1
  Si  Si12  1  0.64400400  0.85599600  0.82051000  1
  Si  Si13  1  0.14400400  0.64400400  0.17949000  1
  Si  Si14  1  0.85599600  0.35599600  0.17949000  1
  Si  Si15  1  0.35599600  0.14400400  0.82051000  1
  O  O16  1  0.16425500  0.09745900  0.70865900  1
  O  O17  1  0.90254100  0.16425500  0.29134100  1
  O  O18  1  0.59745900  0.66425500  0.70865900  1
  O  O19  1  0.40254100  0.33574500  0.70865900  1
  O  O20  1  0.33574500  0.59745900  0.29134100  1
  O  O21  1  0.66425500  0.40254100  0.29134100  1
  O  O22  1  0.63056800  0.86943200  0.15375400  1
  O  O23  1  0.13056800  0.63056800  0.84624600  1
  O  O24  1  0.86943200  0.36943200  0.84624600  1
  O  O25  1  0.36943200  0.13056800  0.15375400  1
  O  O26  1  0.50000000  0.00000000  0.68321200  1
  O  O27  1  0.00000000  0.50000000  0.31678800  1
  O  O28  1  0.83574500  0.90254100  0.70865900  1
  O  O29  1  0.09745900  0.83574500  0.29134100  1
