# generated using pymatgen
data_Li4Ni5(P3O11)2
_symmetry_space_group_name_H-M   'P 1'
_cell_length_a   6.53050800
_cell_length_b   10.54965900
_cell_length_c   12.53550034
_cell_angle_alpha   76.03934436
_cell_angle_beta   90.00000000
_cell_angle_gamma   90.00000000
_symmetry_Int_Tables_number   1
_chemical_formula_structural   Li4Ni5(P3O11)2
_chemical_formula_sum   'Li8 Ni10 P12 O44'
_cell_volume   838.11849893
_cell_formula_units_Z   2
loop_
 _symmetry_equiv_pos_site_id
 _symmetry_equiv_pos_as_xyz
  1  'x, y, z'
loop_
 _atom_site_type_symbol
 _atom_site_label
 _atom_site_symmetry_multiplicity
 _atom_site_fract_x
 _atom_site_fract_y
 _atom_site_fract_z
 _atom_site_occupancy
  Li  Li0  1  0.62059000  0.94484700  0.17754800  1
  Li  Li1  1  0.12059000  0.55515300  0.82245200  1
  Li  Li2  1  0.02385900  0.62719100  0.34383500  1
  Li  Li3  1  0.52385900  0.87280900  0.65616500  1
  Li  Li4  1  0.97614100  0.37280900  0.65616500  1
  Li  Li5  1  0.37941000  0.05515300  0.82245200  1
  Li  Li6  1  0.47614100  0.12719100  0.34383500  1
  Li  Li7  1  0.87941000  0.44484700  0.17754800  1
  Ni  Ni8  1  0.24022100  0.21930300  0.13310700  1
  Ni  Ni9  1  0.51235800  0.30402800  0.66583000  1
  Ni  Ni10  1  0.01235800  0.19597200  0.33417000  1
  Ni  Ni11  1  0.48764200  0.69597200  0.33417000  1
  Ni  Ni12  1  0.75977900  0.78069700  0.86689300  1
  Ni  Ni13  1  0.50000000  0.50000000  0.00000000  1
  Ni  Ni14  1  0.25977900  0.71930300  0.13310700  1
  Ni  Ni15  1  0.98764200  0.80402800  0.66583000  1
  Ni  Ni16  1  0.74022100  0.28069700  0.86689300  1
  Ni  Ni17  1  0.00000000  0.00000000  0.00000000  1
  P  P18  1  0.78237400  0.91396300  0.41807500  1
  P  P19  1  0.21762600  0.08603700  0.58192500  1
  P  P20  1  0.26600000  0.77616900  0.91347900  1
  P  P21  1  0.28237400  0.58603700  0.58192500  1
  P  P22  1  0.23400000  0.27616900  0.91347900  1
  P  P23  1  0.73400000  0.22383100  0.08652100  1
  P  P24  1  0.89459000  0.06624600  0.74089100  1
  P  P25  1  0.60541000  0.56624600  0.74089100  1
  P  P26  1  0.76600000  0.72383100  0.08652100  1
  P  P27  1  0.39459000  0.43375400  0.25910900  1
  P  P28  1  0.71762600  0.41396300  0.41807500  1
  P  P29  1  0.10541000  0.93375400  0.25910900  1
  O  O30  1  0.88348600  0.36410800  0.35162900  1
  O  O31  1  0.27342100  0.36738600  0.99351800  1
  O  O32  1  0.49821400  0.36771800  0.37620600  1
  O  O33  1  0.95112200  0.66919400  0.16092100  1
  O  O34  1  0.79820500  0.85758800  0.00042800  1
  O  O35  1  0.41797600  0.25652000  0.83976400  1
  O  O36  1  0.79631700  0.93666900  0.72860500  1
  O  O37  1  0.45112200  0.83080600  0.83907900  1
  O  O38  1  0.77732500  0.85184800  0.54071300  1
  O  O39  1  0.05920600  0.04528700  0.82900500  1
  O  O40  1  0.11651400  0.63589200  0.64837100  1
  O  O41  1  0.70368300  0.43666900  0.72860500  1
  O  O42  1  0.20179500  0.14241200  0.99957200  1
  O  O43  1  0.29631700  0.56333100  0.27139500  1
  O  O44  1  0.72260300  0.56497300  0.38695200  1
  O  O45  1  0.00178600  0.86771800  0.37620600  1
  O  O46  1  0.61651400  0.86410800  0.35162900  1
  O  O47  1  0.20368300  0.06333100  0.27139500  1
  O  O48  1  0.22657900  0.86738600  0.99351800  1
  O  O49  1  0.72657900  0.63261400  0.00648200  1
  O  O50  1  0.55920600  0.45471300  0.17099500  1
  O  O51  1  0.91797600  0.24348000  0.16023600  1
  O  O52  1  0.38348600  0.13589200  0.64837100  1
  O  O53  1  0.77342100  0.13261400  0.00648200  1
  O  O54  1  0.27739700  0.43502700  0.61304800  1
  O  O55  1  0.08202400  0.75652000  0.83976400  1
  O  O56  1  0.99821400  0.13228200  0.62379400  1
  O  O57  1  0.73294300  0.16608200  0.75590400  1
  O  O58  1  0.72267500  0.35184800  0.54071300  1
  O  O59  1  0.22267500  0.14815200  0.45928700  1
  O  O60  1  0.70179500  0.35758800  0.00042800  1
  O  O61  1  0.76705700  0.66608200  0.75590400  1
  O  O62  1  0.26705700  0.83391800  0.24409600  1
  O  O63  1  0.23294300  0.33391800  0.24409600  1
  O  O64  1  0.27732500  0.64815200  0.45928700  1
  O  O65  1  0.58202400  0.74348000  0.16023600  1
  O  O66  1  0.29820500  0.64241200  0.99957200  1
  O  O67  1  0.22260300  0.93502700  0.61304800  1
  O  O68  1  0.54887800  0.16919400  0.16092100  1
  O  O69  1  0.44079400  0.54528700  0.82900500  1
  O  O70  1  0.50178600  0.63228200  0.62379400  1
  O  O71  1  0.94079400  0.95471300  0.17099500  1
  O  O72  1  0.04887800  0.33080600  0.83907900  1
  O  O73  1  0.77739700  0.06497300  0.38695200  1
