# generated using pymatgen
data_LiMnO2
_symmetry_space_group_name_H-M   'P 1'
_cell_length_a   5.18575732
_cell_length_b   5.18575732
_cell_length_c   5.18575726
_cell_angle_alpha   33.88328411
_cell_angle_beta   33.88328512
_cell_angle_gamma   33.88328966
_symmetry_Int_Tables_number   1
_chemical_formula_structural   LiMnO2
_chemical_formula_sum   'Li1 Mn1 O2'
_cell_volume   38.62848676
_cell_formula_units_Z   1
loop_
 _symmetry_equiv_pos_site_id
 _symmetry_equiv_pos_as_xyz
  1  'x, y, z'
loop_
 _atom_site_type_symbol
 _atom_site_label
 _atom_site_symmetry_multiplicity
 _atom_site_fract_x
 _atom_site_fract_y
 _atom_site_fract_z
 _atom_site_occupancy
  Li  Li0  1  0.50000161  0.50000234  0.49999808  1
  O  O1  1  0.25758010  0.25757798  0.25757795  1
  O  O2  1  0.74242325  0.74241850  0.74242305  1
  Mn  Mn3  1  0.00000000  0.00000000  0.00000000  1
