# generated using pymatgen
data_Li3PO4
_symmetry_space_group_name_H-M   'P 1'
_cell_length_a   5.00111900
_cell_length_b   6.17677100
_cell_length_c   10.61503400
_cell_angle_alpha   90.00000000
_cell_angle_beta   90.00000000
_cell_angle_gamma   90.00000000
_symmetry_Int_Tables_number   1
_chemical_formula_structural   Li3PO4
_chemical_formula_sum   'Li12 P4 O16'
_cell_volume   327.90653994
_cell_formula_units_Z   4
loop_
 _symmetry_equiv_pos_site_id
 _symmetry_equiv_pos_as_xyz
  1  'x, y, z'
loop_
 _atom_site_type_symbol
 _atom_site_label
 _atom_site_symmetry_multiplicity
 _atom_site_fract_x
 _atom_site_fract_y
 _atom_site_fract_z
 _atom_site_occupancy
  Li  Li0  1  0.69793500  0.49826100  0.16360900  1
  Li  Li1  1  0.19793500  0.50173900  0.33639100  1
  Li  Li2  1  0.30206500  0.99826100  0.83639100  1
  Li  Li3  1  0.80206500  0.00173900  0.66360900  1
  Li  Li4  1  0.30206500  0.50173900  0.83639100  1
  Li  Li5  1  0.80206500  0.49826100  0.66360900  1
  Li  Li6  1  0.69793500  0.00173900  0.16360900  1
  Li  Li7  1  0.19793500  0.99826100  0.33639100  1
  Li  Li8  1  0.79687900  0.25000000  0.42529500  1
  Li  Li9  1  0.29687900  0.75000000  0.07470500  1
  Li  Li10  1  0.20312100  0.75000000  0.57470500  1
  Li  Li11  1  0.70312100  0.25000000  0.92529500  1
  P  P12  1  0.69367100  0.75000000  0.41118400  1
  P  P13  1  0.80632900  0.75000000  0.91118400  1
  P  P14  1  0.30632900  0.25000000  0.58881600  1
  P  P15  1  0.19367100  0.25000000  0.08881600  1
  O  O16  1  0.61830400  0.25000000  0.58964300  1
  O  O17  1  0.79632700  0.95618600  0.34135100  1
  O  O18  1  0.11830400  0.75000000  0.91035700  1
  O  O19  1  0.38169600  0.75000000  0.41035700  1
  O  O20  1  0.79632700  0.54381400  0.34135100  1
  O  O21  1  0.29632700  0.04381400  0.15864900  1
  O  O22  1  0.20367300  0.45618600  0.65864900  1
  O  O23  1  0.70367300  0.54381400  0.84135100  1
  O  O24  1  0.20367300  0.04381400  0.65864900  1
  O  O25  1  0.70367300  0.95618600  0.84135100  1
  O  O26  1  0.79723800  0.75000000  0.54931800  1
  O  O27  1  0.29632700  0.45618600  0.15864900  1
  O  O28  1  0.70276200  0.75000000  0.04931800  1
  O  O29  1  0.20276200  0.25000000  0.45068200  1
  O  O30  1  0.29723800  0.25000000  0.95068200  1
  O  O31  1  0.88169600  0.25000000  0.08964300  1
