# generated using pymatgen
data_LiMn4(PO4)3
_symmetry_space_group_name_H-M   'P 1'
_cell_length_a   6.49710000
_cell_length_b   10.00928300
_cell_length_c   14.66404000
_cell_angle_alpha   90.00000000
_cell_angle_beta   90.00000000
_cell_angle_gamma   90.00000000
_symmetry_Int_Tables_number   1
_chemical_formula_structural   LiMn4(PO4)3
_chemical_formula_sum   'Li4 Mn16 P12 O48'
_cell_volume   953.62176892
_cell_formula_units_Z   4
loop_
 _symmetry_equiv_pos_site_id
 _symmetry_equiv_pos_as_xyz
  1  'x, y, z'
loop_
 _atom_site_type_symbol
 _atom_site_label
 _atom_site_symmetry_multiplicity
 _atom_site_fract_x
 _atom_site_fract_y
 _atom_site_fract_z
 _atom_site_occupancy
  Li  Li0  1  0.56768800  0.73792700  0.25000000  1
  Li  Li1  1  0.93231200  0.23792700  0.75000000  1
  Li  Li2  1  0.06768800  0.76207300  0.25000000  1
  Li  Li3  1  0.43231200  0.26207300  0.75000000  1
  Mn  Mn4  1  0.64644800  0.44110400  0.90215500  1
  Mn  Mn5  1  0.65643100  0.83936100  0.60675400  1
  Mn  Mn6  1  0.65643100  0.83936100  0.89324600  1
  Mn  Mn7  1  0.64644800  0.44110400  0.59784500  1
  Mn  Mn8  1  0.84356900  0.33936100  0.10675400  1
  Mn  Mn9  1  0.84356900  0.33936100  0.39324600  1
  Mn  Mn10  1  0.85355200  0.94110400  0.09784500  1
  Mn  Mn11  1  0.85355200  0.94110400  0.40215500  1
  Mn  Mn12  1  0.14644800  0.05889600  0.59784500  1
  Mn  Mn13  1  0.14644800  0.05889600  0.90215500  1
  Mn  Mn14  1  0.15643100  0.66063900  0.60675400  1
  Mn  Mn15  1  0.15643100  0.66063900  0.89324600  1
  Mn  Mn16  1  0.34356900  0.16063900  0.10675400  1
  Mn  Mn17  1  0.34356900  0.16063900  0.39324600  1
  Mn  Mn18  1  0.35355200  0.55889600  0.09784500  1
  Mn  Mn19  1  0.35355200  0.55889600  0.40215500  1
  P  P20  1  0.49188100  0.59281600  0.75000000  1
  P  P21  1  0.35045000  0.86666100  0.42802500  1
  P  P22  1  0.35045000  0.86666100  0.07197500  1
  P  P23  1  0.14955000  0.36666100  0.92802500  1
  P  P24  1  0.14955000  0.36666100  0.57197500  1
  P  P25  1  0.00811900  0.09281600  0.25000000  1
  P  P26  1  0.99188100  0.90718400  0.75000000  1
  P  P27  1  0.85045000  0.63333900  0.42802500  1
  P  P28  1  0.85045000  0.63333900  0.07197500  1
  P  P29  1  0.64955000  0.13333900  0.92802500  1
  P  P30  1  0.64955000  0.13333900  0.57197500  1
  P  P31  1  0.50811900  0.40718400  0.25000000  1
  O  O32  1  0.59943500  0.21872000  0.01451100  1
  O  O33  1  0.47016000  0.03943000  0.60071000  1
  O  O34  1  0.45211400  0.55792700  0.25000000  1
  O  O35  1  0.41418600  0.35088400  0.33930300  1
  O  O36  1  0.41418600  0.35088400  0.16069700  1
  O  O37  1  0.40056500  0.78128000  0.98548900  1
  O  O38  1  0.40056500  0.78128000  0.51451100  1
  O  O39  1  0.17078700  0.96874800  0.05149600  1
  O  O40  1  0.32921300  0.46874800  0.55149600  1
  O  O41  1  0.29386000  0.76745500  0.35156500  1
  O  O42  1  0.29386000  0.76745500  0.14843500  1
  O  O43  1  0.25553700  0.61624000  0.75000000  1
  O  O44  1  0.24446300  0.11624000  0.25000000  1
  O  O45  1  0.20614000  0.26745500  0.85156500  1
  O  O46  1  0.20614000  0.26745500  0.64843500  1
  O  O47  1  0.17078700  0.96874800  0.44850400  1
  O  O48  1  0.52984000  0.96057000  0.10071000  1
  O  O49  1  0.52984000  0.96057000  0.39929000  1
  O  O50  1  0.54788600  0.44207300  0.75000000  1
  O  O51  1  0.58581400  0.64911600  0.66069700  1
  O  O52  1  0.58581400  0.64911600  0.83930300  1
  O  O53  1  0.47016000  0.03943000  0.89929000  1
  O  O54  1  0.59943500  0.21872000  0.48548900  1
  O  O55  1  0.67078700  0.53125200  0.05149600  1
  O  O56  1  0.67078700  0.53125200  0.44850400  1
  O  O57  1  0.70614000  0.23254500  0.64843500  1
  O  O58  1  0.70614000  0.23254500  0.85156500  1
  O  O59  1  0.74446300  0.38376000  0.25000000  1
  O  O60  1  0.75553700  0.88376000  0.75000000  1
  O  O61  1  0.79386000  0.73254500  0.14843500  1
  O  O62  1  0.79386000  0.73254500  0.35156500  1
  O  O63  1  0.82921300  0.03125200  0.55149600  1
  O  O64  1  0.82921300  0.03125200  0.94850400  1
  O  O65  1  0.90056500  0.71872000  0.51451100  1
  O  O66  1  0.90056500  0.71872000  0.98548900  1
  O  O67  1  0.91418600  0.14911600  0.16069700  1
  O  O68  1  0.91418600  0.14911600  0.33930300  1
  O  O69  1  0.95211400  0.94207300  0.25000000  1
  O  O70  1  0.97016000  0.46057000  0.60071000  1
  O  O71  1  0.97016000  0.46057000  0.89929000  1
  O  O72  1  0.02984000  0.53943000  0.10071000  1
  O  O73  1  0.02984000  0.53943000  0.39929000  1
  O  O74  1  0.04788600  0.05792700  0.75000000  1
  O  O75  1  0.08581400  0.85088400  0.66069700  1
  O  O76  1  0.08581400  0.85088400  0.83930300  1
  O  O77  1  0.09943500  0.28128000  0.01451100  1
  O  O78  1  0.09943500  0.28128000  0.48548900  1
  O  O79  1  0.32921300  0.46874800  0.94850400  1
