# generated using pymatgen
data_LiV(PO3)3
_symmetry_space_group_name_H-M   'P 1'
_cell_length_a   8.51138600
_cell_length_b   8.70020800
_cell_length_c   8.78210800
_cell_angle_alpha   90.00000000
_cell_angle_beta   90.00000000
_cell_angle_gamma   90.00000000
_symmetry_Int_Tables_number   1
_chemical_formula_structural   LiV(PO3)3
_chemical_formula_sum   'Li4 V4 P12 O36'
_cell_volume   650.32237398
_cell_formula_units_Z   4
loop_
 _symmetry_equiv_pos_site_id
 _symmetry_equiv_pos_as_xyz
  1  'x, y, z'
loop_
 _atom_site_type_symbol
 _atom_site_label
 _atom_site_symmetry_multiplicity
 _atom_site_fract_x
 _atom_site_fract_y
 _atom_site_fract_z
 _atom_site_occupancy
  Li  Li0  1  0.15128200  0.86595100  0.38453300  1
  Li  Li1  1  0.34871800  0.13404900  0.88453300  1
  Li  Li2  1  0.65128200  0.63404900  0.61546700  1
  Li  Li3  1  0.84871800  0.36595100  0.11546700  1
  V  V4  1  0.12954400  0.14485800  0.15982800  1
  V  V5  1  0.37045600  0.85514200  0.65982800  1
  V  V6  1  0.62954400  0.35514200  0.84017200  1
  V  V7  1  0.87045600  0.64485800  0.34017200  1
  P  P8  1  0.02878400  0.67906700  0.68216000  1
  P  P9  1  0.18825600  0.52114600  0.19050000  1
  P  P10  1  0.20193800  0.19207600  0.56136900  1
  P  P11  1  0.29806200  0.80792400  0.06136900  1
  P  P12  1  0.31174400  0.47885400  0.69050000  1
  P  P13  1  0.47121600  0.32093300  0.18216000  1
  P  P14  1  0.52878400  0.82093300  0.31784000  1
  P  P15  1  0.68825600  0.97885400  0.80950000  1
  P  P16  1  0.70193800  0.30792400  0.43863100  1
  P  P17  1  0.79806200  0.69207600  0.93863100  1
  P  P18  1  0.81174400  0.02114600  0.30950000  1
  P  P19  1  0.97121600  0.17906700  0.81784000  1
  O  O20  1  0.04050500  0.22567800  0.65431600  1
  O  O21  1  0.09134600  0.38843900  0.13373400  1
  O  O22  1  0.10356400  0.12714600  0.91901900  1
  O  O23  1  0.12328300  0.61516800  0.32044400  1
  O  O24  1  0.13099500  0.80668300  0.62169600  1
  O  O25  1  0.13797200  0.53656500  0.73525700  1
  O  O26  1  0.15986600  0.13994400  0.40439000  1
  O  O27  1  0.19056200  0.90631400  0.15657100  1
  O  O28  1  0.22723600  0.63559900  0.04980600  1
  O  O29  1  0.27276400  0.36440100  0.54980600  1
  O  O30  1  0.30943800  0.09368600  0.65657100  1
  O  O31  1  0.34013400  0.86005600  0.90439000  1
  O  O32  1  0.36202800  0.46343500  0.23525700  1
  O  O33  1  0.36900500  0.19331700  0.12169600  1
  O  O34  1  0.37671700  0.38483200  0.82044400  1
  O  O35  1  0.39643600  0.87285400  0.41901900  1
  O  O36  1  0.40865400  0.61156100  0.63373400  1
  O  O37  1  0.45949500  0.77432200  0.15431600  1
  O  O38  1  0.54050500  0.27432200  0.34568400  1
  O  O39  1  0.59134600  0.11156100  0.86626600  1
  O  O40  1  0.60356400  0.37285400  0.08098100  1
  O  O41  1  0.62328300  0.88483200  0.67955600  1
  O  O42  1  0.63099500  0.69331700  0.37830400  1
  O  O43  1  0.63797200  0.96343500  0.26474300  1
  O  O44  1  0.65986600  0.36005600  0.59561000  1
  O  O45  1  0.69056200  0.59368600  0.84342900  1
  O  O46  1  0.72723600  0.86440100  0.95019400  1
  O  O47  1  0.77276400  0.13559900  0.45019400  1
  O  O48  1  0.80943800  0.40631400  0.34342900  1
  O  O49  1  0.84013400  0.63994400  0.09561000  1
  O  O50  1  0.86202800  0.03656500  0.76474300  1
  O  O51  1  0.86900500  0.30668300  0.87830400  1
  O  O52  1  0.87671700  0.11516800  0.17955600  1
  O  O53  1  0.89643600  0.62714600  0.58098100  1
  O  O54  1  0.90865400  0.88843900  0.36626600  1
  O  O55  1  0.95949500  0.72567800  0.84568400  1
