# generated using pymatgen
data_Li3Ti2(PO4)3
_symmetry_space_group_name_H-M   'P 1'
_cell_length_a   9.07267422
_cell_length_b   9.07267422
_cell_length_c   9.07267423
_cell_angle_alpha   55.84949822
_cell_angle_beta   55.84949822
_cell_angle_gamma   55.84950080
_symmetry_Int_Tables_number   1
_chemical_formula_structural   Li3Ti2(PO4)3
_chemical_formula_sum   'Li6 Ti4 P6 O24'
_cell_volume   477.25859238
_cell_formula_units_Z   2
loop_
 _symmetry_equiv_pos_site_id
 _symmetry_equiv_pos_as_xyz
  1  'x, y, z'
loop_
 _atom_site_type_symbol
 _atom_site_label
 _atom_site_symmetry_multiplicity
 _atom_site_fract_x
 _atom_site_fract_y
 _atom_site_fract_z
 _atom_site_occupancy
  Li  Li0  1  0.92233400  0.26435500  0.66184000  1
  Li  Li1  1  0.66184000  0.92233400  0.26435500  1
  Li  Li2  1  0.33816000  0.07766600  0.73564500  1
  Li  Li3  1  0.07766600  0.73564500  0.33816000  1
  Li  Li4  1  0.73564500  0.33816000  0.07766600  1
  Li  Li5  1  0.26435500  0.66184000  0.92233400  1
  Ti  Ti6  1  0.85349900  0.85349900  0.85349900  1
  Ti  Ti7  1  0.65170800  0.65170800  0.65170800  1
  Ti  Ti8  1  0.14650100  0.14650100  0.14650100  1
  Ti  Ti9  1  0.34829200  0.34829200  0.34829200  1
  P  P10  1  0.45907100  0.74982600  0.04192300  1
  P  P11  1  0.95807700  0.54092900  0.25017400  1
  P  P12  1  0.04192300  0.45907100  0.74982600  1
  P  P13  1  0.25017400  0.95807700  0.54092900  1
  P  P14  1  0.54092900  0.25017400  0.95807700  1
  P  P15  1  0.74982600  0.04192300  0.45907100  1
  O  O16  1  0.61178300  0.80363100  0.00448300  1
  O  O17  1  0.53917800  0.20741300  0.15377600  1
  O  O18  1  0.49423200  0.53469600  0.16460300  1
  O  O19  1  0.38821700  0.19636900  0.99551700  1
  O  O20  1  0.74506000  0.12688100  0.86017800  1
  O  O21  1  0.25494000  0.87311900  0.13982200  1
  O  O22  1  0.19636900  0.99551700  0.38821700  1
  O  O23  1  0.20741300  0.15377600  0.53917800  1
  O  O24  1  0.00448300  0.61178300  0.80363100  1
  O  O25  1  0.50576800  0.46530400  0.83539700  1
  O  O26  1  0.79258700  0.84622400  0.46082200  1
  O  O27  1  0.86017800  0.74506000  0.12688100  1
  O  O28  1  0.46530400  0.83539700  0.50576800  1
  O  O29  1  0.46082200  0.79258700  0.84622400  1
  O  O30  1  0.15377600  0.53917800  0.20741300  1
  O  O31  1  0.13982200  0.25494000  0.87311900  1
  O  O32  1  0.84622400  0.46082200  0.79258700  1
  O  O33  1  0.99551700  0.38821700  0.19636900  1
  O  O34  1  0.53469600  0.16460300  0.49423200  1
  O  O35  1  0.12688100  0.86017800  0.74506000  1
  O  O36  1  0.87311900  0.13982200  0.25494000  1
  O  O37  1  0.16460300  0.49423200  0.53469600  1
  O  O38  1  0.80363100  0.00448300  0.61178300  1
  O  O39  1  0.83539800  0.50576800  0.46530400  1
