# generated using pymatgen
data_Li5Sb2P5O18
_symmetry_space_group_name_H-M   'P 1'
_cell_length_a   6.84592300
_cell_length_b   9.50811857
_cell_length_c   11.12789433
_cell_angle_alpha   98.16353629
_cell_angle_beta   89.93068111
_cell_angle_gamma   91.30722186
_symmetry_Int_Tables_number   1
_chemical_formula_structural   Li5Sb2P5O18
_chemical_formula_sum   'Li10 Sb4 P10 O36'
_cell_volume   716.80725763
_cell_formula_units_Z   2
loop_
 _symmetry_equiv_pos_site_id
 _symmetry_equiv_pos_as_xyz
  1  'x, y, z'
loop_
 _atom_site_type_symbol
 _atom_site_label
 _atom_site_symmetry_multiplicity
 _atom_site_fract_x
 _atom_site_fract_y
 _atom_site_fract_z
 _atom_site_occupancy
  Li  Li0  1  0.01921700  0.03257200  0.86821800  1
  Li  Li1  1  0.81770700  0.11414200  0.35167600  1
  Li  Li2  1  0.13951800  0.22596400  0.66555600  1
  Li  Li3  1  0.58395700  0.27597800  0.59989700  1
  Li  Li4  1  0.32918900  0.37728800  0.85587400  1
  Li  Li5  1  0.67081100  0.62271200  0.14412600  1
  Li  Li6  1  0.41604300  0.72402200  0.40010300  1
  Li  Li7  1  0.86048200  0.77403600  0.33444400  1
  Li  Li8  1  0.18229300  0.88585800  0.64832400  1
  Li  Li9  1  0.98078300  0.96742800  0.13178200  1
  Sb  Sb10  1  0.65523700  0.24303900  0.05177700  1
  Sb  Sb11  1  0.21665600  0.36379900  0.39983700  1
  Sb  Sb12  1  0.78334400  0.63620100  0.60016300  1
  Sb  Sb13  1  0.34476300  0.75696100  0.94822300  1
  P  P14  1  0.47527200  0.07204500  0.78491400  1
  P  P15  1  0.21990600  0.00895800  0.39978500  1
  P  P16  1  0.18081200  0.26719700  0.09852000  1
  P  P17  1  0.85507000  0.41953900  0.83428300  1
  P  P18  1  0.69266500  0.42074900  0.33259000  1
  P  P19  1  0.30733500  0.57925100  0.66741000  1
  P  P20  1  0.14493000  0.58046100  0.16571700  1
  P  P21  1  0.81918800  0.73280300  0.90148000  1
  P  P22  1  0.78009400  0.99104200  0.60021500  1
  P  P23  1  0.52472800  0.92795500  0.21508600  1
  O  O24  1  0.95574900  0.02433800  0.68503400  1
  O  O25  1  0.63005300  0.09177900  0.88804200  1
  O  O26  1  0.41832800  0.02673200  0.32422000  1
  O  O27  1  0.70281200  0.01680900  0.18743500  1
  O  O28  1  0.74259700  0.10424300  0.52025700  1
  O  O29  1  0.42031100  0.20953000  0.73734300  1
  O  O30  1  0.20693100  0.16306200  0.47356800  1
  O  O31  1  0.03315100  0.15416100  0.04370400  1
  O  O32  1  0.03662800  0.33157800  0.82907700  1
  O  O33  1  0.26010900  0.24243800  0.22227800  1
  O  O34  1  0.70462000  0.39149100  0.93505500  1
  O  O35  1  0.85647000  0.31365100  0.33351300  1
  O  O36  1  0.35712800  0.28395700  0.01185400  1
  O  O37  1  0.75296700  0.41953000  0.71238800  1
  O  O38  1  0.52225100  0.36390700  0.41169600  1
  O  O39  1  0.24950400  0.42564100  0.60860600  1
  O  O40  1  0.62352700  0.43328100  0.20112400  1
  O  O41  1  0.06951600  0.41646100  0.11551300  1
  O  O42  1  0.93048400  0.58353900  0.88448700  1
  O  O43  1  0.37647300  0.56671900  0.79887600  1
  O  O44  1  0.75049600  0.57435900  0.39139400  1
  O  O45  1  0.47774900  0.63609300  0.58830400  1
  O  O46  1  0.24703300  0.58047000  0.28761200  1
  O  O47  1  0.64287200  0.71604300  0.98814600  1
  O  O48  1  0.14353000  0.68634900  0.66648700  1
  O  O49  1  0.29538000  0.60850900  0.06494500  1
  O  O50  1  0.73989100  0.75756200  0.77772200  1
  O  O51  1  0.96337200  0.66842200  0.17092300  1
  O  O52  1  0.96684900  0.84583900  0.95629600  1
  O  O53  1  0.79306900  0.83693800  0.52643200  1
  O  O54  1  0.57968900  0.79047000  0.26265700  1
  O  O55  1  0.25740300  0.89575700  0.47974300  1
  O  O56  1  0.29718800  0.98319100  0.81256500  1
  O  O57  1  0.58167200  0.97326800  0.67578000  1
  O  O58  1  0.36994700  0.90822100  0.11195800  1
  O  O59  1  0.04425100  0.97566200  0.31496600  1
