# generated using pymatgen
data_LiMnPO4
_symmetry_space_group_name_H-M   'P 1'
_cell_length_a   5.27207485
_cell_length_b   9.66910737
_cell_length_c   6.18866976
_cell_angle_alpha   90.00000000
_cell_angle_beta   90.00000000
_cell_angle_gamma   84.66820974
_symmetry_Int_Tables_number   1
_chemical_formula_structural   LiMnPO4
_chemical_formula_sum   'Li4 Mn4 P4 O16'
_cell_volume   314.11025614
_cell_formula_units_Z   4
loop_
 _symmetry_equiv_pos_site_id
 _symmetry_equiv_pos_as_xyz
  1  'x, y, z'
loop_
 _atom_site_type_symbol
 _atom_site_label
 _atom_site_symmetry_multiplicity
 _atom_site_fract_x
 _atom_site_fract_y
 _atom_site_fract_z
 _atom_site_occupancy
  Li  Li0  1  0.16303304  0.92504060  0.63936845  1
  Li  Li1  1  0.33696647  0.57495963  0.13936802  1
  Li  Li2  1  0.66303275  0.42504056  0.86063123  1
  Li  Li3  1  0.83696618  0.07495959  0.36063079  1
  O  O4  1  0.00793568  0.77580900  0.14398465  1
  O  O5  1  0.99206354  0.22419119  0.85601460  1
  O  O6  1  0.76987069  0.44712208  0.56265779  1
  O  O7  1  0.71357156  0.47370619  0.16532942  1
  O  O8  1  0.01265555  0.73889439  0.66664677  1
  O  O9  1  0.98734558  0.26110581  0.33335410  1
  O  O10  1  0.23012854  0.55287811  0.43734145  1
  O  O11  1  0.28642786  0.52629295  0.83466983  1
  O  O12  1  0.21357185  0.97370623  0.33466939  1
  O  O13  1  0.26987098  0.94712212  0.93734189  1
  O  O14  1  0.78642757  0.02629291  0.66532985  1
  O  O15  1  0.50793730  0.27580897  0.35601578  1
  O  O16  1  0.49206384  0.72419123  0.64398508  1
  O  O17  1  0.48734587  0.76110585  0.16664634  1
  O  O18  1  0.73012825  0.05287807  0.06265736  1
  O  O19  1  0.51265526  0.23889435  0.83335453  1
  P  P20  1  0.74003872  0.36443751  0.34998035  1
  P  P21  1  0.75996212  0.13556265  0.84997917  1
  P  P22  1  0.24003711  0.86443754  0.15002008  1
  P  P23  1  0.25996241  0.63556269  0.65002051  1
  Mn  Mn24  1  0.21344280  0.33643131  0.61124928  1
  Mn  Mn25  1  0.28655681  0.16356879  0.11124885  1
  Mn  Mn26  1  0.71344242  0.83643140  0.88875040  1
  Mn  Mn27  1  0.78655643  0.66356888  0.38875158  1
