# generated using pymatgen
data_Li4Co5(P3O11)2
_symmetry_space_group_name_H-M   'P 1'
_cell_length_a   6.55399200
_cell_length_b   10.59413900
_cell_length_c   12.65236134
_cell_angle_alpha   76.42525556
_cell_angle_beta   90.00000000
_cell_angle_gamma   90.00000000
_symmetry_Int_Tables_number   1
_chemical_formula_structural   Li4Co5(P3O11)2
_chemical_formula_sum   'Li8 Co10 P12 O44'
_cell_volume   853.96145362
_cell_formula_units_Z   2
loop_
 _symmetry_equiv_pos_site_id
 _symmetry_equiv_pos_as_xyz
  1  'x, y, z'
loop_
 _atom_site_type_symbol
 _atom_site_label
 _atom_site_symmetry_multiplicity
 _atom_site_fract_x
 _atom_site_fract_y
 _atom_site_fract_z
 _atom_site_occupancy
  Li  Li0  1  0.36855100  0.06278800  0.81340500  1
  Li  Li1  1  0.46536900  0.12013400  0.33807700  1
  Li  Li2  1  0.53463100  0.87986600  0.66192300  1
  Li  Li3  1  0.86855100  0.43721200  0.18659500  1
  Li  Li4  1  0.03463100  0.62013400  0.33807700  1
  Li  Li5  1  0.13144900  0.56278800  0.81340500  1
  Li  Li6  1  0.63144900  0.93721200  0.18659500  1
  Li  Li7  1  0.96536900  0.37986600  0.66192300  1
  Co  Co8  1  0.48873600  0.69475100  0.34143600  1
  Co  Co9  1  0.25802500  0.71756600  0.13352200  1
  Co  Co10  1  0.24197500  0.21756600  0.13352200  1
  Co  Co11  1  0.98873600  0.80524900  0.65856400  1
  Co  Co12  1  0.51126400  0.30524900  0.65856400  1
  Co  Co13  1  0.50000000  0.50000000  0.00000000  1
  Co  Co14  1  0.75802500  0.78243400  0.86647800  1
  Co  Co15  1  0.74197500  0.28243400  0.86647800  1
  Co  Co16  1  0.01126400  0.19475100  0.34143600  1
  Co  Co17  1  0.00000000  0.00000000  0.00000000  1
  P  P18  1  0.26537700  0.77837600  0.91191600  1
  P  P19  1  0.77343200  0.91987900  0.41986200  1
  P  P20  1  0.09831600  0.92936500  0.26433400  1
  P  P21  1  0.76537700  0.72162400  0.08808400  1
  P  P22  1  0.22656800  0.08012100  0.58013800  1
  P  P23  1  0.23462300  0.27837600  0.91191600  1
  P  P24  1  0.27343200  0.58012100  0.58013800  1
  P  P25  1  0.59831600  0.57063500  0.73566600  1
  P  P26  1  0.40168400  0.42936500  0.26433400  1
  P  P27  1  0.73462300  0.22162400  0.08808400  1
  P  P28  1  0.90168400  0.07063500  0.73566600  1
  P  P29  1  0.72656800  0.41987900  0.41986200  1
  O  O30  1  0.56616400  0.44978000  0.17781100  1
  O  O31  1  0.20337200  0.05748500  0.27209900  1
  O  O32  1  0.91704800  0.24525400  0.16055300  1
  O  O33  1  0.27718400  0.36829300  0.99158200  1
  O  O34  1  0.19560500  0.14659000  0.99689900  1
  O  O35  1  0.77718400  0.13170700  0.00841800  1
  O  O36  1  0.80439500  0.85341000  0.00310100  1
  O  O37  1  0.73054500  0.56994600  0.38873800  1
  O  O38  1  0.55117000  0.16515400  0.16144100  1
  O  O39  1  0.99343300  0.87239300  0.38202700  1
  O  O40  1  0.44883000  0.83484600  0.83855900  1
  O  O41  1  0.75170800  0.67639400  0.74689000  1
  O  O42  1  0.39108600  0.12982400  0.64680700  1
  O  O43  1  0.29662800  0.55748500  0.27209900  1
  O  O44  1  0.93383600  0.94978000  0.17781100  1
  O  O45  1  0.30439500  0.64659000  0.99689900  1
  O  O46  1  0.89108600  0.37017600  0.35319300  1
  O  O47  1  0.26945500  0.43005400  0.61126200  1
  O  O48  1  0.05117000  0.33484600  0.83855900  1
  O  O49  1  0.26373500  0.63993500  0.45872700  1
  O  O50  1  0.22281600  0.86829300  0.99158200  1
  O  O51  1  0.94883000  0.66515400  0.16144100  1
  O  O52  1  0.49343300  0.62760700  0.61797300  1
  O  O53  1  0.10891400  0.62982400  0.64680700  1
  O  O54  1  0.50656700  0.37239300  0.38202700  1
  O  O55  1  0.72281600  0.63170700  0.00841800  1
  O  O56  1  0.23626500  0.13993500  0.45872700  1
  O  O57  1  0.60891400  0.87017600  0.35319300  1
  O  O58  1  0.70337200  0.44251500  0.72790100  1
  O  O59  1  0.25170800  0.82360600  0.25311000  1
  O  O60  1  0.74829200  0.17639400  0.74689000  1
  O  O61  1  0.23054500  0.93005400  0.61126200  1
  O  O62  1  0.00656700  0.12760700  0.61797300  1
  O  O63  1  0.73626500  0.36006500  0.54127300  1
  O  O64  1  0.24829200  0.32360600  0.25311000  1
  O  O65  1  0.41704800  0.25474600  0.83944700  1
  O  O66  1  0.06616400  0.05022000  0.82218900  1
  O  O67  1  0.08295200  0.75474600  0.83944700  1
  O  O68  1  0.76373500  0.86006500  0.54127300  1
  O  O69  1  0.43383600  0.55022000  0.82218900  1
  O  O70  1  0.79662800  0.94251500  0.72790100  1
  O  O71  1  0.58295200  0.74525400  0.16055300  1
  O  O72  1  0.76945500  0.06994600  0.38873800  1
  O  O73  1  0.69560500  0.35341000  0.00310100  1
