# generated using pymatgen
data_LiCoPO4
_symmetry_space_group_name_H-M   'P 1'
_cell_length_a   8.01253200
_cell_length_b   8.69454000
_cell_length_c   17.27084227
_cell_angle_alpha   60.41123985
_cell_angle_beta   90.00000000
_cell_angle_gamma   90.00000000
_symmetry_Int_Tables_number   1
_chemical_formula_structural   LiCoPO4
_chemical_formula_sum   'Li12 Co12 P12 O48'
_cell_volume   1046.27378953
_cell_formula_units_Z   12
loop_
 _symmetry_equiv_pos_site_id
 _symmetry_equiv_pos_as_xyz
  1  'x, y, z'
loop_
 _atom_site_type_symbol
 _atom_site_label
 _atom_site_symmetry_multiplicity
 _atom_site_fract_x
 _atom_site_fract_y
 _atom_site_fract_z
 _atom_site_occupancy
  Li  Li0  1  0.51708300  0.36882400  0.91475900  1
  Li  Li1  1  0.84840600  0.00435300  0.24659800  1
  Li  Li2  1  0.49121400  0.74838300  0.56002900  1
  Li  Li3  1  0.48291700  0.63117600  0.08524100  1
  Li  Li4  1  0.15159400  0.99564700  0.75340200  1
  Li  Li5  1  0.98291700  0.36882400  0.41475900  1
  Li  Li6  1  0.99121400  0.25161700  0.93997100  1
  Li  Li7  1  0.50878600  0.25161700  0.43997100  1
  Li  Li8  1  0.01708300  0.63117600  0.58524100  1
  Li  Li9  1  0.65159400  0.00435300  0.74659800  1
  Li  Li10  1  0.34840600  0.99564700  0.25340200  1
  Li  Li11  1  0.00878600  0.74838300  0.06002900  1
  Co  Co12  1  0.83345500  0.31651400  0.76459800  1
  Co  Co13  1  0.65522300  0.01492600  0.07897200  1
  Co  Co14  1  0.65763900  0.64701300  0.40726700  1
  Co  Co15  1  0.15763900  0.35298700  0.09273300  1
  Co  Co16  1  0.84477700  0.01492600  0.57897200  1
  Co  Co17  1  0.34477700  0.98507400  0.92102800  1
  Co  Co18  1  0.34236100  0.35298700  0.59273300  1
  Co  Co19  1  0.84236100  0.64701300  0.90726700  1
  Co  Co20  1  0.66654500  0.31651400  0.26459800  1
  Co  Co21  1  0.33345500  0.68348600  0.73540200  1
  Co  Co22  1  0.16654500  0.68348600  0.23540200  1
  Co  Co23  1  0.15522300  0.98507400  0.42102800  1
  P  P24  1  0.73530000  0.96349500  0.92861900  1
  P  P25  1  0.22028500  0.31594200  0.77025500  1
  P  P26  1  0.25649900  0.64279900  0.41269800  1
  P  P27  1  0.27971500  0.31594200  0.27025500  1
  P  P28  1  0.26470000  0.03650500  0.07138100  1
  P  P29  1  0.72028500  0.68405800  0.72974500  1
  P  P30  1  0.75649900  0.35720100  0.08730200  1
  P  P31  1  0.77971500  0.68405800  0.22974500  1
  P  P32  1  0.74350100  0.35720100  0.58730200  1
  P  P33  1  0.23530000  0.03650500  0.57138100  1
  P  P34  1  0.76470000  0.96349500  0.42861900  1
  P  P35  1  0.24350100  0.64279900  0.91269800  1
  O  O36  1  0.25999700  0.84906400  0.36778400  1
  O  O37  1  0.87515800  0.41299600  0.63499900  1
  O  O38  1  0.28906600  0.56695900  0.01270100  1
  O  O39  1  0.06466700  0.12725600  0.53168700  1
  O  O40  1  0.28852000  0.91803400  0.53094800  1
  O  O41  1  0.75999700  0.15093600  0.13221600  1
  O  O42  1  0.93533300  0.87274400  0.46831300  1
  O  O43  1  0.71869100  0.08192400  0.82590900  1
  O  O44  1  0.78852000  0.08196600  0.96905200  1
  O  O45  1  0.74000300  0.15093600  0.63221600  1
  O  O46  1  0.22873400  0.22700300  0.71067300  1
  O  O47  1  0.27126600  0.22700300  0.21067300  1
  O  O48  1  0.27378200  0.51829000  0.20581700  1
  O  O49  1  0.72621800  0.48171000  0.79418300  1
  O  O50  1  0.71093400  0.43304100  0.98729900  1
  O  O51  1  0.07158500  0.57204900  0.90236600  1
  O  O52  1  0.21148000  0.91803400  0.03094800  1
  O  O53  1  0.72873400  0.77299700  0.78932700  1
  O  O54  1  0.21093400  0.56695900  0.51270100  1
  O  O55  1  0.36471300  0.24682400  0.83904100  1
  O  O56  1  0.28130900  0.91807600  0.17409100  1
  O  O57  1  0.05381300  0.26114300  0.82435500  1
  O  O58  1  0.78130900  0.08192400  0.32590900  1
  O  O59  1  0.24000300  0.84906400  0.86778400  1
  O  O60  1  0.43533300  0.12725600  0.03168700  1
  O  O61  1  0.63528700  0.75317600  0.16095900  1
  O  O62  1  0.42841500  0.57204900  0.40236600  1
  O  O63  1  0.37515800  0.58700400  0.86500100  1
  O  O64  1  0.57158500  0.42795100  0.59763400  1
  O  O65  1  0.94618700  0.73885700  0.17564500  1
  O  O66  1  0.92841500  0.42795100  0.09763400  1
  O  O67  1  0.77378200  0.48171000  0.29418300  1
  O  O68  1  0.77126600  0.77299700  0.28932700  1
  O  O69  1  0.13138700  0.18241600  0.04708500  1
  O  O70  1  0.36861300  0.18241600  0.54708500  1
  O  O71  1  0.22621800  0.51829000  0.70581700  1
  O  O72  1  0.21869100  0.91807600  0.67409100  1
  O  O73  1  0.56466700  0.87274400  0.96831300  1
  O  O74  1  0.13528700  0.24682400  0.33904100  1
  O  O75  1  0.63138700  0.81758400  0.45291500  1
  O  O76  1  0.78906600  0.43304100  0.48729900  1
  O  O77  1  0.86471300  0.75317600  0.66095900  1
  O  O78  1  0.44618700  0.26114300  0.32435500  1
  O  O79  1  0.62484200  0.41299600  0.13499900  1
  O  O80  1  0.86861300  0.81758400  0.95291500  1
  O  O81  1  0.12484200  0.58700400  0.36500100  1
  O  O82  1  0.71148000  0.08196600  0.46905200  1
  O  O83  1  0.55381300  0.73885700  0.67564500  1
