# generated using pymatgen
data_LiV6P7O24
_symmetry_space_group_name_H-M   'P 1'
_cell_length_a   26.85238400
_cell_length_b   5.39330200
_cell_length_c   6.64849357
_cell_angle_alpha   72.58370519
_cell_angle_beta   90.00000000
_cell_angle_gamma   90.00000000
_symmetry_Int_Tables_number   1
_chemical_formula_structural   LiV6P7O24
_chemical_formula_sum   'Li2 V12 P14 O48'
_cell_volume   918.71304459
_cell_formula_units_Z   2
loop_
 _symmetry_equiv_pos_site_id
 _symmetry_equiv_pos_as_xyz
  1  'x, y, z'
loop_
 _atom_site_type_symbol
 _atom_site_label
 _atom_site_symmetry_multiplicity
 _atom_site_fract_x
 _atom_site_fract_y
 _atom_site_fract_z
 _atom_site_occupancy
  Li  Li0  1  0.75000000  0.37585500  0.96023400  1
  Li  Li1  1  0.25000000  0.62414500  0.03976600  1
  V  V2  1  0.45467400  0.32257800  0.18886100  1
  V  V3  1  0.04532600  0.32257800  0.18886100  1
  V  V4  1  0.31650400  0.38636700  0.77515300  1
  V  V5  1  0.18349600  0.38636700  0.77515300  1
  V  V6  1  0.90245300  0.29140400  0.58666500  1
  V  V7  1  0.59754700  0.29140400  0.58666500  1
  V  V8  1  0.40245300  0.70859600  0.41333500  1
  V  V9  1  0.09754700  0.70859600  0.41333500  1
  V  V10  1  0.81650400  0.61363300  0.22484700  1
  V  V11  1  0.68349600  0.61363300  0.22484700  1
  V  V12  1  0.95467400  0.67742200  0.81113900  1
  V  V13  1  0.54532600  0.67742200  0.81113900  1
  P  P14  1  0.33223700  0.26078100  0.30804900  1
  P  P15  1  0.16776300  0.26078100  0.30804900  1
  P  P16  1  0.89107700  0.17528800  0.11546600  1
  P  P17  1  0.60892300  0.17528800  0.11546600  1
  P  P18  1  0.75000000  0.02549600  0.40787300  1
  P  P19  1  0.47609200  0.21261100  0.70414700  1
  P  P20  1  0.02390800  0.21261100  0.70414700  1
  P  P21  1  0.97609200  0.78738900  0.29585300  1
  P  P22  1  0.52390800  0.78738900  0.29585300  1
  P  P23  1  0.25000000  0.97450400  0.59212700  1
  P  P24  1  0.39107700  0.82471200  0.88453400  1
  P  P25  1  0.10892300  0.82471200  0.88453400  1
  P  P26  1  0.83223700  0.73921900  0.69195100  1
  P  P27  1  0.66776300  0.73921900  0.69195100  1
  O  O28  1  0.33535000  0.44326000  0.44649400  1
  O  O29  1  0.16465000  0.44326000  0.44649400  1
  O  O30  1  0.45047300  0.36965200  0.49883100  1
  O  O31  1  0.04952700  0.36965200  0.49883100  1
  O  O32  1  0.87861600  0.34276000  0.26083800  1
  O  O33  1  0.62138400  0.34276000  0.26083800  1
  O  O34  1  0.30514600  0.38789500  0.10094400  1
  O  O35  1  0.19485400  0.38789500  0.10094400  1
  O  O36  1  0.75000000  0.31280900  0.27766900  1
  O  O37  1  0.47952000  0.36731200  0.86379300  1
  O  O38  1  0.02048000  0.36731200  0.86379300  1
  O  O39  1  0.90492200  0.34807300  0.89295400  1
  O  O40  1  0.59507800  0.34807300  0.89295400  1
  O  O41  1  0.38022400  0.11843400  0.28771800  1
  O  O42  1  0.11977600  0.11843400  0.28771800  1
  O  O43  1  0.29665800  0.01484400  0.44119900  1
  O  O44  1  0.20334200  0.01484400  0.44119900  1
  O  O45  1  0.94348600  0.04312700  0.20172600  1
  O  O46  1  0.55651400  0.04312700  0.20172600  1
  O  O47  1  0.25000000  0.16271100  0.72319400  1
  O  O48  1  0.47417800  0.90993600  0.33151900  1
  O  O49  1  0.02582200  0.90993600  0.33151900  1
  O  O50  1  0.85209900  0.97461300  0.11771100  1
  O  O51  1  0.64790100  0.97461300  0.11771100  1
  O  O52  1  0.35209900  0.02538700  0.88228900  1
  O  O53  1  0.14790100  0.02538700  0.88228900  1
  O  O54  1  0.97417800  0.09006400  0.66848100  1
  O  O55  1  0.52582200  0.09006400  0.66848100  1
  O  O56  1  0.75000000  0.83728900  0.27680600  1
  O  O57  1  0.44348600  0.95687300  0.79827400  1
  O  O58  1  0.05651400  0.95687300  0.79827400  1
  O  O59  1  0.79665800  0.98515600  0.55880100  1
  O  O60  1  0.70334200  0.98515600  0.55880100  1
  O  O61  1  0.88022400  0.88156600  0.71228200  1
  O  O62  1  0.61977600  0.88156600  0.71228200  1
  O  O63  1  0.40492200  0.65192700  0.10704600  1
  O  O64  1  0.09507800  0.65192700  0.10704600  1
  O  O65  1  0.97952000  0.63268800  0.13620700  1
  O  O66  1  0.52048000  0.63268800  0.13620700  1
  O  O67  1  0.25000000  0.68719100  0.72233100  1
  O  O68  1  0.80514600  0.61210500  0.89905600  1
  O  O69  1  0.69485400  0.61210500  0.89905600  1
  O  O70  1  0.37861600  0.65724000  0.73916200  1
  O  O71  1  0.12138400  0.65724000  0.73916200  1
  O  O72  1  0.95047300  0.63034800  0.50116900  1
  O  O73  1  0.54952700  0.63034800  0.50116900  1
  O  O74  1  0.83535000  0.55674000  0.55350600  1
  O  O75  1  0.66465000  0.55674000  0.55350600  1
