# generated using pymatgen
data_LiSb(PO3)4
_symmetry_space_group_name_H-M   'P 1'
_cell_length_a   9.35226000
_cell_length_b   10.35642200
_cell_length_c   12.58085301
_cell_angle_alpha   55.11360417
_cell_angle_beta   90.00000000
_cell_angle_gamma   90.00000000
_symmetry_Int_Tables_number   1
_chemical_formula_structural   LiSb(PO3)4
_chemical_formula_sum   'Li4 Sb4 P16 O48'
_cell_volume   999.54557119
_cell_formula_units_Z   4
loop_
 _symmetry_equiv_pos_site_id
 _symmetry_equiv_pos_as_xyz
  1  'x, y, z'
loop_
 _atom_site_type_symbol
 _atom_site_label
 _atom_site_symmetry_multiplicity
 _atom_site_fract_x
 _atom_site_fract_y
 _atom_site_fract_z
 _atom_site_occupancy
  Li  Li0  1  0.05372900  0.13719200  0.88999900  1
  Li  Li1  1  0.55372900  0.86280800  0.61000100  1
  Li  Li2  1  0.44627100  0.13719200  0.38999900  1
  Li  Li3  1  0.94627100  0.86280800  0.11000100  1
  Sb  Sb4  1  0.29725700  0.81116600  0.99238000  1
  Sb  Sb5  1  0.20274300  0.81116600  0.49238000  1
  Sb  Sb6  1  0.79725700  0.18883400  0.50762000  1
  Sb  Sb7  1  0.70274300  0.18883400  0.00762000  1
  P  P8  1  0.34084600  0.20243500  0.96390900  1
  P  P9  1  0.50588500  0.48812000  0.77248700  1
  P  P10  1  0.10803100  0.70755100  0.80974900  1
  P  P11  1  0.00588500  0.51188000  0.72751300  1
  P  P12  1  0.88765000  0.89343400  0.84867400  1
  P  P13  1  0.38765000  0.10656600  0.65132600  1
  P  P14  1  0.84084600  0.79756500  0.53609100  1
  P  P15  1  0.60803100  0.29244900  0.69025100  1
  P  P16  1  0.39196900  0.70755100  0.30974900  1
  P  P17  1  0.15915400  0.20243500  0.46390900  1
  P  P18  1  0.61235000  0.89343400  0.34867400  1
  P  P19  1  0.11235000  0.10656600  0.15132600  1
  P  P20  1  0.99411500  0.48812000  0.27248700  1
  P  P21  1  0.89196900  0.29244900  0.19025100  1
  P  P22  1  0.49411500  0.51188000  0.22751300  1
  P  P23  1  0.65915400  0.79756500  0.03609100  1
  O  O24  1  0.26723100  0.11111900  0.92107400  1
  O  O25  1  0.65955800  0.18702800  0.82788600  1
  O  O26  1  0.62193500  0.42607100  0.87563700  1
  O  O27  1  0.36383500  0.38116300  0.84074100  1
  O  O28  1  0.96630400  0.34330700  0.79884800  1
  O  O29  1  0.20508800  0.66560100  0.92019900  1
  O  O30  1  0.76662300  0.77147400  0.95072500  1
  O  O31  1  0.51950700  0.86081200  0.96039100  1
  O  O32  1  0.04955100  0.54523200  0.83427400  1
  O  O33  1  0.98869600  0.93801000  0.91624500  1
  O  O34  1  0.95869400  0.77547700  0.82148600  1
  O  O35  1  0.54955100  0.45476800  0.66572600  1
  O  O36  1  0.46630400  0.65669300  0.70115200  1
  O  O37  1  0.86383500  0.61883700  0.65925900  1
  O  O38  1  0.12193500  0.57392900  0.62436300  1
  O  O39  1  0.31250300  0.97709900  0.77096700  1
  O  O40  1  0.15955800  0.81297200  0.67211400  1
  O  O41  1  0.81250300  0.02290100  0.72903300  1
  O  O42  1  0.76723100  0.88888100  0.57892600  1
  O  O43  1  0.45869400  0.22452300  0.67851400  1
  O  O44  1  0.48869600  0.06199000  0.58375500  1
  O  O45  1  0.29491200  0.66560100  0.42019900  1
  O  O46  1  0.73337700  0.77147400  0.45072500  1
  O  O47  1  0.98049300  0.86081200  0.46039100  1
  O  O48  1  0.01950700  0.13918800  0.53960900  1
  O  O49  1  0.26662300  0.22852600  0.54927500  1
  O  O50  1  0.70508800  0.33439900  0.57980100  1
  O  O51  1  0.51130400  0.93801000  0.41624500  1
  O  O52  1  0.54130600  0.77547700  0.32148600  1
  O  O53  1  0.23276900  0.11111900  0.42107400  1
  O  O54  1  0.18749700  0.97709900  0.27096700  1
  O  O55  1  0.84044200  0.18702800  0.32788600  1
  O  O56  1  0.68749700  0.02290100  0.22903300  1
  O  O57  1  0.87806500  0.42607100  0.37563700  1
  O  O58  1  0.13616500  0.38116300  0.34074100  1
  O  O59  1  0.53369600  0.34330700  0.29884800  1
  O  O60  1  0.45044900  0.54523200  0.33427400  1
  O  O61  1  0.04130600  0.22452300  0.17851400  1
  O  O62  1  0.01130400  0.06199000  0.08375500  1
  O  O63  1  0.95044900  0.45476800  0.16572600  1
  O  O64  1  0.48049300  0.13918800  0.03960900  1
  O  O65  1  0.23337700  0.22852600  0.04927500  1
  O  O66  1  0.79491200  0.33439900  0.07980100  1
  O  O67  1  0.03369600  0.65669300  0.20115200  1
  O  O68  1  0.63616500  0.61883700  0.15925900  1
  O  O69  1  0.37806500  0.57392900  0.12436300  1
  O  O70  1  0.34044200  0.81297200  0.17211400  1
  O  O71  1  0.73276900  0.88888100  0.07892600  1
