# generated using pymatgen
data_LiMnPO4
_symmetry_space_group_name_H-M   'P 1'
_cell_length_a   5.49773300
_cell_length_b   8.05691800
_cell_length_c   8.57564262
_cell_angle_alpha   75.39186489
_cell_angle_beta   90.00000000
_cell_angle_gamma   90.00000000
_symmetry_Int_Tables_number   1
_chemical_formula_structural   LiMnPO4
_chemical_formula_sum   'Li4 Mn4 P4 O16'
_cell_volume   367.57676546
_cell_formula_units_Z   4
loop_
 _symmetry_equiv_pos_site_id
 _symmetry_equiv_pos_as_xyz
  1  'x, y, z'
loop_
 _atom_site_type_symbol
 _atom_site_label
 _atom_site_symmetry_multiplicity
 _atom_site_fract_x
 _atom_site_fract_y
 _atom_site_fract_z
 _atom_site_occupancy
  Li  Li0  1  0.84867300  0.03110300  0.06945000  1
  Li  Li1  1  0.34169200  0.50221900  0.28345000  1
  Li  Li2  1  0.15132700  0.03110300  0.56945000  1
  Li  Li3  1  0.65830800  0.50221900  0.78345000  1
  Mn  Mn4  1  0.34140800  0.13312700  0.19683400  1
  Mn  Mn5  1  0.83467200  0.63286800  0.39668000  1
  Mn  Mn6  1  0.65859200  0.13312700  0.69683400  1
  Mn  Mn7  1  0.16532800  0.63286800  0.89668000  1
  P  P8  1  0.16397800  0.25776200  0.82446300  1
  P  P9  1  0.33563600  0.75395500  0.51539600  1
  P  P10  1  0.83602200  0.25776200  0.32446300  1
  P  P11  1  0.66436400  0.75395500  0.01539600  1
  O  O12  1  0.40524000  0.68180300  0.06395000  1
  O  O13  1  0.79820900  0.62587200  0.93611000  1
  O  O14  1  0.16091200  0.12077000  0.98952400  1
  O  O15  1  0.31500700  0.41405500  0.84461900  1
  O  O16  1  0.71244700  0.18164300  0.19442000  1
  O  O17  1  0.66327600  0.93634400  0.90016000  1
  O  O18  1  0.10439600  0.30908600  0.27335800  1
  O  O19  1  0.80243100  0.78059600  0.16538600  1
  O  O20  1  0.68499300  0.41405500  0.34461900  1
  O  O21  1  0.83908800  0.12077000  0.48952400  1
  O  O22  1  0.19756900  0.78059600  0.66538600  1
  O  O23  1  0.33672400  0.93634400  0.40016000  1
  O  O24  1  0.28755300  0.18164300  0.69442000  1
  O  O25  1  0.59476000  0.68180300  0.56395000  1
  O  O26  1  0.89560400  0.30908600  0.77335800  1
  O  O27  1  0.20179100  0.62587200  0.43611000  1
