# generated using pymatgen
data_LiNi4(PO4)3
_symmetry_space_group_name_H-M   'P 1'
_cell_length_a   10.32727682
_cell_length_b   10.32727682
_cell_length_c   10.32727682
_cell_angle_alpha   142.70452450
_cell_angle_beta   142.70452450
_cell_angle_gamma   53.76896628
_symmetry_Int_Tables_number   1
_chemical_formula_structural   LiNi4(PO4)3
_chemical_formula_sum   'Li2 Ni8 P6 O24'
_cell_volume   401.75507647
_cell_formula_units_Z   2
loop_
 _symmetry_equiv_pos_site_id
 _symmetry_equiv_pos_as_xyz
  1  'x, y, z'
loop_
 _atom_site_type_symbol
 _atom_site_label
 _atom_site_symmetry_multiplicity
 _atom_site_fract_x
 _atom_site_fract_y
 _atom_site_fract_z
 _atom_site_occupancy
  Li  Li0  1  0.75000000  0.25000000  0.50000000  1
  Li  Li1  1  0.00000000  0.00000000  0.00000000  1
  Ni  Ni2  1  0.72776600  0.72776600  0.00000000  1
  Ni  Ni3  1  0.12982800  0.62500000  0.00482800  1
  Ni  Ni4  1  0.02223400  0.52223400  0.50000000  1
  Ni  Ni5  1  0.27223400  0.27223400  0.00000000  1
  Ni  Ni6  1  0.37500000  0.37982800  0.50482800  1
  Ni  Ni7  1  0.62017200  0.12500000  0.99517200  1
  Ni  Ni8  1  0.47776600  0.97776600  0.50000000  1
  Ni  Ni9  1  0.87500000  0.87017200  0.49517200  1
  P  P10  1  0.37500000  0.97748900  0.10248900  1
  P  P11  1  0.87500000  0.27251100  0.89751100  1
  P  P12  1  0.02251100  0.12500000  0.39751100  1
  P  P13  1  0.50000000  0.50000000  0.00000000  1
  P  P14  1  0.72748900  0.62500000  0.60248900  1
  P  P15  1  0.25000000  0.75000000  0.50000000  1
  O  O16  1  0.01068000  0.75747000  0.35504600  1
  O  O17  1  0.16221400  0.83675500  0.79039100  1
  O  O18  1  0.58778600  0.87817800  0.17454100  1
  O  O19  1  0.62817800  0.83778600  0.67454100  1
  O  O20  1  0.97597200  0.19001900  0.78296100  1
  O  O21  1  0.77402800  0.05698900  0.71404700  1
  O  O22  1  0.40705800  0.19301100  0.21703900  1
  O  O23  1  0.34294200  0.05998100  0.28595300  1
  O  O24  1  0.24253000  0.59757700  0.25321000  1
  O  O25  1  0.80998100  0.59294200  0.78595300  1
  O  O26  1  0.94301100  0.65705800  0.71703900  1
  O  O27  1  0.40563300  0.65242300  0.14495400  1
  O  O28  1  0.58675500  0.41221400  0.29039100  1
  O  O29  1  0.73932000  0.59436700  0.24679000  1
  O  O30  1  0.34757700  0.49253000  0.75321000  1
  O  O31  1  0.40242300  0.65563300  0.64495400  1
  O  O32  1  0.12182200  0.29636300  0.70960900  1
  O  O33  1  0.50747000  0.26068000  0.85504600  1
  O  O34  1  0.94001900  0.22597200  0.28296100  1
  O  O35  1  0.70363700  0.41324500  0.82545900  1
  O  O36  1  0.04636300  0.37182200  0.20960900  1
  O  O37  1  0.80698900  0.02402800  0.21404700  1
  O  O38  1  0.34436700  0.98932000  0.74679000  1
  O  O39  1  0.16324500  0.95363700  0.32545900  1
