# generated using pymatgen
data_LiPH2O3
_symmetry_space_group_name_H-M   'P 1'
_cell_length_a   5.13508800
_cell_length_b   5.26013700
_cell_length_c   11.17583600
_cell_angle_alpha   90.00000000
_cell_angle_beta   90.00000000
_cell_angle_gamma   90.00000000
_symmetry_Int_Tables_number   1
_chemical_formula_structural   LiPH2O3
_chemical_formula_sum   'Li4 P4 H8 O12'
_cell_volume   301.87348329
_cell_formula_units_Z   4
loop_
 _symmetry_equiv_pos_site_id
 _symmetry_equiv_pos_as_xyz
  1  'x, y, z'
loop_
 _atom_site_type_symbol
 _atom_site_label
 _atom_site_symmetry_multiplicity
 _atom_site_fract_x
 _atom_site_fract_y
 _atom_site_fract_z
 _atom_site_occupancy
  Li  Li0  1  0.98108500  0.26186500  0.42072300  1
  Li  Li1  1  0.48108500  0.76186500  0.07927700  1
  Li  Li2  1  0.51891500  0.26186500  0.92072300  1
  Li  Li3  1  0.01891500  0.76186500  0.57927700  1
  P  P4  1  0.68489200  0.74494400  0.34460500  1
  P  P5  1  0.31510800  0.24494400  0.65539500  1
  P  P6  1  0.81510800  0.74494400  0.84460500  1
  P  P7  1  0.18489200  0.24494400  0.15539500  1
  H  H8  1  0.99320400  0.61867200  0.16060000  1
  H  H9  1  0.00679600  0.11867200  0.83940000  1
  H  H10  1  0.50679600  0.61867200  0.66060000  1
  H  H11  1  0.49320400  0.11867200  0.33940000  1
  H  H12  1  0.56544000  0.15006300  0.63030500  1
  H  H13  1  0.06544000  0.65006300  0.86969500  1
  H  H14  1  0.93456000  0.15006300  0.13030500  1
  H  H15  1  0.43456000  0.65006300  0.36969500  1
  O  O16  1  0.88407600  0.62740500  0.42820700  1
  O  O17  1  0.61592400  0.62740500  0.92820700  1
  O  O18  1  0.11592400  0.12740500  0.57179300  1
  O  O19  1  0.38407600  0.12740500  0.07179300  1
  O  O20  1  0.16237600  0.54178900  0.12379900  1
  O  O21  1  0.73420700  0.70586300  0.21093000  1
  O  O22  1  0.33762400  0.54178900  0.62379900  1
  O  O23  1  0.83762400  0.04178900  0.87620100  1
  O  O24  1  0.76579300  0.70586300  0.71093000  1
  O  O25  1  0.23420700  0.20586300  0.28907000  1
  O  O26  1  0.66237600  0.04178900  0.37620100  1
  O  O27  1  0.26579300  0.20586300  0.78907000  1
