# generated using pymatgen
data_Li3Fe2(PO4)3
_symmetry_space_group_name_H-M   'P 1'
_cell_length_a   8.62262060
_cell_length_b   8.62262060
_cell_length_c   6.41747424
_cell_angle_alpha   73.56092068
_cell_angle_beta   73.56092068
_cell_angle_gamma   95.44150919
_symmetry_Int_Tables_number   1
_chemical_formula_structural   Li3Fe2(PO4)3
_chemical_formula_sum   'Li6 Fe4 P6 O24'
_cell_volume   430.91667262
_cell_formula_units_Z   2
loop_
 _symmetry_equiv_pos_site_id
 _symmetry_equiv_pos_as_xyz
  1  'x, y, z'
loop_
 _atom_site_type_symbol
 _atom_site_label
 _atom_site_symmetry_multiplicity
 _atom_site_fract_x
 _atom_site_fract_y
 _atom_site_fract_z
 _atom_site_occupancy
  Li  Li0  1  0.70988100  0.29011900  0.75000000  1
  Li  Li1  1  0.50000000  0.50000000  0.00000000  1
  Li  Li2  1  0.29011900  0.70988100  0.25000000  1
  Li  Li3  1  0.03398400  0.96601600  0.25000000  1
  Li  Li4  1  0.50000000  0.50000000  0.50000000  1
  Li  Li5  1  0.96601600  0.03398400  0.75000000  1
  Fe  Fe6  1  0.36432200  0.05933500  0.37259700  1
  Fe  Fe7  1  0.05933500  0.36432200  0.87259700  1
  Fe  Fe8  1  0.94066500  0.63567800  0.12740300  1
  Fe  Fe9  1  0.63567800  0.94066500  0.62740300  1
  P  P10  1  0.66310000  0.86806000  0.12961700  1
  P  P11  1  0.29275900  0.70724100  0.75000000  1
  P  P12  1  0.70724100  0.29275900  0.25000000  1
  P  P13  1  0.33690000  0.13194000  0.87038300  1
  P  P14  1  0.86806000  0.66310000  0.62961700  1
  P  P15  1  0.13194000  0.33690000  0.37038300  1
  O  O16  1  0.27220200  0.82093300  0.52843800  1
  O  O17  1  0.04517500  0.38734000  0.18532400  1
  O  O18  1  0.15439600  0.15117300  0.40807100  1
  O  O19  1  0.32703300  0.00616100  0.10643200  1
  O  O20  1  0.67296700  0.99383900  0.89356800  1
  O  O21  1  0.84560400  0.84882700  0.59192800  1
  O  O22  1  0.95482500  0.61266000  0.81467600  1
  O  O23  1  0.99383900  0.67296700  0.39356800  1
  O  O24  1  0.84882700  0.84560400  0.09192900  1
  O  O25  1  0.61266000  0.95482500  0.31467600  1
  O  O26  1  0.70763000  0.54319700  0.69836300  1
  O  O27  1  0.15117300  0.15439600  0.90807100  1
  O  O28  1  0.17906700  0.72779800  0.97156200  1
  O  O29  1  0.54319700  0.70763000  0.19836300  1
  O  O30  1  0.47085400  0.73625800  0.76156800  1
  O  O31  1  0.73625800  0.47085400  0.26156800  1
  O  O32  1  0.26374200  0.52914600  0.73843200  1
  O  O33  1  0.72779800  0.17906700  0.47156200  1
  O  O34  1  0.45680300  0.29237000  0.80163700  1
  O  O35  1  0.82093300  0.27220200  0.02843800  1
  O  O36  1  0.52914600  0.26374200  0.23843200  1
  O  O37  1  0.29237000  0.45680300  0.30163700  1
  O  O38  1  0.38734000  0.04517500  0.68532400  1
  O  O39  1  0.00616100  0.32703300  0.60643200  1
