# generated using pymatgen
data_Li8CoO6
_symmetry_space_group_name_H-M   'P 1'
_cell_length_a   5.55607020
_cell_length_b   5.55607020
_cell_length_c   10.89773300
_cell_angle_alpha   90.00000000
_cell_angle_beta   90.00000000
_cell_angle_gamma   120.00000242
_symmetry_Int_Tables_number   1
_chemical_formula_structural   Li8CoO6
_chemical_formula_sum   'Li16 Co2 O12'
_cell_volume   291.34142061
_cell_formula_units_Z   2
loop_
 _symmetry_equiv_pos_site_id
 _symmetry_equiv_pos_as_xyz
  1  'x, y, z'
loop_
 _atom_site_type_symbol
 _atom_site_label
 _atom_site_symmetry_multiplicity
 _atom_site_fract_x
 _atom_site_fract_y
 _atom_site_fract_z
 _atom_site_occupancy
  Li  Li0  1  0.68752500  0.00000000  0.76774000  1
  Li  Li1  1  0.68752500  0.68752500  0.26774000  1
  Li  Li2  1  0.00000000  0.31247500  0.26774000  1
  Li  Li3  1  0.00000000  0.68752500  0.76774000  1
  Li  Li4  1  0.31247500  0.31247500  0.76774000  1
  Li  Li5  1  0.31247500  0.00000000  0.26774000  1
  Li  Li6  1  0.61143400  0.00000000  0.12741600  1
  Li  Li7  1  0.61143400  0.61143400  0.62741600  1
  Li  Li8  1  0.00000000  0.38856600  0.62741600  1
  Li  Li9  1  0.00000000  0.61143400  0.12741600  1
  Li  Li10  1  0.38856600  0.38856600  0.12741600  1
  Li  Li11  1  0.38856600  0.00000000  0.62741600  1
  Li  Li12  1  0.66666700  0.33333300  0.40699300  1
  Li  Li13  1  0.33333300  0.66666700  0.90699300  1
  Li  Li14  1  0.33333300  0.66666700  0.40699300  1
  Li  Li15  1  0.66666700  0.33333300  0.90699300  1
  Co  Co16  1  0.00000000  0.00000000  0.49599200  1
  Co  Co17  1  0.00000000  0.00000000  0.99599200  1
  O  O18  1  0.69047700  0.00000000  0.94915300  1
  O  O19  1  0.69047700  0.69047700  0.44915300  1
  O  O20  1  0.00000000  0.30952300  0.44915300  1
  O  O21  1  0.00000000  0.69047700  0.94915300  1
  O  O22  1  0.30952300  0.30952300  0.94915300  1
  O  O23  1  0.30952300  0.00000000  0.44915300  1
  O  O24  1  0.66666700  0.33333300  0.21679000  1
  O  O25  1  0.00000000  0.00000000  0.16552000  1
  O  O26  1  0.66666700  0.33333300  0.71679000  1
  O  O27  1  0.33333300  0.66666700  0.21679000  1
  O  O28  1  0.00000000  0.00000000  0.66552000  1
  O  O29  1  0.33333300  0.66666700  0.71679000  1
