# generated using pymatgen
data_Li3Cu(PO4)2
_symmetry_space_group_name_H-M   'P 1'
_cell_length_a   5.01231900
_cell_length_b   6.67661700
_cell_length_c   10.18209033
_cell_angle_alpha   89.75600199
_cell_angle_beta   90.00000000
_cell_angle_gamma   90.00000000
_symmetry_Int_Tables_number   1
_chemical_formula_structural   Li3Cu(PO4)2
_chemical_formula_sum   'Li6 Cu2 P4 O16'
_cell_volume   340.74396635
_cell_formula_units_Z   2
loop_
 _symmetry_equiv_pos_site_id
 _symmetry_equiv_pos_as_xyz
  1  'x, y, z'
loop_
 _atom_site_type_symbol
 _atom_site_label
 _atom_site_symmetry_multiplicity
 _atom_site_fract_x
 _atom_site_fract_y
 _atom_site_fract_z
 _atom_site_occupancy
  Li  Li0  1  0.57018700  0.50101600  0.15477900  1
  Li  Li1  1  0.43308000  0.99849000  0.65305000  1
  Li  Li2  1  0.56692000  0.99849000  0.15305000  1
  Li  Li3  1  0.42981300  0.50101600  0.65477900  1
  Li  Li4  1  0.07328000  0.49848300  0.34022000  1
  Li  Li5  1  0.92672000  0.49848300  0.84022000  1
  Cu  Cu6  1  0.06901100  0.99749000  0.34718700  1
  Cu  Cu7  1  0.93098900  0.99749000  0.84718700  1
  P  P8  1  0.07732100  0.74763100  0.09536900  1
  P  P9  1  0.55963500  0.25446700  0.41011700  1
  P  P10  1  0.44036500  0.25446700  0.91011700  1
  P  P11  1  0.92267900  0.74763100  0.59536900  1
  O  O12  1  0.12778500  0.24039900  0.89293500  1
  O  O13  1  0.61890700  0.75359000  0.60297200  1
  O  O14  1  0.04156700  0.55824000  0.65702200  1
  O  O15  1  0.45929200  0.44183600  0.33892600  1
  O  O16  1  0.04184100  0.93777100  0.66598600  1
  O  O17  1  0.87221500  0.24039900  0.39293500  1
  O  O18  1  0.48428200  0.24814000  0.55517400  1
  O  O19  1  0.54070800  0.44183600  0.83892600  1
  O  O20  1  0.02091500  0.75855100  0.44761500  1
  O  O21  1  0.38109300  0.75359000  0.10297200  1
  O  O22  1  0.55276500  0.06225800  0.83817500  1
  O  O23  1  0.95843300  0.55824000  0.15702200  1
  O  O24  1  0.95815900  0.93777100  0.16598600  1
  O  O25  1  0.51571800  0.24814000  0.05517400  1
  O  O26  1  0.97908500  0.75855100  0.94761500  1
  O  O27  1  0.44723500  0.06225800  0.33817500  1
