# generated using pymatgen
data_Li3InO3
_symmetry_space_group_name_H-M   'P 1'
_cell_length_a   5.70886378
_cell_length_b   5.70886378
_cell_length_c   10.43252500
_cell_angle_alpha   90.00000000
_cell_angle_beta   90.00000000
_cell_angle_gamma   119.99999748
_symmetry_Int_Tables_number   1
_chemical_formula_structural   Li3InO3
_chemical_formula_sum   'Li12 In4 O12'
_cell_volume   294.45534220
_cell_formula_units_Z   4
loop_
 _symmetry_equiv_pos_site_id
 _symmetry_equiv_pos_as_xyz
  1  'x, y, z'
loop_
 _atom_site_type_symbol
 _atom_site_label
 _atom_site_symmetry_multiplicity
 _atom_site_fract_x
 _atom_site_fract_y
 _atom_site_fract_z
 _atom_site_occupancy
  Li  Li0  1  0.62894200  0.94603300  0.92943400  1
  Li  Li1  1  0.05396700  0.68290900  0.92943400  1
  Li  Li2  1  0.31709100  0.37105800  0.92943400  1
  Li  Li3  1  0.05396700  0.37105800  0.57056600  1
  Li  Li4  1  0.31709100  0.94603300  0.57056600  1
  Li  Li5  1  0.62894200  0.68290900  0.57056600  1
  Li  Li6  1  0.37105800  0.05396700  0.07056600  1
  Li  Li7  1  0.94603300  0.31709100  0.07056600  1
  Li  Li8  1  0.68290900  0.62894200  0.07056600  1
  Li  Li9  1  0.94603300  0.62894200  0.42943400  1
  Li  Li10  1  0.68290900  0.05396700  0.42943400  1
  Li  Li11  1  0.37105800  0.31709100  0.42943400  1
  In  In12  1  0.66666700  0.33333300  0.75000000  1
  In  In13  1  0.33333300  0.66666700  0.25000000  1
  In  In14  1  0.00000000  0.00000000  0.75000000  1
  In  In15  1  0.00000000  0.00000000  0.25000000  1
  O  O16  1  0.70329300  0.04138300  0.62255700  1
  O  O17  1  0.95861700  0.66191000  0.62255700  1
  O  O18  1  0.33809000  0.29670700  0.62255700  1
  O  O19  1  0.95861700  0.29670700  0.87744300  1
  O  O20  1  0.33809000  0.04138300  0.87744300  1
  O  O21  1  0.70329300  0.66191000  0.87744300  1
  O  O22  1  0.29670700  0.95861700  0.37744300  1
  O  O23  1  0.04138300  0.33809000  0.37744300  1
  O  O24  1  0.66191000  0.70329300  0.37744300  1
  O  O25  1  0.04138300  0.70329300  0.12255700  1
  O  O26  1  0.66191000  0.95861700  0.12255700  1
  O  O27  1  0.29670700  0.33809000  0.12255700  1
