# generated using pymatgen
data_Li4CrP2O9
_symmetry_space_group_name_H-M   'P 1'
_cell_length_a   7.99690884
_cell_length_b   7.99690884
_cell_length_c   7.08165646
_cell_angle_alpha   89.77679971
_cell_angle_beta   89.77679971
_cell_angle_gamma   50.08076371
_symmetry_Int_Tables_number   1
_chemical_formula_structural   Li4CrP2O9
_chemical_formula_sum   'Li8 Cr2 P4 O18'
_cell_volume   347.32979655
_cell_formula_units_Z   2
loop_
 _symmetry_equiv_pos_site_id
 _symmetry_equiv_pos_as_xyz
  1  'x, y, z'
loop_
 _atom_site_type_symbol
 _atom_site_label
 _atom_site_symmetry_multiplicity
 _atom_site_fract_x
 _atom_site_fract_y
 _atom_site_fract_z
 _atom_site_occupancy
  Li  Li0  1  0.90210600  0.90210600  0.73839700  1
  Li  Li1  1  0.24595300  0.75404700  0.50000000  1
  Li  Li2  1  0.75404700  0.24595300  0.50000000  1
  Li  Li3  1  0.37508900  0.37508900  0.19625600  1
  Li  Li4  1  0.00000000  0.50000000  0.00000000  1
  Li  Li5  1  0.50000000  0.00000000  0.00000000  1
  Li  Li6  1  0.62491100  0.62491100  0.80374400  1
  Li  Li7  1  0.09789400  0.09789400  0.26160300  1
  Cr  Cr8  1  0.50000000  0.00000000  0.50000000  1
  Cr  Cr9  1  0.00000000  0.50000000  0.50000000  1
  P  P10  1  0.87287000  0.87287000  0.20441100  1
  P  P11  1  0.12713000  0.12713000  0.79558900  1
  P  P12  1  0.39763700  0.39763700  0.74185900  1
  P  P13  1  0.60236300  0.60236300  0.25814100  1
  O  O14  1  0.56170600  0.17876500  0.62451300  1
  O  O15  1  0.50259100  0.50259100  0.73630600  1
  O  O16  1  0.96479600  0.96479600  0.31151300  1
  O  O17  1  0.87054300  0.87054300  0.98972200  1
  O  O18  1  0.01103600  0.62334100  0.26086400  1
  O  O19  1  0.17876500  0.56170600  0.62451300  1
  O  O20  1  0.03520400  0.03520400  0.68848700  1
  O  O21  1  0.62334100  0.01103600  0.26086400  1
  O  O22  1  0.49740900  0.49740900  0.26369400  1
  O  O23  1  0.76209000  0.76209000  0.58210500  1
  O  O24  1  0.23791000  0.23791000  0.41789500  1
  O  O25  1  0.98896400  0.37665900  0.73913600  1
  O  O26  1  0.37665800  0.98896400  0.73913600  1
  O  O27  1  0.65326700  0.65326700  0.06796100  1
  O  O28  1  0.82123500  0.43829400  0.37548700  1
  O  O29  1  0.43829400  0.82123500  0.37548700  1
  O  O30  1  0.12945700  0.12945700  0.01027800  1
  O  O31  1  0.34673300  0.34673300  0.93203900  1
