# generated using pymatgen
data_LiCr2(PO4)3
_symmetry_space_group_name_H-M   'P 1'
_cell_length_a   8.23837900
_cell_length_b   8.31666575
_cell_length_c   8.81540434
_cell_angle_alpha   62.12696627
_cell_angle_beta   62.44946380
_cell_angle_gamma   60.59386689
_symmetry_Int_Tables_number   1
_chemical_formula_structural   LiCr2(PO4)3
_chemical_formula_sum   'Li2 Cr4 P6 O24'
_cell_volume   443.33551272
_cell_formula_units_Z   2
loop_
 _symmetry_equiv_pos_site_id
 _symmetry_equiv_pos_as_xyz
  1  'x, y, z'
loop_
 _atom_site_type_symbol
 _atom_site_label
 _atom_site_symmetry_multiplicity
 _atom_site_fract_x
 _atom_site_fract_y
 _atom_site_fract_z
 _atom_site_occupancy
  Li  Li0  1  0.25595400  0.92339200  0.13595700  1
  Li  Li1  1  0.74404600  0.07660800  0.86404300  1
  Cr  Cr2  1  0.85665500  0.85288200  0.43071100  1
  Cr  Cr3  1  0.34929500  0.35663400  0.94333200  1
  Cr  Cr4  1  0.65070500  0.64336600  0.05666800  1
  Cr  Cr5  1  0.14334500  0.14711800  0.56928900  1
  P  P6  1  0.74910000  0.46658400  0.75169100  1
  P  P7  1  0.46262200  0.03210700  0.75185000  1
  P  P8  1  0.03524000  0.75097500  0.74868800  1
  P  P9  1  0.96476000  0.24902500  0.25131200  1
  P  P10  1  0.53737800  0.96789300  0.24815000  1
  P  P11  1  0.25090000  0.53341600  0.24830900  1
  O  O12  1  0.98923200  0.20154700  0.43394700  1
  O  O13  1  0.53440100  0.49045000  0.79774400  1
  O  O14  1  0.17457200  0.54140200  0.79699900  1
  O  O15  1  0.82542800  0.45859800  0.20300100  1
  O  O16  1  0.11735200  0.74035300  0.26057300  1
  O  O17  1  0.83033300  0.79019300  0.89620800  1
  O  O18  1  0.16966700  0.20980700  0.10379200  1
  O  O19  1  0.78010500  0.49177500  0.89924200  1
  O  O20  1  0.88264800  0.25964700  0.73942700  1
  O  O21  1  0.01076800  0.79845300  0.56605300  1
  O  O22  1  0.21989500  0.50822500  0.10075800  1
  O  O23  1  0.19187800  0.38365500  0.42902300  1
  O  O24  1  0.53978600  0.15456600  0.08215700  1
  O  O25  1  0.48843700  0.17660100  0.79798400  1
  O  O26  1  0.51156300  0.82339900  0.20201600  1
  O  O27  1  0.25869300  0.11773700  0.72791700  1
  O  O28  1  0.62415400  0.99547600  0.58031800  1
  O  O29  1  0.74130700  0.88226300  0.27208300  1
  O  O30  1  0.89232000  0.09823900  0.27331600  1
  O  O31  1  0.46559900  0.50955000  0.20225600  1
  O  O32  1  0.80812200  0.61634500  0.57097700  1
  O  O33  1  0.46021400  0.84543400  0.91784300  1
  O  O34  1  0.10768000  0.90176100  0.72668400  1
  O  O35  1  0.37584600  0.00452400  0.41968200  1
