# generated using pymatgen
data_Li3V2(SiO5)2
_symmetry_space_group_name_H-M   'P 1'
_cell_length_a   6.38073911
_cell_length_b   6.38073911
_cell_length_c   9.13847900
_cell_angle_alpha   90.00000000
_cell_angle_beta   90.00000000
_cell_angle_gamma   90.19288392
_symmetry_Int_Tables_number   1
_chemical_formula_structural   Li3V2(SiO5)2
_chemical_formula_sum   'Li6 V4 Si4 O20'
_cell_volume   372.06038636
_cell_formula_units_Z   2
loop_
 _symmetry_equiv_pos_site_id
 _symmetry_equiv_pos_as_xyz
  1  'x, y, z'
loop_
 _atom_site_type_symbol
 _atom_site_label
 _atom_site_symmetry_multiplicity
 _atom_site_fract_x
 _atom_site_fract_y
 _atom_site_fract_z
 _atom_site_occupancy
  Li  Li0  1  0.00000000  0.00000000  0.00000000  1
  Li  Li1  1  0.50000000  0.00000000  0.00000000  1
  Li  Li2  1  0.50000000  0.00000000  0.50000000  1
  Li  Li3  1  0.50000000  0.50000000  0.50000000  1
  Li  Li4  1  0.00000000  0.50000000  0.00000000  1
  Li  Li5  1  0.00000000  0.50000000  0.50000000  1
  V  V6  1  0.25843600  0.25843600  0.79751100  1
  V  V7  1  0.24156400  0.24156400  0.29751100  1
  V  V8  1  0.74156400  0.74156400  0.20248900  1
  V  V9  1  0.75843600  0.75843600  0.70248900  1
  Si  Si10  1  0.74949700  0.24949700  0.25000000  1
  Si  Si11  1  0.75050300  0.25050300  0.75000000  1
  Si  Si12  1  0.25050300  0.75050300  0.75000000  1
  Si  Si13  1  0.24949700  0.74949700  0.25000000  1
  O  O14  1  0.75185700  0.04156400  0.14389100  1
  O  O15  1  0.74129400  0.04301600  0.64337900  1
  O  O16  1  0.54156400  0.25185700  0.35610900  1
  O  O17  1  0.23074300  0.23074300  0.11629100  1
  O  O18  1  0.26925700  0.26925700  0.61629100  1
  O  O19  1  0.54301600  0.24129400  0.85662100  1
  O  O20  1  0.95843600  0.24814300  0.85610900  1
  O  O21  1  0.95698400  0.25870600  0.35662100  1
  O  O22  1  0.75870600  0.45698400  0.14337900  1
  O  O23  1  0.74814300  0.45843600  0.64389100  1
  O  O24  1  0.24129400  0.54301600  0.85662100  1
  O  O25  1  0.25185700  0.54156400  0.35610900  1
  O  O26  1  0.04156400  0.75185700  0.14389100  1
  O  O27  1  0.45698400  0.75870600  0.14337900  1
  O  O28  1  0.76925700  0.76925700  0.88370900  1
  O  O29  1  0.73074300  0.73074300  0.38370900  1
  O  O30  1  0.04301600  0.74129400  0.64337900  1
  O  O31  1  0.45843600  0.74814300  0.64389100  1
  O  O32  1  0.24814300  0.95843600  0.85610900  1
  O  O33  1  0.25870600  0.95698400  0.35662100  1
