# generated using pymatgen
data_LiNiPO4
_symmetry_space_group_name_H-M   'P 1'
_cell_length_a   4.93206987
_cell_length_b   9.12250019
_cell_length_c   6.19438800
_cell_angle_alpha   89.99998556
_cell_angle_beta   89.99995114
_cell_angle_gamma   83.46124966
_symmetry_Int_Tables_number   1
_chemical_formula_structural   LiNiPO4
_chemical_formula_sum   'Li4 Ni4 P4 O16'
_cell_volume   276.88996797
_cell_formula_units_Z   4
loop_
 _symmetry_equiv_pos_site_id
 _symmetry_equiv_pos_as_xyz
  1  'x, y, z'
loop_
 _atom_site_type_symbol
 _atom_site_label
 _atom_site_symmetry_multiplicity
 _atom_site_fract_x
 _atom_site_fract_y
 _atom_site_fract_z
 _atom_site_occupancy
  Li  Li0  1  0.26275400  0.42119000  0.74999900  1
  Li  Li1  1  0.76275600  0.92119200  0.74999900  1
  Li  Li2  1  0.25036100  0.09198300  0.24999900  1
  Li  Li3  1  0.75036000  0.59198100  0.24999900  1
  Ni  Ni4  1  0.25710400  0.75705500  0.00006500  1
  Ni  Ni5  1  0.25708400  0.75706900  0.50010400  1
  Ni  Ni6  1  0.75708600  0.25703900  0.99996000  1
  Ni  Ni7  1  0.75717300  0.25704400  0.49989600  1
  P  P8  1  0.28166500  0.08229000  0.74999900  1
  P  P9  1  0.78166700  0.58227600  0.75000000  1
  P  P10  1  0.23259800  0.43198500  0.24999900  1
  P  P11  1  0.73259400  0.93199800  0.24999900  1
  O  O12  1  0.12488700  0.13442500  0.95442900  1
  O  O13  1  0.62488300  0.63441900  0.95442800  1
  O  O14  1  0.12488700  0.13442500  0.54556900  1
  O  O15  1  0.62488300  0.63442000  0.54557200  1
  O  O16  1  0.38920100  0.37967600  0.45442600  1
  O  O17  1  0.88920400  0.87968200  0.45442300  1
  O  O18  1  0.38920000  0.37967600  0.04557200  1
  O  O19  1  0.88920400  0.87968300  0.04557400  1
  O  O20  1  0.84338400  0.40797800  0.74999900  1
  O  O21  1  0.34336700  0.90798400  0.74999800  1
  O  O22  1  0.57364600  0.13895900  0.74999800  1
  O  O23  1  0.07364000  0.63896200  0.75000100  1
  O  O24  1  0.94024800  0.37571000  0.24999800  1
  O  O25  1  0.44025400  0.87570700  0.24999800  1
  O  O26  1  0.67166700  0.10632000  0.24999900  1
  O  O27  1  0.17168500  0.60631400  0.25000100  1
