# generated using pymatgen
data_Li3V2(PO4)3
_symmetry_space_group_name_H-M   'P 1'
_cell_length_a   8.44165413
_cell_length_b   8.44165413
_cell_length_c   8.60236836
_cell_angle_alpha   61.92053176
_cell_angle_beta   61.92053176
_cell_angle_gamma   63.29817339
_symmetry_Int_Tables_number   1
_chemical_formula_structural   Li3V2(PO4)3
_chemical_formula_sum   'Li6 V4 P6 O24'
_cell_volume   456.31256545
_cell_formula_units_Z   2
loop_
 _symmetry_equiv_pos_site_id
 _symmetry_equiv_pos_as_xyz
  1  'x, y, z'
loop_
 _atom_site_type_symbol
 _atom_site_label
 _atom_site_symmetry_multiplicity
 _atom_site_fract_x
 _atom_site_fract_y
 _atom_site_fract_z
 _atom_site_occupancy
  Li  Li0  1  0.76354900  0.84027700  0.64088500  1
  Li  Li1  1  0.84027700  0.76354900  0.14088500  1
  Li  Li2  1  0.00000000  0.50000000  0.50000000  1
  Li  Li3  1  0.15972300  0.23645100  0.85911500  1
  Li  Li4  1  0.50000000  0.00000000  0.00000000  1
  Li  Li5  1  0.23645100  0.15972300  0.35911500  1
  V  V6  1  0.36472100  0.85708600  0.85215200  1
  V  V7  1  0.85708600  0.36472100  0.35215200  1
  V  V8  1  0.14291400  0.63527900  0.64784800  1
  V  V9  1  0.63527900  0.14291400  0.14784800  1
  P  P10  1  0.74519700  0.55412100  0.96596400  1
  P  P11  1  0.04421100  0.95578900  0.25000000  1
  P  P12  1  0.55412100  0.74519700  0.46596400  1
  P  P13  1  0.44587900  0.25480300  0.53403600  1
  P  P14  1  0.95578900  0.04421100  0.75000000  1
  P  P15  1  0.25480300  0.44587900  0.03403600  1
  O  O16  1  0.87591800  0.98395900  0.20238800  1
  O  O17  1  0.98395900  0.87591800  0.70238800  1
  O  O18  1  0.90224700  0.56020800  0.77025900  1
  O  O19  1  0.59427400  0.74884200  0.92943000  1
  O  O20  1  0.81286700  0.54474900  0.10965000  1
  O  O21  1  0.68145700  0.38475100  0.03064700  1
  O  O22  1  0.22901500  0.94572400  0.08069100  1
  O  O23  1  0.56020800  0.90224700  0.27025900  1
  O  O24  1  0.74884200  0.59427400  0.42943000  1
  O  O25  1  0.54474900  0.81286700  0.60965000  1
  O  O26  1  0.38475100  0.68145700  0.53064700  1
  O  O27  1  0.94572400  0.22901500  0.58069100  1
  O  O28  1  0.05427600  0.77098500  0.41930900  1
  O  O29  1  0.61524900  0.31854300  0.46935300  1
  O  O30  1  0.45525100  0.18713300  0.39035000  1
  O  O31  1  0.25115800  0.40572600  0.57057000  1
  O  O32  1  0.43979200  0.09775300  0.72974100  1
  O  O33  1  0.77098500  0.05427600  0.91930900  1
  O  O34  1  0.31854300  0.61524900  0.96935300  1
  O  O35  1  0.18713300  0.45525100  0.89035000  1
  O  O36  1  0.40572600  0.25115800  0.07057000  1
  O  O37  1  0.09775300  0.43979200  0.22974100  1
  O  O38  1  0.01604100  0.12408200  0.29761200  1
  O  O39  1  0.12408200  0.01604100  0.79761200  1
