# generated using pymatgen
data_Li2ZnI4
_symmetry_space_group_name_H-M   'P 1'
_cell_length_a   7.06393200
_cell_length_b   8.68382800
_cell_length_c   15.00896300
_cell_angle_alpha   90.00000000
_cell_angle_beta   90.00000000
_cell_angle_gamma   90.00000000
_symmetry_Int_Tables_number   1
_chemical_formula_structural   Li2ZnI4
_chemical_formula_sum   'Li8 Zn4 I16'
_cell_volume   920.67936546
_cell_formula_units_Z   4
loop_
 _symmetry_equiv_pos_site_id
 _symmetry_equiv_pos_as_xyz
  1  'x, y, z'
loop_
 _atom_site_type_symbol
 _atom_site_label
 _atom_site_symmetry_multiplicity
 _atom_site_fract_x
 _atom_site_fract_y
 _atom_site_fract_z
 _atom_site_occupancy
  Li  Li0  1  0.00000000  0.00000000  0.00000000  1
  Li  Li1  1  0.50000000  0.00000000  0.50000000  1
  Li  Li2  1  0.00000000  0.50000000  0.00000000  1
  Li  Li3  1  0.50000000  0.50000000  0.50000000  1
  Li  Li4  1  0.99882200  0.75000000  0.26552700  1
  Li  Li5  1  0.49882200  0.25000000  0.23447300  1
  Li  Li6  1  0.00117800  0.25000000  0.73447300  1
  Li  Li7  1  0.50117800  0.75000000  0.76552700  1
  Zn  Zn8  1  0.59638800  0.75000000  0.08663100  1
  Zn  Zn9  1  0.09638800  0.25000000  0.41336900  1
  Zn  Zn10  1  0.40361200  0.25000000  0.91336900  1
  Zn  Zn11  1  0.90361200  0.75000000  0.58663100  1
  I  I12  1  0.22634000  0.75000000  0.08965800  1
  I  I13  1  0.72634000  0.25000000  0.41034200  1
  I  I14  1  0.77366000  0.25000000  0.91034200  1
  I  I15  1  0.27366000  0.75000000  0.58965800  1
  I  I16  1  0.74783000  0.75000000  0.42512700  1
  I  I17  1  0.24783000  0.25000000  0.07487300  1
  I  I18  1  0.25217000  0.25000000  0.57487300  1
  I  I19  1  0.75217000  0.75000000  0.92512700  1
  I  I20  1  0.75401700  0.99089300  0.16660900  1
  I  I21  1  0.25401700  0.00910700  0.33339100  1
  I  I22  1  0.24598300  0.49089300  0.83339100  1
  I  I23  1  0.74598300  0.50910700  0.66660900  1
  I  I24  1  0.24598300  0.00910700  0.83339100  1
  I  I25  1  0.74598300  0.99089300  0.66660900  1
  I  I26  1  0.75401700  0.50910700  0.16660900  1
  I  I27  1  0.25401700  0.49089300  0.33339100  1
