# generated using pymatgen
data_Li7Si2
_symmetry_space_group_name_H-M   'P 1'
_cell_length_a   4.47632700
_cell_length_b   8.04581600
_cell_length_c   14.91183400
_cell_angle_alpha   90.00000000
_cell_angle_beta   90.00000000
_cell_angle_gamma   90.00000000
_symmetry_Int_Tables_number   1
_chemical_formula_structural   Li7Si2
_chemical_formula_sum   'Li28 Si8'
_cell_volume   537.06019046
_cell_formula_units_Z   4
loop_
 _symmetry_equiv_pos_site_id
 _symmetry_equiv_pos_as_xyz
  1  'x, y, z'
loop_
 _atom_site_type_symbol
 _atom_site_label
 _atom_site_symmetry_multiplicity
 _atom_site_fract_x
 _atom_site_fract_y
 _atom_site_fract_z
 _atom_site_occupancy
  Li  Li0  1  0.00000000  0.00000000  0.00000000  1
  Li  Li1  1  0.00000000  0.50000000  0.50000000  1
  Li  Li2  1  0.50000000  0.50000000  0.00000000  1
  Li  Li3  1  0.50000000  0.00000000  0.50000000  1
  Li  Li4  1  0.50000000  0.12058200  0.35607300  1
  Li  Li5  1  0.50000000  0.87941800  0.64392700  1
  Li  Li6  1  0.50000000  0.62058200  0.14392700  1
  Li  Li7  1  0.50000000  0.37941800  0.85607300  1
  Li  Li8  1  0.50000000  0.23370700  0.10281600  1
  Li  Li9  1  0.50000000  0.76629300  0.89718400  1
  Li  Li10  1  0.50000000  0.73370700  0.39718400  1
  Li  Li11  1  0.50000000  0.26629300  0.60281600  1
  Li  Li12  1  0.50000000  0.41416400  0.25794300  1
  Li  Li13  1  0.50000000  0.58583600  0.74205700  1
  Li  Li14  1  0.50000000  0.91416400  0.24205700  1
  Li  Li15  1  0.50000000  0.08583600  0.75794300  1
  Li  Li16  1  0.00000000  0.32602000  0.98763800  1
  Li  Li17  1  0.00000000  0.67398000  0.01236200  1
  Li  Li18  1  0.00000000  0.82602000  0.51236200  1
  Li  Li19  1  0.00000000  0.17398000  0.48763800  1
  Li  Li20  1  0.00000000  0.11606600  0.18953300  1
  Li  Li21  1  0.00000000  0.88393400  0.81046700  1
  Li  Li22  1  0.00000000  0.61606600  0.31046700  1
  Li  Li23  1  0.00000000  0.38393400  0.68953300  1
  Li  Li24  1  0.00000000  0.29636600  0.33412300  1
  Li  Li25  1  0.00000000  0.70363400  0.66587700  1
  Li  Li26  1  0.00000000  0.79636600  0.16587700  1
  Li  Li27  1  0.00000000  0.20363400  0.83412300  1
  Si  Si28  1  0.50000000  0.39812600  0.43616900  1
  Si  Si29  1  0.50000000  0.60187400  0.56383100  1
  Si  Si30  1  0.50000000  0.89812600  0.06383100  1
  Si  Si31  1  0.50000000  0.10187400  0.93616900  1
  Si  Si32  1  0.00000000  0.44260500  0.15381500  1
  Si  Si33  1  0.00000000  0.55739500  0.84618500  1
  Si  Si34  1  0.00000000  0.94260500  0.34618500  1
  Si  Si35  1  0.00000000  0.05739500  0.65381500  1
