# generated using pymatgen
data_Li3Cr(PO3)8
_symmetry_space_group_name_H-M   'P 1'
_cell_length_a   7.28668991
_cell_length_b   7.28668991
_cell_length_c   10.02471852
_cell_angle_alpha   66.76142783
_cell_angle_beta   66.76142783
_cell_angle_gamma   70.12322841
_symmetry_Int_Tables_number   1
_chemical_formula_structural   Li3Cr(PO3)8
_chemical_formula_sum   'Li3 Cr1 P8 O24'
_cell_volume   438.56851685
_cell_formula_units_Z   1
loop_
 _symmetry_equiv_pos_site_id
 _symmetry_equiv_pos_as_xyz
  1  'x, y, z'
loop_
 _atom_site_type_symbol
 _atom_site_label
 _atom_site_symmetry_multiplicity
 _atom_site_fract_x
 _atom_site_fract_y
 _atom_site_fract_z
 _atom_site_occupancy
  Li  Li0  1  0.05218400  0.94781600  0.50000000  1
  Li  Li1  1  0.48633500  0.99583400  0.25716700  1
  Li  Li2  1  0.00416600  0.51366500  0.74283300  1
  Cr  Cr3  1  0.94798000  0.05202000  0.00000000  1
  P  P4  1  0.26360400  0.74152100  0.77852300  1
  P  P5  1  0.68646600  0.69954700  0.55957800  1
  P  P6  1  0.25847900  0.73639600  0.22147700  1
  P  P7  1  0.30375900  0.29228200  0.95386000  1
  P  P8  1  0.30045300  0.31353400  0.44042200  1
  P  P9  1  0.75275400  0.27488900  0.26894400  1
  P  P10  1  0.72511100  0.24724600  0.73105600  1
  P  P11  1  0.70771800  0.69624100  0.04614000  1
  O  O12  1  0.11656800  0.26327500  0.93792900  1
  O  O13  1  0.91980300  0.16484400  0.34024400  1
  O  O14  1  0.54005300  0.30191700  0.40073600  1
  O  O15  1  0.15664300  0.91464400  0.84718200  1
  O  O16  1  0.08535600  0.84335700  0.15281800  1
  O  O17  1  0.73324100  0.18677700  0.16057000  1
  O  O18  1  0.23307100  0.50186200  0.30347600  1
  O  O19  1  0.46686300  0.71511300  0.08181800  1
  O  O20  1  0.81322300  0.26675900  0.83943000  1
  O  O21  1  0.81453500  0.64665100  0.90090300  1
  O  O22  1  0.48971400  0.23095900  0.81360500  1
  O  O23  1  0.28736300  0.81211600  0.32849400  1
  O  O24  1  0.18788400  0.71263700  0.67150600  1
  O  O25  1  0.35334900  0.18546500  0.09909700  1
  O  O26  1  0.83515600  0.08019700  0.65975600  1
  O  O27  1  0.27607700  0.12316400  0.43069500  1
  O  O28  1  0.87683600  0.72392300  0.56930500  1
  O  O29  1  0.64535000  0.80697100  0.40925500  1
  O  O30  1  0.73672500  0.88343200  0.06207100  1
  O  O31  1  0.19302900  0.35465000  0.59074500  1
  O  O32  1  0.76904100  0.51028600  0.18639500  1
  O  O33  1  0.69808300  0.45994700  0.59926400  1
  O  O34  1  0.49813800  0.76692900  0.69652400  1
  O  O35  1  0.28488700  0.53313700  0.91818200  1
