# generated using pymatgen
data_LiMo2(PO4)3
_symmetry_space_group_name_H-M   'P 1'
_cell_length_a   8.88537900
_cell_length_b   8.67546500
_cell_length_c   12.30127912
_cell_angle_alpha   89.36767521
_cell_angle_beta   90.00000000
_cell_angle_gamma   90.00000000
_symmetry_Int_Tables_number   1
_chemical_formula_structural   LiMo2(PO4)3
_chemical_formula_sum   'Li4 Mo8 P12 O48'
_cell_volume   948.18382761
_cell_formula_units_Z   4
loop_
 _symmetry_equiv_pos_site_id
 _symmetry_equiv_pos_as_xyz
  1  'x, y, z'
loop_
 _atom_site_type_symbol
 _atom_site_label
 _atom_site_symmetry_multiplicity
 _atom_site_fract_x
 _atom_site_fract_y
 _atom_site_fract_z
 _atom_site_occupancy
  Li  Li0  1  0.77749400  0.80102200  0.18078500  1
  Li  Li1  1  0.27749400  0.69897800  0.31921500  1
  Li  Li2  1  0.72250600  0.30102200  0.68078500  1
  Li  Li3  1  0.22250600  0.19897800  0.81921500  1
  Mo  Mo4  1  0.53031900  0.75180800  0.61786200  1
  Mo  Mo5  1  0.96132700  0.75369500  0.38714300  1
  Mo  Mo6  1  0.03031900  0.74819200  0.88213800  1
  Mo  Mo7  1  0.46132700  0.74630500  0.11285700  1
  Mo  Mo8  1  0.53867300  0.25369500  0.88714300  1
  Mo  Mo9  1  0.96968100  0.25180800  0.11786200  1
  Mo  Mo10  1  0.03867300  0.24630500  0.61285700  1
  Mo  Mo11  1  0.46968100  0.24819200  0.38213800  1
  P  P12  1  0.74951700  0.03488200  0.50799100  1
  P  P13  1  0.61629500  0.10504400  0.14724300  1
  P  P14  1  0.89530300  0.11168000  0.85633000  1
  P  P15  1  0.39530300  0.38832000  0.64367000  1
  P  P16  1  0.11629500  0.39495600  0.35275700  1
  P  P17  1  0.24951700  0.46511800  0.99200900  1
  P  P18  1  0.75048300  0.53488200  0.00799100  1
  P  P19  1  0.88370500  0.60504400  0.64724300  1
  P  P20  1  0.25048300  0.96511800  0.49200900  1
  P  P21  1  0.38370500  0.89495600  0.85275700  1
  P  P22  1  0.60469700  0.61168000  0.35633000  1
  P  P23  1  0.10469700  0.88832000  0.14367000  1
  O  O24  1  0.55737900  0.69155400  0.46181200  1
  O  O25  1  0.10829100  0.06470400  0.12979600  1
  O  O26  1  0.32752900  0.07222500  0.40729200  1
  O  O27  1  0.41174300  0.07035600  0.83495100  1
  O  O28  1  0.63697400  0.10708100  0.42809000  1
  O  O29  1  0.73940200  0.17322400  0.81928500  1
  O  O30  1  0.56930200  0.15246700  0.03185600  1
  O  O31  1  0.01521700  0.15753700  0.76921000  1
  O  O32  1  0.86636000  0.94624700  0.44077500  1
  O  O33  1  0.89170900  0.93529600  0.87020400  1
  O  O34  1  0.67247100  0.92777500  0.59270800  1
  O  O35  1  0.58825700  0.92964400  0.16504900  1
  O  O36  1  0.36302600  0.89291900  0.57191000  1
  O  O37  1  0.21236200  0.87471700  0.83582400  1
  O  O38  1  0.43069800  0.84753300  0.96814400  1
  O  O39  1  0.98478300  0.84246300  0.23079000  1
  O  O40  1  0.26059800  0.82677600  0.18071500  1
  O  O41  1  0.17425900  0.83437400  0.42699100  1
  O  O42  1  0.47896300  0.80285500  0.77120500  1
  O  O43  1  0.05737900  0.80844600  0.03818800  1
  O  O44  1  0.97896300  0.69714500  0.72879500  1
  O  O45  1  0.13364000  0.05375300  0.55922500  1
  O  O46  1  0.67425900  0.66562600  0.07300900  1
  O  O47  1  0.76059800  0.67322400  0.31928500  1
  O  O48  1  0.48478300  0.65753700  0.26921000  1
  O  O49  1  0.93069800  0.65246700  0.53185600  1
  O  O50  1  0.71236200  0.62528300  0.66417600  1
  O  O51  1  0.86302600  0.60708100  0.92809000  1
  O  O52  1  0.17247100  0.57222500  0.90729200  1
  O  O53  1  0.08825700  0.57035600  0.33495100  1
  O  O54  1  0.39170900  0.56470400  0.62979600  1
  O  O55  1  0.36636000  0.55375300  0.05922500  1
  O  O56  1  0.63364000  0.44624700  0.94077500  1
  O  O57  1  0.60829100  0.43529600  0.37020400  1
  O  O58  1  0.91174300  0.42964400  0.66504900  1
  O  O59  1  0.82752900  0.42777500  0.09270800  1
  O  O60  1  0.13697400  0.39291900  0.07191000  1
  O  O61  1  0.28763800  0.37471700  0.33582400  1
  O  O62  1  0.06930200  0.34753300  0.46814400  1
  O  O63  1  0.51521700  0.34246300  0.73079000  1
  O  O64  1  0.23940200  0.32677600  0.68071500  1
  O  O65  1  0.32574100  0.33437400  0.92699100  1
  O  O66  1  0.44262100  0.30844600  0.53818800  1
  O  O67  1  0.02103700  0.30285500  0.27120500  1
  O  O68  1  0.94262100  0.19155400  0.96181200  1
  O  O69  1  0.52103700  0.19714500  0.22879500  1
  O  O70  1  0.82574100  0.16562600  0.57300900  1
  O  O71  1  0.78763800  0.12528300  0.16417600  1
