# generated using pymatgen
data_LiP5
_symmetry_space_group_name_H-M   'P 1'
_cell_length_a   6.59713500
_cell_length_b   6.68665500
_cell_length_c   10.51214900
_cell_angle_alpha   90.00000000
_cell_angle_beta   90.00000000
_cell_angle_gamma   90.00000000
_symmetry_Int_Tables_number   1
_chemical_formula_structural   LiP5
_chemical_formula_sum   'Li4 P20'
_cell_volume   463.71996619
_cell_formula_units_Z   4
loop_
 _symmetry_equiv_pos_site_id
 _symmetry_equiv_pos_as_xyz
  1  'x, y, z'
loop_
 _atom_site_type_symbol
 _atom_site_label
 _atom_site_symmetry_multiplicity
 _atom_site_fract_x
 _atom_site_fract_y
 _atom_site_fract_z
 _atom_site_occupancy
  Li  Li0  1  0.05538000  0.45712800  0.92192700  1
  Li  Li1  1  0.55538000  0.54287200  0.07807300  1
  Li  Li2  1  0.05538000  0.04287200  0.42192700  1
  Li  Li3  1  0.55538000  0.95712800  0.57807300  1
  P  P4  1  0.42521700  0.91465100  0.91561500  1
  P  P5  1  0.92521700  0.08534900  0.08438500  1
  P  P6  1  0.42521700  0.58534900  0.41561500  1
  P  P7  1  0.92521700  0.41465100  0.58438500  1
  P  P8  1  0.90964900  0.90107700  0.90728900  1
  P  P9  1  0.40964900  0.09892300  0.09271100  1
  P  P10  1  0.90964900  0.59892300  0.40728900  1
  P  P11  1  0.40964900  0.40107700  0.59271100  1
  P  P12  1  0.16701700  0.92279300  0.19276000  1
  P  P13  1  0.66701700  0.07720700  0.80724000  1
  P  P14  1  0.16701700  0.57720700  0.69276000  1
  P  P15  1  0.66701700  0.42279300  0.30724000  1
  P  P16  1  0.16693200  0.44606700  0.30852700  1
  P  P17  1  0.66693200  0.55393300  0.69147300  1
  P  P18  1  0.16693200  0.05393300  0.80852700  1
  P  P19  1  0.66693200  0.94606700  0.19147300  1
  P  P20  1  0.18480500  0.61144200  0.12930300  1
  P  P21  1  0.68480500  0.38855800  0.87069700  1
  P  P22  1  0.18480500  0.88855800  0.62930300  1
  P  P23  1  0.68480500  0.11144200  0.37069700  1
