# generated using pymatgen
data_Li2ZnCl4
_symmetry_space_group_name_H-M   'P 1'
_cell_length_a   7.37469522
_cell_length_b   7.37469522
_cell_length_c   7.37469522
_cell_angle_alpha   60.00000000
_cell_angle_beta   60.00000000
_cell_angle_gamma   60.00000000
_symmetry_Int_Tables_number   1
_chemical_formula_structural   Li2ZnCl4
_chemical_formula_sum   'Li4 Zn2 Cl8'
_cell_volume   283.60718689
_cell_formula_units_Z   2
loop_
 _symmetry_equiv_pos_site_id
 _symmetry_equiv_pos_as_xyz
  1  'x, y, z'
loop_
 _atom_site_type_symbol
 _atom_site_label
 _atom_site_symmetry_multiplicity
 _atom_site_fract_x
 _atom_site_fract_y
 _atom_site_fract_z
 _atom_site_occupancy
  Li  Li0  1  0.12500000  0.12500000  0.62500000  1
  Li  Li1  1  0.12500000  0.62500000  0.12500000  1
  Li  Li2  1  0.12500000  0.12500000  0.12500000  1
  Li  Li3  1  0.62500000  0.12500000  0.12500000  1
  Zn  Zn4  1  0.50000000  0.50000000  0.50000000  1
  Zn  Zn5  1  0.75000000  0.75000000  0.75000000  1
  Cl  Cl6  1  0.36541200  0.87819600  0.87819600  1
  Cl  Cl7  1  0.37180400  0.37180400  0.37180400  1
  Cl  Cl8  1  0.87819600  0.87819600  0.87819600  1
  Cl  Cl9  1  0.88458800  0.37180400  0.37180400  1
  Cl  Cl10  1  0.37180400  0.88458800  0.37180400  1
  Cl  Cl11  1  0.37180400  0.37180400  0.88458800  1
  Cl  Cl12  1  0.87819600  0.36541200  0.87819600  1
  Cl  Cl13  1  0.87819600  0.87819600  0.36541200  1
