# generated using pymatgen
data_Li3Mn2(PO4)3
_symmetry_space_group_name_H-M   'P 1'
_cell_length_a   8.68179200
_cell_length_b   8.51095600
_cell_length_c   12.50941409
_cell_angle_alpha   87.38876413
_cell_angle_beta   90.00000000
_cell_angle_gamma   90.00000000
_symmetry_Int_Tables_number   1
_chemical_formula_structural   Li3Mn2(PO4)3
_chemical_formula_sum   'Li12 Mn8 P12 O48'
_cell_volume   923.36521341
_cell_formula_units_Z   4
loop_
 _symmetry_equiv_pos_site_id
 _symmetry_equiv_pos_as_xyz
  1  'x, y, z'
loop_
 _atom_site_type_symbol
 _atom_site_label
 _atom_site_symmetry_multiplicity
 _atom_site_fract_x
 _atom_site_fract_y
 _atom_site_fract_z
 _atom_site_occupancy
  Li  Li0  1  0.08940100  0.91678500  0.69848900  1
  Li  Li1  1  0.69461200  0.91758400  0.75971700  1
  Li  Li2  1  0.78138600  0.78764500  0.17060500  1
  Li  Li3  1  0.28138600  0.71235500  0.32939500  1
  Li  Li4  1  0.19461200  0.58241600  0.74028300  1
  Li  Li5  1  0.58940100  0.58321500  0.80151100  1
  Li  Li6  1  0.41059900  0.41678500  0.19848900  1
  Li  Li7  1  0.80538800  0.41758400  0.25971700  1
  Li  Li8  1  0.71861400  0.28764500  0.67060500  1
  Li  Li9  1  0.21861400  0.21235500  0.82939500  1
  Li  Li10  1  0.30538800  0.08241600  0.24028300  1
  Li  Li11  1  0.91059900  0.08321500  0.30151100  1
  Mn  Mn12  1  0.04089600  0.75141200  0.90485600  1
  Mn  Mn13  1  0.54089600  0.74858800  0.59514400  1
  Mn  Mn14  1  0.95562700  0.74868600  0.39052200  1
  Mn  Mn15  1  0.45562700  0.75131400  0.10947800  1
  Mn  Mn16  1  0.54437300  0.24868600  0.89052200  1
  Mn  Mn17  1  0.04437300  0.25131400  0.60947800  1
  Mn  Mn18  1  0.45910400  0.25141200  0.40485600  1
  Mn  Mn19  1  0.95910400  0.24858800  0.09514400  1
  P  P20  1  0.74612200  0.03774300  0.50183400  1
  P  P21  1  0.61367800  0.10217300  0.13412800  1
  P  P22  1  0.90564100  0.09908300  0.84122500  1
  P  P23  1  0.11367800  0.39782700  0.36587200  1
  P  P24  1  0.40564100  0.40091700  0.65877500  1
  P  P25  1  0.24612200  0.46225700  0.99816600  1
  P  P26  1  0.75387800  0.53774300  0.00183400  1
  P  P27  1  0.59435900  0.59908300  0.34122500  1
  P  P28  1  0.25387800  0.96225700  0.49816600  1
  P  P29  1  0.38632200  0.89782700  0.86587200  1
  P  P30  1  0.88632200  0.60217300  0.63412800  1
  P  P31  1  0.09435900  0.90091700  0.15877500  1
  O  O32  1  0.17601700  0.82929300  0.44044200  1
  O  O33  1  0.10086600  0.08595400  0.14963200  1
  O  O34  1  0.32045700  0.07543500  0.40740300  1
  O  O35  1  0.40994300  0.07701100  0.83847000  1
  O  O36  1  0.62313800  0.10220400  0.42208600  1
  O  O37  1  0.61111200  0.13206200  0.01123600  1
  O  O38  1  0.78328300  0.13769500  0.17201800  1
  O  O39  1  0.74375600  0.14612000  0.80099500  1
  O  O40  1  0.86137800  0.94885600  0.43099000  1
  O  O41  1  0.89913400  0.91404600  0.85036800  1
  O  O42  1  0.67954300  0.92456500  0.59259700  1
  O  O43  1  0.59005700  0.92298900  0.16153000  1
  O  O44  1  0.37686200  0.89779600  0.57791400  1
  O  O45  1  0.38888800  0.86793800  0.98876400  1
  O  O46  1  0.21671700  0.86230500  0.82798200  1
  O  O47  1  0.97183700  0.86190300  0.24934500  1
  O  O48  1  0.25624400  0.85388000  0.19900500  1
  O  O49  1  0.13862200  0.05114400  0.56901000  1
  O  O50  1  0.03755200  0.82540400  0.05855400  1
  O  O51  1  0.50856000  0.80184600  0.80899500  1
  O  O52  1  0.00856000  0.69815400  0.69100500  1
  O  O53  1  0.53755200  0.67459600  0.44144600  1
  O  O54  1  0.67601700  0.67070700  0.05955800  1
  O  O55  1  0.71671700  0.63769500  0.67201800  1
  O  O56  1  0.75624400  0.64612000  0.30099500  1
  O  O57  1  0.88888800  0.63206200  0.51123600  1
  O  O58  1  0.47183700  0.63809700  0.25065500  1
  O  O59  1  0.87686200  0.60220400  0.92208600  1
  O  O60  1  0.17954300  0.57543500  0.90740300  1
  O  O61  1  0.39913400  0.58595400  0.64963200  1
  O  O62  1  0.09005700  0.57701100  0.33847000  1
  O  O63  1  0.36137800  0.55114400  0.06901000  1
  O  O64  1  0.63862200  0.44885600  0.93099000  1
  O  O65  1  0.90994300  0.42298900  0.66153000  1
  O  O66  1  0.60086600  0.41404600  0.35036800  1
  O  O67  1  0.82045700  0.42456500  0.09259700  1
  O  O68  1  0.12313800  0.39779600  0.07791400  1
  O  O69  1  0.52816300  0.36190300  0.74934500  1
  O  O70  1  0.11111200  0.36793800  0.48876400  1
  O  O71  1  0.24375600  0.35388000  0.69900500  1
  O  O72  1  0.28328300  0.36230500  0.32798200  1
  O  O73  1  0.32398300  0.32929300  0.94044200  1
  O  O74  1  0.46244800  0.32540400  0.55855400  1
  O  O75  1  0.99144000  0.30184600  0.30899500  1
  O  O76  1  0.49144000  0.19815400  0.19100500  1
  O  O77  1  0.96244800  0.17459600  0.94144600  1
  O  O78  1  0.82398300  0.17070700  0.55955800  1
  O  O79  1  0.02816300  0.13809700  0.75065500  1
