# generated using pymatgen
data_LiMoP4O13
_symmetry_space_group_name_H-M   'P 1'
_cell_length_a   5.20805700
_cell_length_b   8.04758730
_cell_length_c   14.39408647
_cell_angle_alpha   81.71016381
_cell_angle_beta   82.37524967
_cell_angle_gamma   80.36415469
_symmetry_Int_Tables_number   1
_chemical_formula_structural   LiMoP4O13
_chemical_formula_sum   'Li2 Mo2 P8 O26'
_cell_volume   584.90843115
_cell_formula_units_Z   2
loop_
 _symmetry_equiv_pos_site_id
 _symmetry_equiv_pos_as_xyz
  1  'x, y, z'
loop_
 _atom_site_type_symbol
 _atom_site_label
 _atom_site_symmetry_multiplicity
 _atom_site_fract_x
 _atom_site_fract_y
 _atom_site_fract_z
 _atom_site_occupancy
  Li  Li0  1  0.41343200  0.48166100  0.49655500  1
  Li  Li1  1  0.98898900  0.62652600  0.01044700  1
  Mo  Mo2  1  0.42065200  0.05868700  0.25604200  1
  Mo  Mo3  1  0.57469100  0.94105800  0.73904800  1
  P  P4  1  0.35259900  0.57815800  0.81386700  1
  P  P5  1  0.98720700  0.10010200  0.84857400  1
  P  P6  1  0.71219400  0.33109000  0.70474600  1
  P  P7  1  0.83849100  0.22514500  0.35690200  1
  P  P8  1  0.00062800  0.88704700  0.15451900  1
  P  P9  1  0.28039200  0.66821600  0.29870600  1
  P  P10  1  0.15743100  0.77259500  0.63718700  1
  P  P11  1  0.64754800  0.42752000  0.18213100  1
  O  O12  1  0.47870900  0.60122100  0.21187800  1
  O  O13  1  0.70225000  0.96240400  0.16696700  1
  O  O14  1  0.58977500  0.18128100  0.68037600  1
  O  O15  1  0.83421500  0.96153400  0.82471500  1
  O  O16  1  0.16795900  0.63410400  0.73087000  1
  O  O17  1  0.79696200  0.47003000  0.09045900  1
  O  O18  1  0.39365900  0.82260900  0.32092200  1
  O  O19  1  0.45935600  0.29470600  0.19018100  1
  O  O20  1  0.50925200  0.39833900  0.79145200  1
  O  O21  1  0.02179100  0.74316100  0.24806000  1
  O  O22  1  0.55370200  0.70302500  0.80235000  1
  O  O23  1  0.96371100  0.24995600  0.75790700  1
  O  O24  1  0.31721400  0.91211200  0.65218300  1
  O  O25  1  0.08228200  0.80831500  0.06693300  1
  O  O26  1  0.86202500  0.85770300  0.64755300  1
  O  O27  1  0.90578900  0.16080300  0.94051600  1
  O  O28  1  0.76402900  0.46337700  0.62591700  1
  O  O29  1  0.28581900  0.02338600  0.82904800  1
  O  O30  1  0.73118600  0.29700300  0.44496200  1
  O  O31  1  0.23825400  0.53351000  0.37746000  1
  O  O32  1  0.13902100  0.14869500  0.34791500  1
  O  O33  1  0.15535700  0.02676000  0.17297100  1
  O  O34  1  0.19709000  0.55507400  0.90622600  1
  O  O35  1  0.83495400  0.36701400  0.26435000  1
  O  O36  1  0.69481200  0.08158000  0.33501800  1
  O  O37  1  0.23982100  0.69057300  0.55058400  1
