# generated using pymatgen
data_Li5Bi2P5O18
_symmetry_space_group_name_H-M   'P 1'
_cell_length_a   6.79029600
_cell_length_b   9.53310305
_cell_length_c   11.23929283
_cell_angle_alpha   97.36800111
_cell_angle_beta   91.34974965
_cell_angle_gamma   91.68292745
_symmetry_Int_Tables_number   1
_chemical_formula_structural   Li5Bi2P5O18
_chemical_formula_sum   'Li10 Bi4 P10 O36'
_cell_volume   720.95592694
_cell_formula_units_Z   2
loop_
 _symmetry_equiv_pos_site_id
 _symmetry_equiv_pos_as_xyz
  1  'x, y, z'
loop_
 _atom_site_type_symbol
 _atom_site_label
 _atom_site_symmetry_multiplicity
 _atom_site_fract_x
 _atom_site_fract_y
 _atom_site_fract_z
 _atom_site_occupancy
  Li  Li0  1  0.98331400  0.04331800  0.86426400  1
  Li  Li1  1  0.01668600  0.95668200  0.13573600  1
  Li  Li2  1  0.17956300  0.88955900  0.64616900  1
  Li  Li3  1  0.86951900  0.77566300  0.33682300  1
  Li  Li4  1  0.40597700  0.72528800  0.40392400  1
  Li  Li5  1  0.82043700  0.11044100  0.35383100  1
  Li  Li6  1  0.13048100  0.22433700  0.66317700  1
  Li  Li7  1  0.59402300  0.27471200  0.59607600  1
  Li  Li8  1  0.33787000  0.37451300  0.85261400  1
  Li  Li9  1  0.66213000  0.62548700  0.14738600  1
  Bi  Bi10  1  0.33771000  0.76365500  0.93736100  1
  Bi  Bi11  1  0.77744900  0.63464800  0.60734900  1
  Bi  Bi12  1  0.22255100  0.36535200  0.39265100  1
  Bi  Bi13  1  0.66229000  0.23634500  0.06263900  1
  P  P14  1  0.27707700  0.57898400  0.65875600  1
  P  P15  1  0.14769900  0.57937800  0.16535000  1
  P  P16  1  0.82404200  0.73291600  0.90832300  1
  P  P17  1  0.51413000  0.93221600  0.21638900  1
  P  P18  1  0.21908000  0.00556700  0.40359400  1
  P  P19  1  0.48587000  0.06778400  0.78361100  1
  P  P20  1  0.17595800  0.26708400  0.09167700  1
  P  P21  1  0.78092000  0.99443300  0.59640600  1
  P  P22  1  0.72292300  0.42101600  0.34124400  1
  P  P23  1  0.85230100  0.42062200  0.83465000  1
  O  O24  1  0.25528300  0.88679300  0.47864100  1
  O  O25  1  0.58336800  0.97430900  0.67162800  1
  O  O26  1  0.35154900  0.91519700  0.11603300  1
  O  O27  1  0.04086300  0.97418000  0.31652900  1
  O  O28  1  0.95913700  0.02582000  0.68347100  1
  O  O29  1  0.64845100  0.08480300  0.88396700  1
  O  O30  1  0.41663200  0.02569100  0.32837200  1
  O  O31  1  0.68994900  0.02622700  0.18674500  1
  O  O32  1  0.74471700  0.11320700  0.52135900  1
  O  O33  1  0.20848300  0.15364700  0.47925800  1
  O  O34  1  0.42113600  0.20447600  0.73772900  1
  O  O35  1  0.01049400  0.15878500  0.04370100  1
  O  O36  1  0.03219300  0.33063700  0.82795300  1
  O  O37  1  0.27057800  0.23495800  0.20968900  1
  O  O38  1  0.69963300  0.39199400  0.92908900  1
  O  O39  1  0.88369400  0.30724200  0.33114100  1
  O  O40  1  0.34073700  0.27892000  0.00126800  1
  O  O41  1  0.31005100  0.97377300  0.81325500  1
  O  O42  1  0.56308400  0.37036500  0.42618500  1
  O  O43  1  0.18830800  0.43225200  0.60272600  1
  O  O44  1  0.06535500  0.41589100  0.11615100  1
  O  O45  1  0.63726000  0.43632100  0.21439000  1
  O  O46  1  0.36274000  0.56367900  0.78561000  1
  O  O47  1  0.93464500  0.58410900  0.88384900  1
  O  O48  1  0.81169200  0.56774800  0.39727400  1
  O  O49  1  0.43691600  0.62963500  0.57381500  1
  O  O50  1  0.24919100  0.57432800  0.28896600  1
  O  O51  1  0.65926300  0.72108000  0.99873200  1
  O  O52  1  0.11630600  0.69275800  0.66885900  1
  O  O53  1  0.30036700  0.60800600  0.07091100  1
  O  O54  1  0.72942200  0.76504200  0.79031100  1
  O  O55  1  0.96780700  0.66936300  0.17204700  1
  O  O56  1  0.98950600  0.84121500  0.95629900  1
  O  O57  1  0.57886400  0.79552400  0.26227100  1
  O  O58  1  0.79151700  0.84635300  0.52074200  1
  O  O59  1  0.75080900  0.42567200  0.71103400  1
