# generated using pymatgen
data_LiH6NO6
_symmetry_space_group_name_H-M   'P 1'
_cell_length_a   7.22974352
_cell_length_b   7.22974352
_cell_length_c   6.06861000
_cell_angle_alpha   90.00000000
_cell_angle_beta   90.00000000
_cell_angle_gamma   122.64220213
_symmetry_Int_Tables_number   1
_chemical_formula_structural   LiH6NO6
_chemical_formula_sum   'Li2 H12 N2 O12'
_cell_volume   267.10107611
_cell_formula_units_Z   2
loop_
 _symmetry_equiv_pos_site_id
 _symmetry_equiv_pos_as_xyz
  1  'x, y, z'
loop_
 _atom_site_type_symbol
 _atom_site_label
 _atom_site_symmetry_multiplicity
 _atom_site_fract_x
 _atom_site_fract_y
 _atom_site_fract_z
 _atom_site_occupancy
  Li  Li0  1  0.00000000  0.00000000  0.50000000  1
  Li  Li1  1  0.00000000  0.00000000  0.00000000  1
  H  H2  1  0.31932400  0.68067600  0.62057600  1
  H  H3  1  0.36982500  0.20094400  0.75000000  1
  H  H4  1  0.68067600  0.31932400  0.12057600  1
  H  H5  1  0.68067600  0.31932400  0.37942400  1
  H  H6  1  0.31932400  0.68067600  0.87942400  1
  H  H7  1  0.26694500  0.34315600  0.75000000  1
  H  H8  1  0.63017500  0.79905600  0.25000000  1
  H  H9  1  0.73305500  0.65684400  0.25000000  1
  H  H10  1  0.65684400  0.73305500  0.75000000  1
  H  H11  1  0.79905600  0.63017500  0.75000000  1
  H  H12  1  0.20094400  0.36982500  0.25000000  1
  H  H13  1  0.34315600  0.26694500  0.25000000  1
  N  N14  1  0.77991900  0.22008100  0.75000000  1
  N  N15  1  0.22008100  0.77991900  0.25000000  1
  O  O16  1  0.82775300  0.17224700  0.56786200  1
  O  O17  1  0.77190200  0.81093800  0.25000000  1
  O  O18  1  0.22809800  0.18906200  0.75000000  1
  O  O19  1  0.32139700  0.67860300  0.25000000  1
  O  O20  1  0.67860300  0.32139700  0.75000000  1
  O  O21  1  0.18906200  0.22809800  0.25000000  1
  O  O22  1  0.17224700  0.82775300  0.06786200  1
  O  O23  1  0.17224700  0.82775300  0.43213800  1
  O  O24  1  0.82775300  0.17224700  0.93213800  1
  O  O25  1  0.81093800  0.77190200  0.75000000  1
  O  O26  1  0.63401200  0.36598800  0.25000000  1
  O  O27  1  0.36598800  0.63401200  0.75000000  1
