# generated using pymatgen
data_LiCrPO4
_symmetry_space_group_name_H-M   'P 1'
_cell_length_a   5.05403594
_cell_length_b   9.59451211
_cell_length_c   6.30092400
_cell_angle_alpha   90.00053918
_cell_angle_beta   89.99987983
_cell_angle_gamma   99.07222883
_symmetry_Int_Tables_number   1
_chemical_formula_structural   LiCrPO4
_chemical_formula_sum   'Li4 Cr4 P4 O16'
_cell_volume   301.71598724
_cell_formula_units_Z   4
loop_
 _symmetry_equiv_pos_site_id
 _symmetry_equiv_pos_as_xyz
  1  'x, y, z'
loop_
 _atom_site_type_symbol
 _atom_site_label
 _atom_site_symmetry_multiplicity
 _atom_site_fract_x
 _atom_site_fract_y
 _atom_site_fract_z
 _atom_site_occupancy
  Li  Li0  1  0.99939800  0.33312400  0.25000900  1
  Li  Li1  1  0.49942700  0.83316600  0.25000300  1
  Li  Li2  1  0.50062200  0.16690900  0.75001500  1
  Li  Li3  1  0.00061200  0.66687400  0.74999100  1
  Cr  Cr4  1  0.50005200  0.49984100  0.00026500  1
  Cr  Cr5  1  0.99967900  0.00031700  0.50015700  1
  Cr  Cr6  1  0.00045200  0.99966400  0.99998600  1
  Cr  Cr7  1  0.49985100  0.49999000  0.49946300  1
  P  P8  1  0.52573200  0.17508700  0.25003500  1
  P  P9  1  0.02577300  0.67518000  0.25000100  1
  P  P10  1  0.97423100  0.32490300  0.75003100  1
  P  P11  1  0.47420600  0.82481500  0.75000200  1
  O  O12  1  0.58965900  0.34044100  0.25003600  1
  O  O13  1  0.08963100  0.84047300  0.25002300  1
  O  O14  1  0.69420900  0.37587000  0.74999900  1
  O  O15  1  0.19421900  0.87583900  0.74996000  1
  O  O16  1  0.80579600  0.12417600  0.24998800  1
  O  O17  1  0.30581300  0.62421100  0.24997400  1
  O  O18  1  0.91038900  0.15956400  0.75007500  1
  O  O19  1  0.41041800  0.65953700  0.74997400  1
  O  O20  1  0.36701600  0.12232000  0.45207100  1
  O  O21  1  0.86711100  0.62235900  0.45201600  1
  O  O22  1  0.13289800  0.37765400  0.54793700  1
  O  O23  1  0.63278300  0.87764300  0.54794700  1
  O  O24  1  0.13290700  0.37767600  0.95209200  1
  O  O25  1  0.63287200  0.87765300  0.95203200  1
  O  O26  1  0.36709200  0.12235700  0.04794700  1
  O  O27  1  0.86715200  0.62235700  0.04797100  1
