# generated using pymatgen
data_Na2Li2FeO4
_symmetry_space_group_name_H-M   'P 1'
_cell_length_a   8.19776200
_cell_length_b   6.63691200
_cell_length_c   10.42502456
_cell_angle_alpha   50.40554024
_cell_angle_beta   90.00000000
_cell_angle_gamma   90.00000000
_symmetry_Int_Tables_number   1
_chemical_formula_structural   Na2Li2FeO4
_chemical_formula_sum   'Na8 Li8 Fe4 O16'
_cell_volume   437.07231300
_cell_formula_units_Z   4
loop_
 _symmetry_equiv_pos_site_id
 _symmetry_equiv_pos_as_xyz
  1  'x, y, z'
loop_
 _atom_site_type_symbol
 _atom_site_label
 _atom_site_symmetry_multiplicity
 _atom_site_fract_x
 _atom_site_fract_y
 _atom_site_fract_z
 _atom_site_occupancy
  Na  Na0  1  0.97384000  0.24577900  0.49694300  1
  Na  Na1  1  0.74581300  0.75943300  0.75401600  1
  Na  Na2  1  0.52616000  0.24577900  0.99694300  1
  Na  Na3  1  0.25418700  0.24056700  0.24598400  1
  Na  Na4  1  0.24581300  0.24056700  0.74598400  1
  Na  Na5  1  0.02616000  0.75422100  0.50305700  1
  Na  Na6  1  0.47384000  0.75422100  0.00305700  1
  Na  Na7  1  0.75418700  0.75943300  0.25401600  1
  Li  Li8  1  0.91503200  0.26975900  0.20121800  1
  Li  Li9  1  0.85849800  0.74227600  0.01099100  1
  Li  Li10  1  0.64150200  0.74227600  0.51099100  1
  Li  Li11  1  0.58496800  0.26975900  0.70121800  1
  Li  Li12  1  0.08496800  0.73024100  0.79878200  1
  Li  Li13  1  0.14150200  0.25772400  0.98900900  1
  Li  Li14  1  0.35849800  0.25772400  0.48900900  1
  Li  Li15  1  0.41503200  0.73024100  0.29878200  1
  Fe  Fe16  1  0.87460400  0.24081000  0.78137300  1
  Fe  Fe17  1  0.62539600  0.24081000  0.28137300  1
  Fe  Fe18  1  0.37460400  0.75919000  0.71862700  1
  Fe  Fe19  1  0.12539600  0.75919000  0.21862700  1
  O  O20  1  0.96075800  0.97861800  0.78877900  1
  O  O21  1  0.77495300  0.04407200  0.44789600  1
  O  O22  1  0.99105500  0.45614400  0.79865000  1
  O  O23  1  0.79084800  0.46404300  0.56849000  1
  O  O24  1  0.50894500  0.45614400  0.29865000  1
  O  O25  1  0.53924200  0.97861800  0.28877900  1
  O  O26  1  0.49105500  0.54385600  0.70135000  1
  O  O27  1  0.20915200  0.53595700  0.43151000  1
  O  O28  1  0.46075800  0.02138200  0.71122100  1
  O  O29  1  0.27495300  0.95592800  0.05210400  1
  O  O30  1  0.70915200  0.46404300  0.06849000  1
  O  O31  1  0.29084800  0.53595700  0.93151000  1
  O  O32  1  0.03924200  0.02138200  0.21122100  1
  O  O33  1  0.00894500  0.54385600  0.20135000  1
  O  O34  1  0.22504700  0.95592800  0.55210400  1
  O  O35  1  0.72504700  0.04407200  0.94789600  1
