# generated using pymatgen
data_LiNi2(PO4)3
_symmetry_space_group_name_H-M   'P 1'
_cell_length_a   8.85891200
_cell_length_b   8.56439400
_cell_length_c   14.89999369
_cell_angle_alpha   55.38643360
_cell_angle_beta   90.00000000
_cell_angle_gamma   90.00000000
_symmetry_Int_Tables_number   1
_chemical_formula_structural   LiNi2(PO4)3
_chemical_formula_sum   'Li4 Ni8 P12 O48'
_cell_volume   930.38766599
_cell_formula_units_Z   4
loop_
 _symmetry_equiv_pos_site_id
 _symmetry_equiv_pos_as_xyz
  1  'x, y, z'
loop_
 _atom_site_type_symbol
 _atom_site_label
 _atom_site_symmetry_multiplicity
 _atom_site_fract_x
 _atom_site_fract_y
 _atom_site_fract_z
 _atom_site_occupancy
  Li  Li0  1  0.28052900  0.36922900  0.31369700  1
  Li  Li1  1  0.71947100  0.63077100  0.68630300  1
  Li  Li2  1  0.78052900  0.63077100  0.18630300  1
  Li  Li3  1  0.21947100  0.36922900  0.81369700  1
  Ni  Ni4  1  0.46662100  0.63735600  0.11533700  1
  Ni  Ni5  1  0.03337900  0.63735600  0.61533700  1
  Ni  Ni6  1  0.53337900  0.36264400  0.88466300  1
  Ni  Ni7  1  0.97661800  0.13235500  0.11761200  1
  Ni  Ni8  1  0.47661800  0.86764500  0.38238800  1
  Ni  Ni9  1  0.52338200  0.13235500  0.61761200  1
  Ni  Ni10  1  0.96662100  0.36264400  0.38466300  1
  Ni  Ni11  1  0.02338200  0.86764500  0.88238800  1
  P  P12  1  0.74931800  0.53313100  0.50825600  1
  P  P13  1  0.10876100  0.73425800  0.14948200  1
  P  P14  1  0.24931800  0.46686900  0.99174400  1
  P  P15  1  0.88507400  0.95915500  0.64798900  1
  P  P16  1  0.75068200  0.53313100  0.00825600  1
  P  P17  1  0.25068200  0.46686900  0.49174400  1
  P  P18  1  0.38507400  0.04084500  0.85201100  1
  P  P19  1  0.39123900  0.73425800  0.64948200  1
  P  P20  1  0.60876100  0.26574200  0.35051800  1
  P  P21  1  0.61492600  0.95915500  0.14798900  1
  P  P22  1  0.89123900  0.26574200  0.85051800  1
  P  P23  1  0.11492600  0.04084500  0.35201100  1
  O  O24  1  0.96482500  0.00364300  0.72314100  1
  O  O25  1  0.18316500  0.38386800  0.43178700  1
  O  O26  1  0.45026500  0.76021800  0.54360100  1
  O  O27  1  0.46482500  0.99635700  0.77685900  1
  O  O28  1  0.13708300  0.32654600  0.07951200  1
  O  O29  1  0.67106700  0.34386500  0.59596400  1
  O  O30  1  0.12933400  0.51495100  0.54627900  1
  O  O31  1  0.73704700  0.36460400  0.81593900  1
  O  O32  1  0.95026500  0.23978200  0.95639900  1
  O  O33  1  0.56808700  0.10659200  0.02810800  1
  O  O34  1  0.82893300  0.34386500  0.09596400  1
  O  O35  1  0.63708300  0.67345400  0.42048800  1
  O  O36  1  0.76295300  0.36460400  0.31593900  1
  O  O37  1  0.86291700  0.67345400  0.92048800  1
  O  O38  1  0.62066100  0.05631000  0.38601200  1
  O  O39  1  0.68316500  0.61613200  0.06821300  1
  O  O40  1  0.81683500  0.61613200  0.56821300  1
  O  O41  1  0.03517500  0.99635700  0.27685900  1
  O  O42  1  0.17106700  0.65613500  0.90403600  1
  O  O43  1  0.12066100  0.94369000  0.11398800  1
  O  O44  1  0.43191300  0.89340800  0.97189200  1
  O  O45  1  0.98877300  0.62291200  0.23869100  1
  O  O46  1  0.87066600  0.48504900  0.45372100  1
  O  O47  1  0.28792300  0.02873100  0.34103700  1
  O  O48  1  0.78792300  0.97126900  0.15896300  1
  O  O49  1  0.01122700  0.37708800  0.76130900  1
  O  O50  1  0.48877300  0.37708800  0.26130900  1
  O  O51  1  0.91870500  0.75846400  0.67870500  1
  O  O52  1  0.23704700  0.63539600  0.68406100  1
  O  O53  1  0.87933900  0.05631000  0.88601200  1
  O  O54  1  0.51122700  0.62291200  0.73869100  1
  O  O55  1  0.31683500  0.38386800  0.93178700  1
  O  O56  1  0.04973500  0.76021800  0.04360100  1
  O  O57  1  0.54973500  0.23978200  0.45639900  1
  O  O58  1  0.37066600  0.51495100  0.04627900  1
  O  O59  1  0.26295300  0.63539600  0.18406100  1
  O  O60  1  0.36291700  0.32654600  0.57951200  1
  O  O61  1  0.62933400  0.48504900  0.95372100  1
  O  O62  1  0.21207700  0.02873100  0.84103700  1
  O  O63  1  0.32893300  0.65613500  0.40403600  1
  O  O64  1  0.53517500  0.00364300  0.22314100  1
  O  O65  1  0.93191300  0.10659200  0.52810800  1
  O  O66  1  0.37933900  0.94369000  0.61398800  1
  O  O67  1  0.71207700  0.97126900  0.65896300  1
  O  O68  1  0.08129500  0.24153600  0.32129500  1
  O  O69  1  0.58129500  0.75846400  0.17870500  1
  O  O70  1  0.06808700  0.89340800  0.47189200  1
  O  O71  1  0.41870500  0.24153600  0.82129500  1
