# generated using pymatgen
data_LiVP2O7
_symmetry_space_group_name_H-M   'P 1'
_cell_length_a   5.06472200
_cell_length_b   8.46256800
_cell_length_c   13.49257732
_cell_angle_alpha   63.56613342
_cell_angle_beta   90.00000000
_cell_angle_gamma   90.00000000
_symmetry_Int_Tables_number   1
_chemical_formula_structural   LiVP2O7
_chemical_formula_sum   'Li4 V4 P8 O28'
_cell_volume   517.83744564
_cell_formula_units_Z   4
loop_
 _symmetry_equiv_pos_site_id
 _symmetry_equiv_pos_as_xyz
  1  'x, y, z'
loop_
 _atom_site_type_symbol
 _atom_site_label
 _atom_site_symmetry_multiplicity
 _atom_site_fract_x
 _atom_site_fract_y
 _atom_site_fract_z
 _atom_site_occupancy
  Li  Li0  1  0.23140700  0.59088600  0.79744000  1
  Li  Li1  1  0.73140700  0.40911400  0.70256000  1
  Li  Li2  1  0.26859300  0.59088600  0.29744000  1
  Li  Li3  1  0.76859300  0.40911400  0.20256000  1
  V  V4  1  0.26369100  0.73218600  0.53082600  1
  V  V5  1  0.76369100  0.26781400  0.96917400  1
  V  V6  1  0.23630900  0.73218600  0.03082600  1
  V  V7  1  0.73630900  0.26781400  0.46917400  1
  P  P8  1  0.74455600  0.82739800  0.64577600  1
  P  P9  1  0.26789000  0.30383100  0.11641400  1
  P  P10  1  0.24455600  0.17260200  0.85422400  1
  P  P11  1  0.23211000  0.30383100  0.61641400  1
  P  P12  1  0.76789000  0.69616900  0.38358600  1
  P  P13  1  0.75544400  0.82739800  0.14577600  1
  P  P14  1  0.73211000  0.69616900  0.88358600  1
  P  P15  1  0.25544400  0.17260200  0.35422400  1
  O  O16  1  0.46370000  0.75096100  0.65885100  1
  O  O17  1  0.94940200  0.69420600  0.64168100  1
  O  O18  1  0.84460900  0.52715700  0.88200900  1
  O  O19  1  0.56666300  0.31628700  0.09425600  1
  O  O20  1  0.20711900  0.15444100  0.24079700  1
  O  O21  1  0.11419600  0.24487200  0.04298100  1
  O  O22  1  0.21702800  0.98791700  0.44417000  1
  O  O23  1  0.34460900  0.47284300  0.61799100  1
  O  O24  1  0.44940200  0.30579400  0.85831900  1
  O  O25  1  0.96370000  0.24903900  0.84114900  1
  O  O26  1  0.71702800  0.01208300  0.05583000  1
  O  O27  1  0.93333700  0.31628700  0.59425600  1
  O  O28  1  0.61419600  0.75512800  0.45701900  1
  O  O29  1  0.70711900  0.84555900  0.25920300  1
  O  O30  1  0.29288100  0.15444100  0.74079700  1
  O  O31  1  0.38580400  0.24487200  0.54298100  1
  O  O32  1  0.06666300  0.68371300  0.40574400  1
  O  O33  1  0.28297200  0.98791700  0.94417000  1
  O  O34  1  0.03630000  0.75096100  0.15885100  1
  O  O35  1  0.55059800  0.69420600  0.14168100  1
  O  O36  1  0.65539100  0.52715700  0.38200900  1
  O  O37  1  0.78297200  0.01208300  0.55583000  1
  O  O38  1  0.88580400  0.75512800  0.95701900  1
  O  O39  1  0.79288100  0.84555900  0.75920300  1
  O  O40  1  0.43333700  0.68371300  0.90574400  1
  O  O41  1  0.15539100  0.47284300  0.11799100  1
  O  O42  1  0.05059800  0.30579400  0.35831900  1
  O  O43  1  0.53630000  0.24903900  0.34114900  1
