# generated using pymatgen
data_LiNiPO4
_symmetry_space_group_name_H-M   'P 1'
_cell_length_a   8.42153985
_cell_length_b   8.42153985
_cell_length_c   8.42153985
_cell_angle_alpha   106.74074013
_cell_angle_beta   106.74074013
_cell_angle_gamma   106.74074409
_symmetry_Int_Tables_number   1
_chemical_formula_structural   LiNiPO4
_chemical_formula_sum   'Li6 Ni6 P6 O24'
_cell_volume   500.89278606
_cell_formula_units_Z   6
loop_
 _symmetry_equiv_pos_site_id
 _symmetry_equiv_pos_as_xyz
  1  'x, y, z'
loop_
 _atom_site_type_symbol
 _atom_site_label
 _atom_site_symmetry_multiplicity
 _atom_site_fract_x
 _atom_site_fract_y
 _atom_site_fract_z
 _atom_site_occupancy
  Li  Li0  1  0.71711900  0.12449700  0.89141500  1
  Li  Li1  1  0.61004100  0.20304100  0.43222200  1
  Li  Li2  1  0.20304100  0.43222200  0.61004100  1
  Li  Li3  1  0.89141500  0.71711900  0.12449700  1
  Li  Li4  1  0.43222200  0.61004100  0.20304100  1
  Li  Li5  1  0.12449700  0.89141500  0.71711900  1
  Ni  Ni6  1  0.23561400  0.06818400  0.45537400  1
  Ni  Ni7  1  0.93274600  0.54295700  0.78108800  1
  Ni  Ni8  1  0.45537400  0.23561400  0.06818400  1
  Ni  Ni9  1  0.54295700  0.78108800  0.93274600  1
  Ni  Ni10  1  0.06818400  0.45537400  0.23561400  1
  Ni  Ni11  1  0.78108800  0.93274600  0.54295700  1
  P  P12  1  0.28197900  0.87738400  0.08999600  1
  P  P13  1  0.38578300  0.79206100  0.56682300  1
  P  P14  1  0.79206100  0.56682300  0.38578300  1
  P  P15  1  0.08999600  0.28197900  0.87738400  1
  P  P16  1  0.56682300  0.38578300  0.79206100  1
  P  P17  1  0.87738400  0.08999600  0.28197900  1
  O  O18  1  0.08243900  0.74318100  0.02386100  1
  O  O19  1  0.27667100  0.91226700  0.58146600  1
  O  O20  1  0.40587400  0.77212900  0.08540800  1
  O  O21  1  0.29445700  0.97618800  0.96081500  1
  O  O22  1  0.97618800  0.96081500  0.29445700  1
  O  O23  1  0.59220900  0.91477700  0.64031200  1
  O  O24  1  0.96081500  0.29445700  0.97618800  1
  O  O25  1  0.77212900  0.08540800  0.40587400  1
  O  O26  1  0.74318100  0.02386100  0.08243900  1
  O  O27  1  0.58146600  0.27667100  0.91226700  1
  O  O28  1  0.35084800  0.02379500  0.28548000  1
  O  O29  1  0.02386100  0.08243900  0.74318100  1
  O  O30  1  0.68633300  0.35736400  0.68461900  1
  O  O31  1  0.36940800  0.31267400  0.65151400  1
  O  O32  1  0.65151400  0.36940800  0.31267400  1
  O  O33  1  0.64031200  0.59220900  0.91477700  1
  O  O34  1  0.08540800  0.40587400  0.77212900  1
  O  O35  1  0.91477700  0.64031200  0.59220900  1
  O  O36  1  0.02379500  0.28548000  0.35084800  1
  O  O37  1  0.91226700  0.58146600  0.27667100  1
  O  O38  1  0.28548000  0.35084800  0.02379500  1
  O  O39  1  0.35736400  0.68461900  0.68633300  1
  O  O40  1  0.68461900  0.68633300  0.35736400  1
  O  O41  1  0.31267400  0.65151400  0.36940800  1
