# generated using pymatgen
data_Li3Ni2(PO4)3
_symmetry_space_group_name_H-M   'P 1'
_cell_length_a   8.52576756
_cell_length_b   8.52576756
_cell_length_c   6.31662298
_cell_angle_alpha   74.24037973
_cell_angle_beta   74.24037973
_cell_angle_gamma   94.51291013
_symmetry_Int_Tables_number   1
_chemical_formula_structural   Li3Ni2(PO4)3
_chemical_formula_sum   'Li6 Ni4 P6 O24'
_cell_volume   419.47685831
_cell_formula_units_Z   2
loop_
 _symmetry_equiv_pos_site_id
 _symmetry_equiv_pos_as_xyz
  1  'x, y, z'
loop_
 _atom_site_type_symbol
 _atom_site_label
 _atom_site_symmetry_multiplicity
 _atom_site_fract_x
 _atom_site_fract_y
 _atom_site_fract_z
 _atom_site_occupancy
  Li  Li0  1  0.01932300  0.98067700  0.75000000  1
  Li  Li1  1  0.28715600  0.71284400  0.75000000  1
  Li  Li2  1  0.50000000  0.50000000  0.50000000  1
  Li  Li3  1  0.71284400  0.28715600  0.25000000  1
  Li  Li4  1  0.98067700  0.01932300  0.25000000  1
  Li  Li5  1  0.50000000  0.50000000  0.00000000  1
  Ni  Ni6  1  0.94635000  0.62487100  0.63097200  1
  Ni  Ni7  1  0.62487100  0.94635000  0.13097200  1
  Ni  Ni8  1  0.37512900  0.05365000  0.86902800  1
  Ni  Ni9  1  0.05365000  0.37512900  0.36902800  1
  P  P10  1  0.33548700  0.13533800  0.36507300  1
  P  P11  1  0.13533800  0.33548700  0.86507300  1
  P  P12  1  0.28752100  0.71247900  0.25000000  1
  P  P13  1  0.71247900  0.28752100  0.75000000  1
  P  P14  1  0.66451300  0.86466200  0.63492700  1
  P  P15  1  0.86466200  0.66451300  0.13492700  1
  O  O16  1  0.84754900  0.85004700  0.10380600  1
  O  O17  1  0.14995300  0.15245100  0.39619400  1
  O  O18  1  0.39890700  0.04738400  0.17661100  1
  O  O19  1  0.33660100  0.00809000  0.59446400  1
  O  O20  1  0.99191000  0.66339900  0.90553600  1
  O  O21  1  0.85004700  0.84754900  0.60380600  1
  O  O22  1  0.60109300  0.95261600  0.82338900  1
  O  O23  1  0.66339900  0.99191000  0.40553600  1
  O  O24  1  0.00809000  0.33660100  0.09446400  1
  O  O25  1  0.95261600  0.60109300  0.32338900  1
  O  O26  1  0.54817000  0.70249000  0.69849000  1
  O  O27  1  0.73454000  0.46613900  0.76819900  1
  O  O28  1  0.73903700  0.17773300  0.97284700  1
  O  O29  1  0.70249000  0.54817000  0.19849000  1
  O  O30  1  0.15245100  0.14995300  0.89619400  1
  O  O31  1  0.82226700  0.26096300  0.52715300  1
  O  O32  1  0.17773300  0.73903700  0.47284700  1
  O  O33  1  0.53386100  0.26546000  0.73180100  1
  O  O34  1  0.29751000  0.45183000  0.80151000  1
  O  O35  1  0.26096300  0.82226700  0.02715300  1
  O  O36  1  0.26546000  0.53386100  0.23180100  1
  O  O37  1  0.45183000  0.29751000  0.30151000  1
  O  O38  1  0.04738400  0.39890700  0.67661100  1
  O  O39  1  0.46613900  0.73454000  0.26819900  1
