# generated using pymatgen
data_Li2Cu(PO3)4
_symmetry_space_group_name_H-M   'P 1'
_cell_length_a   9.43126300
_cell_length_b   9.43413300
_cell_length_c   10.13378800
_cell_angle_alpha   90.00000000
_cell_angle_beta   90.00000000
_cell_angle_gamma   90.00000000
_symmetry_Int_Tables_number   1
_chemical_formula_structural   Li2Cu(PO3)4
_chemical_formula_sum   'Li8 Cu4 P16 O48'
_cell_volume   901.66178793
_cell_formula_units_Z   4
loop_
 _symmetry_equiv_pos_site_id
 _symmetry_equiv_pos_as_xyz
  1  'x, y, z'
loop_
 _atom_site_type_symbol
 _atom_site_label
 _atom_site_symmetry_multiplicity
 _atom_site_fract_x
 _atom_site_fract_y
 _atom_site_fract_z
 _atom_site_occupancy
  Li  Li0  1  0.09579100  0.00890600  0.17936700  1
  Li  Li1  1  0.90420900  0.99109400  0.82063300  1
  Li  Li2  1  0.59579100  0.99109400  0.82063300  1
  Li  Li3  1  0.40420900  0.50890600  0.32063300  1
  Li  Li4  1  0.09579100  0.50890600  0.32063300  1
  Li  Li5  1  0.40420900  0.00890600  0.17936700  1
  Li  Li6  1  0.59579100  0.49109400  0.67936700  1
  Li  Li7  1  0.90420900  0.49109400  0.67936700  1
  Cu  Cu8  1  0.75000000  0.00237800  0.20648700  1
  Cu  Cu9  1  0.25000000  0.49762200  0.70648700  1
  Cu  Cu10  1  0.75000000  0.50237800  0.29351300  1
  Cu  Cu11  1  0.25000000  0.99762200  0.79351300  1
  P  P12  1  0.75000000  0.77657600  0.46597000  1
  P  P13  1  0.25000000  0.72342400  0.96597000  1
  P  P14  1  0.03435100  0.78705300  0.60462200  1
  P  P15  1  0.46564900  0.78705300  0.60462200  1
  P  P16  1  0.75000000  0.19822000  0.61075000  1
  P  P17  1  0.53435100  0.21294700  0.39537800  1
  P  P18  1  0.96564900  0.21294700  0.39537800  1
  P  P19  1  0.25000000  0.22342400  0.53403000  1
  P  P20  1  0.75000000  0.27657600  0.03403000  1
  P  P21  1  0.03435100  0.28705300  0.89537800  1
  P  P22  1  0.46564900  0.28705300  0.89537800  1
  P  P23  1  0.25000000  0.30178000  0.11075000  1
  P  P24  1  0.75000000  0.69822000  0.88925000  1
  P  P25  1  0.53435100  0.71294700  0.10462200  1
  P  P26  1  0.96564900  0.71294700  0.10462200  1
  P  P27  1  0.25000000  0.80178000  0.38925000  1
  O  O28  1  0.11719400  0.35008800  0.02102400  1
  O  O29  1  0.06239000  0.88199200  0.72177000  1
  O  O30  1  0.25000000  0.88352700  0.95047100  1
  O  O31  1  0.25000000  0.89812200  0.27201700  1
  O  O32  1  0.75000000  0.10187800  0.72798300  1
  O  O33  1  0.75000000  0.11647300  0.04952900  1
  O  O34  1  0.56239000  0.11800800  0.27823000  1
  O  O35  1  0.93761000  0.11800800  0.27823000  1
  O  O36  1  0.05440900  0.12950700  0.88371700  1
  O  O37  1  0.44559100  0.12950700  0.88371700  1
  O  O38  1  0.25000000  0.13551700  0.65588600  1
  O  O39  1  0.61719400  0.14991200  0.52102400  1
  O  O40  1  0.88280600  0.14991200  0.52102400  1
  O  O41  1  0.25000000  0.14458600  0.12922200  1
  O  O42  1  0.12504600  0.17608700  0.43766500  1
  O  O43  1  0.37495400  0.17608700  0.43766500  1
  O  O44  1  0.62504600  0.32391300  0.93766500  1
  O  O45  1  0.87495400  0.32391300  0.93766500  1
  O  O46  1  0.75000000  0.35541400  0.62922200  1
  O  O47  1  0.43761000  0.88199200  0.72177000  1
  O  O48  1  0.38280600  0.35008800  0.02102400  1
  O  O49  1  0.75000000  0.36448300  0.15588600  1
  O  O50  1  0.55440900  0.37049300  0.38371700  1
  O  O51  1  0.94559100  0.37049300  0.38371700  1
  O  O52  1  0.06239000  0.38199200  0.77823000  1
  O  O53  1  0.43761000  0.38199200  0.77823000  1
  O  O54  1  0.25000000  0.38352700  0.54952900  1
  O  O55  1  0.25000000  0.39812200  0.22798300  1
  O  O56  1  0.75000000  0.60187800  0.77201700  1
  O  O57  1  0.75000000  0.61647300  0.45047100  1
  O  O58  1  0.56239000  0.61800800  0.22177000  1
  O  O59  1  0.93761000  0.61800800  0.22177000  1
  O  O60  1  0.05440900  0.62950700  0.61628300  1
  O  O61  1  0.44559100  0.62950700  0.61628300  1
  O  O62  1  0.25000000  0.63551700  0.84411400  1
  O  O63  1  0.61719400  0.64991200  0.97897600  1
  O  O64  1  0.88280600  0.64991200  0.97897600  1
  O  O65  1  0.25000000  0.64458600  0.37077800  1
  O  O66  1  0.12504600  0.67608700  0.06233500  1
  O  O67  1  0.37495400  0.67608700  0.06233500  1
  O  O68  1  0.62504600  0.82391300  0.56233500  1
  O  O69  1  0.87495400  0.82391300  0.56233500  1
  O  O70  1  0.75000000  0.85541400  0.87077800  1
  O  O71  1  0.11719400  0.85008800  0.47897600  1
  O  O72  1  0.94559100  0.87049300  0.11628300  1
  O  O73  1  0.75000000  0.86448300  0.34411400  1
  O  O74  1  0.55440900  0.87049300  0.11628300  1
  O  O75  1  0.38280600  0.85008800  0.47897600  1
