# generated using pymatgen
data_LiCrPO4
_symmetry_space_group_name_H-M   'P 1'
_cell_length_a   7.62461450
_cell_length_b   7.62461450
_cell_length_c   9.53012600
_cell_angle_alpha   90.00000000
_cell_angle_beta   90.00000000
_cell_angle_gamma   120.00000437
_symmetry_Int_Tables_number   1
_chemical_formula_structural   LiCrPO4
_chemical_formula_sum   'Li6 Cr6 P6 O24'
_cell_volume   479.80529559
_cell_formula_units_Z   6
loop_
 _symmetry_equiv_pos_site_id
 _symmetry_equiv_pos_as_xyz
  1  'x, y, z'
loop_
 _atom_site_type_symbol
 _atom_site_label
 _atom_site_symmetry_multiplicity
 _atom_site_fract_x
 _atom_site_fract_y
 _atom_site_fract_z
 _atom_site_occupancy
  Li  Li0  1  0.20709400  0.95937000  0.26018700  1
  Li  Li1  1  0.04063000  0.24772500  0.26018700  1
  Li  Li2  1  0.24772500  0.04063000  0.76018700  1
  Li  Li3  1  0.75227500  0.79290600  0.26018700  1
  Li  Li4  1  0.79290600  0.75227500  0.76018700  1
  Li  Li5  1  0.95937000  0.20709400  0.76018700  1
  Cr  Cr6  1  0.05301200  0.58391700  0.47901800  1
  Cr  Cr7  1  0.53090500  0.94698800  0.47901800  1
  Cr  Cr8  1  0.41608300  0.46909500  0.47901800  1
  Cr  Cr9  1  0.46909500  0.41608300  0.97901800  1
  Cr  Cr10  1  0.58391700  0.05301200  0.97901800  1
  Cr  Cr11  1  0.94698800  0.53090500  0.97901800  1
  P  P12  1  0.33333300  0.66666700  0.77800000  1
  P  P13  1  0.33333300  0.66666700  0.18098400  1
  P  P14  1  0.00000000  0.00000000  0.50895200  1
  P  P15  1  0.00000000  0.00000000  0.00895200  1
  P  P16  1  0.66666700  0.33333300  0.68098400  1
  P  P17  1  0.66666700  0.33333300  0.27800000  1
  O  O18  1  0.10860900  0.88687800  0.45358000  1
  O  O19  1  0.16141600  0.70395000  0.13344100  1
  O  O20  1  0.12740600  0.49267700  0.82907900  1
  O  O21  1  0.36527100  0.87259400  0.82907900  1
  O  O22  1  0.33333300  0.66666700  0.61289200  1
  O  O23  1  0.33333300  0.66666700  0.35047500  1
  O  O24  1  0.00000000  0.00000000  0.67176700  1
  O  O25  1  0.11312200  0.22173100  0.45358000  1
  O  O26  1  0.29605000  0.45746600  0.13344100  1
  O  O27  1  0.54253400  0.83858400  0.13344100  1
  O  O28  1  0.22173100  0.11312200  0.95358000  1
  O  O29  1  0.50732300  0.63472900  0.82907900  1
  O  O30  1  0.45746600  0.29605000  0.63344100  1
  O  O31  1  0.77826900  0.89139100  0.45358000  1
  O  O32  1  0.63472900  0.50732300  0.32907900  1
  O  O33  1  0.49267700  0.12740600  0.32907900  1
  O  O34  1  0.00000000  0.00000000  0.17176700  1
  O  O35  1  0.66666700  0.33333300  0.85047500  1
  O  O36  1  0.66666700  0.33333300  0.11289200  1
  O  O37  1  0.89139100  0.77826900  0.95358000  1
  O  O38  1  0.83858400  0.54253400  0.63344100  1
  O  O39  1  0.70395000  0.16141600  0.63344100  1
  O  O40  1  0.87259400  0.36527100  0.32907900  1
  O  O41  1  0.88687800  0.10860900  0.95358000  1
