# generated using pymatgen
data_LiV2P3O10
_symmetry_space_group_name_H-M   'P 1'
_cell_length_a   8.66901400
_cell_length_b   4.65721900
_cell_length_c   9.14636515
_cell_angle_alpha   82.52024498
_cell_angle_beta   90.00000000
_cell_angle_gamma   90.00000000
_symmetry_Int_Tables_number   1
_chemical_formula_structural   LiV2P3O10
_chemical_formula_sum   'Li2 V4 P6 O20'
_cell_volume   366.12858913
_cell_formula_units_Z   2
loop_
 _symmetry_equiv_pos_site_id
 _symmetry_equiv_pos_as_xyz
  1  'x, y, z'
loop_
 _atom_site_type_symbol
 _atom_site_label
 _atom_site_symmetry_multiplicity
 _atom_site_fract_x
 _atom_site_fract_y
 _atom_site_fract_z
 _atom_site_occupancy
  Li  Li0  1  0.00000000  0.00000000  0.00000000  1
  Li  Li1  1  0.50000000  0.00000000  0.00000000  1
  V  V2  1  0.06950300  0.96816700  0.33476100  1
  V  V3  1  0.43049700  0.96816700  0.33476100  1
  V  V4  1  0.56950300  0.03183300  0.66523900  1
  V  V5  1  0.93049700  0.03183300  0.66523900  1
  P  P6  1  0.25000000  0.67079400  0.82209500  1
  P  P7  1  0.75000000  0.59771900  0.46348300  1
  P  P8  1  0.75000000  0.45848600  0.85935700  1
  P  P9  1  0.25000000  0.54151400  0.14064300  1
  P  P10  1  0.25000000  0.40228100  0.53651700  1
  P  P11  1  0.75000000  0.32920600  0.17790500  1
  O  O12  1  0.10126600  0.84077900  0.81439300  1
  O  O13  1  0.39873400  0.84077900  0.81439300  1
  O  O14  1  0.75000000  0.75899400  0.76644300  1
  O  O15  1  0.60102900  0.76685200  0.48444600  1
  O  O16  1  0.89897100  0.76685200  0.48444600  1
  O  O17  1  0.25000000  0.70576800  0.44742500  1
  O  O18  1  0.10184300  0.71405700  0.15478600  1
  O  O19  1  0.39815700  0.71405700  0.15478600  1
  O  O20  1  0.25000000  0.44939700  0.97287900  1
  O  O21  1  0.75000000  0.56066800  0.29028700  1
  O  O22  1  0.25000000  0.43933200  0.70971300  1
  O  O23  1  0.75000000  0.55060300  0.02712100  1
  O  O24  1  0.60184300  0.28594300  0.84521400  1
  O  O25  1  0.89815700  0.28594300  0.84521400  1
  O  O26  1  0.75000000  0.29423200  0.55257500  1
  O  O27  1  0.10102900  0.23314800  0.51555400  1
  O  O28  1  0.39897100  0.23314800  0.51555400  1
  O  O29  1  0.25000000  0.24100600  0.23355700  1
  O  O30  1  0.60126600  0.15922100  0.18560700  1
  O  O31  1  0.89873400  0.15922100  0.18560700  1
