# generated using pymatgen
data_Li3Fe3(PO4)4
_symmetry_space_group_name_H-M   'P 1'
_cell_length_a   11.27713600
_cell_length_b   6.09324600
_cell_length_c   8.86057181
_cell_angle_alpha   79.52470008
_cell_angle_beta   90.00000000
_cell_angle_gamma   90.00000000
_symmetry_Int_Tables_number   1
_chemical_formula_structural   Li3Fe3(PO4)4
_chemical_formula_sum   'Li6 Fe6 P8 O32'
_cell_volume   598.70110570
_cell_formula_units_Z   2
loop_
 _symmetry_equiv_pos_site_id
 _symmetry_equiv_pos_as_xyz
  1  'x, y, z'
loop_
 _atom_site_type_symbol
 _atom_site_label
 _atom_site_symmetry_multiplicity
 _atom_site_fract_x
 _atom_site_fract_y
 _atom_site_fract_z
 _atom_site_occupancy
  Li  Li0  1  0.39363500  0.83563900  0.92318700  1
  Li  Li1  1  0.61338700  0.64743200  0.06280900  1
  Li  Li2  1  0.89363500  0.16436100  0.07681300  1
  Li  Li3  1  0.19071600  0.10581600  0.35197900  1
  Li  Li4  1  0.69071600  0.89418400  0.64802100  1
  Li  Li5  1  0.11338700  0.35256800  0.93719100  1
  Fe  Fe6  1  0.90798700  0.61180300  0.24005500  1
  Fe  Fe7  1  0.58352700  0.07959800  0.26533700  1
  Fe  Fe8  1  0.29940700  0.62043400  0.35694100  1
  Fe  Fe9  1  0.79940700  0.37956600  0.64305900  1
  Fe  Fe10  1  0.40798700  0.38819700  0.75994500  1
  Fe  Fe11  1  0.08352700  0.92040200  0.73466300  1
  P  P12  1  0.86731000  0.63445000  0.89723700  1
  P  P13  1  0.41190600  0.92931900  0.59056100  1
  P  P14  1  0.08741600  0.45410800  0.60931600  1
  P  P15  1  0.91190600  0.07068100  0.40943900  1
  P  P16  1  0.58741600  0.54589200  0.39068400  1
  P  P17  1  0.13524100  0.86938800  0.08559600  1
  P  P18  1  0.63524100  0.13061200  0.91440400  1
  P  P19  1  0.36731000  0.36555000  0.10276300  1
  O  O20  1  0.03479400  0.02148900  0.48523500  1
  O  O21  1  0.05477300  0.65915700  0.14105400  1
  O  O22  1  0.06733500  0.08411100  0.08439200  1
  O  O23  1  0.69154500  0.14865100  0.07185100  1
  O  O24  1  0.44004900  0.57859800  0.08270000  1
  O  O25  1  0.80632800  0.65999800  0.05357200  1
  O  O26  1  0.19154500  0.85134900  0.92814900  1
  O  O27  1  0.56733500  0.91588900  0.91560800  1
  O  O28  1  0.30632800  0.34000200  0.94642800  1
  O  O29  1  0.94004900  0.42140200  0.91730000  1
  O  O30  1  0.94220400  0.85188400  0.84424400  1
  O  O31  1  0.73694000  0.14378500  0.79321000  1
  O  O32  1  0.55477300  0.34084300  0.85894600  1
  O  O33  1  0.10647400  0.23409100  0.72521200  1
  O  O34  1  0.77193800  0.62768800  0.77181000  1
  O  O35  1  0.37636400  0.12089700  0.67947600  1
  O  O36  1  0.44220400  0.14811600  0.15575600  1
  O  O37  1  0.12775000  0.63634200  0.69806500  1
  O  O38  1  0.81449700  0.10055100  0.52725400  1
  O  O39  1  0.53479400  0.97851100  0.51476500  1
  O  O40  1  0.41264100  0.71083400  0.71692600  1
  O  O41  1  0.95583200  0.48309500  0.55689500  1
  O  O42  1  0.67000400  0.53827000  0.53048000  1
  O  O43  1  0.31449700  0.89944900  0.47274600  1
  O  O44  1  0.17000400  0.46173000  0.46952000  1
  O  O45  1  0.45583200  0.51690500  0.44310500  1
  O  O46  1  0.87636400  0.87910300  0.32052400  1
  O  O47  1  0.60647400  0.76590900  0.27478800  1
  O  O48  1  0.62775000  0.36365800  0.30193500  1
  O  O49  1  0.91264100  0.28916600  0.28307400  1
  O  O50  1  0.23694000  0.85621500  0.20679000  1
  O  O51  1  0.27193800  0.37231200  0.22819000  1
