# generated using pymatgen
data_LiV2(PO4)3
_symmetry_space_group_name_H-M   'P 1'
_cell_length_a   8.66639600
_cell_length_b   8.50541400
_cell_length_c   14.64941737
_cell_angle_alpha   54.57040260
_cell_angle_beta   90.00000000
_cell_angle_gamma   90.00000000
_symmetry_Int_Tables_number   1
_chemical_formula_structural   LiV2(PO4)3
_chemical_formula_sum   'Li4 V8 P12 O48'
_cell_volume   879.87407612
_cell_formula_units_Z   4
loop_
 _symmetry_equiv_pos_site_id
 _symmetry_equiv_pos_as_xyz
  1  'x, y, z'
loop_
 _atom_site_type_symbol
 _atom_site_label
 _atom_site_symmetry_multiplicity
 _atom_site_fract_x
 _atom_site_fract_y
 _atom_site_fract_z
 _atom_site_occupancy
  Li  Li0  1  0.77912800  0.98138800  0.32120000  1
  Li  Li1  1  0.27912800  0.01861200  0.17880000  1
  Li  Li2  1  0.72087200  0.98138800  0.82120000  1
  Li  Li3  1  0.22087200  0.01861200  0.67880000  1
  V  V4  1  0.03167000  0.62899600  0.61902900  1
  V  V5  1  0.53167000  0.37100400  0.88097100  1
  V  V6  1  0.96077900  0.14182000  0.11353000  1
  V  V7  1  0.46077900  0.85818000  0.38647000  1
  V  V8  1  0.53922100  0.14182000  0.61353000  1
  V  V9  1  0.03922100  0.85818000  0.88647000  1
  V  V10  1  0.46833000  0.62899600  0.11902900  1
  V  V11  1  0.96833000  0.37100400  0.38097100  1
  P  P12  1  0.25149600  0.46167100  0.00691400  1
  P  P13  1  0.38336800  0.74974300  0.64627500  1
  P  P14  1  0.10878800  0.03467600  0.35740900  1
  P  P15  1  0.88336800  0.25025700  0.85372500  1
  P  P16  1  0.60878800  0.96532400  0.14259100  1
  P  P17  1  0.75149600  0.53832900  0.49308600  1
  P  P18  1  0.24850400  0.46167100  0.50691400  1
  P  P19  1  0.39121200  0.03467600  0.85740900  1
  P  P20  1  0.11663200  0.74974300  0.14627500  1
  P  P21  1  0.89121200  0.96532400  0.64259100  1
  P  P22  1  0.61663200  0.25025700  0.35372500  1
  P  P23  1  0.74850400  0.53832900  0.99308600  1
  O  O24  1  0.86991200  0.37447600  0.06578500  1
  O  O25  1  0.88469100  0.80164300  0.62829400  1
  O  O26  1  0.68251700  0.51579800  0.90383500  1
  O  O27  1  0.58005200  0.09012500  0.33582800  1
  O  O28  1  0.37035400  0.47568000  0.92619300  1
  O  O29  1  0.20803600  0.71695900  0.66572400  1
  O  O30  1  0.42978300  0.81913200  0.52795400  1
  O  O31  1  0.98813900  0.07434000  0.26762900  1
  O  O32  1  0.16910600  0.26404400  0.07047300  1
  O  O33  1  0.26878400  0.00729700  0.31999200  1
  O  O34  1  0.48199200  0.57006200  0.73129700  1
  O  O35  1  0.05863700  0.84195600  0.46644400  1
  O  O36  1  0.98199200  0.42993800  0.76870300  1
  O  O37  1  0.55863700  0.15804400  0.03355600  1
  O  O38  1  0.76878400  0.99270300  0.18000800  1
  O  O39  1  0.66910600  0.73595600  0.42952700  1
  O  O40  1  0.92978300  0.18086800  0.97204600  1
  O  O41  1  0.48813900  0.92566000  0.23237100  1
  O  O42  1  0.70803600  0.28304100  0.83427600  1
  O  O43  1  0.87035400  0.52432000  0.57380700  1
  O  O44  1  0.18251700  0.48420200  0.59616500  1
  O  O45  1  0.38469100  0.19835700  0.87170600  1
  O  O46  1  0.08005200  0.90987500  0.16417200  1
  O  O47  1  0.36991200  0.62552400  0.43421500  1
  O  O48  1  0.63008800  0.37447600  0.56578500  1
  O  O49  1  0.91994800  0.09012500  0.83582800  1
  O  O50  1  0.61530900  0.80164300  0.12829400  1
  O  O51  1  0.81748300  0.51579800  0.40383500  1
  O  O52  1  0.12964600  0.47568000  0.42619300  1
  O  O53  1  0.29196400  0.71695900  0.16572400  1
  O  O54  1  0.51186100  0.07434000  0.76762900  1
  O  O55  1  0.07021700  0.81913200  0.02795400  1
  O  O56  1  0.33089400  0.26404400  0.57047300  1
  O  O57  1  0.23121600  0.00729700  0.81999200  1
  O  O58  1  0.44136300  0.84195600  0.96644400  1
  O  O59  1  0.01800800  0.57006200  0.23129700  1
  O  O60  1  0.94136300  0.15804400  0.53355600  1
  O  O61  1  0.51800800  0.42993800  0.26870300  1
  O  O62  1  0.73121600  0.99270300  0.68000800  1
  O  O63  1  0.83089400  0.73595600  0.92952700  1
  O  O64  1  0.01186100  0.92566000  0.73237100  1
  O  O65  1  0.57021700  0.18086800  0.47204600  1
  O  O66  1  0.79196400  0.28304100  0.33427600  1
  O  O67  1  0.62964600  0.52432000  0.07380700  1
  O  O68  1  0.41994800  0.90987500  0.66417200  1
  O  O69  1  0.31748300  0.48420200  0.09616500  1
  O  O70  1  0.11530900  0.19835700  0.37170600  1
  O  O71  1  0.13008800  0.62552400  0.93421500  1
