# generated using pymatgen
data_Li3Ti2(PO4)3
_symmetry_space_group_name_H-M   'P 1'
_cell_length_a   8.90584000
_cell_length_b   8.52446000
_cell_length_c   14.68657967
_cell_angle_alpha   55.62604743
_cell_angle_beta   90.00000000
_cell_angle_gamma   90.00000000
_symmetry_Int_Tables_number   1
_chemical_formula_structural   Li3Ti2(PO4)3
_chemical_formula_sum   'Li12 Ti8 P12 O48'
_cell_volume   920.26148139
_cell_formula_units_Z   4
loop_
 _symmetry_equiv_pos_site_id
 _symmetry_equiv_pos_as_xyz
  1  'x, y, z'
loop_
 _atom_site_type_symbol
 _atom_site_label
 _atom_site_symmetry_multiplicity
 _atom_site_fract_x
 _atom_site_fract_y
 _atom_site_fract_z
 _atom_site_occupancy
  Li  Li0  1  0.51193000  0.71691700  0.34743600  1
  Li  Li1  1  0.41430600  0.39585600  0.18744700  1
  Li  Li2  1  0.98807000  0.71691700  0.84743600  1
  Li  Li3  1  0.08569400  0.39585600  0.68744700  1
  Li  Li4  1  0.48807000  0.28308300  0.65256400  1
  Li  Li5  1  0.21771400  0.99852100  0.82208100  1
  Li  Li6  1  0.71771400  0.00147900  0.67791900  1
  Li  Li7  1  0.28228600  0.99852100  0.32208100  1
  Li  Li8  1  0.01193000  0.28308300  0.15256400  1
  Li  Li9  1  0.58569400  0.60414400  0.81255300  1
  Li  Li10  1  0.91430600  0.60414400  0.31255300  1
  Li  Li11  1  0.78228600  0.00147900  0.17791900  1
  Ti  Ti12  1  0.97417000  0.65296000  0.10440500  1
  Ti  Ti13  1  0.52583000  0.65296000  0.60440500  1
  Ti  Ti14  1  0.03595700  0.13899300  0.60469400  1
  Ti  Ti15  1  0.02583000  0.34704000  0.89559500  1
  Ti  Ti16  1  0.46404300  0.13899300  0.10469400  1
  Ti  Ti17  1  0.47417000  0.34704000  0.39559500  1
  Ti  Ti18  1  0.96404300  0.86100700  0.39530600  1
  Ti  Ti19  1  0.53595700  0.86100700  0.89530600  1
  P  P20  1  0.11960700  0.26708800  0.34527200  1
  P  P21  1  0.24998000  0.55128700  0.49050100  1
  P  P22  1  0.38039300  0.26708800  0.84527200  1
  P  P23  1  0.89077300  0.03551100  0.84941000  1
  P  P24  1  0.60922700  0.03551100  0.34941000  1
  P  P25  1  0.39077300  0.96448900  0.65059000  1
  P  P26  1  0.74998000  0.44871300  0.00949900  1
  P  P27  1  0.10922700  0.96448900  0.15059000  1
  P  P28  1  0.75002000  0.44871300  0.50949900  1
  P  P29  1  0.88039300  0.73291200  0.65472800  1
  P  P30  1  0.61960700  0.73291200  0.15472800  1
  P  P31  1  0.25002000  0.55128700  0.99050100  1
  O  O32  1  0.70764000  0.70374400  0.67273700  1
  O  O33  1  0.86127800  0.48447200  0.91769400  1
  O  O34  1  0.76565100  0.01434200  0.31184500  1
  O  O35  1  0.60941600  0.15649400  0.39654700  1
  O  O36  1  0.95591200  0.83220400  0.93382200  1
  O  O37  1  0.16659700  0.54075300  0.90137500  1
  O  O38  1  0.12867300  0.39724300  0.55285400  1
  O  O39  1  0.62867300  0.60275700  0.94714600  1
  O  O40  1  0.99605200  0.87396500  0.25053100  1
  O  O41  1  0.45591200  0.16779600  0.56617800  1
  O  O42  1  0.31967200  0.75199700  0.93680300  1
  O  O43  1  0.33340300  0.54075300  0.40137500  1
  O  O44  1  0.49605200  0.12603500  0.24946900  1
  O  O45  1  0.52882700  0.54778200  0.22362000  1
  O  O46  1  0.10941600  0.84350600  0.10345300  1
  O  O47  1  0.79236000  0.70374400  0.17273700  1
  O  O48  1  0.04408800  0.16779600  0.06617800  1
  O  O49  1  0.18032800  0.75199700  0.43680300  1
  O  O50  1  0.37132700  0.39724300  0.05285400  1
  O  O51  1  0.89058400  0.15649400  0.89654700  1
  O  O52  1  0.83340300  0.45924700  0.09862500  1
  O  O53  1  0.42205200  0.12830600  0.81117800  1
  O  O54  1  0.20764000  0.29625600  0.82726300  1
  O  O55  1  0.68032800  0.24800300  0.06319700  1
  O  O56  1  0.58571700  0.82956800  0.03087600  1
  O  O57  1  0.13872200  0.51552800  0.08230600  1
  O  O58  1  0.87132700  0.60275700  0.44714600  1
  O  O59  1  0.00394800  0.12603500  0.74946900  1
  O  O60  1  0.41428300  0.17043200  0.96912400  1
  O  O61  1  0.08571700  0.17043200  0.46912400  1
  O  O62  1  0.97117300  0.54778200  0.72362000  1
  O  O63  1  0.36127800  0.51552800  0.58230600  1
  O  O64  1  0.92205200  0.87169400  0.68882200  1
  O  O65  1  0.81967200  0.24800300  0.56319700  1
  O  O66  1  0.57794800  0.87169400  0.18882200  1
  O  O67  1  0.07794800  0.12830600  0.31117800  1
  O  O68  1  0.91428300  0.82956800  0.53087600  1
  O  O69  1  0.02882700  0.45221800  0.27638000  1
  O  O70  1  0.23434900  0.98565800  0.68815500  1
  O  O71  1  0.26565100  0.98565800  0.18815500  1
  O  O72  1  0.50394800  0.87396500  0.75053100  1
  O  O73  1  0.47117300  0.45221800  0.77638000  1
  O  O74  1  0.73434900  0.01434200  0.81184500  1
  O  O75  1  0.29236000  0.29625600  0.32726300  1
  O  O76  1  0.63872200  0.48447200  0.41769400  1
  O  O77  1  0.66659700  0.45924700  0.59862500  1
  O  O78  1  0.39058400  0.84350600  0.60345300  1
  O  O79  1  0.54408800  0.83220400  0.43382200  1
