# generated using pymatgen
data_Li2Cr(PO3)4
_symmetry_space_group_name_H-M   'P 1'
_cell_length_a   8.50311960
_cell_length_b   8.50311960
_cell_length_c   7.46071743
_cell_angle_alpha   88.36629069
_cell_angle_beta   88.36629069
_cell_angle_gamma   114.59449180
_symmetry_Int_Tables_number   1
_chemical_formula_structural   Li2Cr(PO3)4
_chemical_formula_sum   'Li4 Cr2 P8 O24'
_cell_volume   489.80979312
_cell_formula_units_Z   2
loop_
 _symmetry_equiv_pos_site_id
 _symmetry_equiv_pos_as_xyz
  1  'x, y, z'
loop_
 _atom_site_type_symbol
 _atom_site_label
 _atom_site_symmetry_multiplicity
 _atom_site_fract_x
 _atom_site_fract_y
 _atom_site_fract_z
 _atom_site_occupancy
  Li  Li0  1  0.50251200  0.82000600  0.31250400  1
  Li  Li1  1  0.49748800  0.17999400  0.68749600  1
  Li  Li2  1  0.17999400  0.49748800  0.18749600  1
  Li  Li3  1  0.82000600  0.50251200  0.81250400  1
  Cr  Cr4  1  0.12863800  0.87136200  0.75000000  1
  Cr  Cr5  1  0.87136200  0.12863800  0.25000000  1
  P  P6  1  0.22149100  0.56242400  0.61321200  1
  P  P7  1  0.22846800  0.07155300  0.31653500  1
  P  P8  1  0.92844700  0.77153200  0.18346500  1
  P  P9  1  0.77153200  0.92844700  0.68346500  1
  P  P10  1  0.77850900  0.43757600  0.38678800  1
  P  P11  1  0.43757600  0.77850900  0.88678800  1
  P  P12  1  0.56242400  0.22149100  0.11321200  1
  P  P13  1  0.07155300  0.22846800  0.81653500  1
  O  O14  1  0.37925000  0.91563800  0.82025000  1
  O  O15  1  0.16666700  0.11388000  0.82523200  1
  O  O16  1  0.83333300  0.88612000  0.17476800  1
  O  O17  1  0.88612000  0.83333300  0.67476800  1
  O  O18  1  0.93779600  0.67468900  0.02194200  1
  O  O19  1  0.67468900  0.93779600  0.52194200  1
  O  O20  1  0.84822400  0.64204000  0.35787800  1
  O  O21  1  0.64204000  0.84822400  0.85787800  1
  O  O22  1  0.91563800  0.37925000  0.32025000  1
  O  O23  1  0.87759300  0.12240700  0.75000000  1
  O  O24  1  0.38904300  0.70529300  0.07512800  1
  O  O25  1  0.62261400  0.37738600  0.25000000  1
  O  O26  1  0.12240700  0.87759300  0.25000000  1
  O  O27  1  0.06220400  0.32531100  0.97805800  1
  O  O28  1  0.29470700  0.61095700  0.42487200  1
  O  O29  1  0.11388000  0.16666700  0.32523200  1
  O  O30  1  0.37738600  0.62261400  0.75000000  1
  O  O31  1  0.61095700  0.29470700  0.92487200  1
  O  O32  1  0.62075000  0.08436200  0.17975000  1
  O  O33  1  0.08436200  0.62075000  0.67975000  1
  O  O34  1  0.35796000  0.15177600  0.14212200  1
  O  O35  1  0.15177600  0.35796000  0.64212200  1
  O  O36  1  0.32531100  0.06220400  0.47805800  1
  O  O37  1  0.70529300  0.38904300  0.57512800  1
