# generated using pymatgen
data_LiSn(PO3)3
_symmetry_space_group_name_H-M   'P 1'
_cell_length_a   6.62331521
_cell_length_b   6.62331521
_cell_length_c   10.01616700
_cell_angle_alpha   90.00000000
_cell_angle_beta   90.00000000
_cell_angle_gamma   119.99999210
_symmetry_Int_Tables_number   1
_chemical_formula_structural   LiSn(PO3)3
_chemical_formula_sum   'Li2 Sn2 P6 O18'
_cell_volume   380.52489181
_cell_formula_units_Z   2
loop_
 _symmetry_equiv_pos_site_id
 _symmetry_equiv_pos_as_xyz
  1  'x, y, z'
loop_
 _atom_site_type_symbol
 _atom_site_label
 _atom_site_symmetry_multiplicity
 _atom_site_fract_x
 _atom_site_fract_y
 _atom_site_fract_z
 _atom_site_occupancy
  Li  Li0  1  0.00000000  0.00000000  0.00000000  1
  Li  Li1  1  0.00000000  0.00000000  0.50000000  1
  Sn  Sn2  1  0.66666700  0.33333300  0.00000000  1
  Sn  Sn3  1  0.66666700  0.33333300  0.50000000  1
  P  P4  1  0.60559000  0.91464700  0.75000000  1
  P  P5  1  0.60559000  0.69094200  0.25000000  1
  P  P6  1  0.08535300  0.39441000  0.25000000  1
  P  P7  1  0.30905800  0.39441000  0.75000000  1
  P  P8  1  0.08535300  0.69094200  0.75000000  1
  P  P9  1  0.30905800  0.91464700  0.25000000  1
  O  O10  1  0.35282300  0.45732900  0.25000000  1
  O  O11  1  0.54267100  0.64717700  0.75000000  1
  O  O12  1  0.35282300  0.89549400  0.75000000  1
  O  O13  1  0.54267100  0.89549400  0.25000000  1
  O  O14  1  0.72423700  0.02709900  0.62049500  1
  O  O15  1  0.72423700  0.02709900  0.87950500  1
  O  O16  1  0.10450600  0.64717700  0.25000000  1
  O  O17  1  0.97290100  0.27576300  0.37950500  1
  O  O18  1  0.97290100  0.27576300  0.12049500  1
  O  O19  1  0.72423700  0.69713800  0.12049500  1
  O  O20  1  0.72423700  0.69713800  0.37950500  1
  O  O21  1  0.10450600  0.45732900  0.75000000  1
  O  O22  1  0.97290100  0.69713800  0.87950500  1
  O  O23  1  0.97290100  0.69713800  0.62049500  1
  O  O24  1  0.30286200  0.27576300  0.62049500  1
  O  O25  1  0.30286200  0.27576300  0.87950500  1
  O  O26  1  0.30286200  0.02709900  0.37950500  1
  O  O27  1  0.30286200  0.02709900  0.12049500  1
