# generated using pymatgen
data_LiCo3(P3O10)2
_symmetry_space_group_name_H-M   'P 1'
_cell_length_a   8.37299700
_cell_length_b   8.37299700
_cell_length_c   12.24748900
_cell_angle_alpha   90.00000000
_cell_angle_beta   90.00000000
_cell_angle_gamma   105.14262259
_symmetry_Int_Tables_number   1
_chemical_formula_structural   LiCo3(P3O10)2
_chemical_formula_sum   'Li2 Co6 P12 O40'
_cell_volume   828.82262022
_cell_formula_units_Z   2
loop_
 _symmetry_equiv_pos_site_id
 _symmetry_equiv_pos_as_xyz
  1  'x, y, z'
loop_
 _atom_site_type_symbol
 _atom_site_label
 _atom_site_symmetry_multiplicity
 _atom_site_fract_x
 _atom_site_fract_y
 _atom_site_fract_z
 _atom_site_occupancy
  Li  Li0  1  0.41122500  0.41122500  0.75000000  1
  Li  Li1  1  0.58877500  0.58877500  0.25000000  1
  Co  Co2  1  0.87649100  0.87649100  0.25000000  1
  Co  Co3  1  0.23978200  0.76021800  0.00000000  1
  Co  Co4  1  0.30265900  0.69734100  0.50000000  1
  Co  Co5  1  0.69734100  0.30265900  0.00000000  1
  Co  Co6  1  0.76021800  0.23978200  0.50000000  1
  Co  Co7  1  0.12350900  0.12350900  0.75000000  1
  P  P8  1  0.26314500  0.84613700  0.26316900  1
  P  P9  1  0.84613700  0.26314500  0.23683100  1
  P  P10  1  0.81927000  0.70041500  0.03017000  1
  P  P11  1  0.15386300  0.73685500  0.73683100  1
  P  P12  1  0.70041500  0.81927000  0.46983000  1
  P  P13  1  0.62964600  0.91151200  0.93439600  1
  P  P14  1  0.37035400  0.08848800  0.43439600  1
  P  P15  1  0.08848800  0.37035400  0.06560400  1
  P  P16  1  0.29958500  0.18073000  0.96983000  1
  P  P17  1  0.91151200  0.62964600  0.56560400  1
  P  P18  1  0.73685500  0.15386300  0.76316900  1
  P  P19  1  0.18073000  0.29958500  0.53017000  1
  O  O20  1  0.79022400  0.84088500  0.94622700  1
  O  O21  1  0.96916000  0.64422500  0.69168800  1
  O  O22  1  0.73999400  0.72758800  0.14233600  1
  O  O23  1  0.72758800  0.73999400  0.35766400  1
  O  O24  1  0.64422500  0.96916000  0.80831200  1
  O  O25  1  0.84088500  0.79022400  0.55377300  1
  O  O26  1  0.20977600  0.15911500  0.44622700  1
  O  O27  1  0.15911500  0.20977600  0.05377300  1
  O  O28  1  0.03084000  0.35577500  0.19168800  1
  O  O29  1  0.35577500  0.03084000  0.30831200  1
  O  O30  1  0.27241200  0.26000600  0.85766400  1
  O  O31  1  0.26000600  0.27241200  0.64233600  1
  O  O32  1  0.65670200  0.05977300  0.00871400  1
  O  O33  1  0.27937900  0.67988600  0.66727300  1
  O  O34  1  0.00329600  0.73242000  0.04506100  1
  O  O35  1  0.73242000  0.00329600  0.45493900  1
  O  O36  1  0.27521400  0.46167600  0.47936400  1
  O  O37  1  0.46167600  0.27521400  0.02063600  1
  O  O38  1  0.22744600  0.52451000  0.05182800  1
  O  O39  1  0.52451000  0.22744600  0.44817200  1
  O  O40  1  0.68381200  0.15523200  0.64497700  1
  O  O41  1  0.15523200  0.68381200  0.85502300  1
  O  O42  1  0.83471600  0.07615100  0.22423900  1
  O  O43  1  0.07615100  0.83471600  0.27576100  1
  O  O44  1  0.94022700  0.34329800  0.99128600  1
  O  O45  1  0.67988600  0.27937900  0.83272700  1
  O  O46  1  0.72062100  0.32011400  0.16727300  1
  O  O47  1  0.32011400  0.72062100  0.33272700  1
  O  O48  1  0.16528400  0.92384900  0.72423900  1
  O  O49  1  0.92384900  0.16528400  0.77576100  1
  O  O50  1  0.31618800  0.84476800  0.14497700  1
  O  O51  1  0.84476800  0.31618800  0.35502300  1
  O  O52  1  0.77255400  0.47549000  0.55182800  1
  O  O53  1  0.47549000  0.77255400  0.94817200  1
  O  O54  1  0.72478600  0.53832400  0.97936400  1
  O  O55  1  0.53832400  0.72478600  0.52063600  1
  O  O56  1  0.99670400  0.26758000  0.54506100  1
  O  O57  1  0.26758000  0.99670400  0.95493900  1
  O  O58  1  0.34329800  0.94022700  0.50871400  1
  O  O59  1  0.05977300  0.65670200  0.49128600  1
