# generated using pymatgen
data_Li6Cr3P8O29
_symmetry_space_group_name_H-M   'P 1'
_cell_length_a   9.83346500
_cell_length_b   9.83399872
_cell_length_c   13.95901346
_cell_angle_alpha   89.86039380
_cell_angle_beta   89.84836051
_cell_angle_gamma   60.06157474
_symmetry_Int_Tables_number   1
_chemical_formula_structural   Li6Cr3P8O29
_chemical_formula_sum   'Li12 Cr6 P16 O58'
_cell_volume   1169.73997485
_cell_formula_units_Z   2
loop_
 _symmetry_equiv_pos_site_id
 _symmetry_equiv_pos_as_xyz
  1  'x, y, z'
loop_
 _atom_site_type_symbol
 _atom_site_label
 _atom_site_symmetry_multiplicity
 _atom_site_fract_x
 _atom_site_fract_y
 _atom_site_fract_z
 _atom_site_occupancy
  Li  Li0  1  0.22529700  0.68981400  0.05985100  1
  Li  Li1  1  0.77434200  0.31414500  0.93926000  1
  Li  Li2  1  0.91083300  0.31462700  0.43859300  1
  Li  Li3  1  0.31359900  0.77529800  0.43821000  1
  Li  Li4  1  0.31516900  0.90787900  0.93864400  1
  Li  Li5  1  0.22709700  0.08832300  0.56042800  1
  Li  Li6  1  0.08639400  0.22329800  0.06166000  1
  Li  Li7  1  0.09124300  0.68207600  0.56487400  1
  Li  Li8  1  0.68590600  0.22567900  0.56120400  1
  Li  Li9  1  0.32996900  0.33679000  0.88505200  1
  Li  Li10  1  0.70061600  0.07883600  0.06179100  1
  Li  Li11  1  0.77750300  0.90928300  0.43994800  1
  Cr  Cr12  1  0.56684400  0.43290800  0.74754000  1
  Cr  Cr13  1  0.99868600  0.56973300  0.75198000  1
  Cr  Cr14  1  0.43234300  0.00109400  0.75007100  1
  Cr  Cr15  1  0.56493700  0.00109800  0.24992200  1
  Cr  Cr16  1  0.00184400  0.43507200  0.24775500  1
  Cr  Cr17  1  0.43347100  0.56550000  0.24972700  1
  P  P18  1  0.23100900  0.09061000  0.34019700  1
  P  P19  1  0.32222500  0.91028900  0.15832100  1
  P  P20  1  0.66482600  0.66629400  0.86743500  1
  P  P21  1  0.66619800  0.66633100  0.36676100  1
  P  P22  1  0.32211500  0.76793400  0.65818200  1
  P  P23  1  0.91315000  0.32195000  0.65792800  1
  P  P24  1  0.23095100  0.67657800  0.84102100  1
  P  P25  1  0.08917600  0.67643900  0.34499200  1
  P  P26  1  0.67750500  0.23266700  0.34106300  1
  P  P27  1  0.33233100  0.33430400  0.63025100  1
  P  P28  1  0.33488900  0.33276100  0.12894600  1
  P  P29  1  0.67639100  0.09257400  0.84334500  1
  P  P30  1  0.76720600  0.91190900  0.66031000  1
  P  P31  1  0.08998300  0.23175800  0.84235100  1
  P  P32  1  0.91306600  0.77176300  0.16200100  1
  P  P33  1  0.76741700  0.32295600  0.15852600  1
  O  O34  1  0.25136700  0.08023400  0.84328200  1
  O  O35  1  0.91802100  0.33451900  0.15815000  1
  O  O36  1  0.61982900  0.48370200  0.17410500  1
  O  O37  1  0.99677400  0.24557500  0.93130800  1
  O  O38  1  0.75043700  0.33470800  0.65751900  1
  O  O39  1  0.75663300  0.24394000  0.43091600  1
  O  O40  1  0.24203000  0.75758900  0.56853200  1
  O  O41  1  0.25035200  0.66716600  0.34133600  1
  O  O42  1  0.00954300  0.76652800  0.07790700  1
  O  O43  1  0.37605500  0.50999100  0.82585400  1
  O  O44  1  0.08462900  0.66038500  0.84025600  1
  O  O45  1  0.32689500  0.48666200  0.16686500  1
  O  O46  1  0.51617100  0.38039000  0.32571600  1
  O  O47  1  0.75702300  0.24303800  0.06891200  1
  O  O48  1  0.78722900  0.21281500  0.24990400  1
  O  O49  1  0.66549000  0.25513900  0.84048000  1
  O  O50  1  0.18857400  0.48895900  0.66820100  1
  O  O51  1  0.10445500  0.51550700  0.32593200  1
  O  O52  1  0.48909600  0.32315700  0.66644200  1
  O  O53  1  0.33396500  0.33224600  0.52184400  1
  O  O54  1  0.33370300  0.33376000  0.02081300  1
  O  O55  1  0.48847500  0.18616100  0.16660000  1
  O  O56  1  0.11539300  0.37364600  0.82775600  1
  O  O57  1  0.18818800  0.32425500  0.16656200  1
  O  O58  1  0.66555800  0.08217200  0.34150700  1
  O  O59  1  0.78343600  0.00253300  0.75176900  1
  O  O60  1  0.74854200  0.00631700  0.93381000  1
  O  O61  1  0.75709600  0.00190000  0.57005700  1
  O  O62  1  0.50847600  0.11741700  0.82648600  1
  O  O63  1  0.32233900  0.18913300  0.66786800  1
  O  O64  1  0.08092900  0.25265300  0.34013900  1
  O  O65  1  0.74783400  0.91798200  0.16070300  1
  O  O66  1  0.98826800  0.79372600  0.25959900  1
  O  O67  1  0.37882700  0.10459400  0.32419600  1
  O  O68  1  0.00277300  0.75017400  0.43703500  1
  O  O69  1  0.00337900  0.23949200  0.56848900  1
  O  O70  1  0.00082000  0.21456200  0.75059800  1
  O  O71  1  0.61938900  0.89825700  0.67468600  1
  O  O72  1  0.91794400  0.75057400  0.66045600  1
  O  O73  1  0.48298600  0.62000700  0.67252400  1
  O  O74  1  0.67336900  0.81429700  0.33093300  1
  O  O75  1  0.48314100  0.89673700  0.17481300  1
  O  O76  1  0.24381400  0.00008400  0.06805000  1
  O  O77  1  0.24342700  0.99983000  0.43032100  1
  O  O78  1  0.21140400  0.00100400  0.24915600  1
  O  O79  1  0.33330500  0.91851200  0.65845300  1
  O  O80  1  0.80836000  0.67180200  0.82613900  1
  O  O81  1  0.90335600  0.61972400  0.17175700  1
  O  O82  1  0.51064200  0.81427400  0.83326700  1
  O  O83  1  0.66659500  0.66297500  0.47487100  1
  O  O84  1  0.66792100  0.65882700  0.97600400  1
  O  O85  1  0.67057800  0.51335400  0.83027300  1
  O  O86  1  0.90390900  0.48084100  0.67211500  1
  O  O87  1  0.81214000  0.51372200  0.32795900  1
  O  O88  1  0.33345300  0.74840000  0.15873700  1
  O  O89  1  0.21489000  0.78505100  0.75008600  1
  O  O90  1  0.24802100  0.75312000  0.92996300  1
  O  O91  1  0.51082100  0.67579000  0.32942100  1
