# generated using pymatgen
data_Li3Co2P5O16
_symmetry_space_group_name_H-M   'P 1'
_cell_length_a   6.93199000
_cell_length_b   5.05767900
_cell_length_c   18.20156259
_cell_angle_alpha   87.62632417
_cell_angle_beta   90.00000000
_cell_angle_gamma   90.00000000
_symmetry_Int_Tables_number   1
_chemical_formula_structural   Li3Co2P5O16
_chemical_formula_sum   'Li6 Co4 P10 O32'
_cell_volume   637.59523536
_cell_formula_units_Z   2
loop_
 _symmetry_equiv_pos_site_id
 _symmetry_equiv_pos_as_xyz
  1  'x, y, z'
loop_
 _atom_site_type_symbol
 _atom_site_label
 _atom_site_symmetry_multiplicity
 _atom_site_fract_x
 _atom_site_fract_y
 _atom_site_fract_z
 _atom_site_occupancy
  Li  Li0  1  0.32778100  0.73975500  0.53425200  1
  Li  Li1  1  0.97921800  0.50000000  0.75000000  1
  Li  Li2  1  0.67221900  0.26024500  0.46574800  1
  Li  Li3  1  0.32778100  0.26024500  0.96574800  1
  Li  Li4  1  0.02078200  0.50000000  0.25000000  1
  Li  Li5  1  0.67221900  0.73975500  0.03425200  1
  Co  Co6  1  0.82680200  0.73257900  0.58937400  1
  Co  Co7  1  0.17319800  0.73257900  0.08937400  1
  Co  Co8  1  0.82680200  0.26742100  0.91062600  1
  Co  Co9  1  0.17319800  0.26742100  0.41062600  1
  P  P10  1  0.53170900  0.26119700  0.62433800  1
  P  P11  1  0.24506900  0.00000000  0.25000000  1
  P  P12  1  0.87432500  0.77293700  0.41363000  1
  P  P13  1  0.46829100  0.73880300  0.37566200  1
  P  P14  1  0.75493100  0.00000000  0.75000000  1
  P  P15  1  0.53170900  0.73880300  0.87566200  1
  P  P16  1  0.87432500  0.22706300  0.08637000  1
  P  P17  1  0.46829100  0.26119700  0.12433800  1
  P  P18  1  0.12567500  0.22706300  0.58637000  1
  P  P19  1  0.12567500  0.77293700  0.91363000  1
  O  O20  1  0.08149600  0.06178900  0.92902300  1
  O  O21  1  0.13408900  0.82264800  0.20087800  1
  O  O22  1  0.61264800  0.80656800  0.79467600  1
  O  O23  1  0.02304400  0.62123700  0.37011000  1
  O  O24  1  0.97695600  0.37876300  0.62989000  1
  O  O25  1  0.91850400  0.06178900  0.42902300  1
  O  O26  1  0.38735200  0.19343200  0.20532400  1
  O  O27  1  0.55262800  0.44429200  0.89214900  1
  O  O28  1  0.79641500  0.61706600  0.48167000  1
  O  O29  1  0.68843000  0.80143100  0.35686500  1
  O  O30  1  0.44737200  0.44429200  0.39214900  1
  O  O31  1  0.38288800  0.08137900  0.06831200  1
  O  O32  1  0.44737200  0.55570800  0.10785100  1
  O  O33  1  0.55262800  0.55570800  0.60785100  1
  O  O34  1  0.91850400  0.93821100  0.07097700  1
  O  O35  1  0.68843000  0.19856900  0.14313500  1
  O  O36  1  0.02304400  0.37876300  0.12989000  1
  O  O37  1  0.38288800  0.91862100  0.43168800  1
  O  O38  1  0.86591100  0.17735200  0.79912200  1
  O  O39  1  0.61711200  0.08137900  0.56831200  1
  O  O40  1  0.86591100  0.82264800  0.70087800  1
  O  O41  1  0.61264800  0.19343200  0.70532400  1
  O  O42  1  0.31157000  0.19856900  0.64313500  1
  O  O43  1  0.97695600  0.62123700  0.87011000  1
  O  O44  1  0.31157000  0.80143100  0.85686500  1
  O  O45  1  0.13408900  0.17735200  0.29912200  1
  O  O46  1  0.79641500  0.38293400  0.01833000  1
  O  O47  1  0.38735200  0.80656800  0.29467600  1
  O  O48  1  0.61711200  0.91862100  0.93168800  1
  O  O49  1  0.20358500  0.61706600  0.98167000  1
  O  O50  1  0.08149600  0.93821100  0.57097700  1
  O  O51  1  0.20358500  0.38293400  0.51833000  1
