# generated using pymatgen
data_Li6Ge2O7
_symmetry_space_group_name_H-M   'P 1'
_cell_length_a   5.37117800
_cell_length_b   8.18242100
_cell_length_c   16.18476541
_cell_angle_alpha   62.67424327
_cell_angle_beta   90.00000000
_cell_angle_gamma   90.00000000
_symmetry_Int_Tables_number   1
_chemical_formula_structural   Li6Ge2O7
_chemical_formula_sum   'Li24 Ge8 O28'
_cell_volume   631.93394316
_cell_formula_units_Z   4
loop_
 _symmetry_equiv_pos_site_id
 _symmetry_equiv_pos_as_xyz
  1  'x, y, z'
loop_
 _atom_site_type_symbol
 _atom_site_label
 _atom_site_symmetry_multiplicity
 _atom_site_fract_x
 _atom_site_fract_y
 _atom_site_fract_z
 _atom_site_occupancy
  Li  Li0  1  0.28111600  0.39953700  0.80505800  1
  Li  Li1  1  0.78111600  0.60046300  0.69494200  1
  Li  Li2  1  0.71888400  0.60046300  0.19494200  1
  Li  Li3  1  0.21888400  0.39953700  0.30505800  1
  Li  Li4  1  0.12980200  0.65365200  0.88428300  1
  Li  Li5  1  0.62980200  0.34634800  0.61571700  1
  Li  Li6  1  0.87019800  0.34634800  0.11571700  1
  Li  Li7  1  0.37019800  0.65365200  0.38428300  1
  Li  Li8  1  0.16814900  0.12682600  0.24339100  1
  Li  Li9  1  0.66814900  0.87317400  0.25660900  1
  Li  Li10  1  0.85302000  0.73919400  0.98443900  1
  Li  Li11  1  0.35302000  0.26080600  0.51556100  1
  Li  Li12  1  0.14698000  0.26080600  0.01556100  1
  Li  Li13  1  0.64698000  0.73919400  0.48443900  1
  Li  Li14  1  0.30585200  0.99135300  0.95705100  1
  Li  Li15  1  0.80585200  0.00864700  0.54294900  1
  Li  Li16  1  0.69414800  0.00864700  0.04294900  1
  Li  Li17  1  0.19414800  0.99135300  0.45705100  1
  Li  Li18  1  0.48674800  0.82145700  0.87900700  1
  Li  Li19  1  0.98674800  0.17854300  0.62099300  1
  Li  Li20  1  0.51325200  0.17854300  0.12099300  1
  Li  Li21  1  0.01325200  0.82145700  0.37900700  1
  Li  Li22  1  0.83185100  0.87317400  0.75660900  1
  Li  Li23  1  0.33185100  0.12682600  0.74339100  1
  Ge  Ge24  1  0.64915400  0.43936100  0.91305200  1
  Ge  Ge25  1  0.14915400  0.56063900  0.58694800  1
  Ge  Ge26  1  0.35084600  0.56063900  0.08694800  1
  Ge  Ge27  1  0.85084600  0.43936100  0.41305200  1
  Ge  Ge28  1  0.82756300  0.15591900  0.83069900  1
  Ge  Ge29  1  0.32756300  0.84408100  0.66930100  1
  Ge  Ge30  1  0.17243700  0.84408100  0.16930100  1
  Ge  Ge31  1  0.67243700  0.15591900  0.33069900  1
  O  O32  1  0.22792100  0.87051000  0.76719100  1
  O  O33  1  0.73004900  0.66202200  0.38020100  1
  O  O34  1  0.26995100  0.33797800  0.61979900  1
  O  O35  1  0.76995100  0.66202200  0.88020100  1
  O  O36  1  0.17695600  0.44243000  0.41089200  1
  O  O37  1  0.67695600  0.55757000  0.08910800  1
  O  O38  1  0.72792100  0.12949000  0.73280900  1
  O  O39  1  0.32304400  0.44243000  0.91089200  1
  O  O40  1  0.78801600  0.38203600  0.31567900  1
  O  O41  1  0.28801600  0.61796400  0.18432100  1
  O  O42  1  0.21198400  0.61796400  0.68432100  1
  O  O43  1  0.71198400  0.38203600  0.81567900  1
  O  O44  1  0.77207900  0.12949000  0.23280900  1
  O  O45  1  0.27207900  0.87051000  0.26719100  1
  O  O46  1  0.22178600  0.73205100  0.98269900  1
  O  O47  1  0.72178600  0.26794900  0.51730100  1
  O  O48  1  0.77821400  0.26794900  0.01730100  1
  O  O49  1  0.27821400  0.73205100  0.48269900  1
  O  O50  1  0.67624000  0.97989500  0.92836000  1
  O  O51  1  0.17624000  0.02010500  0.57164000  1
  O  O52  1  0.32376000  0.02010500  0.07164000  1
  O  O53  1  0.82304400  0.55757000  0.58910800  1
  O  O54  1  0.15251600  0.15972900  0.84010400  1
  O  O55  1  0.65251600  0.84027100  0.65989600  1
  O  O56  1  0.84748400  0.84027100  0.15989600  1
  O  O57  1  0.34748400  0.15972900  0.34010400  1
  O  O58  1  0.23004900  0.33797800  0.11979900  1
  O  O59  1  0.82376000  0.97989500  0.42836000  1
