# generated using pymatgen
data_LiNi3P4O15
_symmetry_space_group_name_H-M   'P 1'
_cell_length_a   10.43280500
_cell_length_b   6.42470200
_cell_length_c   17.94603065
_cell_angle_alpha   89.45339678
_cell_angle_beta   90.00000000
_cell_angle_gamma   90.00000000
_symmetry_Int_Tables_number   1
_chemical_formula_structural   LiNi3P4O15
_chemical_formula_sum   'Li4 Ni12 P16 O60'
_cell_volume   1202.82575913
_cell_formula_units_Z   4
loop_
 _symmetry_equiv_pos_site_id
 _symmetry_equiv_pos_as_xyz
  1  'x, y, z'
loop_
 _atom_site_type_symbol
 _atom_site_label
 _atom_site_symmetry_multiplicity
 _atom_site_fract_x
 _atom_site_fract_y
 _atom_site_fract_z
 _atom_site_occupancy
  Li  Li0  1  0.22125800  0.26859000  0.49928800  1
  Li  Li1  1  0.77874200  0.26859000  0.99928800  1
  Li  Li2  1  0.57779100  0.67237600  0.59620200  1
  Li  Li3  1  0.42220900  0.67237600  0.09620200  1
  Ni  Ni4  1  0.75715100  0.01804900  0.13569100  1
  Ni  Ni5  1  0.25334200  0.50342000  0.36469900  1
  Ni  Ni6  1  0.25364600  0.49331100  0.82914400  1
  Ni  Ni7  1  0.24284900  0.01804900  0.63569100  1
  Ni  Ni8  1  0.74635400  0.49331100  0.32914400  1
  Ni  Ni9  1  0.74665800  0.50342000  0.86469900  1
  Ni  Ni10  1  0.75272200  0.99428300  0.67122200  1
  Ni  Ni11  1  0.50674000  0.27251300  0.24308300  1
  Ni  Ni12  1  0.99259400  0.77224000  0.75645600  1
  Ni  Ni13  1  0.00740600  0.77224000  0.25645600  1
  Ni  Ni14  1  0.49326000  0.27251300  0.74308300  1
  Ni  Ni15  1  0.24727800  0.99428300  0.17122200  1
  P  P16  1  0.26761300  0.00467000  0.32411900  1
  P  P17  1  0.74587900  0.99655100  0.28816600  1
  P  P18  1  0.47899800  0.44435800  0.95032100  1
  P  P19  1  0.23196500  0.51399300  0.67686600  1
  P  P20  1  0.01708100  0.62852300  0.92805400  1
  P  P21  1  0.75373400  0.49166100  0.71215100  1
  P  P22  1  0.52100200  0.44435800  0.45032100  1
  P  P23  1  0.48419000  0.14979500  0.07422600  1
  P  P24  1  0.97693400  0.94685300  0.54948300  1
  P  P25  1  0.02306600  0.94685300  0.04948300  1
  P  P26  1  0.73238700  0.00467000  0.82411900  1
  P  P27  1  0.98291900  0.62852300  0.42805400  1
  P  P28  1  0.24626600  0.49166100  0.21215100  1
  P  P29  1  0.51581000  0.14979500  0.57422600  1
  P  P30  1  0.76803500  0.51399300  0.17686600  1
  P  P31  1  0.25412100  0.99655100  0.78816600  1
  O  O32  1  0.24242100  0.18608000  0.37695000  1
  O  O33  1  0.65152500  0.47777900  0.23253600  1
  O  O34  1  0.20886400  0.32907400  0.62547300  1
  O  O35  1  0.95285600  0.73031200  0.50845400  1
  O  O36  1  0.43789400  0.23131400  0.99368200  1
  O  O37  1  0.57449900  0.62573700  0.49303300  1
  O  O38  1  0.29251200  0.80813000  0.36972900  1
  O  O39  1  0.86188600  0.54300300  0.76987300  1
  O  O40  1  0.10674800  0.50417100  0.43998600  1
  O  O41  1  0.88012400  0.00406400  0.04323300  1
  O  O42  1  0.13729900  0.97109500  0.73257500  1
  O  O43  1  0.15196400  0.98141300  0.26724000  1
  O  O44  1  0.62122800  0.04445700  0.76622100  1
  O  O45  1  0.86630900  0.49018200  0.41344300  1
  O  O46  1  0.91084300  0.12435200  0.50533400  1
  O  O47  1  0.36239400  0.45976400  0.26819600  1
  O  O48  1  0.12398900  0.54203100  0.73766600  1
  O  O49  1  0.34847500  0.47777900  0.73253600  1
  O  O50  1  0.92928700  0.91315400  0.62840000  1
  O  O51  1  0.78294900  0.30263000  0.66441600  1
  O  O52  1  0.70748800  0.80813000  0.86972900  1
  O  O53  1  0.36361700  0.04552800  0.72977000  1
  O  O54  1  0.79113600  0.32907400  0.12547300  1
  O  O55  1  0.38117800  0.06023000  0.56057200  1
  O  O56  1  0.51728300  0.33161700  0.62937000  1
  O  O57  1  0.75757900  0.18608000  0.87695000  1
  O  O58  1  0.21705100  0.30263000  0.16441600  1
  O  O59  1  0.57073400  0.41897500  0.37115800  1
  O  O60  1  0.84803600  0.98141300  0.76724000  1
  O  O61  1  0.48271700  0.33161700  0.12937000  1
  O  O62  1  0.11987600  0.00406400  0.54323300  1
  O  O63  1  0.61193200  0.97990300  0.59620300  1
  O  O64  1  0.13811400  0.54300300  0.26987300  1
  O  O65  1  0.71756000  0.80310200  0.33506700  1
  O  O66  1  0.07071300  0.91315400  0.12840000  1
  O  O67  1  0.74523800  0.70600200  0.12768500  1
  O  O68  1  0.04714400  0.73031200  0.00845400  1
  O  O69  1  0.63760600  0.45976400  0.76819600  1
  O  O70  1  0.99276100  0.79991400  0.36903900  1
  O  O71  1  0.87601100  0.54203100  0.23766600  1
  O  O72  1  0.27484300  0.67868300  0.16151300  1
  O  O73  1  0.72515700  0.67868300  0.66151300  1
  O  O74  1  0.08915700  0.12435200  0.00533400  1
  O  O75  1  0.56210600  0.23131400  0.49368200  1
  O  O76  1  0.23043000  0.18078600  0.83910100  1
  O  O77  1  0.89325200  0.50417100  0.93998600  1
  O  O78  1  0.76957000  0.18078600  0.33910100  1
  O  O79  1  0.38806800  0.97990300  0.09620300  1
  O  O80  1  0.00723900  0.79991400  0.86903900  1
  O  O81  1  0.63638300  0.04552800  0.22977000  1
  O  O82  1  0.28244000  0.80310200  0.83506700  1
  O  O83  1  0.13369100  0.49018200  0.91344300  1
  O  O84  1  0.86270100  0.97109500  0.23257500  1
  O  O85  1  0.42550100  0.62573700  0.99303300  1
  O  O86  1  0.37877200  0.04445700  0.26622100  1
  O  O87  1  0.61882200  0.06023000  0.06057200  1
  O  O88  1  0.37290900  0.45313500  0.45212400  1
  O  O89  1  0.62709100  0.45313500  0.95212400  1
  O  O90  1  0.25476200  0.70600200  0.62768500  1
  O  O91  1  0.42926600  0.41897500  0.87115800  1
