# generated using pymatgen
data_Li3Mo2(PO4)3
_symmetry_space_group_name_H-M   'P 1'
_cell_length_a   8.98184600
_cell_length_b   8.63655300
_cell_length_c   12.30941512
_cell_angle_alpha   89.92297050
_cell_angle_beta   90.00000000
_cell_angle_gamma   90.00000000
_symmetry_Int_Tables_number   1
_chemical_formula_structural   Li3Mo2(PO4)3
_chemical_formula_sum   'Li12 Mo8 P12 O48'
_cell_volume   954.86741377
_cell_formula_units_Z   4
loop_
 _symmetry_equiv_pos_site_id
 _symmetry_equiv_pos_as_xyz
  1  'x, y, z'
loop_
 _atom_site_type_symbol
 _atom_site_label
 _atom_site_symmetry_multiplicity
 _atom_site_fract_x
 _atom_site_fract_y
 _atom_site_fract_z
 _atom_site_occupancy
  Li  Li0  1  0.51494200  0.93228900  0.34938400  1
  Li  Li1  1  0.08941000  0.91812000  0.68805600  1
  Li  Li2  1  0.77758500  0.82325800  0.17867500  1
  Li  Li3  1  0.27758500  0.67674200  0.32132500  1
  Li  Li4  1  0.58941000  0.58188000  0.81194400  1
  Li  Li5  1  0.01494200  0.56771100  0.15061600  1
  Li  Li6  1  0.98505800  0.43228900  0.84938400  1
  Li  Li7  1  0.41059000  0.41812000  0.18805600  1
  Li  Li8  1  0.72241500  0.32325800  0.67867500  1
  Li  Li9  1  0.22241500  0.17674200  0.82132500  1
  Li  Li10  1  0.91059000  0.08188000  0.31194400  1
  Li  Li11  1  0.48505800  0.06771100  0.65061600  1
  Mo  Mo12  1  0.03032300  0.75472700  0.89284500  1
  Mo  Mo13  1  0.46143600  0.75591900  0.10992900  1
  Mo  Mo14  1  0.53032300  0.74527300  0.60715500  1
  Mo  Mo15  1  0.96143600  0.74408100  0.39007100  1
  Mo  Mo16  1  0.03856400  0.25591900  0.60992900  1
  Mo  Mo17  1  0.46967700  0.25472700  0.39284500  1
  Mo  Mo18  1  0.53856400  0.24408100  0.89007100  1
  Mo  Mo19  1  0.96967700  0.24527300  0.10715500  1
  P  P20  1  0.74964900  0.04358200  0.51059000  1
  P  P21  1  0.61659400  0.11163800  0.15378500  1
  P  P22  1  0.89215200  0.11445300  0.85090500  1
  P  P23  1  0.39215200  0.38554700  0.64909500  1
  P  P24  1  0.11659400  0.38836200  0.34621500  1
  P  P25  1  0.24964900  0.45641800  0.98941000  1
  P  P26  1  0.75035100  0.54358200  0.01059000  1
  P  P27  1  0.88340600  0.61163800  0.65378500  1
  P  P28  1  0.25035100  0.95641800  0.48941000  1
  P  P29  1  0.38340600  0.88836200  0.84621500  1
  P  P30  1  0.60784800  0.61445300  0.35090500  1
  P  P31  1  0.10784800  0.88554700  0.14909500  1
  O  O32  1  0.18149600  0.80974900  0.43689500  1
  O  O33  1  0.12989400  0.04754300  0.55176200  1
  O  O34  1  0.33243400  0.04910100  0.39962200  1
  O  O35  1  0.42675300  0.05757500  0.80789300  1
  O  O36  1  0.63914800  0.09431800  0.41972900  1
  O  O37  1  0.78780600  0.11660200  0.17664900  1
  O  O38  1  0.00896100  0.12245700  0.75539100  1
  O  O39  1  0.73940700  0.17434900  0.80903800  1
  O  O40  1  0.88739700  0.94978700  0.89574600  1
  O  O41  1  0.87010600  0.95245700  0.44823800  1
  O  O42  1  0.66756600  0.95089900  0.60037800  1
  O  O43  1  0.57324700  0.94242500  0.19210700  1
  O  O44  1  0.36085200  0.90568200  0.58027100  1
  O  O45  1  0.21219400  0.88339800  0.82335100  1
  O  O46  1  0.99103900  0.87754300  0.24460900  1
  O  O47  1  0.41242200  0.86764000  0.96664400  1
  O  O48  1  0.26059300  0.82565100  0.19096200  1
  O  O49  1  0.11260300  0.05021300  0.10425400  1
  O  O50  1  0.47427100  0.77025100  0.77801700  1
  O  O51  1  0.04885400  0.76457700  0.06471300  1
  O  O52  1  0.54885400  0.73542300  0.43528700  1
  O  O53  1  0.97427100  0.72974900  0.72198300  1
  O  O54  1  0.68149600  0.69025100  0.06310500  1
  O  O55  1  0.76059300  0.67434900  0.30903800  1
  O  O56  1  0.91242200  0.63236000  0.53335600  1
  O  O57  1  0.49103900  0.62245700  0.25539100  1
  O  O58  1  0.71219400  0.61660200  0.67664900  1
  O  O59  1  0.86085200  0.59431800  0.91972900  1
  O  O60  1  0.07324700  0.55757500  0.30789300  1
  O  O61  1  0.16756600  0.54910100  0.89962200  1
  O  O62  1  0.38739700  0.55021300  0.60425400  1
  O  O63  1  0.37010600  0.54754300  0.05176200  1
  O  O64  1  0.62989400  0.45245700  0.94823800  1
  O  O65  1  0.61260300  0.44978700  0.39574600  1
  O  O66  1  0.83243400  0.45089900  0.10037800  1
  O  O67  1  0.92675300  0.44242500  0.69210700  1
  O  O68  1  0.13914800  0.40568200  0.08027100  1
  O  O69  1  0.28780600  0.38339800  0.32335100  1
  O  O70  1  0.50896100  0.37754300  0.74460900  1
  O  O71  1  0.08757800  0.36764000  0.46664400  1
  O  O72  1  0.23940700  0.32565100  0.69096200  1
  O  O73  1  0.31850400  0.30974900  0.93689500  1
  O  O74  1  0.02572900  0.27025100  0.27801700  1
  O  O75  1  0.45114600  0.26457700  0.56471300  1
  O  O76  1  0.95114600  0.23542300  0.93528700  1
  O  O77  1  0.52572900  0.22974900  0.22198300  1
  O  O78  1  0.81850400  0.19025100  0.56310500  1
  O  O79  1  0.58757800  0.13236000  0.03335600  1
