# generated using pymatgen
data_Li3Co2(PO4)3
_symmetry_space_group_name_H-M   'P 1'
_cell_length_a   8.71746100
_cell_length_b   8.71630100
_cell_length_c   12.13800348
_cell_angle_alpha   88.66625906
_cell_angle_beta   90.00000000
_cell_angle_gamma   90.00000000
_symmetry_Int_Tables_number   1
_chemical_formula_structural   Li3Co2(PO4)3
_chemical_formula_sum   'Li12 Co8 P12 O48'
_cell_volume   922.04435483
_cell_formula_units_Z   4
loop_
 _symmetry_equiv_pos_site_id
 _symmetry_equiv_pos_as_xyz
  1  'x, y, z'
loop_
 _atom_site_type_symbol
 _atom_site_label
 _atom_site_symmetry_multiplicity
 _atom_site_fract_x
 _atom_site_fract_y
 _atom_site_fract_z
 _atom_site_occupancy
  Li  Li0  1  0.07108500  0.92289300  0.70429600  1
  Li  Li1  1  0.92891500  0.07710700  0.29570400  1
  Li  Li2  1  0.30204400  0.08457500  0.24188200  1
  Li  Li3  1  0.22501200  0.20889100  0.82102000  1
  Li  Li4  1  0.72501200  0.29110900  0.67898000  1
  Li  Li5  1  0.80204400  0.41542500  0.25811800  1
  Li  Li6  1  0.42891500  0.42289300  0.20429600  1
  Li  Li7  1  0.57108500  0.57710700  0.79570400  1
  Li  Li8  1  0.19795600  0.58457500  0.74188200  1
  Li  Li9  1  0.69795600  0.91542500  0.75811800  1
  Li  Li10  1  0.77498800  0.79110900  0.17898000  1
  Li  Li11  1  0.27498800  0.70889100  0.32102000  1
  Co  Co12  1  0.47317800  0.24542400  0.39702700  1
  Co  Co13  1  0.97317800  0.25457600  0.10297300  1
  Co  Co14  1  0.54097200  0.24439500  0.89326200  1
  Co  Co15  1  0.04097200  0.25560500  0.60673800  1
  Co  Co16  1  0.95902800  0.74439500  0.39326200  1
  Co  Co17  1  0.45902800  0.75560500  0.10673800  1
  Co  Co18  1  0.02682200  0.74542400  0.89702700  1
  Co  Co19  1  0.52682200  0.75457600  0.60297300  1
  P  P20  1  0.88191300  0.60472100  0.64786600  1
  P  P21  1  0.60199600  0.60314500  0.34948700  1
  P  P22  1  0.74499400  0.53713100  0.00647900  1
  P  P23  1  0.25500600  0.46286900  0.99352100  1
  P  P24  1  0.39800400  0.39685500  0.65051300  1
  P  P25  1  0.11808700  0.39527900  0.35213400  1
  P  P26  1  0.89800400  0.10314500  0.84948700  1
  P  P27  1  0.61808700  0.10472100  0.14786600  1
  P  P28  1  0.24499400  0.96286900  0.49352100  1
  P  P29  1  0.38191300  0.89527900  0.85213400  1
  P  P30  1  0.10199600  0.89685500  0.15051300  1
  P  P31  1  0.75500600  0.03713100  0.50647900  1
  O  O32  1  0.16893400  0.82581100  0.43550100  1
  O  O33  1  0.78431200  0.14627100  0.18109800  1
  O  O34  1  0.59428600  0.14954900  0.02325900  1
  O  O35  1  0.62291900  0.10463100  0.43255900  1
  O  O36  1  0.40278500  0.06948500  0.83509600  1
  O  O37  1  0.31061700  0.07143300  0.40345700  1
  O  O38  1  0.10602500  0.07655600  0.15470500  1
  O  O39  1  0.13409000  0.04141000  0.57312100  1
  O  O40  1  0.86591000  0.95859000  0.42687900  1
  O  O41  1  0.89397500  0.92344400  0.84529500  1
  O  O42  1  0.68938300  0.92856700  0.59654300  1
  O  O43  1  0.59721500  0.93051500  0.16490400  1
  O  O44  1  0.37708100  0.89536900  0.56744100  1
  O  O45  1  0.40571400  0.85045100  0.97674100  1
  O  O46  1  0.21568800  0.85372900  0.81890200  1
  O  O47  1  0.97899100  0.84730000  0.23833900  1
  O  O48  1  0.26439700  0.84634300  0.18895700  1
  O  O49  1  0.02100900  0.15270000  0.76166100  1
  O  O50  1  0.05367000  0.83655000  0.03940000  1
  O  O51  1  0.50458300  0.80548400  0.78717800  1
  O  O52  1  0.00458300  0.69451600  0.71282200  1
  O  O53  1  0.55367000  0.66345000  0.46060000  1
  O  O54  1  0.66893400  0.67418900  0.06449900  1
  O  O55  1  0.76439700  0.65365700  0.31104300  1
  O  O56  1  0.71568800  0.64627100  0.68109800  1
  O  O57  1  0.90571400  0.64954900  0.52325900  1
  O  O58  1  0.47899100  0.65270000  0.26166100  1
  O  O59  1  0.87708100  0.60463100  0.93255900  1
  O  O60  1  0.18938300  0.57143300  0.90345700  1
  O  O61  1  0.39397500  0.57655600  0.65470500  1
  O  O62  1  0.09721500  0.56948500  0.33509600  1
  O  O63  1  0.36591000  0.54141000  0.07312100  1
  O  O64  1  0.63409000  0.45859000  0.92687900  1
  O  O65  1  0.90278500  0.43051500  0.66490400  1
  O  O66  1  0.60602500  0.42344400  0.34529500  1
  O  O67  1  0.81061700  0.42856700  0.09654300  1
  O  O68  1  0.12291900  0.39536900  0.06744100  1
  O  O69  1  0.52100900  0.34730000  0.73833900  1
  O  O70  1  0.09428600  0.35045100  0.47674100  1
  O  O71  1  0.28431200  0.35372900  0.31890200  1
  O  O72  1  0.73560300  0.15365700  0.81104300  1
  O  O73  1  0.33106600  0.32581100  0.93550100  1
  O  O74  1  0.44633000  0.33655000  0.53940000  1
  O  O75  1  0.99541700  0.30548400  0.28717800  1
  O  O76  1  0.49541700  0.19451600  0.21282200  1
  O  O77  1  0.94633000  0.16345000  0.96060000  1
  O  O78  1  0.83106600  0.17418900  0.56449900  1
  O  O79  1  0.23560300  0.34634300  0.68895700  1
