# generated using pymatgen
data_Li3Cr2(PO4)3
_symmetry_space_group_name_H-M   'P 1'
_cell_length_a   4.85386667
_cell_length_b   4.85386667
_cell_length_c   18.74240443
_cell_angle_alpha   89.63627527
_cell_angle_beta   89.63627527
_cell_angle_gamma   66.40846776
_symmetry_Int_Tables_number   1
_chemical_formula_structural   Li3Cr2(PO4)3
_chemical_formula_sum   'Li6 Cr4 P6 O24'
_cell_volume   404.65409817
_cell_formula_units_Z   2
loop_
 _symmetry_equiv_pos_site_id
 _symmetry_equiv_pos_as_xyz
  1  'x, y, z'
loop_
 _atom_site_type_symbol
 _atom_site_label
 _atom_site_symmetry_multiplicity
 _atom_site_fract_x
 _atom_site_fract_y
 _atom_site_fract_z
 _atom_site_occupancy
  Li  Li0  1  0.00008500  0.00008500  0.33302100  1
  Li  Li1  1  0.99991500  0.99991500  0.66697900  1
  Li  Li2  1  0.67526700  0.67526700  0.58929700  1
  Li  Li3  1  0.67313900  0.67313900  0.25460800  1
  Li  Li4  1  0.32686100  0.32686100  0.74539200  1
  Li  Li5  1  0.32473300  0.32473300  0.41070300  1
  Cr  Cr6  1  0.99754600  0.99754600  0.16449800  1
  Cr  Cr7  1  0.00000000  0.00000000  0.50000000  1
  Cr  Cr8  1  0.00000000  0.00000000  0.00000000  1
  Cr  Cr9  1  0.00245400  0.00245400  0.83550200  1
  P  P10  1  0.34496300  0.34496300  0.24362400  1
  P  P11  1  0.35033900  0.35033900  0.57924300  1
  P  P12  1  0.64966100  0.64966100  0.42075700  1
  P  P13  1  0.65225100  0.65225100  0.08258400  1
  P  P14  1  0.34774900  0.34774900  0.91741600  1
  P  P15  1  0.65503700  0.65503700  0.75637600  1
  O  O16  1  0.25162300  0.25162300  0.31371000  1
  O  O17  1  0.76577100  0.29585500  0.42357300  1
  O  O18  1  0.70636800  0.22214000  0.91864400  1
  O  O19  1  0.77786000  0.29363200  0.08135600  1
  O  O20  1  0.22214000  0.70636800  0.91864400  1
  O  O21  1  0.29363200  0.77786000  0.08135600  1
  O  O22  1  0.29585500  0.76577100  0.42357300  1
  O  O23  1  0.23422900  0.70414600  0.57642700  1
  O  O24  1  0.23006100  0.70012700  0.23957200  1
  O  O25  1  0.29987300  0.76993900  0.76042800  1
  O  O26  1  0.23129200  0.23129200  0.17884100  1
  O  O27  1  0.76993900  0.29987300  0.76042800  1
  O  O28  1  0.24080900  0.24080900  0.51189700  1
  O  O29  1  0.24924700  0.24924700  0.84769600  1
  O  O30  1  0.23722200  0.23722200  0.98300300  1
  O  O31  1  0.24996200  0.24996200  0.64731800  1
  O  O32  1  0.75003800  0.75003800  0.35268200  1
  O  O33  1  0.74837700  0.74837700  0.68629000  1
  O  O34  1  0.75075300  0.75075300  0.15230400  1
  O  O35  1  0.76277800  0.76277800  0.01699700  1
  O  O36  1  0.75919100  0.75919100  0.48810300  1
  O  O37  1  0.76870800  0.76870800  0.82115900  1
  O  O38  1  0.70012700  0.23006100  0.23957200  1
  O  O39  1  0.70414600  0.23422900  0.57642700  1
