# generated using pymatgen
data_Li2VPO4F
_symmetry_space_group_name_H-M   'P 1'
_cell_length_a   7.36375175
_cell_length_b   8.00600512
_cell_length_c   7.45270047
_cell_angle_alpha   89.89029759
_cell_angle_beta   63.64217278
_cell_angle_gamma   89.88272023
_symmetry_Int_Tables_number   1
_chemical_formula_structural   Li2VPO4F
_chemical_formula_sum   'Li8 V4 P4 O16 F4'
_cell_volume   393.68992278
_cell_formula_units_Z   4
loop_
 _symmetry_equiv_pos_site_id
 _symmetry_equiv_pos_as_xyz
  1  'x, y, z'
loop_
 _atom_site_type_symbol
 _atom_site_label
 _atom_site_symmetry_multiplicity
 _atom_site_fract_x
 _atom_site_fract_y
 _atom_site_fract_z
 _atom_site_occupancy
  Li  Li0  1  0.64863700  0.80737100  0.12196200  1
  Li  Li1  1  0.14862900  0.30737500  0.12202500  1
  Li  Li2  1  0.66126300  0.17268200  0.86306300  1
  Li  Li3  1  0.16128400  0.67265700  0.86303200  1
  Li  Li4  1  0.28363900  0.76872000  0.47106900  1
  Li  Li5  1  0.78361800  0.26870800  0.47111400  1
  Li  Li6  1  0.38268200  0.16376500  0.70867800  1
  Li  Li7  1  0.88271200  0.66371500  0.70869700  1
  V  V8  1  0.99930100  0.00293300  0.01357900  1
  V  V9  1  0.50283200  0.49665700  0.50869300  1
  V  V10  1  0.49943600  0.50287900  0.01339300  1
  V  V11  1  0.00272300  0.99662600  0.50883800  1
  P  P12  1  0.48342000  0.13955300  0.26150500  1
  P  P13  1  0.98346400  0.63950600  0.26144400  1
  P  P14  1  0.51169200  0.85998100  0.76716500  1
  P  P15  1  0.01172900  0.35997300  0.76731300  1
  O  O16  1  0.45520000  0.74465600  0.63164000  1
  O  O17  1  0.95499100  0.24465400  0.63197000  1
  O  O18  1  0.52390400  0.23816100  0.41971100  1
  O  O19  1  0.02387400  0.73811000  0.41969700  1
  O  O20  1  0.67206000  0.99780300  0.65484500  1
  O  O21  1  0.17205400  0.49781100  0.65493200  1
  O  O22  1  0.59956800  0.74684900  0.88111600  1
  O  O23  1  0.09961200  0.24685500  0.88121800  1
  O  O24  1  0.40853300  0.25876400  0.14250300  1
  O  O25  1  0.90850700  0.75875200  0.14251900  1
  O  O26  1  0.68184000  0.05643000  0.10075300  1
  O  O27  1  0.18190200  0.55650500  0.10068500  1
  O  O28  1  0.32830600  0.99944500  0.36836200  1
  O  O29  1  0.82837000  0.49939000  0.36824900  1
  O  O30  1  0.31856500  0.95775700  0.90416700  1
  O  O31  1  0.81859100  0.45786000  0.90421300  1
  F  F32  1  0.52977300  0.36023000  0.74980100  1
  F  F33  1  0.02973600  0.86020100  0.74991900  1
  F  F34  1  0.47905200  0.62648700  0.27244000  1
  F  F35  1  0.97898200  0.12643400  0.27251100  1
