# generated using pymatgen
data_Li5V2P5O18
_symmetry_space_group_name_H-M   'P 1'
_cell_length_a   9.38355307
_cell_length_b   10.64637147
_cell_length_c   6.53451007
_cell_angle_alpha   93.05641288
_cell_angle_beta   91.46383663
_cell_angle_gamma   96.59760346
_symmetry_Int_Tables_number   1
_chemical_formula_structural   Li5V2P5O18
_chemical_formula_sum   'Li10 V4 P10 O36'
_cell_volume   647.22698467
_cell_formula_units_Z   2
loop_
 _symmetry_equiv_pos_site_id
 _symmetry_equiv_pos_as_xyz
  1  'x, y, z'
loop_
 _atom_site_type_symbol
 _atom_site_label
 _atom_site_symmetry_multiplicity
 _atom_site_fract_x
 _atom_site_fract_y
 _atom_site_fract_z
 _atom_site_occupancy
  Li  Li0  1  0.04317480  0.87321669  0.98088022  1
  Li  Li1  1  0.13039752  0.35949625  0.82800848  1
  Li  Li2  1  0.20936414  0.66013493  0.12061686  1
  Li  Li3  1  0.27565353  0.58821035  0.55606427  1
  Li  Li4  1  0.36649863  0.86161835  0.34264032  1
  Li  Li5  1  0.63350092  0.13838187  0.65735978  1
  Li  Li6  1  0.72434602  0.41178987  0.44393583  1
  Li  Li7  1  0.79063648  0.33986528  0.87938328  1
  Li  Li8  1  0.86960202  0.64050396  0.17199162  1
  Li  Li9  1  0.95682474  0.12678353  0.01911989  1
  O  O10  1  0.33958186  0.38628855  0.91784034  1
  O  O11  1  0.07540675  0.90459138  0.65678741  1
  O  O12  1  0.03614271  0.31968603  0.41821390  1
  O  O13  1  0.06799117  0.16855613  0.67626013  1
  O  O14  1  0.11248328  0.52482779  0.73262334  1
  O  O15  1  0.17942684  0.75445791  0.39002063  1
  O  O16  1  0.16023946  0.48295587  0.21764682  1
  O  O17  1  0.17019571  0.04487250  0.99126840  1
  O  O18  1  0.32590999  0.81398555  0.02287650  1
  O  O19  1  0.24830043  0.23652525  0.22773114  1
  O  O20  1  0.37076341  0.91567107  0.67757310  1
  O  O21  1  0.26154474  0.02032961  0.35783769  1
  O  O22  1  0.01617533  0.68771448  0.96942264  1
  O  O23  1  0.34763794  0.41402553  0.54081010  1
  O  O24  1  0.42214134  0.59645672  0.25727627  1
  O  O25  1  0.44763895  0.69607471  0.73569569  1
  O  O26  1  0.39724808  0.20225863  0.67873710  1
  O  O27  1  0.42732018  0.10164874  0.07684319  1
  O  O28  1  0.57268043  0.89835147  0.92315694  1
  O  O29  1  0.60275147  0.79774158  0.32126301  1
  O  O30  1  0.55236060  0.30392551  0.26430441  1
  O  O31  1  0.57785927  0.40354349  0.74272233  1
  O  O32  1  0.65236160  0.58597469  0.45919000  1
  O  O33  1  0.66041863  0.61371071  0.08215971  1
  O  O34  1  0.73845587  0.97967060  0.64216091  1
  O  O35  1  0.62923721  0.08432915  0.32242704  1
  O  O36  1  0.75170006  0.76347401  0.77226738  1
  O  O37  1  0.67408955  0.18601466  0.97712207  1
  O  O38  1  0.82980371  0.95512676  0.00873161  1
  O  O39  1  0.83975997  0.51704339  0.78235319  1
  O  O40  1  0.82057271  0.24554230  0.60997947  1
  O  O41  1  0.88751733  0.47517243  0.26737680  1
  O  O42  1  0.93200838  0.83144409  0.32373997  1
  O  O43  1  0.96385790  0.68031418  0.58178623  1
  O  O44  1  0.92459385  0.09540883  0.34321119  1
  O  O45  1  0.98382528  0.31228574  0.03057749  1
  P  P46  1  0.04621071  0.79938723  0.48273363  1
  P  P47  1  0.01296434  0.40159358  0.22306308  1
  P  P48  1  0.27176160  0.10076154  0.17112345  1
  P  P49  1  0.41869685  0.82471525  0.83773896  1
  P  P50  1  0.41658904  0.34865896  0.71961626  1
  P  P51  1  0.58341158  0.65134126  0.28038387  1
  P  P52  1  0.58130270  0.17528497  0.16226114  1
  P  P53  1  0.95378871  0.20061204  0.51726639  1
  P  P54  1  0.98703615  0.59840569  0.77693696  1
  P  P55  1  0.72823901  0.89923867  0.82887668  1
  V  V56  1  0.23264851  0.05083892  0.67351756  1
  V  V57  1  0.35697170  0.40336086  0.23104548  1
  V  V58  1  0.64302784  0.59663935  0.76895462  1
  V  V59  1  0.76735198  0.94916034  0.32648249  1
