# generated using pymatgen
data_LiNb2(PO4)3
_symmetry_space_group_name_H-M   'P 1'
_cell_length_a   8.97965700
_cell_length_b   8.86614300
_cell_length_c   15.12686256
_cell_angle_alpha   54.99577791
_cell_angle_beta   90.00000000
_cell_angle_gamma   90.00000000
_symmetry_Int_Tables_number   1
_chemical_formula_structural   LiNb2(PO4)3
_chemical_formula_sum   'Li4 Nb8 P12 O48'
_cell_volume   986.47356060
_cell_formula_units_Z   4
loop_
 _symmetry_equiv_pos_site_id
 _symmetry_equiv_pos_as_xyz
  1  'x, y, z'
loop_
 _atom_site_type_symbol
 _atom_site_label
 _atom_site_symmetry_multiplicity
 _atom_site_fract_x
 _atom_site_fract_y
 _atom_site_fract_z
 _atom_site_occupancy
  Li  Li0  1  0.77518200  0.96922900  0.32341600  1
  Li  Li1  1  0.22481800  0.03077100  0.67658400  1
  Li  Li2  1  0.27518200  0.03077100  0.17658400  1
  Li  Li3  1  0.72481800  0.96922900  0.82341600  1
  Nb  Nb4  1  0.97057900  0.37009100  0.38027400  1
  Nb  Nb5  1  0.45691100  0.85743800  0.38738900  1
  Nb  Nb6  1  0.95691100  0.14256200  0.11261100  1
  Nb  Nb7  1  0.02942100  0.62990900  0.61972600  1
  Nb  Nb8  1  0.52942100  0.37009100  0.88027400  1
  Nb  Nb9  1  0.54308900  0.14256200  0.61261100  1
  Nb  Nb10  1  0.04308900  0.85743800  0.88738900  1
  Nb  Nb11  1  0.47057900  0.62990900  0.11972600  1
  P  P12  1  0.39887100  0.03223500  0.85542500  1
  P  P13  1  0.88060500  0.24598900  0.85357100  1
  P  P14  1  0.74960600  0.54369300  0.49125900  1
  P  P15  1  0.24960600  0.45630700  0.00874100  1
  P  P16  1  0.89887100  0.96776500  0.64457500  1
  P  P17  1  0.60112900  0.96776500  0.14457500  1
  P  P18  1  0.61939500  0.24598900  0.35357100  1
  P  P19  1  0.25039400  0.45630700  0.50874100  1
  P  P20  1  0.10112900  0.03223500  0.35542500  1
  P  P21  1  0.75039400  0.54369300  0.99125900  1
  P  P22  1  0.38060500  0.75401100  0.64642900  1
  P  P23  1  0.11939500  0.75401100  0.14642900  1
  O  O24  1  0.48001900  0.94092600  0.22683400  1
  O  O25  1  0.33144000  0.48514800  0.08759900  1
  O  O26  1  0.97794200  0.41161900  0.77064000  1
  O  O27  1  0.14235900  0.44520200  0.43404500  1
  O  O28  1  0.10428600  0.20226200  0.35821300  1
  O  O29  1  0.83144000  0.51485200  0.41240100  1
  O  O30  1  0.83240800  0.73095800  0.92220300  1
  O  O31  1  0.74530700  0.99645800  0.68024700  1
  O  O32  1  0.89571400  0.79773800  0.64178700  1
  O  O33  1  0.86157200  0.38603700  0.06156200  1
  O  O34  1  0.55723100  0.14252700  0.03444000  1
  O  O35  1  0.98001900  0.05907400  0.27316600  1
  O  O36  1  0.52205800  0.41161900  0.27064000  1
  O  O37  1  0.25469300  0.00354200  0.31975300  1
  O  O38  1  0.92614400  0.18502700  0.96755900  1
  O  O39  1  0.64235900  0.55479800  0.06595500  1
  O  O40  1  0.63842800  0.38603700  0.56156200  1
  O  O41  1  0.78728900  0.29370600  0.33338800  1
  O  O42  1  0.16856000  0.48514800  0.58759900  1
  O  O43  1  0.01998100  0.94092600  0.72683400  1
  O  O44  1  0.44276900  0.85747300  0.96556000  1
  O  O45  1  0.47794200  0.58838100  0.72936000  1
  O  O46  1  0.94276900  0.14252700  0.53444000  1
  O  O47  1  0.90490200  0.08449400  0.84235700  1
  O  O48  1  0.07385600  0.81497300  0.03244100  1
  O  O49  1  0.35764100  0.44520200  0.93404500  1
  O  O50  1  0.13842800  0.61396300  0.93843800  1
  O  O51  1  0.28728900  0.70629400  0.16661200  1
  O  O52  1  0.16759200  0.26904200  0.07779700  1
  O  O53  1  0.51998100  0.05907400  0.77316600  1
  O  O54  1  0.66759200  0.73095800  0.42220300  1
  O  O55  1  0.24530700  0.00354200  0.81975300  1
  O  O56  1  0.71271100  0.29370600  0.83338800  1
  O  O57  1  0.60428600  0.79773800  0.14178700  1
  O  O58  1  0.39571400  0.20226200  0.85821300  1
  O  O59  1  0.09509800  0.91550600  0.15764300  1
  O  O60  1  0.05723100  0.85747300  0.46556000  1
  O  O61  1  0.33240800  0.26904200  0.57779700  1
  O  O62  1  0.57385600  0.18502700  0.46755900  1
  O  O63  1  0.59509800  0.08449400  0.34235700  1
  O  O64  1  0.36157200  0.61396300  0.43843800  1
  O  O65  1  0.40490200  0.91550600  0.65764300  1
  O  O66  1  0.02205800  0.58838100  0.22936000  1
  O  O67  1  0.21271100  0.70629400  0.66661200  1
  O  O68  1  0.75469300  0.99645800  0.18024700  1
  O  O69  1  0.42614400  0.81497300  0.53244100  1
  O  O70  1  0.66856000  0.51485200  0.91240100  1
  O  O71  1  0.85764100  0.55479800  0.56595500  1
