# generated using pymatgen
data_LiBeH3
_symmetry_space_group_name_H-M   'P 1'
_cell_length_a   6.05026900
_cell_length_b   6.17207213
_cell_length_c   6.81432199
_cell_angle_alpha   103.99761094
_cell_angle_beta   97.22049286
_cell_angle_gamma   90.37631981
_symmetry_Int_Tables_number   1
_chemical_formula_structural   LiBeH3
_chemical_formula_sum   'Li6 Be6 H18'
_cell_volume   244.77027149
_cell_formula_units_Z   6
loop_
 _symmetry_equiv_pos_site_id
 _symmetry_equiv_pos_as_xyz
  1  'x, y, z'
loop_
 _atom_site_type_symbol
 _atom_site_label
 _atom_site_symmetry_multiplicity
 _atom_site_fract_x
 _atom_site_fract_y
 _atom_site_fract_z
 _atom_site_occupancy
  Li  Li0  1  0.01072300  0.75189800  0.00456200  1
  Li  Li1  1  0.98927700  0.24810200  0.99543800  1
  Li  Li2  1  0.74670600  0.07304600  0.29733000  1
  Li  Li3  1  0.25329400  0.92695400  0.70267000  1
  Li  Li4  1  0.76138500  0.56775700  0.31521200  1
  Li  Li5  1  0.23861500  0.43224300  0.68478800  1
  Be  Be6  1  0.22805800  0.04738100  0.32478700  1
  Be  Be7  1  0.77194200  0.95261900  0.67521300  1
  Be  Be8  1  0.22506500  0.61803600  0.31649100  1
  Be  Be9  1  0.77493500  0.38196400  0.68350900  1
  Be  Be10  1  0.43462400  0.28254300  0.12785800  1
  Be  Be11  1  0.56537600  0.71745700  0.87214200  1
  H  H12  1  0.29368300  0.82041500  0.26945200  1
  H  H13  1  0.70631700  0.17958500  0.73054800  1
  H  H14  1  0.42421200  0.50363900  0.26067500  1
  H  H15  1  0.57578800  0.49636100  0.73932500  1
  H  H16  1  0.42302700  0.13641400  0.26479500  1
  H  H17  1  0.57697300  0.86358600  0.73520500  1
  H  H18  1  0.20004700  0.63666500  0.52038600  1
  H  H19  1  0.79995300  0.36333500  0.47961400  1
  H  H20  1  0.22120900  0.13306100  0.53548000  1
  H  H21  1  0.77879100  0.86693900  0.46452000  1
  H  H22  1  0.02598800  0.53732200  0.18436800  1
  H  H23  1  0.97401200  0.46267800  0.81563200  1
  H  H24  1  0.33112200  0.72289500  0.88814200  1
  H  H25  1  0.66887800  0.27710500  0.11185800  1
  H  H26  1  0.29290700  0.22953900  0.93839100  1
  H  H27  1  0.70709300  0.77046100  0.06160900  1
  H  H28  1  0.97184000  0.93724000  0.80482100  1
  H  H29  1  0.02816000  0.06276000  0.19517900  1
