# generated using pymatgen
data_Li2V(PO4)2
_symmetry_space_group_name_H-M   'P 1'
_cell_length_a   5.09780784
_cell_length_b   10.88825392
_cell_length_c   10.88864712
_cell_angle_alpha   89.00696260
_cell_angle_beta   87.21236198
_cell_angle_gamma   92.78796287
_symmetry_Int_Tables_number   1
_chemical_formula_structural   Li2V(PO4)2
_chemical_formula_sum   'Li8 V4 P8 O32'
_cell_volume   602.84046391
_cell_formula_units_Z   4
loop_
 _symmetry_equiv_pos_site_id
 _symmetry_equiv_pos_as_xyz
  1  'x, y, z'
loop_
 _atom_site_type_symbol
 _atom_site_label
 _atom_site_symmetry_multiplicity
 _atom_site_fract_x
 _atom_site_fract_y
 _atom_site_fract_z
 _atom_site_occupancy
  Li  Li0  1  0.89062100  0.63861900  0.22993800  1
  Li  Li1  1  0.89053700  0.13862600  0.72997800  1
  Li  Li2  1  0.60930000  0.22997500  0.13859200  1
  Li  Li3  1  0.60926700  0.72995400  0.63862300  1
  Li  Li4  1  0.39071900  0.77005600  0.86139800  1
  Li  Li5  1  0.39064900  0.27004500  0.36137100  1
  Li  Li6  1  0.10938200  0.36134100  0.77002700  1
  Li  Li7  1  0.10930800  0.86140500  0.27003900  1
  V  V8  1  0.50010700  0.50008800  0.49993700  1
  V  V9  1  0.00017500  0.99991300  0.50004600  1
  V  V10  1  0.50020700  0.99999100  0.00005000  1
  V  V11  1  0.99988100  0.50007200  0.99995400  1
  P  P12  1  0.04059100  0.19457000  0.99357300  1
  P  P13  1  0.04052900  0.69454200  0.49354800  1
  P  P14  1  0.54036500  0.50643100  0.80540000  1
  P  P15  1  0.54059900  0.00639200  0.30545100  1
  P  P16  1  0.95961200  0.80545000  0.00645300  1
  P  P17  1  0.95956900  0.30548100  0.50641600  1
  P  P18  1  0.45941500  0.49360400  0.19452500  1
  P  P19  1  0.45959300  0.99356300  0.69458000  1
  O  O20  1  0.42901000  0.35652600  0.20721600  1
  O  O21  1  0.42892800  0.85651000  0.70725700  1
  O  O22  1  0.92893300  0.79275900  0.14347200  1
  O  O23  1  0.92906500  0.29274600  0.64344300  1
  O  O24  1  0.57099200  0.64347800  0.79274000  1
  O  O25  1  0.57101300  0.14346700  0.29274000  1
  O  O26  1  0.07099100  0.20719200  0.85655500  1
  O  O27  1  0.07092400  0.70727200  0.35651500  1
  O  O28  1  0.97249900  0.31846100  0.05632000  1
  O  O29  1  0.97251000  0.81845800  0.55640800  1
  O  O30  1  0.47253900  0.44364200  0.68152400  1
  O  O31  1  0.47259900  0.94358300  0.18159100  1
  O  O32  1  0.02737900  0.68154200  0.94363000  1
  O  O33  1  0.02745900  0.18149400  0.44363900  1
  O  O34  1  0.52746700  0.55641500  0.31840700  1
  O  O35  1  0.52740000  0.05635700  0.81849500  1
  O  O36  1  0.70245900  0.85934400  0.95577700  1
  O  O37  1  0.70232900  0.35938100  0.45581700  1
  O  O38  1  0.29757800  0.14058800  0.04424500  1
  O  O39  1  0.29762500  0.64070300  0.54417900  1
  O  O40  1  0.79765600  0.45580000  0.85932900  1
  O  O41  1  0.79766100  0.95578900  0.35942800  1
  O  O42  1  0.20218300  0.54419500  0.14061500  1
  O  O43  1  0.20233700  0.04416100  0.64070000  1
  O  O44  1  0.30978300  0.45999700  0.89807200  1
  O  O45  1  0.30986300  0.95997300  0.39809000  1
  O  O46  1  0.80980100  0.10193300  0.04000700  1
  O  O47  1  0.80994500  0.60194500  0.53999300  1
  O  O48  1  0.69008200  0.54005500  0.10186900  1
  O  O49  1  0.69015300  0.03997300  0.60198000  1
  O  O50  1  0.19023800  0.89803900  0.96006100  1
  O  O51  1  0.19017600  0.39810400  0.45999200  1
