# generated using pymatgen
data_LiSnPO4
_symmetry_space_group_name_H-M   'P 1'
_cell_length_a   7.95763160
_cell_length_b   7.95763160
_cell_length_c   10.27308400
_cell_angle_alpha   90.00000000
_cell_angle_beta   90.00000000
_cell_angle_gamma   119.99999664
_symmetry_Int_Tables_number   1
_chemical_formula_structural   LiSnPO4
_chemical_formula_sum   'Li6 Sn6 P6 O24'
_cell_volume   563.37704080
_cell_formula_units_Z   6
loop_
 _symmetry_equiv_pos_site_id
 _symmetry_equiv_pos_as_xyz
  1  'x, y, z'
loop_
 _atom_site_type_symbol
 _atom_site_label
 _atom_site_symmetry_multiplicity
 _atom_site_fract_x
 _atom_site_fract_y
 _atom_site_fract_z
 _atom_site_occupancy
  Li  Li0  1  0.21131200  0.97863700  0.25176300  1
  Li  Li1  1  0.02136300  0.23267500  0.25176300  1
  Li  Li2  1  0.23267500  0.02136300  0.75176300  1
  Li  Li3  1  0.76732500  0.78868800  0.25176300  1
  Li  Li4  1  0.78868800  0.76732500  0.75176300  1
  Li  Li5  1  0.97863700  0.21131200  0.75176300  1
  Sn  Sn6  1  0.00565200  0.57461700  0.47332600  1
  Sn  Sn7  1  0.56896500  0.99434800  0.47332600  1
  Sn  Sn8  1  0.42538300  0.43103500  0.47332600  1
  Sn  Sn9  1  0.43103500  0.42538300  0.97332600  1
  Sn  Sn10  1  0.57461700  0.00565200  0.97332600  1
  Sn  Sn11  1  0.99434800  0.56896500  0.97332600  1
  P  P12  1  0.00000000  0.00000000  0.49975200  1
  P  P13  1  0.00000000  0.00000000  0.99975200  1
  P  P14  1  0.33333300  0.66666700  0.19510500  1
  P  P15  1  0.33333300  0.66666700  0.75434200  1
  P  P16  1  0.66666700  0.33333300  0.69510500  1
  P  P17  1  0.66666700  0.33333300  0.25434200  1
  O  O18  1  0.09794800  0.88718500  0.44320500  1
  O  O19  1  0.22220600  0.76974200  0.14458400  1
  O  O20  1  0.22956400  0.77592000  0.80709800  1
  O  O21  1  0.22408000  0.45364400  0.80709800  1
  O  O22  1  0.33333300  0.66666700  0.34593000  1
  O  O23  1  0.00000000  0.00000000  0.15035800  1
  O  O24  1  0.33333300  0.66666700  0.60403000  1
  O  O25  1  0.11281500  0.21076300  0.44320500  1
  O  O26  1  0.23025800  0.45246400  0.14458400  1
  O  O27  1  0.54753600  0.77779400  0.14458400  1
  O  O28  1  0.21076300  0.11281500  0.94320500  1
  O  O29  1  0.54635600  0.77043600  0.80709800  1
  O  O30  1  0.45246400  0.23025800  0.64458400  1
  O  O31  1  0.78923700  0.90205200  0.44320500  1
  O  O32  1  0.45364400  0.22408000  0.30709800  1
  O  O33  1  0.77043600  0.54635600  0.30709800  1
  O  O34  1  0.66666700  0.33333300  0.84593000  1
  O  O35  1  0.66666700  0.33333300  0.10403000  1
  O  O36  1  0.90205200  0.78923700  0.94320500  1
  O  O37  1  0.77779400  0.54753600  0.64458400  1
  O  O38  1  0.76974200  0.22220600  0.64458400  1
  O  O39  1  0.77592000  0.22956400  0.30709800  1
  O  O40  1  0.88718500  0.09794800  0.94320500  1
  O  O41  1  0.00000000  0.00000000  0.65035800  1
