# generated using pymatgen
data_Li3Fe3(PO4)4
_symmetry_space_group_name_H-M   'P 1'
_cell_length_a   5.01886800
_cell_length_b   8.32760700
_cell_length_c   14.53809489
_cell_angle_alpha   79.95659548
_cell_angle_beta   90.00000000
_cell_angle_gamma   90.00000000
_symmetry_Int_Tables_number   1
_chemical_formula_structural   Li3Fe3(PO4)4
_chemical_formula_sum   'Li6 Fe6 P8 O32'
_cell_volume   598.31075963
_cell_formula_units_Z   2
loop_
 _symmetry_equiv_pos_site_id
 _symmetry_equiv_pos_as_xyz
  1  'x, y, z'
loop_
 _atom_site_type_symbol
 _atom_site_label
 _atom_site_symmetry_multiplicity
 _atom_site_fract_x
 _atom_site_fract_y
 _atom_site_fract_z
 _atom_site_occupancy
  Li  Li0  1  0.51451200  0.82653700  0.87815400  1
  Li  Li1  1  0.48548800  0.17346300  0.12184600  1
  Li  Li2  1  0.98548800  0.32653700  0.37815400  1
  Li  Li3  1  0.50000000  0.50000000  0.50000000  1
  Li  Li4  1  0.01451200  0.67346300  0.62184600  1
  Li  Li5  1  0.00000000  0.00000000  0.00000000  1
  Fe  Fe6  1  0.43496000  0.52058100  0.29308400  1
  Fe  Fe7  1  0.00000000  0.00000000  0.50000000  1
  Fe  Fe8  1  0.93496000  0.97941900  0.20691600  1
  Fe  Fe9  1  0.06504000  0.02058100  0.79308400  1
  Fe  Fe10  1  0.56504000  0.47941900  0.70691600  1
  Fe  Fe11  1  0.50000000  0.50000000  0.00000000  1
  P  P12  1  0.48791800  0.87675700  0.64940100  1
  P  P13  1  0.51696400  0.18471900  0.89261000  1
  P  P14  1  0.01696400  0.31528100  0.60739000  1
  P  P15  1  0.98303600  0.68471900  0.39261000  1
  P  P16  1  0.48303600  0.81528100  0.10739000  1
  P  P17  1  0.51208200  0.12324300  0.35059900  1
  P  P18  1  0.98791800  0.62324300  0.85059900  1
  P  P19  1  0.01208200  0.37675700  0.14940100  1
  O  O20  1  0.96378000  0.19114300  0.69774600  1
  O  O21  1  0.52681000  0.73852000  0.01956000  1
  O  O22  1  0.71157400  0.39479000  0.12749400  1
  O  O23  1  0.59349400  0.06949800  0.25678700  1
  O  O24  1  0.18121300  0.47564000  0.07211100  1
  O  O25  1  0.09066500  0.19111100  0.15713500  1
  O  O26  1  0.90933500  0.80888900  0.84286500  1
  O  O27  1  0.81878700  0.52436000  0.92788900  1
  O  O28  1  0.40650600  0.93050200  0.74321300  1
  O  O29  1  0.28842600  0.60521000  0.87250600  1
  O  O30  1  0.47319000  0.26148000  0.98044000  1
  O  O31  1  0.78842600  0.89479000  0.62749400  1
  O  O32  1  0.90650600  0.56949800  0.75678700  1
  O  O33  1  0.31878700  0.97564000  0.57211100  1
  O  O34  1  0.79335000  0.10556400  0.89040300  1
  O  O35  1  0.40933500  0.69111100  0.65713500  1
  O  O36  1  0.09349400  0.43050200  0.24321300  1
  O  O37  1  0.30420300  0.04342900  0.89773900  1
  O  O38  1  0.80420300  0.45657100  0.60226100  1
  O  O39  1  0.02681000  0.76148000  0.48044000  1
  O  O40  1  0.46378000  0.30885700  0.80225400  1
  O  O41  1  0.29335000  0.39443600  0.60959700  1
  O  O42  1  0.70665000  0.60556400  0.39040300  1
  O  O43  1  0.03622000  0.80885700  0.30225400  1
  O  O44  1  0.97319000  0.23852000  0.51956000  1
  O  O45  1  0.19579700  0.54342900  0.39773900  1
  O  O46  1  0.69579700  0.95657100  0.10226100  1
  O  O47  1  0.53622000  0.69114300  0.19774600  1
  O  O48  1  0.59066500  0.30888900  0.34286500  1
  O  O49  1  0.20665000  0.89443600  0.10959700  1
  O  O50  1  0.68121300  0.02436000  0.42788900  1
  O  O51  1  0.21157400  0.10521000  0.37250600  1
