# generated using pymatgen
data_Li4Cu(PO4)2
_symmetry_space_group_name_H-M   'P 1'
_cell_length_a   5.24729200
_cell_length_b   6.38317086
_cell_length_c   9.94556536
_cell_angle_alpha   90.43582648
_cell_angle_beta   90.30012893
_cell_angle_gamma   90.45566595
_symmetry_Int_Tables_number   1
_chemical_formula_structural   Li4Cu(PO4)2
_chemical_formula_sum   'Li8 Cu2 P4 O16'
_cell_volume   333.09551216
_cell_formula_units_Z   2
loop_
 _symmetry_equiv_pos_site_id
 _symmetry_equiv_pos_as_xyz
  1  'x, y, z'
loop_
 _atom_site_type_symbol
 _atom_site_label
 _atom_site_symmetry_multiplicity
 _atom_site_fract_x
 _atom_site_fract_y
 _atom_site_fract_z
 _atom_site_occupancy
  Li  Li0  1  0.31795600  0.76298300  0.50875400  1
  Li  Li1  1  0.67148700  0.24649400  0.74852300  1
  Li  Li2  1  0.32599100  0.24328700  0.99610400  1
  Li  Li3  1  0.67047600  0.24256900  0.24964900  1
  Li  Li4  1  0.32318700  0.24094200  0.50277200  1
  Li  Li5  1  0.84307200  0.49024100  0.99565400  1
  Li  Li6  1  0.68407800  0.75337700  0.74597400  1
  Li  Li7  1  0.84218500  0.49718500  0.50867600  1
  Cu  Cu8  1  0.32166700  0.76736800  0.99049900  1
  Cu  Cu9  1  0.67743700  0.74747900  0.26039000  1
  P  P10  1  0.82268900  0.00176600  0.50002900  1
  P  P11  1  0.18475700  0.49371400  0.24922100  1
  P  P12  1  0.18059300  0.49714900  0.75083500  1
  P  P13  1  0.81974400  0.00470500  0.99012900  1
  O  O14  1  0.10444300  0.00082400  0.03411300  1
  O  O15  1  0.32134700  0.70456500  0.80120700  1
  O  O16  1  0.10640100  0.00257900  0.53376300  1
  O  O17  1  0.18308500  0.49634100  0.09135300  1
  O  O18  1  0.31647200  0.69806900  0.30360500  1
  O  O19  1  0.89763500  0.49603400  0.29824100  1
  O  O20  1  0.69229800  0.20067500  0.05299000  1
  O  O21  1  0.32166400  0.30263300  0.30333400  1
  O  O22  1  0.69191600  0.79346500  0.04890700  1
  O  O23  1  0.78636800  0.00007600  0.83869100  1
  O  O24  1  0.78724000  0.00250100  0.34168200  1
  O  O25  1  0.18826300  0.50279700  0.59440100  1
  O  O26  1  0.32497200  0.30920200  0.80664200  1
  O  O27  1  0.69004400  0.20407600  0.55186600  1
  O  O28  1  0.89773400  0.50082100  0.79885700  1
  O  O29  1  0.68886000  0.79756000  0.55053000  1
