# generated using pymatgen
data_LiNi(PO3)4
_symmetry_space_group_name_H-M   'P 1'
_cell_length_a   7.36240348
_cell_length_b   7.36240348
_cell_length_c   9.89229975
_cell_angle_alpha   67.19404222
_cell_angle_beta   67.19404222
_cell_angle_gamma   69.93128621
_symmetry_Int_Tables_number   1
_chemical_formula_structural   LiNi(PO3)4
_chemical_formula_sum   'Li2 Ni2 P8 O24'
_cell_volume   443.75404661
_cell_formula_units_Z   2
loop_
 _symmetry_equiv_pos_site_id
 _symmetry_equiv_pos_as_xyz
  1  'x, y, z'
loop_
 _atom_site_type_symbol
 _atom_site_label
 _atom_site_symmetry_multiplicity
 _atom_site_fract_x
 _atom_site_fract_y
 _atom_site_fract_z
 _atom_site_occupancy
  Li  Li0  1  0.05587700  0.94412300  0.75000000  1
  Li  Li1  1  0.94412300  0.05587700  0.25000000  1
  Ni  Ni2  1  0.00000000  0.50000000  0.00000000  1
  Ni  Ni3  1  0.50000000  0.00000000  0.50000000  1
  P  P4  1  0.68960700  0.69694700  0.80331800  1
  P  P5  1  0.73924900  0.27414300  0.52456400  1
  P  P6  1  0.69694700  0.68960700  0.30331800  1
  P  P7  1  0.72585700  0.26075100  0.97543600  1
  P  P8  1  0.31039300  0.30305300  0.19668200  1
  P  P9  1  0.27414300  0.73924900  0.02456400  1
  P  P10  1  0.26075100  0.72585700  0.47543600  1
  P  P11  1  0.30305300  0.31039300  0.69668200  1
  O  O12  1  0.90584400  0.15276000  0.59567800  1
  O  O13  1  0.53419700  0.31764100  0.65933600  1
  O  O14  1  0.12201200  0.29819300  0.17280000  1
  O  O15  1  0.31764100  0.53419700  0.15933600  1
  O  O16  1  0.19231900  0.33975300  0.85085000  1
  O  O17  1  0.09415600  0.84724000  0.40432200  1
  O  O18  1  0.33975300  0.19231900  0.35085000  1
  O  O19  1  0.66024700  0.80768100  0.64915000  1
  O  O20  1  0.46580300  0.68235900  0.34066400  1
  O  O21  1  0.22388500  0.50074100  0.56498300  1
  O  O22  1  0.87798800  0.70180700  0.82720000  1
  O  O23  1  0.80768100  0.66024700  0.14915000  1
  O  O24  1  0.19285100  0.70045600  0.92157300  1
  O  O25  1  0.50074100  0.22388500  0.06498300  1
  O  O26  1  0.15276000  0.90584400  0.09567800  1
  O  O27  1  0.29954400  0.80714900  0.57842700  1
  O  O28  1  0.80714900  0.29954400  0.07842700  1
  O  O29  1  0.29819300  0.12201200  0.67280000  1
  O  O30  1  0.70180700  0.87798800  0.32720000  1
  O  O31  1  0.70045600  0.19285100  0.42157300  1
  O  O32  1  0.68235900  0.46580300  0.84066400  1
  O  O33  1  0.77611500  0.49925900  0.43501700  1
  O  O34  1  0.84724000  0.09415600  0.90432200  1
  O  O35  1  0.49925900  0.77611500  0.93501700  1
