# generated using pymatgen
data_Li3Mo2(PO4)3
_symmetry_space_group_name_H-M   'P 1'
_cell_length_a   8.73728082
_cell_length_b   8.73728082
_cell_length_c   8.76135760
_cell_angle_alpha   62.80737323
_cell_angle_beta   62.80737323
_cell_angle_gamma   61.34371210
_symmetry_Int_Tables_number   1
_chemical_formula_structural   Li3Mo2(PO4)3
_chemical_formula_sum   'Li6 Mo4 P6 O24'
_cell_volume   497.22252045
_cell_formula_units_Z   2
loop_
 _symmetry_equiv_pos_site_id
 _symmetry_equiv_pos_as_xyz
  1  'x, y, z'
loop_
 _atom_site_type_symbol
 _atom_site_label
 _atom_site_symmetry_multiplicity
 _atom_site_fract_x
 _atom_site_fract_y
 _atom_site_fract_z
 _atom_site_occupancy
  Li  Li0  1  0.30704200  0.06138900  0.20153600  1
  Li  Li1  1  0.06138900  0.30704200  0.70153600  1
  Li  Li2  1  0.62584700  0.36802500  0.74751800  1
  Li  Li3  1  0.36802500  0.62584700  0.24751800  1
  Li  Li4  1  0.93920400  0.69657700  0.28306600  1
  Li  Li5  1  0.69657700  0.93920400  0.78306600  1
  Mo  Mo6  1  0.64098900  0.14951800  0.13182400  1
  Mo  Mo7  1  0.14951800  0.64098900  0.63182400  1
  Mo  Mo8  1  0.85229900  0.36101300  0.35479500  1
  Mo  Mo9  1  0.36101300  0.85229900  0.85479500  1
  P  P10  1  0.75597400  0.52545300  0.94569700  1
  P  P11  1  0.05214100  0.94992400  0.24317900  1
  P  P12  1  0.52545300  0.75597400  0.44569700  1
  P  P13  1  0.47636100  0.24590800  0.54045400  1
  P  P14  1  0.24590800  0.47636100  0.04045400  1
  P  P15  1  0.94992400  0.05214100  0.74317900  1
  O  O16  1  0.89871300  0.98051100  0.18016200  1
  O  O17  1  0.98051100  0.89871300  0.68016200  1
  O  O18  1  0.94475700  0.51828100  0.80082500  1
  O  O19  1  0.61838600  0.72445400  0.90062800  1
  O  O20  1  0.10239400  0.02130900  0.80753600  1
  O  O21  1  0.02130900  0.10239400  0.30753600  1
  O  O22  1  0.05707100  0.48361800  0.18467400  1
  O  O23  1  0.38404900  0.27745300  0.08489800  1
  O  O24  1  0.30052400  0.61425400  0.05468600  1
  O  O25  1  0.75626600  0.07082400  0.89022600  1
  O  O26  1  0.25019300  0.52533600  0.84780000  1
  O  O27  1  0.48361800  0.05707100  0.68467400  1
  O  O28  1  0.27745300  0.38404900  0.58489800  1
  O  O29  1  0.61425400  0.30052400  0.55468600  1
  O  O30  1  0.47574200  0.75346400  0.63770700  1
  O  O31  1  0.93256300  0.24479400  0.59521700  1
  O  O32  1  0.07082400  0.75626600  0.39022600  1
  O  O33  1  0.52533600  0.25019300  0.34780000  1
  O  O34  1  0.38768300  0.70069500  0.43202600  1
  O  O35  1  0.72445400  0.61838600  0.40062800  1
  O  O36  1  0.51828100  0.94475700  0.30082500  1
  O  O37  1  0.75346400  0.47574200  0.13770700  1
  O  O38  1  0.24479400  0.93256300  0.09521700  1
  O  O39  1  0.70069500  0.38768300  0.93202600  1
