# generated using pymatgen
data_Li3Cr3(PO4)4
_symmetry_space_group_name_H-M   'P 1'
_cell_length_a   7.96656200
_cell_length_b   8.82177443
_cell_length_c   13.01723704
_cell_angle_alpha   85.79656935
_cell_angle_beta   89.76309569
_cell_angle_gamma   89.93081074
_symmetry_Int_Tables_number   1
_chemical_formula_structural   Li3Cr3(PO4)4
_chemical_formula_sum   'Li9 Cr9 P12 O48'
_cell_volume   912.37215957
_cell_formula_units_Z   3
loop_
 _symmetry_equiv_pos_site_id
 _symmetry_equiv_pos_as_xyz
  1  'x, y, z'
loop_
 _atom_site_type_symbol
 _atom_site_label
 _atom_site_symmetry_multiplicity
 _atom_site_fract_x
 _atom_site_fract_y
 _atom_site_fract_z
 _atom_site_occupancy
  Li  Li0  1  0.86277700  0.77088300  0.83371900  1
  Li  Li1  1  0.13339100  0.23977500  0.16836000  1
  Li  Li2  1  0.86708500  0.42954000  0.16839200  1
  Li  Li3  1  0.36106500  0.72643700  0.16749500  1
  Li  Li4  1  0.36108400  0.40787600  0.49981100  1
  Li  Li5  1  0.36642100  0.07101100  0.82665600  1
  Li  Li6  1  0.63277700  0.59365600  0.50812900  1
  Li  Li7  1  0.63525500  0.26185100  0.83047000  1
  Li  Li8  1  0.13580200  0.89413200  0.49738700  1
  Cr  Cr9  1  0.49288300  0.34121700  0.16995300  1
  Cr  Cr10  1  0.85429400  0.10498300  0.49704600  1
  Cr  Cr11  1  0.01211400  0.82763700  0.16528700  1
  Cr  Cr12  1  0.00472400  0.50595800  0.50194400  1
  Cr  Cr13  1  0.99719700  0.16031300  0.82868000  1
  Cr  Cr14  1  0.64413000  0.93954700  0.16511200  1
  Cr  Cr15  1  0.14510900  0.56152200  0.83524700  1
  Cr  Cr16  1  0.48653700  0.99628100  0.50003000  1
  Cr  Cr17  1  0.51123400  0.67155600  0.83367100  1
  P  P18  1  0.30357100  0.68856300  0.61304100  1
  P  P19  1  0.31458500  0.35034000  0.94915800  1
  P  P20  1  0.80782000  0.47506200  0.72049700  1
  P  P21  1  0.79435900  0.80733400  0.38904800  1
  P  P22  1  0.19127500  0.19155500  0.61164300  1
  P  P23  1  0.18943200  0.52017000  0.28194500  1
  P  P24  1  0.68450600  0.31662100  0.38485300  1
  P  P25  1  0.70081100  0.64348500  0.05492100  1
  P  P26  1  0.30508800  0.02476600  0.27942800  1
  P  P27  1  0.20179600  0.85786500  0.94462700  1
  P  P28  1  0.69526900  0.97863400  0.71977500  1
  P  P29  1  0.81389900  0.14830600  0.04928000  1
  O  O30  1  0.91622400  0.92204800  0.43490200  1
  O  O31  1  0.06736800  0.41169400  0.23923200  1
  O  O32  1  0.64453000  0.14056900  0.41570400  1
  O  O33  1  0.63715700  0.47947900  0.08042200  1
  O  O34  1  0.35853000  0.19200300  0.25541300  1
  O  O35  1  0.30347500  0.33115900  0.06699400  1
  O  O36  1  0.93164400  0.25596000  0.09435600  1
  O  O37  1  0.63042500  0.15171500  0.10352000  1
  O  O38  1  0.12959300  0.00394200  0.23076200  1
  O  O39  1  0.87646300  0.99242800  0.76362800  1
  O  O40  1  0.38100200  0.84295900  0.89959400  1
  O  O41  1  0.08185600  0.74532300  0.89400400  1
  O  O42  1  0.69646100  0.68043600  0.93660800  1
  O  O43  1  0.64775100  0.80861600  0.74341900  1
  O  O44  1  0.35483900  0.52551300  0.91664600  1
  O  O45  1  0.35110100  0.85875400  0.59009700  1
  O  O46  1  0.29979300  0.66417700  0.73678700  1
  O  O47  1  0.93363800  0.58258800  0.76959300  1
  O  O48  1  0.30175000  0.98820000  0.39789300  1
  O  O49  1  0.69257600  0.33759000  0.26695200  1
  O  O50  1  0.63220000  0.49636500  0.77008900  1
  O  O51  1  0.13193300  0.34735900  0.89492000  1
  O  O52  1  0.61621700  0.82445500  0.43289600  1
  O  O53  1  0.12257300  0.67474100  0.56886300  1
  O  O54  1  0.43235400  0.24253600  0.90347600  1
  O  O55  1  0.80383800  0.16655100  0.93163000  1
  O  O56  1  0.42706100  0.57800600  0.57499600  1
  O  O57  1  0.80988100  0.51118800  0.60259800  1
  O  O58  1  0.43226000  0.91617300  0.23222200  1
  O  O59  1  0.85864300  0.30675600  0.74493700  1
  O  O60  1  0.80041000  0.84162500  0.26732400  1
  O  O61  1  0.85840700  0.64471800  0.41254800  1
  O  O62  1  0.85388100  0.97356900  0.08345800  1
  O  O63  1  0.13824600  0.02178200  0.91930600  1
  O  O64  1  0.13956800  0.35950100  0.58810200  1
  O  O65  1  0.19002000  0.15511200  0.72980400  1
  O  O66  1  0.14487300  0.69196100  0.25421200  1
  O  O67  1  0.57165700  0.08924200  0.75783000  1
  O  O68  1  0.19381200  0.49816900  0.40174200  1
  O  O69  1  0.56855200  0.42273400  0.43303800  1
  O  O70  1  0.19765300  0.82130700  0.06312900  1
  O  O71  1  0.58136500  0.75557600  0.10719400  1
  O  O72  1  0.69958800  0.00224400  0.59600500  1
  O  O73  1  0.36730500  0.17070000  0.56286100  1
  O  O74  1  0.87974300  0.65781500  0.09973100  1
  O  O75  1  0.37145700  0.50643100  0.23449000  1
  O  O76  1  0.06571600  0.08328400  0.56282400  1
  O  O77  1  0.86832100  0.31806800  0.43764500  1
