# generated using pymatgen
data_Li3Fe3(PO4)4
_symmetry_space_group_name_H-M   'P 1'
_cell_length_a   10.10666923
_cell_length_b   10.10666923
_cell_length_c   10.61628770
_cell_angle_alpha   88.95794134
_cell_angle_beta   88.95794134
_cell_angle_gamma   36.94197969
_symmetry_Int_Tables_number   1
_chemical_formula_structural   Li3Fe3(PO4)4
_chemical_formula_sum   'Li6 Fe6 P8 O32'
_cell_volume   651.60998296
_cell_formula_units_Z   2
loop_
 _symmetry_equiv_pos_site_id
 _symmetry_equiv_pos_as_xyz
  1  'x, y, z'
loop_
 _atom_site_type_symbol
 _atom_site_label
 _atom_site_symmetry_multiplicity
 _atom_site_fract_x
 _atom_site_fract_y
 _atom_site_fract_z
 _atom_site_occupancy
  Li  Li0  1  0.58854800  0.41145200  0.75000000  1
  Li  Li1  1  0.21049300  0.93089100  0.53344600  1
  Li  Li2  1  0.41145200  0.58854800  0.25000000  1
  Li  Li3  1  0.93089100  0.21049300  0.03344600  1
  Li  Li4  1  0.78950700  0.06910900  0.46655400  1
  Li  Li5  1  0.06910900  0.78950700  0.96655400  1
  Fe  Fe6  1  0.67588200  0.63020600  0.25099200  1
  Fe  Fe7  1  0.63020600  0.67588200  0.75099200  1
  Fe  Fe8  1  0.00000000  0.50000000  0.50000000  1
  Fe  Fe9  1  0.32411800  0.36979400  0.74900800  1
  Fe  Fe10  1  0.36979400  0.32411800  0.24900800  1
  Fe  Fe11  1  0.50000000  0.00000000  0.00000000  1
  P  P12  1  0.22011500  0.17916600  0.25619000  1
  P  P13  1  0.74443200  0.41711600  0.50784400  1
  P  P14  1  0.82083400  0.77988500  0.24381000  1
  P  P15  1  0.25556800  0.58288400  0.49215600  1
  P  P16  1  0.41711600  0.74443200  0.00784400  1
  P  P17  1  0.77988500  0.82083400  0.74381000  1
  P  P18  1  0.58288400  0.25556800  0.99215600  1
  P  P19  1  0.17916600  0.22011500  0.75619000  1
  O  O20  1  0.98835400  0.31822200  0.22243800  1
  O  O21  1  0.05333300  0.65087500  0.49394800  1
  O  O22  1  0.78285700  0.17971300  0.95965300  1
  O  O23  1  0.36584500  0.94339100  0.28560300  1
  O  O24  1  0.59703900  0.57567600  0.11239000  1
  O  O25  1  0.65087500  0.05333300  0.99394800  1
  O  O26  1  0.79684200  0.69101600  0.35417800  1
  O  O27  1  0.42432400  0.40296100  0.38761000  1
  O  O28  1  0.30898400  0.20315800  0.14582200  1
  O  O29  1  0.63415500  0.05660900  0.71439700  1
  O  O30  1  0.23353100  0.27369800  0.36439700  1
  O  O31  1  0.17971300  0.78285700  0.45965300  1
  O  O32  1  0.72630200  0.76646900  0.13560300  1
  O  O33  1  0.34912500  0.94666700  0.00605200  1
  O  O34  1  0.05660900  0.63415500  0.21439700  1
  O  O35  1  0.21714300  0.82028700  0.04034700  1
  O  O36  1  0.57567600  0.59703900  0.61239000  1
  O  O37  1  0.01164600  0.68177700  0.77756200  1
  O  O38  1  0.82028700  0.21714300  0.54034700  1
  O  O39  1  0.37627400  0.47187000  0.62177500  1
  O  O40  1  0.94339100  0.36584500  0.78560300  1
  O  O41  1  0.27369800  0.23353100  0.86439700  1
  O  O42  1  0.47187000  0.37627400  0.12177500  1
  O  O43  1  0.76646900  0.72630200  0.63560300  1
  O  O44  1  0.31822200  0.98835400  0.72243800  1
  O  O45  1  0.52813000  0.62372600  0.87822500  1
  O  O46  1  0.69101600  0.79684200  0.85417800  1
  O  O47  1  0.62372600  0.52813000  0.37822500  1
  O  O48  1  0.94666700  0.34912500  0.50605200  1
  O  O49  1  0.68177700  0.01164600  0.27756200  1
  O  O50  1  0.20315800  0.30898400  0.64582200  1
  O  O51  1  0.40296100  0.42432400  0.88761000  1
