# generated using pymatgen
data_LiZnPH2O5
_symmetry_space_group_name_H-M   'P 1'
_cell_length_a   5.06622600
_cell_length_b   8.16470800
_cell_length_c   10.80387500
_cell_angle_alpha   90.00000000
_cell_angle_beta   90.00000000
_cell_angle_gamma   90.00000000
_symmetry_Int_Tables_number   1
_chemical_formula_structural   LiZnPH2O5
_chemical_formula_sum   'Li4 Zn4 P4 H8 O20'
_cell_volume   446.89425077
_cell_formula_units_Z   4
loop_
 _symmetry_equiv_pos_site_id
 _symmetry_equiv_pos_as_xyz
  1  'x, y, z'
loop_
 _atom_site_type_symbol
 _atom_site_label
 _atom_site_symmetry_multiplicity
 _atom_site_fract_x
 _atom_site_fract_y
 _atom_site_fract_z
 _atom_site_occupancy
  Li  Li0  1  0.79765500  0.18692600  0.31599700  1
  Li  Li1  1  0.29765500  0.81307400  0.68400300  1
  Li  Li2  1  0.79765500  0.31307400  0.81599700  1
  Li  Li3  1  0.29765500  0.68692600  0.18400300  1
  Zn  Zn4  1  0.29933600  0.37986400  0.37251600  1
  Zn  Zn5  1  0.79933600  0.62013600  0.62748400  1
  Zn  Zn6  1  0.29933600  0.12013600  0.87251600  1
  Zn  Zn7  1  0.79933600  0.87986400  0.12748400  1
  P  P8  1  0.30147800  0.08999200  0.16642300  1
  P  P9  1  0.80147800  0.91000800  0.83357700  1
  P  P10  1  0.30147800  0.41000800  0.66642300  1
  P  P11  1  0.80147800  0.58999200  0.33357700  1
  H  H12  1  0.83000300  0.32331300  0.04622700  1
  H  H13  1  0.33000300  0.67668700  0.95377300  1
  H  H14  1  0.83000300  0.17668700  0.54622700  1
  H  H15  1  0.33000300  0.82331300  0.45377300  1
  H  H16  1  0.66609600  0.47322200  0.00067200  1
  H  H17  1  0.16609600  0.52677800  0.99932800  1
  H  H18  1  0.66609600  0.02677800  0.50067200  1
  H  H19  1  0.16609600  0.97322200  0.49932800  1
  O  O20  1  0.92301600  0.68867900  0.22478300  1
  O  O21  1  0.42301600  0.31132100  0.77521700  1
  O  O22  1  0.92301600  0.81132100  0.72478300  1
  O  O23  1  0.42301600  0.18867900  0.27521700  1
  O  O24  1  0.42198700  0.91355200  0.16679600  1
  O  O25  1  0.92198700  0.08644800  0.83320400  1
  O  O26  1  0.42198700  0.58644800  0.66679600  1
  O  O27  1  0.92198700  0.41355200  0.33320400  1
  O  O28  1  0.99709800  0.07490700  0.18671200  1
  O  O29  1  0.49709800  0.92509300  0.81328800  1
  O  O30  1  0.99709800  0.42509300  0.68671200  1
  O  O31  1  0.49709800  0.57490700  0.31328800  1
  O  O32  1  0.36497100  0.32174000  0.54394300  1
  O  O33  1  0.86497100  0.67826000  0.45605700  1
  O  O34  1  0.36497100  0.17826000  0.04394300  1
  O  O35  1  0.86497100  0.82174000  0.95605700  1
  O  O36  1  0.33276000  0.91245400  0.51413700  1
  O  O37  1  0.83276000  0.08754600  0.48586300  1
  O  O38  1  0.33276000  0.58754600  0.01413700  1
  O  O39  1  0.83276000  0.41245400  0.98586300  1
