# generated using pymatgen
data_Li7Br3O2
_symmetry_space_group_name_H-M   'P 1'
_cell_length_a   11.23365323
_cell_length_b   11.23365323
_cell_length_c   11.23365323
_cell_angle_alpha   159.57853016
_cell_angle_beta   159.57853016
_cell_angle_gamma   29.03745263
_symmetry_Int_Tables_number   1
_chemical_formula_structural   Li7Br3O2
_chemical_formula_sum   'Li7 Br3 O2'
_cell_volume   172.50200394
_cell_formula_units_Z   1
loop_
 _symmetry_equiv_pos_site_id
 _symmetry_equiv_pos_as_xyz
  1  'x, y, z'
loop_
 _atom_site_type_symbol
 _atom_site_label
 _atom_site_symmetry_multiplicity
 _atom_site_fract_x
 _atom_site_fract_y
 _atom_site_fract_z
 _atom_site_occupancy
  Li  Li0  1  0.09327700  0.59327700  0.50000000  1
  Li  Li1  1  0.59327700  0.09327700  0.50000000  1
  Li  Li2  1  0.90672300  0.40672300  0.50000000  1
  Li  Li3  1  0.40672300  0.90672300  0.50000000  1
  Li  Li4  1  0.18101700  0.18101700  0.00000000  1
  Li  Li5  1  0.81898300  0.81898300  0.00000000  1
  Li  Li6  1  0.00000000  0.00000000  0.00000000  1
  Br  Br7  1  0.50000000  0.50000000  0.00000000  1
  Br  Br8  1  0.68923500  0.68923500  0.00000000  1
  Br  Br9  1  0.31076500  0.31076500  0.00000000  1
  O  O10  1  0.90779300  0.90779300  0.00000000  1
  O  O11  1  0.09220700  0.09220700  0.00000000  1
