# generated using pymatgen
data_LiMn4(PO4)3
_symmetry_space_group_name_H-M   'P 1'
_cell_length_a   8.94278416
_cell_length_b   8.94278416
_cell_length_c   6.62553350
_cell_angle_alpha   72.25244687
_cell_angle_beta   72.25244687
_cell_angle_gamma   96.57501779
_symmetry_Int_Tables_number   1
_chemical_formula_structural   LiMn4(PO4)3
_chemical_formula_sum   'Li2 Mn8 P6 O24'
_cell_volume   467.89783487
_cell_formula_units_Z   2
loop_
 _symmetry_equiv_pos_site_id
 _symmetry_equiv_pos_as_xyz
  1  'x, y, z'
loop_
 _atom_site_type_symbol
 _atom_site_label
 _atom_site_symmetry_multiplicity
 _atom_site_fract_x
 _atom_site_fract_y
 _atom_site_fract_z
 _atom_site_occupancy
  Li  Li0  1  0.95081300  0.99185000  0.22751000  1
  Li  Li1  1  0.99185000  0.95081300  0.72751000  1
  Mn  Mn2  1  0.35257300  0.05684500  0.89612800  1
  Mn  Mn3  1  0.05684500  0.35257300  0.39612800  1
  Mn  Mn4  1  0.73578400  0.27630500  0.23948000  1
  Mn  Mn5  1  0.49032300  0.47092800  0.44173100  1
  Mn  Mn6  1  0.27630500  0.73578400  0.73948000  1
  Mn  Mn7  1  0.47092800  0.49032300  0.94173100  1
  Mn  Mn8  1  0.63881300  0.94216100  0.11916400  1
  Mn  Mn9  1  0.94216100  0.63881300  0.61916400  1
  P  P10  1  0.67236200  0.88794400  0.62217000  1
  P  P11  1  0.88794400  0.67236200  0.12217000  1
  P  P12  1  0.69161500  0.30992900  0.75113700  1
  P  P13  1  0.30992900  0.69161500  0.25113700  1
  P  P14  1  0.11528600  0.32923700  0.88937900  1
  P  P15  1  0.32923700  0.11528600  0.38937900  1
  O  O16  1  0.84507100  0.85444100  0.58962200  1
  O  O17  1  0.62134700  0.96547800  0.80120900  1
  O  O18  1  0.85444100  0.84507100  0.08962200  1
  O  O19  1  0.96547800  0.62134700  0.30120900  1
  O  O20  1  0.32813700  0.99466400  0.61733900  1
  O  O21  1  0.54170500  0.73037900  0.68741400  1
  O  O22  1  0.71606900  0.48191600  0.76691900  1
  O  O23  1  0.99466400  0.32813700  0.11733900  1
  O  O24  1  0.15596300  0.14375600  0.43430500  1
  O  O25  1  0.38172300  0.04295000  0.20408900  1
  O  O26  1  0.14375600  0.15596300  0.93430500  1
  O  O27  1  0.04295000  0.38172300  0.70408900  1
  O  O28  1  0.69199100  0.01006500  0.38195700  1
  O  O29  1  0.45869300  0.27876000  0.31597500  1
  O  O30  1  0.28957800  0.51534900  0.24350800  1
  O  O31  1  0.29223800  0.80029400  0.03433900  1
  O  O32  1  0.01006500  0.69199100  0.88195700  1
  O  O33  1  0.27876000  0.45869300  0.81597500  1
  O  O34  1  0.19770400  0.70902200  0.46740400  1
  O  O35  1  0.51534900  0.28957800  0.74350800  1
  O  O36  1  0.48191600  0.71606900  0.26691900  1
  O  O37  1  0.80029400  0.29223800  0.53433900  1
  O  O38  1  0.73037900  0.54170500  0.18741400  1
  O  O39  1  0.70902200  0.19770400  0.96740400  1
