# generated using pymatgen
data_LiFe5O8
_symmetry_space_group_name_H-M   'P 1'
_cell_length_a   8.48998100
_cell_length_b   8.48998100
_cell_length_c   8.48998100
_cell_angle_alpha   90.00000000
_cell_angle_beta   90.00000000
_cell_angle_gamma   90.00000000
_symmetry_Int_Tables_number   1
_chemical_formula_structural   LiFe5O8
_chemical_formula_sum   'Li4 Fe20 O32'
_cell_volume   611.95594044
_cell_formula_units_Z   4
loop_
 _symmetry_equiv_pos_site_id
 _symmetry_equiv_pos_as_xyz
  1  'x, y, z'
loop_
 _atom_site_type_symbol
 _atom_site_label
 _atom_site_symmetry_multiplicity
 _atom_site_fract_x
 _atom_site_fract_y
 _atom_site_fract_z
 _atom_site_occupancy
  Li  Li0  1  0.87500000  0.37500000  0.12500000  1
  Li  Li1  1  0.37500000  0.12500000  0.87500000  1
  Li  Li2  1  0.62500000  0.62500000  0.62500000  1
  Li  Li3  1  0.12500000  0.87500000  0.37500000  1
  Fe  Fe4  1  0.87500000  0.86438000  0.61438000  1
  Fe  Fe5  1  0.75525900  0.24474100  0.74474100  1
  Fe  Fe6  1  0.12500000  0.36438000  0.88562000  1
  Fe  Fe7  1  0.38562000  0.37500000  0.63562000  1
  Fe  Fe8  1  0.24474100  0.74474100  0.75525900  1
  Fe  Fe9  1  0.62500000  0.13562000  0.11438000  1
  Fe  Fe10  1  0.36438000  0.88562000  0.12500000  1
  Fe  Fe11  1  0.49474100  0.50525900  0.00525900  1
  Fe  Fe12  1  0.88562000  0.12500000  0.36438000  1
  Fe  Fe13  1  0.86438000  0.61438000  0.87500000  1
  Fe  Fe14  1  0.11438000  0.62500000  0.13562000  1
  Fe  Fe15  1  0.25525900  0.25525900  0.25525900  1
  Fe  Fe16  1  0.99474100  0.99474100  0.99474100  1
  Fe  Fe17  1  0.74474100  0.75525900  0.24474100  1
  Fe  Fe18  1  0.50525900  0.00525900  0.49474100  1
  Fe  Fe19  1  0.37500000  0.63562000  0.38562000  1
  Fe  Fe20  1  0.61438000  0.87500000  0.86438000  1
  Fe  Fe21  1  0.00525900  0.49474100  0.50525900  1
  Fe  Fe22  1  0.13562000  0.11438000  0.62500000  1
  Fe  Fe23  1  0.63562000  0.38562000  0.37500000  1
  O  O24  1  0.12390600  0.12881700  0.86682700  1
  O  O25  1  0.61033600  0.88966400  0.11033600  1
  O  O26  1  0.38966400  0.38966400  0.38966400  1
  O  O27  1  0.86682700  0.12390600  0.12881700  1
  O  O28  1  0.37609400  0.87118300  0.36682700  1
  O  O29  1  0.11682700  0.87881700  0.62609400  1
  O  O30  1  0.62390600  0.37118300  0.13317300  1
  O  O31  1  0.12609400  0.38317300  0.12118300  1
  O  O32  1  0.63317300  0.87609400  0.62881700  1
  O  O33  1  0.36682700  0.37609400  0.87118300  1
  O  O34  1  0.63966400  0.13966400  0.36033600  1
  O  O35  1  0.37881700  0.87390600  0.88317300  1
  O  O36  1  0.36033600  0.63966400  0.13966400  1
  O  O37  1  0.12118300  0.12609400  0.38317300  1
  O  O38  1  0.37390600  0.61682700  0.62118300  1
  O  O39  1  0.88317300  0.37881700  0.87390600  1
  O  O40  1  0.61682700  0.62118300  0.37390600  1
  O  O41  1  0.62609400  0.11682700  0.87881700  1
  O  O42  1  0.13966400  0.36033600  0.63966400  1
  O  O43  1  0.13317300  0.62390600  0.37118300  1
  O  O44  1  0.11033600  0.61033600  0.88966400  1
  O  O45  1  0.38317300  0.12118300  0.12609400  1
  O  O46  1  0.87118300  0.36682700  0.37609400  1
  O  O47  1  0.86033600  0.86033600  0.86033600  1
  O  O48  1  0.37118300  0.13317300  0.62390600  1
  O  O49  1  0.62118300  0.37390600  0.61682700  1
  O  O50  1  0.62881700  0.63317300  0.87609400  1
  O  O51  1  0.87609400  0.62881700  0.63317300  1
  O  O52  1  0.87390600  0.88317300  0.37881700  1
  O  O53  1  0.87881700  0.62609400  0.11682700  1
  O  O54  1  0.88966400  0.11033600  0.61033600  1
  O  O55  1  0.12881700  0.86682700  0.12390600  1
