# generated using pymatgen
data_LiBiO2
_symmetry_space_group_name_H-M   'P 1'
_cell_length_a   9.98018937
_cell_length_b   9.98018937
_cell_length_c   9.98018937
_cell_angle_alpha   152.39855850
_cell_angle_beta   148.90691470
_cell_angle_gamma   42.05335983
_symmetry_Int_Tables_number   1
_chemical_formula_structural   LiBiO2
_chemical_formula_sum   'Li4 Bi4 O8'
_cell_volume   237.29624630
_cell_formula_units_Z   4
loop_
 _symmetry_equiv_pos_site_id
 _symmetry_equiv_pos_as_xyz
  1  'x, y, z'
loop_
 _atom_site_type_symbol
 _atom_site_label
 _atom_site_symmetry_multiplicity
 _atom_site_fract_x
 _atom_site_fract_y
 _atom_site_fract_z
 _atom_site_occupancy
  Li  Li0  1  0.24968000  0.99968000  0.75000000  1
  Li  Li1  1  0.75032000  0.50032000  0.75000000  1
  Li  Li2  1  0.75032000  0.00032000  0.25000000  1
  Li  Li3  1  0.24968000  0.49968000  0.25000000  1
  Bi  Bi4  1  0.32980100  0.09034800  0.23945300  1
  Bi  Bi5  1  0.67019900  0.90965200  0.76054700  1
  Bi  Bi6  1  0.14910600  0.40965200  0.73945300  1
  Bi  Bi7  1  0.85089400  0.59034800  0.26054700  1
  O  O8  1  0.45255400  0.20183600  0.25071900  1
  O  O9  1  0.54744600  0.79816400  0.74928100  1
  O  O10  1  0.04888300  0.29816400  0.75071900  1
  O  O11  1  0.95111700  0.70183600  0.24928100  1
  O  O12  1  0.91927600  0.08134100  0.83793600  1
  O  O13  1  0.08072400  0.91865900  0.16206400  1
  O  O14  1  0.75659500  0.41865900  0.33793600  1
  O  O15  1  0.24340500  0.58134100  0.66206400  1
