# generated using pymatgen
data_Li3V2P5O16
_symmetry_space_group_name_H-M   'P 1'
_cell_length_a   7.00792700
_cell_length_b   5.05024900
_cell_length_c   18.35524097
_cell_angle_alpha   86.88099847
_cell_angle_beta   90.00000000
_cell_angle_gamma   90.00000000
_symmetry_Int_Tables_number   1
_chemical_formula_structural   Li3V2P5O16
_chemical_formula_sum   'Li6 V4 P10 O32'
_cell_volume   648.66228144
_cell_formula_units_Z   2
loop_
 _symmetry_equiv_pos_site_id
 _symmetry_equiv_pos_as_xyz
  1  'x, y, z'
loop_
 _atom_site_type_symbol
 _atom_site_label
 _atom_site_symmetry_multiplicity
 _atom_site_fract_x
 _atom_site_fract_y
 _atom_site_fract_z
 _atom_site_occupancy
  Li  Li0  1  0.32225700  0.73907200  0.03360600  1
  Li  Li1  1  0.98448200  0.50000000  0.25000000  1
  Li  Li2  1  0.32225700  0.26092800  0.46639400  1
  Li  Li3  1  0.67774300  0.73907200  0.53360600  1
  Li  Li4  1  0.01551800  0.50000000  0.75000000  1
  Li  Li5  1  0.67774300  0.26092800  0.96639400  1
  V  V6  1  0.82170300  0.73335200  0.09048100  1
  V  V7  1  0.82170300  0.26664800  0.40951900  1
  V  V8  1  0.17829700  0.73335200  0.59048100  1
  V  V9  1  0.17829700  0.26664800  0.90951900  1
  P  P10  1  0.13020500  0.22707500  0.08668900  1
  P  P11  1  0.53164600  0.25736600  0.12419700  1
  P  P12  1  0.75608100  0.00000000  0.25000000  1
  P  P13  1  0.53164600  0.74263400  0.37580300  1
  P  P14  1  0.13020500  0.77292500  0.41331100  1
  P  P15  1  0.86979500  0.22707500  0.58668900  1
  P  P16  1  0.46835400  0.25736600  0.62419700  1
  P  P17  1  0.24391900  0.00000000  0.75000000  1
  P  P18  1  0.46835400  0.74263400  0.87580300  1
  P  P19  1  0.86979500  0.77292500  0.91331100  1
  O  O20  1  0.20891000  0.38294900  0.01900900  1
  O  O21  1  0.62170800  0.08012200  0.06943200  1
  O  O22  1  0.08213500  0.94045700  0.07165400  1
  O  O23  1  0.54672700  0.55263200  0.10664100  1
  O  O24  1  0.98630600  0.38342700  0.12984700  1
  O  O25  1  0.31533900  0.18702100  0.14269000  1
  O  O26  1  0.61504900  0.19253900  0.20451900  1
  O  O27  1  0.86665300  0.82213900  0.20219200  1
  O  O28  1  0.86665300  0.17786100  0.29780800  1
  O  O29  1  0.61504900  0.80746100  0.29548100  1
  O  O30  1  0.31533900  0.81297900  0.35731000  1
  O  O31  1  0.98630600  0.61657300  0.37015300  1
  O  O32  1  0.54672700  0.44736800  0.39335900  1
  O  O33  1  0.08213500  0.05954300  0.42834600  1
  O  O34  1  0.62170800  0.91987800  0.43056800  1
  O  O35  1  0.20891000  0.61705100  0.48099100  1
  O  O36  1  0.79109000  0.38294900  0.51900900  1
  O  O37  1  0.37829200  0.08012200  0.56943200  1
  O  O38  1  0.91786500  0.94045700  0.57165400  1
  O  O39  1  0.45327300  0.55263200  0.60664100  1
  O  O40  1  0.01369400  0.38342700  0.62984700  1
  O  O41  1  0.68466100  0.18702100  0.64269000  1
  O  O42  1  0.38495100  0.19253900  0.70451900  1
  O  O43  1  0.13334700  0.82213900  0.70219200  1
  O  O44  1  0.13334700  0.17786100  0.79780800  1
  O  O45  1  0.38495100  0.80746100  0.79548100  1
  O  O46  1  0.68466100  0.81297900  0.85731000  1
  O  O47  1  0.01369400  0.61657300  0.87015300  1
  O  O48  1  0.45327300  0.44736800  0.89335900  1
  O  O49  1  0.91786500  0.05954300  0.92834600  1
  O  O50  1  0.37829200  0.91987800  0.93056800  1
  O  O51  1  0.79109000  0.61705100  0.98099100  1
