# generated using pymatgen
data_LiCr2P3O11
_symmetry_space_group_name_H-M   'P 1'
_cell_length_a   7.15415058
_cell_length_b   7.15415058
_cell_length_c   8.69306493
_cell_angle_alpha   70.18217989
_cell_angle_beta   70.18217989
_cell_angle_gamma   74.03022159
_symmetry_Int_Tables_number   1
_chemical_formula_structural   LiCr2P3O11
_chemical_formula_sum   'Li2 Cr4 P6 O22'
_cell_volume   387.28305344
_cell_formula_units_Z   2
loop_
 _symmetry_equiv_pos_site_id
 _symmetry_equiv_pos_as_xyz
  1  'x, y, z'
loop_
 _atom_site_type_symbol
 _atom_site_label
 _atom_site_symmetry_multiplicity
 _atom_site_fract_x
 _atom_site_fract_y
 _atom_site_fract_z
 _atom_site_occupancy
  Li  Li0  1  0.48322600  0.00832100  0.23585800  1
  Li  Li1  1  0.99167900  0.51677400  0.76414200  1
  Cr  Cr2  1  0.88487500  0.36352400  0.20497900  1
  Cr  Cr3  1  0.36279200  0.88550000  0.70422700  1
  Cr  Cr4  1  0.63647600  0.11512500  0.79502100  1
  Cr  Cr5  1  0.11450000  0.63720800  0.29577300  1
  P  P6  1  0.04249100  0.95750900  0.50000000  1
  P  P7  1  0.31994600  0.45162300  0.96303900  1
  P  P8  1  0.67818000  0.54835800  0.53824400  1
  P  P9  1  0.95707300  0.04292700  0.00000000  1
  P  P10  1  0.45164200  0.32182000  0.46175600  1
  P  P11  1  0.54837700  0.68005400  0.03696100  1
  O  O12  1  0.87900800  0.98298600  0.66207400  1
  O  O13  1  0.76267100  0.61883300  0.05301100  1
  O  O14  1  0.25992300  0.95422000  0.50852700  1
  O  O15  1  0.98482000  0.88032400  0.16167400  1
  O  O16  1  0.01701400  0.12099200  0.33792600  1
  O  O17  1  0.11967600  0.01518000  0.83832600  1
  O  O18  1  0.24016000  0.38104200  0.44059100  1
  O  O19  1  0.47022400  0.14725900  0.62495700  1
  O  O20  1  0.61694000  0.27468100  0.30600500  1
  O  O21  1  0.04578000  0.74007700  0.49147300  1
  O  O22  1  0.38116700  0.23732900  0.94698900  1
  O  O23  1  0.49027700  0.50972300  0.50000000  1
  O  O24  1  0.38575200  0.72931400  0.19333000  1
  O  O25  1  0.27068600  0.61424800  0.80667000  1
  O  O26  1  0.73942800  0.04590500  0.99138200  1
  O  O27  1  0.14575100  0.47188300  0.12558000  1
  O  O28  1  0.72531800  0.38306000  0.69399500  1
  O  O29  1  0.85274100  0.52977600  0.37504300  1
  O  O30  1  0.50726500  0.49273500  0.00000000  1
  O  O31  1  0.61895800  0.75984000  0.55940900  1
  O  O32  1  0.95409500  0.26057200  0.00861800  1
  O  O33  1  0.52811700  0.85424900  0.87442000  1
