# generated using pymatgen
data_Li3Cr2(PO4)3
_symmetry_space_group_name_H-M   'P 1'
_cell_length_a   8.40771392
_cell_length_b   8.40771392
_cell_length_c   8.56727194
_cell_angle_alpha   61.49382794
_cell_angle_beta   61.49382794
_cell_angle_gamma   62.74530328
_symmetry_Int_Tables_number   1
_chemical_formula_structural   Li3Cr2(PO4)3
_chemical_formula_sum   'Li6 Cr4 P6 O24'
_cell_volume   446.41728772
_cell_formula_units_Z   2
loop_
 _symmetry_equiv_pos_site_id
 _symmetry_equiv_pos_as_xyz
  1  'x, y, z'
loop_
 _atom_site_type_symbol
 _atom_site_label
 _atom_site_symmetry_multiplicity
 _atom_site_fract_x
 _atom_site_fract_y
 _atom_site_fract_z
 _atom_site_occupancy
  Li  Li0  1  0.15751700  0.23697900  0.35946400  1
  Li  Li1  1  0.84248300  0.76302100  0.64053600  1
  Li  Li2  1  0.00000000  0.50000000  0.00000000  1
  Li  Li3  1  0.76302100  0.84248300  0.14053600  1
  Li  Li4  1  0.50000000  0.00000000  0.50000000  1
  Li  Li5  1  0.23697900  0.15751700  0.85946400  1
  Cr  Cr6  1  0.85832900  0.36588700  0.85117000  1
  Cr  Cr7  1  0.36588700  0.85832900  0.35117000  1
  Cr  Cr8  1  0.63411300  0.14167100  0.64883000  1
  Cr  Cr9  1  0.14167100  0.63411300  0.14883000  1
  P  P10  1  0.04307800  0.95692200  0.75000000  1
  P  P11  1  0.25518800  0.44751400  0.53175400  1
  P  P12  1  0.74481200  0.55248600  0.46824600  1
  P  P13  1  0.95692200  0.04307800  0.25000000  1
  P  P14  1  0.44751400  0.25518800  0.03175400  1
  P  P15  1  0.55248600  0.74481200  0.96824600  1
  O  O16  1  0.31892700  0.61742600  0.46461600  1
  O  O17  1  0.55666600  0.90474100  0.77068800  1
  O  O18  1  0.87351400  0.98239400  0.70534800  1
  O  O19  1  0.98239400  0.87351400  0.20534800  1
  O  O20  1  0.01760600  0.12648600  0.79465200  1
  O  O21  1  0.12648600  0.01760600  0.29465200  1
  O  O22  1  0.44333400  0.09525900  0.22931200  1
  O  O23  1  0.24983400  0.40742700  0.07072300  1
  O  O24  1  0.45220900  0.18857600  0.88951600  1
  O  O25  1  0.61742600  0.31892700  0.96461600  1
  O  O26  1  0.05300300  0.77066000  0.92202200  1
  O  O27  1  0.54779100  0.81142400  0.11048400  1
  O  O28  1  0.40742700  0.24983400  0.57072300  1
  O  O29  1  0.18857600  0.45220900  0.38951600  1
  O  O30  1  0.09525900  0.44333400  0.72931200  1
  O  O31  1  0.77066000  0.05300300  0.42202200  1
  O  O32  1  0.22934000  0.94699700  0.57797800  1
  O  O33  1  0.68107300  0.38257400  0.53538400  1
  O  O34  1  0.81142400  0.54779100  0.61048400  1
  O  O35  1  0.59257300  0.75016600  0.42927700  1
  O  O36  1  0.90474100  0.55666600  0.27068800  1
  O  O37  1  0.94699700  0.22934000  0.07797800  1
  O  O38  1  0.38257400  0.68107300  0.03538400  1
  O  O39  1  0.75016600  0.59257300  0.92927700  1
