# generated using pymatgen
data_LiCr(PO3)4
_symmetry_space_group_name_H-M   'P 1'
_cell_length_a   8.46396817
_cell_length_b   8.46396817
_cell_length_c   7.69549923
_cell_angle_alpha   82.16126467
_cell_angle_beta   82.16126467
_cell_angle_gamma   112.17668680
_symmetry_Int_Tables_number   1
_chemical_formula_structural   LiCr(PO3)4
_chemical_formula_sum   'Li2 Cr2 P8 O24'
_cell_volume   495.02469959
_cell_formula_units_Z   2
loop_
 _symmetry_equiv_pos_site_id
 _symmetry_equiv_pos_as_xyz
  1  'x, y, z'
loop_
 _atom_site_type_symbol
 _atom_site_label
 _atom_site_symmetry_multiplicity
 _atom_site_fract_x
 _atom_site_fract_y
 _atom_site_fract_z
 _atom_site_occupancy
  Li  Li0  1  0.17892700  0.48573000  0.22831400  1
  Li  Li1  1  0.48573000  0.17892700  0.72831400  1
  Cr  Cr2  1  0.86937800  0.12584000  0.26265900  1
  Cr  Cr3  1  0.12584000  0.86937800  0.76265900  1
  P  P4  1  0.75816900  0.42141800  0.35007100  1
  P  P5  1  0.58244700  0.23214000  0.10811400  1
  P  P6  1  0.79778100  0.95630900  0.68437300  1
  P  P7  1  0.42141800  0.75816900  0.85007100  1
  P  P8  1  0.23214000  0.58244700  0.60811400  1
  P  P9  1  0.21062200  0.05728600  0.34277700  1
  P  P10  1  0.05728600  0.21062200  0.84277700  1
  P  P11  1  0.95630900  0.79778100  0.18437300  1
  O  O12  1  0.62352500  0.33926300  0.51572400  1
  O  O13  1  0.74300100  0.00435300  0.51391700  1
  O  O14  1  0.12927000  0.88533500  0.26215200  1
  O  O15  1  0.36122100  0.90806600  0.81696600  1
  O  O16  1  0.00435300  0.74300100  0.01391700  1
  O  O17  1  0.62790400  0.84808200  0.83752800  1
  O  O18  1  0.10145000  0.64466400  0.69839400  1
  O  O19  1  0.85476300  0.91052200  0.18168500  1
  O  O20  1  0.91052200  0.85476300  0.68168500  1
  O  O21  1  0.41335400  0.67290900  0.67336700  1
  O  O22  1  0.33926300  0.62352500  0.01572400  1
  O  O23  1  0.26686100  0.59603200  0.41254900  1
  O  O24  1  0.17570900  0.37955300  0.69862800  1
  O  O25  1  0.84808200  0.62790400  0.33752800  1
  O  O26  1  0.64466400  0.10145000  0.19839400  1
  O  O27  1  0.67290900  0.41335400  0.17336700  1
  O  O28  1  0.00780200  0.25933200  0.01705700  1
  O  O29  1  0.09290900  0.15544000  0.34338600  1
  O  O30  1  0.59603200  0.26686100  0.91254900  1
  O  O31  1  0.15544000  0.09290900  0.84338600  1
  O  O32  1  0.90806600  0.36122100  0.31696600  1
  O  O33  1  0.37955300  0.17570900  0.19862800  1
  O  O34  1  0.25933200  0.00780200  0.51705700  1
  O  O35  1  0.88533500  0.12927000  0.76215200  1
