# generated using pymatgen
data_Li5Cr2P5O18
_symmetry_space_group_name_H-M   'P 1'
_cell_length_a   9.31215522
_cell_length_b   10.62896070
_cell_length_c   6.48245929
_cell_angle_alpha   93.03929341
_cell_angle_beta   91.08238408
_cell_angle_gamma   96.02952778
_symmetry_Int_Tables_number   1
_chemical_formula_structural   Li5Cr2P5O18
_chemical_formula_sum   'Li10 Cr4 P10 O36'
_cell_volume   636.98396004
_cell_formula_units_Z   2
loop_
 _symmetry_equiv_pos_site_id
 _symmetry_equiv_pos_as_xyz
  1  'x, y, z'
loop_
 _atom_site_type_symbol
 _atom_site_label
 _atom_site_symmetry_multiplicity
 _atom_site_fract_x
 _atom_site_fract_y
 _atom_site_fract_z
 _atom_site_occupancy
  Li  Li0  1  0.06200427  0.86998355  0.98277549  1
  Li  Li1  1  0.93799816  0.13001594  0.01722244  1
  Li  Li2  1  0.86893357  0.64438221  0.17760808  1
  Li  Li3  1  0.78455776  0.34318771  0.87975966  1
  Li  Li4  1  0.72406184  0.41437295  0.45049491  1
  Li  Li5  1  0.13106610  0.35562142  0.82239642  1
  Li  Li6  1  0.21544535  0.65681212  0.12024066  1
  Li  Li7  1  0.27594066  0.58562985  0.54950421  1
  Li  Li8  1  0.37230842  0.86107389  0.34200053  1
  Li  Li9  1  0.62769383  0.13892458  0.65800126  1
  O  O10  1  0.31986884  0.81447811  0.01534718  1
  O  O11  1  0.96483634  0.68137340  0.58082787  1
  O  O12  1  0.92313580  0.09617144  0.34038201  1
  O  O13  1  0.98409599  0.31424661  0.02890227  1
  O  O14  1  0.01590296  0.68575337  0.97110026  1
  O  O15  1  0.07686844  0.90383036  0.65961663  1
  O  O16  1  0.03516322  0.31862880  0.41917423  1
  O  O17  1  0.06755846  0.16697255  0.67669601  1
  O  O18  1  0.10930661  0.52128069  0.72961963  1
  O  O19  1  0.18121094  0.75452340  0.38605234  1
  O  O20  1  0.16504688  0.48014211  0.22014808  1
  O  O21  1  0.17534265  0.04542190  0.98314240  1
  O  O22  1  0.89069252  0.47872074  0.27038227  1
  O  O23  1  0.24702698  0.23727485  0.22779279  1
  O  O24  1  0.37235535  0.91396114  0.66759140  1
  O  O25  1  0.25596943  0.02053333  0.35657696  1
  O  O26  1  0.33845908  0.38346929  0.91767513  1
  O  O27  1  0.93244569  0.83302824  0.32330367  1
  O  O28  1  0.42003948  0.59724870  0.25738150  1
  O  O29  1  0.45123385  0.69382218  0.73692401  1
  O  O30  1  0.40365100  0.19992199  0.67805639  1
  O  O31  1  0.42996788  0.10148603  0.07888834  1
  O  O32  1  0.57003351  0.89851302  0.92111232  1
  O  O33  1  0.59634925  0.80007680  0.32194626  1
  O  O34  1  0.54876225  0.30617615  0.26307766  1
  O  O35  1  0.57995793  0.40274931  0.74262125  1
  O  O36  1  0.65214103  0.58662775  0.45926212  1
  O  O37  1  0.66153813  0.61652795  0.08232453  1
  O  O38  1  0.74403310  0.97946320  0.64342181  1
  O  O39  1  0.62764868  0.08603891  0.33240850  1
  O  O40  1  0.75296830  0.76272097  0.77220925  1
  O  O41  1  0.68013184  0.18552256  0.98465317  1
  O  O42  1  0.82466070  0.95457627  0.01685428  1
  O  O43  1  0.83494946  0.51985907  0.77985104  1
  O  O44  1  0.81879121  0.24547389  0.61395073  1
  O  O45  1  0.34785580  0.41337042  0.54073803  1
  P  P46  1  0.58159172  0.65310589  0.28101645  1
  P  P47  1  0.58217717  0.17545468  0.16742725  1
  P  P48  1  0.72814613  0.89739899  0.83147070  1
  P  P49  1  0.98547996  0.59851156  0.77623634  1
  P  P50  1  0.04771073  0.80054020  0.48244434  1
  P  P51  1  0.01451619  0.40148780  0.22376562  1
  P  P52  1  0.27185504  0.10259879  0.16852721  1
  P  P53  1  0.41782343  0.82454764  0.83257487  1
  P  P54  1  0.41840691  0.34689258  0.71898404  1
  P  P55  1  0.95229200  0.19946001  0.51755817  1
  Cr  Cr56  1  0.76882139  0.94941261  0.33107368  1
  Cr  Cr57  1  0.64191786  0.59836634  0.76831468  1
  Cr  Cr58  1  0.35806468  0.40163658  0.23168384  1
  Cr  Cr59  1  0.23118881  0.05059687  0.66890490  1
