# generated using pymatgen
data_LiMn2(PO4)3
_symmetry_space_group_name_H-M   'P 1'
_cell_length_a   8.47378500
_cell_length_b   8.25002700
_cell_length_c   11.75265339
_cell_angle_alpha   89.71402823
_cell_angle_beta   90.00000000
_cell_angle_gamma   90.00000000
_symmetry_Int_Tables_number   1
_chemical_formula_structural   LiMn2(PO4)3
_chemical_formula_sum   'Li4 Mn8 P12 O48'
_cell_volume   821.60548350
_cell_formula_units_Z   4
loop_
 _symmetry_equiv_pos_site_id
 _symmetry_equiv_pos_as_xyz
  1  'x, y, z'
loop_
 _atom_site_type_symbol
 _atom_site_label
 _atom_site_symmetry_multiplicity
 _atom_site_fract_x
 _atom_site_fract_y
 _atom_site_fract_z
 _atom_site_occupancy
  Li  Li0  1  0.09940300  0.92873600  0.30177900  1
  Li  Li1  1  0.59940300  0.57126400  0.19822100  1
  Li  Li2  1  0.40059700  0.42873600  0.80177900  1
  Li  Li3  1  0.90059700  0.07126400  0.69822100  1
  Mn  Mn4  1  0.52973000  0.75557000  0.39222400  1
  Mn  Mn5  1  0.02973000  0.74443000  0.10777600  1
  Mn  Mn6  1  0.47071300  0.75603100  0.88329700  1
  Mn  Mn7  1  0.97071300  0.74396900  0.61670300  1
  Mn  Mn8  1  0.02928700  0.25603100  0.38329700  1
  Mn  Mn9  1  0.52928700  0.24396900  0.11670300  1
  Mn  Mn10  1  0.97027000  0.25557000  0.89222400  1
  Mn  Mn11  1  0.47027000  0.24443000  0.60777600  1
  P  P12  1  0.74949400  0.03593200  0.49036800  1
  P  P13  1  0.61254600  0.11004200  0.85421400  1
  P  P14  1  0.88521000  0.11147000  0.14337000  1
  P  P15  1  0.11254600  0.38995800  0.64578600  1
  P  P16  1  0.38521000  0.38853000  0.35663000  1
  P  P17  1  0.24949400  0.46406800  0.00963200  1
  P  P18  1  0.75050600  0.53593200  0.99036800  1
  P  P19  1  0.61479000  0.61147000  0.64337000  1
  P  P20  1  0.25050600  0.96406800  0.50963200  1
  P  P21  1  0.38745400  0.88995800  0.14578600  1
  P  P22  1  0.88745400  0.61004200  0.35421400  1
  P  P23  1  0.11479000  0.88853000  0.85663000  1
  O  O24  1  0.55936500  0.72862800  0.54752300  1
  O  O25  1  0.32678600  0.06456400  0.60519000  1
  O  O26  1  0.10893800  0.06843100  0.89240300  1
  O  O27  1  0.42390000  0.06638200  0.17992900  1
  O  O28  1  0.63642400  0.09863200  0.58469200  1
  O  O29  1  0.71808300  0.16106600  0.18084000  1
  O  O30  1  0.57088100  0.14276100  0.97829400  1
  O  O31  1  0.99838100  0.13038600  0.24684600  1
  O  O32  1  0.87304800  0.94051700  0.56226300  1
  O  O33  1  0.67321400  0.93543600  0.39481000  1
  O  O34  1  0.89106200  0.93156900  0.10759700  1
  O  O35  1  0.57610000  0.93361800  0.82007100  1
  O  O36  1  0.36357600  0.90136800  0.41530800  1
  O  O37  1  0.20525200  0.87349500  0.16240000  1
  O  O38  1  0.42911900  0.85723900  0.02170600  1
  O  O39  1  0.00161900  0.86961400  0.75315400  1
  O  O40  1  0.28191700  0.83893400  0.81916000  1
  O  O41  1  0.17038400  0.81527300  0.56328200  1
  O  O42  1  0.48289000  0.77319800  0.22428500  1
  O  O43  1  0.05936500  0.77137200  0.95247700  1
  O  O44  1  0.98289000  0.72680200  0.27571500  1
  O  O45  1  0.12695200  0.05948300  0.43773700  1
  O  O46  1  0.67038400  0.68472700  0.93671800  1
  O  O47  1  0.78191700  0.66106600  0.68084000  1
  O  O48  1  0.92911900  0.64276100  0.47829400  1
  O  O49  1  0.70525200  0.62650500  0.33760000  1
  O  O50  1  0.50161900  0.63038600  0.74684600  1
  O  O51  1  0.86357600  0.59863200  0.08469200  1
  O  O52  1  0.39106200  0.56843100  0.39240300  1
  O  O53  1  0.17321400  0.56456400  0.10519000  1
  O  O54  1  0.07610000  0.56638200  0.67992900  1
  O  O55  1  0.37304800  0.55948300  0.93773700  1
  O  O56  1  0.62695200  0.44051700  0.06226300  1
  O  O57  1  0.92390000  0.43361800  0.32007100  1
  O  O58  1  0.82678600  0.43543600  0.89481000  1
  O  O59  1  0.60893800  0.43156900  0.60759700  1
  O  O60  1  0.13642400  0.40136800  0.91530800  1
  O  O61  1  0.49838100  0.36961400  0.25315400  1
  O  O62  1  0.29474800  0.37349500  0.66240000  1
  O  O63  1  0.07088100  0.35723900  0.52170600  1
  O  O64  1  0.21808300  0.33893400  0.31916000  1
  O  O65  1  0.32961600  0.31527300  0.06328200  1
  O  O66  1  0.44063500  0.27137200  0.45247700  1
  O  O67  1  0.01711000  0.27319800  0.72428500  1
  O  O68  1  0.94063500  0.22862800  0.04752300  1
  O  O69  1  0.51711000  0.22680200  0.77571500  1
  O  O70  1  0.82961600  0.18472700  0.43671800  1
  O  O71  1  0.79474800  0.12650500  0.83760000  1
