# generated using pymatgen
data_Li6Fe9(PO4)8
_symmetry_space_group_name_H-M   'P 1'
_cell_length_a   9.10013700
_cell_length_b   9.01721739
_cell_length_c   8.83356472
_cell_angle_alpha   102.55495999
_cell_angle_beta   99.89370008
_cell_angle_gamma   111.36311597
_symmetry_Int_Tables_number   1
_chemical_formula_structural   Li6Fe9(PO4)8
_chemical_formula_sum   'Li6 Fe9 P8 O32'
_cell_volume   633.29877444
_cell_formula_units_Z   1
loop_
 _symmetry_equiv_pos_site_id
 _symmetry_equiv_pos_as_xyz
  1  'x, y, z'
loop_
 _atom_site_type_symbol
 _atom_site_label
 _atom_site_symmetry_multiplicity
 _atom_site_fract_x
 _atom_site_fract_y
 _atom_site_fract_z
 _atom_site_occupancy
  Li  Li0  1  0.00513100  0.12279800  0.36478900  1
  Li  Li1  1  0.99486900  0.87720200  0.63521100  1
  Li  Li2  1  0.73139200  0.23093400  0.96472300  1
  Li  Li3  1  0.63728900  0.68173600  0.66986600  1
  Li  Li4  1  0.36271100  0.31826400  0.33013400  1
  Li  Li5  1  0.26860800  0.76906600  0.03527700  1
  Fe  Fe6  1  0.93190100  0.73058700  0.19493900  1
  Fe  Fe7  1  0.57467200  0.13482400  0.29193000  1
  Fe  Fe8  1  0.53784700  0.29367200  0.68862200  1
  Fe  Fe9  1  0.50000000  0.50000000  0.00000000  1
  Fe  Fe10  1  0.46215300  0.70632800  0.31137800  1
  Fe  Fe11  1  0.00000000  0.00000000  0.00000000  1
  Fe  Fe12  1  0.42532800  0.86517600  0.70807000  1
  Fe  Fe13  1  0.06809900  0.26941300  0.80506100  1
  Fe  Fe14  1  0.00000000  0.50000000  0.50000000  1
  P  P15  1  0.28373600  0.96997800  0.40506000  1
  P  P16  1  0.09932300  0.38566800  0.16594800  1
  P  P17  1  0.28063000  0.46357700  0.66211000  1
  P  P18  1  0.34543400  0.11273700  0.95855700  1
  P  P19  1  0.65456600  0.88726300  0.04144300  1
  P  P20  1  0.71937000  0.53642300  0.33789000  1
  P  P21  1  0.90067700  0.61433200  0.83405200  1
  P  P22  1  0.71626400  0.03002200  0.59494000  1
  O  O23  1  0.89909400  0.77295300  0.79056200  1
  O  O24  1  0.65765000  0.13177000  0.71834400  1
  O  O25  1  0.88580000  0.03814400  0.67387800  1
  O  O26  1  0.59793100  0.82466500  0.85461400  1
  O  O27  1  0.74237100  0.38660100  0.37901500  1
  O  O28  1  0.88461000  0.69495500  0.42505900  1
  O  O29  1  0.72534200  0.08323100  0.44142300  1
  O  O30  1  0.67134100  0.06852300  0.10225200  1
  O  O31  1  0.96264400  0.51521900  0.71710300  1
  O  O32  1  0.11420000  0.96185600  0.32612200  1
  O  O33  1  0.01761100  0.67607900  0.00894500  1
  O  O34  1  0.03735600  0.48478100  0.28289700  1
  O  O35  1  0.32865900  0.93147700  0.89774800  1
  O  O36  1  0.27465800  0.91676900  0.55857700  1
  O  O37  1  0.11539000  0.30504500  0.57494100  1
  O  O38  1  0.25762900  0.61339900  0.62098500  1
  O  O39  1  0.82819400  0.88760700  0.10414100  1
  O  O40  1  0.34235000  0.86823000  0.28165600  1
  O  O41  1  0.17180600  0.11239300  0.89585900  1
  O  O42  1  0.29839300  0.47765600  0.84568300  1
  O  O43  1  0.27795100  0.49581400  0.16855900  1
  O  O44  1  0.10090600  0.22704700  0.20943800  1
  O  O45  1  0.43123400  0.45033200  0.61563600  1
  O  O46  1  0.58334200  0.84345900  0.54612700  1
  O  O47  1  0.46987800  0.23754600  0.89445800  1
  O  O48  1  0.53012200  0.76245400  0.10554200  1
  O  O49  1  0.41665800  0.15654100  0.45387300  1
  O  O50  1  0.56876600  0.54966800  0.38436400  1
  O  O51  1  0.40206900  0.17533500  0.14538600  1
  O  O52  1  0.72204900  0.50418600  0.83144100  1
  O  O53  1  0.70160700  0.52234400  0.15431700  1
  O  O54  1  0.98238900  0.32392100  0.99105500  1
