# generated using pymatgen
data_LiTi(PO3)4
_symmetry_space_group_name_H-M   'P 1'
_cell_length_a   8.38438300
_cell_length_b   9.50487400
_cell_length_c   12.87403000
_cell_angle_alpha   90.00000000
_cell_angle_beta   90.00000000
_cell_angle_gamma   90.00000000
_symmetry_Int_Tables_number   1
_chemical_formula_structural   LiTi(PO3)4
_chemical_formula_sum   'Li4 Ti4 P16 O48'
_cell_volume   1025.96368705
_cell_formula_units_Z   4
loop_
 _symmetry_equiv_pos_site_id
 _symmetry_equiv_pos_as_xyz
  1  'x, y, z'
loop_
 _atom_site_type_symbol
 _atom_site_label
 _atom_site_symmetry_multiplicity
 _atom_site_fract_x
 _atom_site_fract_y
 _atom_site_fract_z
 _atom_site_occupancy
  Li  Li0  1  0.99997600  0.75000000  0.00000000  1
  Li  Li1  1  0.00002400  0.25000000  0.00000000  1
  Li  Li2  1  0.50002400  0.25000000  0.50000000  1
  Li  Li3  1  0.49997600  0.75000000  0.50000000  1
  Ti  Ti4  1  0.36668000  0.75000000  0.00000000  1
  Ti  Ti5  1  0.63332000  0.25000000  0.00000000  1
  Ti  Ti6  1  0.13332000  0.25000000  0.50000000  1
  Ti  Ti7  1  0.86668000  0.75000000  0.50000000  1
  P  P8  1  0.17626800  0.50329300  0.13751500  1
  P  P9  1  0.82373200  0.00329300  0.13751500  1
  P  P10  1  0.46782200  0.00894500  0.15113100  1
  P  P11  1  0.53217800  0.50894500  0.15113100  1
  P  P12  1  0.03217800  0.50894500  0.34886900  1
  P  P13  1  0.96782200  0.00894500  0.34886900  1
  P  P14  1  0.32373200  0.00329300  0.36248500  1
  P  P15  1  0.67626800  0.50329300  0.36248500  1
  P  P16  1  0.32373200  0.49670700  0.63751500  1
  P  P17  1  0.67626800  0.99670700  0.63751500  1
  P  P18  1  0.03217800  0.99105500  0.65113100  1
  P  P19  1  0.96782200  0.49105500  0.65113100  1
  P  P20  1  0.46782200  0.49105500  0.84886900  1
  P  P21  1  0.53217800  0.99105500  0.84886900  1
  P  P22  1  0.17626800  0.99670700  0.86248500  1
  P  P23  1  0.82373200  0.49670700  0.86248500  1
  O  O24  1  0.18629700  0.63027700  0.06557200  1
  O  O25  1  0.81370300  0.13027700  0.06557200  1
  O  O26  1  0.46451900  0.12659400  0.07313100  1
  O  O27  1  0.53548100  0.62659400  0.07313100  1
  O  O28  1  0.09299200  0.37496000  0.10226100  1
  O  O29  1  0.90700800  0.87496000  0.10226100  1
  O  O30  1  0.37430900  0.87823600  0.12365900  1
  O  O31  1  0.62569100  0.37823600  0.12365900  1
  O  O32  1  0.35309800  0.46374100  0.17877500  1
  O  O33  1  0.64690200  0.96374100  0.17877500  1
  O  O34  1  0.09782300  0.56944600  0.24175700  1
  O  O35  1  0.90217700  0.06944600  0.24175700  1
  O  O36  1  0.40217700  0.06944600  0.25824300  1
  O  O37  1  0.59782300  0.56944600  0.25824300  1
  O  O38  1  0.14690200  0.96374100  0.32122500  1
  O  O39  1  0.85309800  0.46374100  0.32122500  1
  O  O40  1  0.12569100  0.37823600  0.37634100  1
  O  O41  1  0.87430900  0.87823600  0.37634100  1
  O  O42  1  0.40700800  0.87496000  0.39773900  1
  O  O43  1  0.59299200  0.37496000  0.39773900  1
  O  O44  1  0.03548100  0.62659400  0.42686900  1
  O  O45  1  0.96451900  0.12659400  0.42686900  1
  O  O46  1  0.31370300  0.13027700  0.43442800  1
  O  O47  1  0.68629700  0.63027700  0.43442800  1
  O  O48  1  0.31370300  0.36972300  0.56557200  1
  O  O49  1  0.68629700  0.86972300  0.56557200  1
  O  O50  1  0.03548100  0.87340600  0.57313100  1
  O  O51  1  0.96451900  0.37340600  0.57313100  1
  O  O52  1  0.40700800  0.62504000  0.60226100  1
  O  O53  1  0.59299200  0.12504000  0.60226100  1
  O  O54  1  0.12569100  0.12176400  0.62365900  1
  O  O55  1  0.87430900  0.62176400  0.62365900  1
  O  O56  1  0.14690200  0.53625900  0.67877500  1
  O  O57  1  0.85309800  0.03625900  0.67877500  1
  O  O58  1  0.40217700  0.43055400  0.74175700  1
  O  O59  1  0.59782300  0.93055400  0.74175700  1
  O  O60  1  0.09782300  0.93055400  0.75824300  1
  O  O61  1  0.90217700  0.43055400  0.75824300  1
  O  O62  1  0.35309800  0.03625900  0.82122500  1
  O  O63  1  0.64690200  0.53625900  0.82122500  1
  O  O64  1  0.37430900  0.62176400  0.87634100  1
  O  O65  1  0.62569100  0.12176400  0.87634100  1
  O  O66  1  0.09299200  0.12504000  0.89773900  1
  O  O67  1  0.90700800  0.62504000  0.89773900  1
  O  O68  1  0.46451900  0.37340600  0.92686900  1
  O  O69  1  0.53548100  0.87340600  0.92686900  1
  O  O70  1  0.18629700  0.86972300  0.93442800  1
  O  O71  1  0.81370300  0.36972300  0.93442800  1
