# generated using pymatgen
data_Li3Ni2(PO4)3
_symmetry_space_group_name_H-M   'P 1'
_cell_length_a   8.98881642
_cell_length_b   8.98881642
_cell_length_c   8.98881601
_cell_angle_alpha   56.21194220
_cell_angle_beta   56.21194220
_cell_angle_gamma   56.21194711
_symmetry_Int_Tables_number   1
_chemical_formula_structural   Li3Ni2(PO4)3
_chemical_formula_sum   'Li6 Ni4 P6 O24'
_cell_volume   468.53591253
_cell_formula_units_Z   2
loop_
 _symmetry_equiv_pos_site_id
 _symmetry_equiv_pos_as_xyz
  1  'x, y, z'
loop_
 _atom_site_type_symbol
 _atom_site_label
 _atom_site_symmetry_multiplicity
 _atom_site_fract_x
 _atom_site_fract_y
 _atom_site_fract_z
 _atom_site_occupancy
  Li  Li0  1  0.66235000  0.26654800  0.92134600  1
  Li  Li1  1  0.33765000  0.73345200  0.07865400  1
  Li  Li2  1  0.07865400  0.33765000  0.73345200  1
  Li  Li3  1  0.73345200  0.07865400  0.33765000  1
  Li  Li4  1  0.92134600  0.66235000  0.26654800  1
  Li  Li5  1  0.26654800  0.92134600  0.66235000  1
  Ni  Ni6  1  0.85590600  0.85590600  0.85590600  1
  Ni  Ni7  1  0.34723400  0.34723400  0.34723400  1
  Ni  Ni8  1  0.65276600  0.65276600  0.65276600  1
  Ni  Ni9  1  0.14409400  0.14409400  0.14409400  1
  P  P10  1  0.54165100  0.95653400  0.25386700  1
  P  P11  1  0.95653400  0.25386700  0.54165100  1
  P  P12  1  0.45834900  0.04346600  0.74613300  1
  P  P13  1  0.74613300  0.45834900  0.04346600  1
  P  P14  1  0.04346600  0.74613300  0.45834900  1
  P  P15  1  0.25386700  0.54165100  0.95653400  1
  O  O16  1  0.54274000  0.15275200  0.20916500  1
  O  O17  1  0.16760000  0.53153900  0.49847300  1
  O  O18  1  0.87043800  0.25354400  0.13846600  1
  O  O19  1  0.60769300  0.01048200  0.80523000  1
  O  O20  1  0.46846100  0.50152700  0.83240000  1
  O  O21  1  0.74645600  0.86153400  0.12956200  1
  O  O22  1  0.15275200  0.20916500  0.54274000  1
  O  O23  1  0.98951800  0.19477000  0.39230700  1
  O  O24  1  0.49847300  0.16760000  0.53153900  1
  O  O25  1  0.79083500  0.45726000  0.84724800  1
  O  O26  1  0.13846600  0.87043800  0.25354400  1
  O  O27  1  0.86153400  0.12956200  0.74645600  1
  O  O28  1  0.53153900  0.49847300  0.16760000  1
  O  O29  1  0.80523000  0.60769300  0.01048200  1
  O  O30  1  0.19477000  0.39230700  0.98951800  1
  O  O31  1  0.50152700  0.83240000  0.46846200  1
  O  O32  1  0.45726000  0.84724800  0.79083500  1
  O  O33  1  0.12956200  0.74645600  0.86153400  1
  O  O34  1  0.25354400  0.13846600  0.87043800  1
  O  O35  1  0.01048200  0.80523000  0.60769300  1
  O  O36  1  0.39230700  0.98951800  0.19477000  1
  O  O37  1  0.20916500  0.54274000  0.15275200  1
  O  O38  1  0.83240000  0.46846100  0.50152700  1
  O  O39  1  0.84724800  0.79083500  0.45726000  1
