# generated using pymatgen
data_LiCoP2O7
_symmetry_space_group_name_H-M   'P 1'
_cell_length_a   8.01688400
_cell_length_b   6.80247500
_cell_length_c   9.51133993
_cell_angle_alpha   70.82634514
_cell_angle_beta   90.00000000
_cell_angle_gamma   90.00000000
_symmetry_Int_Tables_number   1
_chemical_formula_structural   LiCoP2O7
_chemical_formula_sum   'Li4 Co4 P8 O28'
_cell_volume   489.92416181
_cell_formula_units_Z   4
loop_
 _symmetry_equiv_pos_site_id
 _symmetry_equiv_pos_as_xyz
  1  'x, y, z'
loop_
 _atom_site_type_symbol
 _atom_site_label
 _atom_site_symmetry_multiplicity
 _atom_site_fract_x
 _atom_site_fract_y
 _atom_site_fract_z
 _atom_site_occupancy
  Li  Li0  1  0.87495800  0.20477500  0.46294300  1
  Li  Li1  1  0.62504200  0.20477500  0.96294300  1
  Li  Li2  1  0.37495800  0.79522500  0.03705700  1
  Li  Li3  1  0.12504200  0.79522500  0.53705700  1
  Co  Co4  1  0.22475800  0.28144200  0.00402700  1
  Co  Co5  1  0.27524200  0.28144200  0.50402700  1
  Co  Co6  1  0.72475800  0.71855800  0.49597300  1
  Co  Co7  1  0.77524200  0.71855800  0.99597300  1
  P  P8  1  0.41587200  0.53357100  0.70453400  1
  P  P9  1  0.91587200  0.46642900  0.79546600  1
  P  P10  1  0.08412800  0.53357100  0.20453400  1
  P  P11  1  0.46238600  0.05425700  0.29481300  1
  P  P12  1  0.96238500  0.94574300  0.20518700  1
  P  P13  1  0.58412800  0.46642900  0.29546600  1
  P  P14  1  0.03761400  0.05425700  0.79481300  1
  P  P15  1  0.53761400  0.94574300  0.70518700  1
  O  O16  1  0.68164800  0.93852900  0.60144000  1
  O  O17  1  0.08722800  0.08970800  0.63206900  1
  O  O18  1  0.58722800  0.91029200  0.86793100  1
  O  O19  1  0.76618300  0.48790100  0.88938600  1
  O  O20  1  0.26618300  0.51209900  0.61061400  1
  O  O21  1  0.10273400  0.77036800  0.20871700  1
  O  O22  1  0.60273400  0.22963200  0.29128300  1
  O  O23  1  0.91391700  0.61171200  0.63191400  1
  O  O24  1  0.56193400  0.85127300  0.35214200  1
  O  O25  1  0.39726600  0.77036800  0.70871700  1
  O  O26  1  0.41277200  0.08970800  0.13206900  1
  O  O27  1  0.18164800  0.06147100  0.89856000  1
  O  O28  1  0.58460000  0.51931000  0.63635100  1
  O  O29  1  0.08608300  0.38828800  0.36808600  1
  O  O30  1  0.89726600  0.22963200  0.79128300  1
  O  O31  1  0.23381700  0.51209900  0.11061400  1
  O  O32  1  0.08460000  0.48069000  0.86364900  1
  O  O33  1  0.93806600  0.85127300  0.85214200  1
  O  O34  1  0.43806600  0.14872700  0.64785800  1
  O  O35  1  0.81835200  0.93852900  0.10144000  1
  O  O36  1  0.91540000  0.51931000  0.13635100  1
  O  O37  1  0.73381700  0.48790100  0.38938600  1
  O  O38  1  0.41540000  0.48069000  0.36364900  1
  O  O39  1  0.41391700  0.38828800  0.86808600  1
  O  O40  1  0.31835200  0.06147100  0.39856000  1
  O  O41  1  0.91277200  0.91029200  0.36793100  1
  O  O42  1  0.58608300  0.61171200  0.13191400  1
  O  O43  1  0.06193400  0.14872700  0.14785800  1
