# generated using pymatgen
data_LiCrPO5
_symmetry_space_group_name_H-M   'P 1'
_cell_length_a   6.37791900
_cell_length_b   7.01034400
_cell_length_c   7.46424900
_cell_angle_alpha   90.00000000
_cell_angle_beta   90.00000000
_cell_angle_gamma   90.00000000
_symmetry_Int_Tables_number   1
_chemical_formula_structural   LiCrPO5
_chemical_formula_sum   'Li4 Cr4 P4 O20'
_cell_volume   333.73706897
_cell_formula_units_Z   4
loop_
 _symmetry_equiv_pos_site_id
 _symmetry_equiv_pos_as_xyz
  1  'x, y, z'
loop_
 _atom_site_type_symbol
 _atom_site_label
 _atom_site_symmetry_multiplicity
 _atom_site_fract_x
 _atom_site_fract_y
 _atom_site_fract_z
 _atom_site_occupancy
  Li  Li0  1  0.00000000  0.00000000  0.00000000  1
  Li  Li1  1  0.50000000  0.50000000  0.50000000  1
  Li  Li2  1  0.00000000  0.50000000  0.50000000  1
  Li  Li3  1  0.50000000  0.00000000  0.00000000  1
  Cr  Cr4  1  0.75000000  0.86433800  0.27083200  1
  Cr  Cr5  1  0.25000000  0.63566200  0.77083200  1
  Cr  Cr6  1  0.75000000  0.36433800  0.22916800  1
  Cr  Cr7  1  0.25000000  0.13566200  0.72916800  1
  P  P8  1  0.75000000  0.12641500  0.62497200  1
  P  P9  1  0.25000000  0.37358500  0.12497200  1
  P  P10  1  0.75000000  0.62641500  0.87502800  1
  P  P11  1  0.25000000  0.87358500  0.37502800  1
  O  O12  1  0.25000000  0.38870100  0.68673800  1
  O  O13  1  0.05807400  0.87187000  0.24813800  1
  O  O14  1  0.44192600  0.87187000  0.24813800  1
  O  O15  1  0.25000000  0.88870100  0.81326200  1
  O  O16  1  0.25000000  0.05847600  0.48854600  1
  O  O17  1  0.75000000  0.11129900  0.18673800  1
  O  O18  1  0.55807400  0.12813000  0.75186200  1
  O  O19  1  0.94192600  0.12813000  0.75186200  1
  O  O20  1  0.25000000  0.19297600  0.00331700  1
  O  O21  1  0.75000000  0.80702400  0.99668300  1
  O  O22  1  0.05807400  0.37187000  0.25186200  1
  O  O23  1  0.44192600  0.37187000  0.25186200  1
  O  O24  1  0.75000000  0.30702400  0.50331700  1
  O  O25  1  0.75000000  0.44152400  0.98854600  1
  O  O26  1  0.25000000  0.55847600  0.01145400  1
  O  O27  1  0.75000000  0.61129900  0.31326200  1
  O  O28  1  0.55807400  0.62813000  0.74813800  1
  O  O29  1  0.94192600  0.62813000  0.74813800  1
  O  O30  1  0.25000000  0.69297600  0.49668300  1
  O  O31  1  0.75000000  0.94152400  0.51145400  1
