# generated using pymatgen
data_Li7Fe4P9O32
_symmetry_space_group_name_H-M   'P 1'
_cell_length_a   13.85717700
_cell_length_b   13.85717700
_cell_length_c   6.38794800
_cell_angle_alpha   90.00000000
_cell_angle_beta   90.00000000
_cell_angle_gamma   90.00000000
_symmetry_Int_Tables_number   1
_chemical_formula_structural   Li7Fe4P9O32
_chemical_formula_sum   'Li14 Fe8 P18 O64'
_cell_volume   1226.62242686
_cell_formula_units_Z   2
loop_
 _symmetry_equiv_pos_site_id
 _symmetry_equiv_pos_as_xyz
  1  'x, y, z'
loop_
 _atom_site_type_symbol
 _atom_site_label
 _atom_site_symmetry_multiplicity
 _atom_site_fract_x
 _atom_site_fract_y
 _atom_site_fract_z
 _atom_site_occupancy
  Li  Li0  1  0.00000000  0.00000000  0.00000000  1
  Li  Li1  1  0.50000000  0.00000000  0.13386800  1
  Li  Li2  1  0.50000000  0.00000000  0.63386800  1
  Li  Li3  1  0.74464200  0.10648100  0.81202100  1
  Li  Li4  1  0.60648100  0.24464200  0.31202100  1
  Li  Li5  1  0.10648100  0.25535800  0.18797900  1
  Li  Li6  1  0.24464200  0.39351900  0.68797900  1
  Li  Li7  1  0.00000000  0.50000000  0.36613200  1
  Li  Li8  1  0.00000000  0.50000000  0.86613200  1
  Li  Li9  1  0.50000000  0.50000000  0.50000000  1
  Li  Li10  1  0.75535800  0.60648100  0.68797900  1
  Li  Li11  1  0.89351900  0.74464200  0.18797900  1
  Li  Li12  1  0.39351900  0.75535800  0.31202100  1
  Li  Li13  1  0.25535800  0.89351900  0.81202100  1
  Fe  Fe14  1  0.19676800  0.12109500  0.62358100  1
  Fe  Fe15  1  0.87890500  0.19676800  0.37641900  1
  Fe  Fe16  1  0.37890500  0.30323200  0.12358100  1
  Fe  Fe17  1  0.69676800  0.37890500  0.87641900  1
  Fe  Fe18  1  0.30323200  0.62109500  0.87641900  1
  Fe  Fe19  1  0.62109500  0.69676800  0.12358100  1
  Fe  Fe20  1  0.12109500  0.80323200  0.37641900  1
  Fe  Fe21  1  0.80323200  0.87890500  0.62358100  1
  P  P22  1  0.00000000  0.00000000  0.50000000  1
  P  P23  1  0.69206000  0.05999500  0.38335900  1
  P  P24  1  0.24690100  0.10733600  0.13354000  1
  P  P25  1  0.55999500  0.19206000  0.88335900  1
  P  P26  1  0.89266400  0.24690100  0.86646000  1
  P  P27  1  0.39266400  0.25309900  0.63354000  1
  P  P28  1  0.05999500  0.30794000  0.61664100  1
  P  P29  1  0.74690100  0.39266400  0.36646000  1
  P  P30  1  0.19206000  0.44000500  0.11664100  1
  P  P31  1  0.50000000  0.50000000  0.00000000  1
  P  P32  1  0.80794000  0.55999500  0.11664100  1
  P  P33  1  0.25309900  0.60733600  0.36646000  1
  P  P34  1  0.94000500  0.69206000  0.61664100  1
  P  P35  1  0.60733600  0.74690100  0.63354000  1
  P  P36  1  0.10733600  0.75309900  0.86646000  1
  P  P37  1  0.44000500  0.80794000  0.88335900  1
  P  P38  1  0.75309900  0.89266400  0.13354000  1
  P  P39  1  0.30794000  0.94000500  0.38335900  1
  O  O40  1  0.72869600  0.00554700  0.17040500  1
  O  O41  1  0.74212500  0.01307200  0.57311600  1
  O  O42  1  0.58303500  0.05662300  0.38556600  1
  O  O43  1  0.06500100  0.06046200  0.64916100  1
  O  O44  1  0.93953800  0.06500100  0.35083900  1
  O  O45  1  0.55662300  0.08303500  0.88556600  1
  O  O46  1  0.18798200  0.10648100  0.93238100  1
  O  O47  1  0.17998500  0.13995700  0.31230700  1
  O  O48  1  0.33811900  0.15818100  0.62438000  1
  O  O49  1  0.34181900  0.16188100  0.12438000  1
  O  O50  1  0.73044200  0.16375000  0.35256100  1
  O  O51  1  0.86004300  0.17998500  0.68769300  1
  O  O52  1  0.89351900  0.18798200  0.06761900  1
  O  O53  1  0.50554700  0.22869600  0.67040500  1
  O  O54  1  0.66375000  0.23044200  0.85256100  1
  O  O55  1  0.51307200  0.24212500  0.07311600  1
  O  O56  1  0.01307200  0.25787500  0.42688400  1
  O  O57  1  0.16375000  0.26955800  0.64743900  1
  O  O58  1  0.00554700  0.27130400  0.82959500  1
  O  O59  1  0.39351900  0.31201800  0.43238100  1
  O  O60  1  0.36004300  0.32001500  0.81230700  1
  O  O61  1  0.23044200  0.33625000  0.14743900  1
  O  O62  1  0.84181900  0.33811900  0.37562000  1
  O  O63  1  0.83811900  0.34181900  0.87562000  1
  O  O64  1  0.67998500  0.36004300  0.18769300  1
  O  O65  1  0.68798200  0.39351900  0.56761900  1
  O  O66  1  0.05662300  0.41696500  0.61443400  1
  O  O67  1  0.43953800  0.43499900  0.14916100  1
  O  O68  1  0.56500100  0.43953800  0.85083900  1
  O  O69  1  0.08303500  0.44337700  0.11443400  1
  O  O70  1  0.24212500  0.48692800  0.92688400  1
  O  O71  1  0.22869600  0.49445300  0.32959500  1
  O  O72  1  0.77130400  0.50554700  0.32959500  1
  O  O73  1  0.75787500  0.51307200  0.92688400  1
  O  O74  1  0.91696500  0.55662300  0.11443400  1
  O  O75  1  0.43499900  0.56046200  0.85083900  1
  O  O76  1  0.56046200  0.56500100  0.14916100  1
  O  O77  1  0.94337700  0.58303500  0.61443400  1
  O  O78  1  0.31201800  0.60648100  0.56761900  1
  O  O79  1  0.32001500  0.63995700  0.18769300  1
  O  O80  1  0.16188100  0.65818100  0.87562000  1
  O  O81  1  0.15818100  0.66188100  0.37562000  1
  O  O82  1  0.76955800  0.66375000  0.14743900  1
  O  O83  1  0.63995700  0.67998500  0.81230700  1
  O  O84  1  0.60648100  0.68798200  0.43238100  1
  O  O85  1  0.99445300  0.72869600  0.82959500  1
  O  O86  1  0.83625000  0.73044200  0.64743900  1
  O  O87  1  0.98692800  0.74212500  0.42688400  1
  O  O88  1  0.48692800  0.75787500  0.07311600  1
  O  O89  1  0.33625000  0.76955800  0.85256100  1
  O  O90  1  0.49445300  0.77130400  0.67040500  1
  O  O91  1  0.10648100  0.81201800  0.06761900  1
  O  O92  1  0.13995700  0.82001500  0.68769300  1
  O  O93  1  0.26955800  0.83625000  0.35256100  1
  O  O94  1  0.65818100  0.83811900  0.12438000  1
  O  O95  1  0.66188100  0.84181900  0.62438000  1
  O  O96  1  0.82001500  0.86004300  0.31230700  1
  O  O97  1  0.81201800  0.89351900  0.93238100  1
  O  O98  1  0.44337700  0.91696500  0.88556600  1
  O  O99  1  0.06046200  0.93499900  0.35083900  1
  O  O100  1  0.93499900  0.93953800  0.64916100  1
  O  O101  1  0.41696500  0.94337700  0.38556600  1
  O  O102  1  0.25787500  0.98692800  0.57311600  1
  O  O103  1  0.27130400  0.99445300  0.17040500  1
