# generated using pymatgen
data_RbLiO
_symmetry_space_group_name_H-M   'P 1'
_cell_length_a   3.55986700
_cell_length_b   6.60523300
_cell_length_c   9.11751400
_cell_angle_alpha   90.00000000
_cell_angle_beta   90.00000000
_cell_angle_gamma   90.00000000
_symmetry_Int_Tables_number   1
_chemical_formula_structural   RbLiO
_chemical_formula_sum   'Rb4 Li4 O4'
_cell_volume   214.38695379
_cell_formula_units_Z   4
loop_
 _symmetry_equiv_pos_site_id
 _symmetry_equiv_pos_as_xyz
  1  'x, y, z'
loop_
 _atom_site_type_symbol
 _atom_site_label
 _atom_site_symmetry_multiplicity
 _atom_site_fract_x
 _atom_site_fract_y
 _atom_site_fract_z
 _atom_site_occupancy
  Rb  Rb0  1  0.25000000  0.99576300  0.82297900  1
  Rb  Rb1  1  0.75000000  0.00423700  0.17702100  1
  Rb  Rb2  1  0.25000000  0.49576300  0.67702100  1
  Rb  Rb3  1  0.75000000  0.50423700  0.32297900  1
  Li  Li4  1  0.75000000  0.89756300  0.49733400  1
  Li  Li5  1  0.25000000  0.60243700  0.99733400  1
  Li  Li6  1  0.75000000  0.39756300  0.00266600  1
  Li  Li7  1  0.25000000  0.10243700  0.50266600  1
  O  O8  1  0.25000000  0.81082600  0.45326900  1
  O  O9  1  0.75000000  0.68917400  0.95326900  1
  O  O10  1  0.25000000  0.31082600  0.04673100  1
  O  O11  1  0.75000000  0.18917400  0.54673100  1
