# generated using pymatgen
data_Li2CrP2O7
_symmetry_space_group_name_H-M   'P 1'
_cell_length_a   5.61560982
_cell_length_b   7.55260247
_cell_length_c   13.51969753
_cell_angle_alpha   86.72719643
_cell_angle_beta   90.66849873
_cell_angle_gamma   90.39917877
_symmetry_Int_Tables_number   1
_chemical_formula_structural   Li2CrP2O7
_chemical_formula_sum   'Li8 Cr4 P8 O28'
_cell_volume   572.41817476
_cell_formula_units_Z   4
loop_
 _symmetry_equiv_pos_site_id
 _symmetry_equiv_pos_as_xyz
  1  'x, y, z'
loop_
 _atom_site_type_symbol
 _atom_site_label
 _atom_site_symmetry_multiplicity
 _atom_site_fract_x
 _atom_site_fract_y
 _atom_site_fract_z
 _atom_site_occupancy
  Li  Li0  1  0.49999800  0.56931800  0.14355400  1
  Li  Li1  1  0.50000000  0.06931000  0.64356900  1
  Li  Li2  1  0.50000000  0.93068800  0.35643700  1
  Li  Li3  1  0.50000600  0.43069100  0.85644700  1
  Li  Li4  1  0.00000100  0.57038900  0.14319100  1
  Li  Li5  1  0.99999900  0.07038100  0.64320500  1
  Li  Li6  1  0.00000000  0.92961300  0.35680100  1
  Li  Li7  1  0.99999100  0.42962400  0.85680900  1
  Cr  Cr8  1  0.75952800  0.64935400  0.64936100  1
  Cr  Cr9  1  0.24042300  0.35057400  0.35056900  1
  Cr  Cr10  1  0.75953300  0.14938800  0.14940400  1
  Cr  Cr11  1  0.24048000  0.85064000  0.85063100  1
  P  P12  1  0.74360900  0.56815600  0.34582700  1
  P  P13  1  0.74362700  0.06817300  0.84585200  1
  P  P14  1  0.25639300  0.26536400  0.04300300  1
  P  P15  1  0.25639400  0.76535100  0.54301100  1
  P  P16  1  0.74359400  0.23464700  0.45698700  1
  P  P17  1  0.74361600  0.73464300  0.95699900  1
  P  P18  1  0.25638200  0.93183400  0.15415100  1
  P  P19  1  0.25638300  0.43183700  0.65417100  1
  O  O20  1  0.74772000  0.45243200  0.45243600  1
  O  O21  1  0.74772100  0.95242900  0.95246100  1
  O  O22  1  0.25228400  0.04757300  0.04753900  1
  O  O23  1  0.25227800  0.54756800  0.54756500  1
  O  O24  1  0.03383500  0.32071300  0.10009300  1
  O  O25  1  0.03383000  0.82071400  0.60009300  1
  O  O26  1  0.96615500  0.17927400  0.39990500  1
  O  O27  1  0.96618500  0.67929300  0.89991700  1
  O  O28  1  0.96618600  0.51023300  0.28960000  1
  O  O29  1  0.96619400  0.01025100  0.78962000  1
  O  O30  1  0.03382000  0.98975600  0.21038600  1
  O  O31  1  0.03380900  0.48977100  0.71039500  1
  O  O32  1  0.48667300  0.31897600  0.09801600  1
  O  O33  1  0.48666200  0.81897300  0.59802900  1
  O  O34  1  0.51332600  0.51248200  0.29150100  1
  O  O35  1  0.51334200  0.01250700  0.79152200  1
  O  O36  1  0.51333500  0.18102600  0.40196600  1
  O  O37  1  0.51333900  0.68103100  0.90198700  1
  O  O38  1  0.48666200  0.98750200  0.20848300  1
  O  O39  1  0.48667100  0.48751100  0.70849700  1
  O  O40  1  0.25131200  0.82371300  0.43468300  1
  O  O41  1  0.25129400  0.32371400  0.93467200  1
  O  O42  1  0.74869700  0.75984100  0.37079000  1
  O  O43  1  0.74869800  0.25985100  0.87082300  1
  O  O44  1  0.74870200  0.67629000  0.06533100  1
  O  O45  1  0.74870200  0.17629100  0.56531600  1
  O  O46  1  0.25130400  0.74015500  0.12918400  1
  O  O47  1  0.25130400  0.24015300  0.62920800  1
