# generated using pymatgen
data_Li7Mo4P9O32
_symmetry_space_group_name_H-M   'P 1'
_cell_length_a   14.13153600
_cell_length_b   14.13153600
_cell_length_c   6.60343400
_cell_angle_alpha   90.00000000
_cell_angle_beta   90.00000000
_cell_angle_gamma   90.00000000
_symmetry_Int_Tables_number   1
_chemical_formula_structural   Li7Mo4P9O32
_chemical_formula_sum   'Li14 Mo8 P18 O64'
_cell_volume   1318.70781501
_cell_formula_units_Z   2
loop_
 _symmetry_equiv_pos_site_id
 _symmetry_equiv_pos_as_xyz
  1  'x, y, z'
loop_
 _atom_site_type_symbol
 _atom_site_label
 _atom_site_symmetry_multiplicity
 _atom_site_fract_x
 _atom_site_fract_y
 _atom_site_fract_z
 _atom_site_occupancy
  Li  Li0  1  0.00000000  0.00000000  0.00000000  1
  Li  Li1  1  0.50000000  0.00000000  0.13213600  1
  Li  Li2  1  0.50000000  0.00000000  0.63213600  1
  Li  Li3  1  0.74557600  0.11183200  0.79706100  1
  Li  Li4  1  0.61183200  0.24557600  0.29706100  1
  Li  Li5  1  0.11183200  0.25442400  0.20293900  1
  Li  Li6  1  0.24557600  0.38816800  0.70293900  1
  Li  Li7  1  0.00000000  0.50000000  0.36786400  1
  Li  Li8  1  0.00000000  0.50000000  0.86786400  1
  Li  Li9  1  0.50000000  0.50000000  0.50000000  1
  Li  Li10  1  0.75442400  0.61183200  0.70293900  1
  Li  Li11  1  0.88816800  0.74557600  0.20293900  1
  Li  Li12  1  0.38816800  0.75442400  0.29706100  1
  Li  Li13  1  0.25442400  0.88816800  0.79706100  1
  Mo  Mo14  1  0.19874400  0.12098100  0.61856100  1
  Mo  Mo15  1  0.87901900  0.19874400  0.38143900  1
  Mo  Mo16  1  0.37901900  0.30125600  0.11856100  1
  Mo  Mo17  1  0.69874400  0.37901900  0.88143900  1
  Mo  Mo18  1  0.30125600  0.62098100  0.88143900  1
  Mo  Mo19  1  0.62098100  0.69874400  0.11856100  1
  Mo  Mo20  1  0.12098100  0.80125600  0.38143900  1
  Mo  Mo21  1  0.80125600  0.87901900  0.61856100  1
  P  P22  1  0.30974100  0.93961000  0.38325700  1
  P  P23  1  0.75217600  0.89782600  0.12845000  1
  P  P24  1  0.43961000  0.80974100  0.88325700  1
  P  P25  1  0.10217400  0.75217600  0.87155000  1
  P  P26  1  0.60217400  0.74782400  0.62845000  1
  P  P27  1  0.93961000  0.69025900  0.61674300  1
  P  P28  1  0.25217600  0.60217400  0.37155000  1
  P  P29  1  0.80974100  0.56039000  0.11674300  1
  P  P30  1  0.00000000  0.00000000  0.50000000  1
  P  P31  1  0.69025900  0.06039000  0.38325700  1
  P  P32  1  0.24782400  0.10217400  0.12845000  1
  P  P33  1  0.56039000  0.19025900  0.88325700  1
  P  P34  1  0.89782600  0.24782400  0.87155000  1
  P  P35  1  0.50000000  0.50000000  0.00000000  1
  P  P36  1  0.06039000  0.30974100  0.61674300  1
  P  P37  1  0.74782400  0.39782600  0.37155000  1
  P  P38  1  0.19025900  0.43961000  0.11674300  1
  P  P39  1  0.39782600  0.25217600  0.62845000  1
  O  O40  1  0.91644300  0.55417300  0.11489500  1
  O  O41  1  0.25963500  0.98136600  0.57124400  1
  O  O42  1  0.06293600  0.94035800  0.35481800  1
  O  O43  1  0.41644300  0.94582700  0.38510500  1
  O  O44  1  0.94035800  0.93706400  0.64518200  1
  O  O45  1  0.44582700  0.91644300  0.88510500  1
  O  O46  1  0.81051300  0.90478400  0.93548600  1
  O  O47  1  0.65811600  0.84660500  0.10955500  1
  O  O48  1  0.72940700  0.00701400  0.18159200  1
  O  O49  1  0.74036500  0.01863400  0.57124400  1
  O  O50  1  0.93706400  0.05964200  0.35481800  1
  O  O51  1  0.58355700  0.05417300  0.38510500  1
  O  O52  1  0.05964200  0.06293600  0.64518200  1
  O  O53  1  0.55417300  0.08355700  0.88510500  1
  O  O54  1  0.18948700  0.09521600  0.93548600  1
  O  O55  1  0.18389500  0.14183300  0.29744600  1
  O  O56  1  0.34188400  0.15339500  0.10955500  1
  O  O57  1  0.34660500  0.15811600  0.60955500  1
  O  O58  1  0.72629300  0.16285300  0.35061700  1
  O  O59  1  0.85816700  0.18389500  0.70255400  1
  O  O60  1  0.90478400  0.18948700  0.06451400  1
  O  O61  1  0.66285300  0.22629300  0.85061700  1
  O  O62  1  0.50701400  0.22940700  0.68159200  1
  O  O63  1  0.51863400  0.24036500  0.07124400  1
  O  O64  1  0.01863400  0.25963500  0.42875600  1
  O  O65  1  0.00701400  0.27059300  0.81840800  1
  O  O66  1  0.16285300  0.27370700  0.64938300  1
  O  O67  1  0.40478400  0.31051300  0.43548600  1
  O  O68  1  0.35816700  0.31610500  0.79744600  1
  O  O69  1  0.22629300  0.33714700  0.14938300  1
  O  O70  1  0.84660500  0.34188400  0.89044500  1
  O  O71  1  0.84188400  0.34660500  0.39044500  1
  O  O72  1  0.68389500  0.35816700  0.20255400  1
  O  O73  1  0.68948700  0.40478400  0.56451400  1
  O  O74  1  0.05417300  0.41644300  0.61489500  1
  O  O75  1  0.55964200  0.43706400  0.85481800  1
  O  O76  1  0.08355700  0.44582700  0.11489500  1
  O  O77  1  0.43706400  0.44035800  0.14518200  1
  O  O78  1  0.24036500  0.48136600  0.92875600  1
  O  O79  1  0.22940700  0.49298600  0.31840800  1
  O  O80  1  0.77059300  0.50701400  0.31840800  1
  O  O81  1  0.75963500  0.51863400  0.92875600  1
  O  O82  1  0.56293600  0.55964200  0.14518200  1
  O  O83  1  0.27059300  0.99298600  0.18159200  1
  O  O84  1  0.44035800  0.56293600  0.85481800  1
  O  O85  1  0.94582700  0.58355700  0.61489500  1
  O  O86  1  0.31051300  0.59521600  0.56451400  1
  O  O87  1  0.31610500  0.64183300  0.20255400  1
  O  O88  1  0.15811600  0.65339500  0.39044500  1
  O  O89  1  0.15339500  0.65811600  0.89044500  1
  O  O90  1  0.77370700  0.66285300  0.14938300  1
  O  O91  1  0.64183300  0.68389500  0.79744600  1
  O  O92  1  0.59521600  0.68948700  0.43548600  1
  O  O93  1  0.83714700  0.72629300  0.64938300  1
  O  O94  1  0.99298600  0.72940700  0.81840800  1
  O  O95  1  0.98136600  0.74036500  0.42875600  1
  O  O96  1  0.48136600  0.75963500  0.07124400  1
  O  O97  1  0.49298600  0.77059300  0.68159200  1
  O  O98  1  0.33714700  0.77370700  0.85061700  1
  O  O99  1  0.09521600  0.81051300  0.06451400  1
  O  O100  1  0.14183300  0.81610500  0.70255400  1
  O  O101  1  0.27370700  0.83714700  0.35061700  1
  O  O102  1  0.65339500  0.84188400  0.60955500  1
  O  O103  1  0.81610500  0.85816700  0.29744600  1
