# generated using pymatgen
data_Li15Bi4(PdO10)2
_symmetry_space_group_name_H-M   'P 1'
_cell_length_a   5.40338500
_cell_length_b   8.12177730
_cell_length_c   11.21643251
_cell_angle_alpha   92.62260832
_cell_angle_beta   103.54695293
_cell_angle_gamma   104.35544543
_symmetry_Int_Tables_number   1
_chemical_formula_structural   Li15Bi4(PdO10)2
_chemical_formula_sum   'Li15 Bi4 Pd2 O20'
_cell_volume   460.77150647
_cell_formula_units_Z   1
loop_
 _symmetry_equiv_pos_site_id
 _symmetry_equiv_pos_as_xyz
  1  'x, y, z'
loop_
 _atom_site_type_symbol
 _atom_site_label
 _atom_site_symmetry_multiplicity
 _atom_site_fract_x
 _atom_site_fract_y
 _atom_site_fract_z
 _atom_site_occupancy
  Li  Li0  1  0.51283400  0.95932300  0.39268300  1
  Li  Li1  1  0.46520200  0.87388400  0.08871000  1
  Li  Li2  1  0.02085000  0.81437200  0.45945500  1
  Li  Li3  1  0.01810600  0.72605700  0.19928200  1
  Li  Li4  1  0.48259700  0.04064900  0.61856600  1
  Li  Li5  1  0.52611700  0.11642700  0.89946000  1
  Li  Li6  1  0.97259700  0.18891900  0.54347500  1
  Li  Li7  1  0.98330800  0.26938900  0.79599900  1
  Li  Li8  1  0.52088600  0.22696100  0.19838900  1
  Li  Li9  1  0.99115400  0.55087600  0.61666200  1
  Li  Li10  1  0.53276100  0.30950200  0.46324300  1
  Li  Li11  1  0.04865000  0.62764700  0.90005100  1
  Li  Li12  1  0.96776900  0.37538500  0.09085800  1
  Li  Li13  1  0.45865800  0.69709800  0.54448800  1
  Li  Li14  1  0.01373600  0.45965400  0.39110200  1
  Bi  Bi15  1  0.50313400  0.59201600  0.28052400  1
  Bi  Bi16  1  0.99832000  0.90322100  0.72044900  1
  Bi  Bi17  1  0.50067400  0.41205900  0.72150800  1
  Bi  Bi18  1  0.00151000  0.09328400  0.27950500  1
  Pd  Pd19  1  0.49894700  0.49424200  0.00136800  1
  Pd  Pd20  1  0.99796500  0.00512500  0.99956700  1
  O  O21  1  0.21780100  0.89945300  0.91375300  1
  O  O22  1  0.21414400  0.98090700  0.16446100  1
  O  O23  1  0.25107000  0.06663500  0.44330800  1
  O  O24  1  0.74217500  0.93482800  0.55744700  1
  O  O25  1  0.80243900  0.03512800  0.83534600  1
  O  O26  1  0.75168700  0.56149500  0.44309300  1
  O  O27  1  0.25461800  0.16015500  0.73484800  1
  O  O28  1  0.77097100  0.10686100  0.09139100  1
  O  O29  1  0.26879800  0.49494200  0.83782800  1
  O  O30  1  0.75866200  0.19996600  0.35955300  1
  O  O31  1  0.73251900  0.29400700  0.64023900  1
  O  O32  1  0.72363400  0.48366300  0.16709800  1
  O  O33  1  0.72399700  0.39417500  0.91186100  1
  O  O34  1  0.79990200  0.64448500  0.73352000  1
  O  O35  1  0.24952100  0.33524500  0.25511300  1
  O  O36  1  0.27723600  0.60375600  0.09060300  1
  O  O37  1  0.24780600  0.44069300  0.55776100  1
  O  O38  1  0.25843500  0.70024200  0.35817700  1
  O  O39  1  0.23086000  0.80650500  0.62914000  1
  O  O40  1  0.75149200  0.83563800  0.25826600  1
