# generated using pymatgen
data_LiCoP2O7
_symmetry_space_group_name_H-M   'P 1'
_cell_length_a   4.92656200
_cell_length_b   8.20490100
_cell_length_c   12.99685267
_cell_angle_alpha   64.32786503
_cell_angle_beta   90.00000000
_cell_angle_gamma   90.00000000
_symmetry_Int_Tables_number   1
_chemical_formula_structural   LiCoP2O7
_chemical_formula_sum   'Li4 Co4 P8 O28'
_cell_volume   473.49892298
_cell_formula_units_Z   4
loop_
 _symmetry_equiv_pos_site_id
 _symmetry_equiv_pos_as_xyz
  1  'x, y, z'
loop_
 _atom_site_type_symbol
 _atom_site_label
 _atom_site_symmetry_multiplicity
 _atom_site_fract_x
 _atom_site_fract_y
 _atom_site_fract_z
 _atom_site_occupancy
  Li  Li0  1  0.22852500  0.56944700  0.79734400  1
  Li  Li1  1  0.27147500  0.56944700  0.29734400  1
  Li  Li2  1  0.72852500  0.43055300  0.70265600  1
  Li  Li3  1  0.77147500  0.43055300  0.20265600  1
  Co  Co4  1  0.26197900  0.72666700  0.53483700  1
  Co  Co5  1  0.76197900  0.27333300  0.96516300  1
  Co  Co6  1  0.73802100  0.27333300  0.46516300  1
  Co  Co7  1  0.23802100  0.72666700  0.03483700  1
  P  P8  1  0.76888000  0.69480600  0.38641600  1
  P  P9  1  0.25941100  0.16291200  0.36110200  1
  P  P10  1  0.26888000  0.30519400  0.11358400  1
  P  P11  1  0.24058900  0.16291200  0.86110200  1
  P  P12  1  0.23112000  0.30519400  0.61358400  1
  P  P13  1  0.73112000  0.69480600  0.88641600  1
  P  P14  1  0.74058900  0.83708800  0.63889800  1
  P  P15  1  0.75941100  0.83708800  0.13889800  1
  O  O16  1  0.66561400  0.52494300  0.37481000  1
  O  O17  1  0.83438600  0.52494300  0.87481000  1
  O  O18  1  0.78426700  0.85104300  0.75884800  1
  O  O19  1  0.89727000  0.75149100  0.96269300  1
  O  O20  1  0.28426700  0.14895700  0.74115200  1
  O  O21  1  0.44699700  0.30654400  0.86288000  1
  O  O22  1  0.95028200  0.24540700  0.84393200  1
  O  O23  1  0.71573300  0.85104300  0.25884800  1
  O  O24  1  0.55300300  0.69345600  0.13712000  1
  O  O25  1  0.21404400  0.97854700  0.45347200  1
  O  O26  1  0.71404400  0.02145300  0.04652800  1
  O  O27  1  0.92538900  0.31733400  0.58630700  1
  O  O28  1  0.78595600  0.02145300  0.54652800  1
  O  O29  1  0.39727000  0.24850900  0.53730700  1
  O  O30  1  0.57461100  0.31733400  0.08630700  1
  O  O31  1  0.94699700  0.69345600  0.63712000  1
  O  O32  1  0.60273000  0.75149100  0.46269300  1
  O  O33  1  0.07461100  0.68266600  0.41369300  1
  O  O34  1  0.04971800  0.75459300  0.15606800  1
  O  O35  1  0.42538900  0.68266600  0.91369300  1
  O  O36  1  0.05300300  0.30654400  0.36288000  1
  O  O37  1  0.21573300  0.14895700  0.24115200  1
  O  O38  1  0.54971800  0.24540700  0.34393200  1
  O  O39  1  0.16561400  0.47505700  0.12519000  1
  O  O40  1  0.45028200  0.75459300  0.65606800  1
  O  O41  1  0.33438600  0.47505700  0.62519000  1
  O  O42  1  0.10273000  0.24850900  0.03730700  1
  O  O43  1  0.28595600  0.97854700  0.95347200  1
