# generated using pymatgen
data_Li2FeP2O7
_symmetry_space_group_name_H-M   'P 1'
_cell_length_a   5.04084460
_cell_length_b   14.29715651
_cell_length_c   8.93376291
_cell_angle_alpha   80.40520477
_cell_angle_beta   90.00620700
_cell_angle_gamma   89.99037380
_symmetry_Int_Tables_number   1
_chemical_formula_structural   Li2FeP2O7
_chemical_formula_sum   'Li8 Fe4 P8 O28'
_cell_volume   634.84723621
_cell_formula_units_Z   4
loop_
 _symmetry_equiv_pos_site_id
 _symmetry_equiv_pos_as_xyz
  1  'x, y, z'
loop_
 _atom_site_type_symbol
 _atom_site_label
 _atom_site_symmetry_multiplicity
 _atom_site_fract_x
 _atom_site_fract_y
 _atom_site_fract_z
 _atom_site_occupancy
  Li  Li0  1  0.10781000  0.94039900  0.61194000  1
  Li  Li1  1  0.60731200  0.44033800  0.11209200  1
  Li  Li2  1  0.39221600  0.55960400  0.88802100  1
  Li  Li3  1  0.89272200  0.05965300  0.38790900  1
  Li  Li4  1  0.60786000  0.05959400  0.88805500  1
  Li  Li5  1  0.10727500  0.55966900  0.38794500  1
  Li  Li6  1  0.89218500  0.44040300  0.61193700  1
  Li  Li7  1  0.39275900  0.94032600  0.11207300  1
  Fe  Fe8  1  0.25003100  0.74999700  0.24998600  1
  Fe  Fe9  1  0.75000300  0.24999900  0.24999700  1
  Fe  Fe10  1  0.74979500  0.25003600  0.74990500  1
  Fe  Fe11  1  0.24995200  0.75003100  0.75006100  1
  P  P12  1  0.11549200  0.14704800  0.03714600  1
  P  P13  1  0.61495300  0.64708300  0.53740900  1
  P  P14  1  0.38511700  0.14703700  0.53728600  1
  P  P15  1  0.88455100  0.64702700  0.03720900  1
  P  P16  1  0.38451100  0.35295000  0.46282200  1
  P  P17  1  0.88501300  0.85294200  0.96263100  1
  P  P18  1  0.11492400  0.35294400  0.96268800  1
  P  P19  1  0.61545900  0.85296300  0.46281200  1
  O  O20  1  0.23223000  0.24994500  0.50014200  1
  O  O21  1  0.73213100  0.75004400  0.99988300  1
  O  O22  1  0.26780700  0.25004400  0.99985100  1
  O  O23  1  0.76787000  0.74994600  0.50013300  1
  O  O24  1  0.97906100  0.35579600  0.80710000  1
  O  O25  1  0.47947400  0.85576800  0.30722500  1
  O  O26  1  0.52095600  0.14418500  0.69289500  1
  O  O27  1  0.02055100  0.64421400  0.19279600  1
  O  O28  1  0.97940100  0.14421600  0.19271000  1
  O  O29  1  0.47947800  0.64425400  0.69308500  1
  O  O30  1  0.52061900  0.35577800  0.30728200  1
  O  O31  1  0.02046400  0.85580700  0.80691600  1
  O  O32  1  0.32778500  0.42712700  0.96130200  1
  O  O33  1  0.82881900  0.92701200  0.46118000  1
  O  O34  1  0.32901100  0.07301900  0.03889500  1
  O  O35  1  0.82775800  0.57286800  0.53872900  1
  O  O36  1  0.17099600  0.42697200  0.46108800  1
  O  O37  1  0.67212500  0.92712500  0.96136100  1
  O  O38  1  0.17224600  0.07286100  0.53868300  1
  O  O39  1  0.67121600  0.57297300  0.03882300  1
  O  O40  1  0.09371400  0.85178000  0.08939300  1
  O  O41  1  0.59274500  0.35195200  0.58975100  1
  O  O42  1  0.40628100  0.64820300  0.41062600  1
  O  O43  1  0.90726400  0.14806700  0.91021700  1
  O  O44  1  0.40710100  0.85190100  0.58965800  1
  O  O45  1  0.90651800  0.35181900  0.08957000  1
  O  O46  1  0.09292800  0.64809600  0.91036500  1
  O  O47  1  0.59352100  0.14818000  0.41041700  1
