# generated using pymatgen
data_Li2VPCO7
_symmetry_space_group_name_H-M   'P 1'
_cell_length_a   6.40130900
_cell_length_b   9.68192667
_cell_length_c   10.06440463
_cell_angle_alpha   117.33684841
_cell_angle_beta   89.99999065
_cell_angle_gamma   90.00084946
_symmetry_Int_Tables_number   1
_chemical_formula_structural   Li2VPCO7
_chemical_formula_sum   'Li8 V4 P4 C4 O28'
_cell_volume   554.10124514
_cell_formula_units_Z   4
loop_
 _symmetry_equiv_pos_site_id
 _symmetry_equiv_pos_as_xyz
  1  'x, y, z'
loop_
 _atom_site_type_symbol
 _atom_site_label
 _atom_site_symmetry_multiplicity
 _atom_site_fract_x
 _atom_site_fract_y
 _atom_site_fract_z
 _atom_site_occupancy
  Li  Li0  1  0.00310500  0.78306200  0.77829800  1
  Li  Li1  1  0.00322100  0.78318500  0.27847400  1
  Li  Li2  1  0.99682300  0.21692900  0.22161900  1
  Li  Li3  1  0.99674900  0.21655700  0.72147100  1
  Li  Li4  1  0.50318000  0.21693900  0.22160700  1
  Li  Li5  1  0.50324500  0.21655300  0.72149100  1
  Li  Li6  1  0.49689200  0.78306000  0.77829400  1
  Li  Li7  1  0.49677600  0.78318300  0.27847600  1
  V  V8  1  0.74998600  0.34429000  0.06984100  1
  V  V9  1  0.25001700  0.65591900  0.93030700  1
  V  V10  1  0.74998000  0.34404600  0.56975700  1
  V  V11  1  0.24998500  0.65585300  0.43027700  1
  P  P12  1  0.24998400  0.41847300  0.57032200  1
  P  P13  1  0.25005700  0.41860400  0.07032700  1
  P  P14  1  0.74998500  0.58145600  0.42965400  1
  P  P15  1  0.75001200  0.58150300  0.92965700  1
  C  C16  1  0.74999400  0.05965600  0.39710100  1
  C  C17  1  0.75000200  0.05976100  0.89707400  1
  C  C18  1  0.24999600  0.94026000  0.60298700  1
  C  C19  1  0.25000000  0.94033500  0.10299200  1
  O  O20  1  0.74999700  0.11573200  0.54305000  1
  O  O21  1  0.75003800  0.11596300  0.04306100  1
  O  O22  1  0.24999300  0.88414500  0.45703300  1
  O  O23  1  0.24999500  0.88418500  0.95703200  1
  O  O24  1  0.24999400  0.83066900  0.64871900  1
  O  O25  1  0.25001100  0.83071000  0.14872200  1
  O  O26  1  0.74998000  0.16934700  0.35148300  1
  O  O27  1  0.74998600  0.16936100  0.85130900  1
  O  O28  1  0.75001100  0.41621600  0.29269000  1
  O  O29  1  0.74998600  0.41636000  0.79256700  1
  O  O30  1  0.24998600  0.58364300  0.70733600  1
  O  O31  1  0.24999100  0.58381200  0.20733000  1
  O  O32  1  0.24998100  0.43681400  0.42552300  1
  O  O33  1  0.24999500  0.43673100  0.92543500  1
  O  O34  1  0.74999300  0.56332200  0.57453300  1
  O  O35  1  0.75001200  0.56333100  0.07454300  1
  O  O36  1  0.74998900  0.91650000  0.80671800  1
  O  O37  1  0.75001000  0.91642900  0.30661500  1
  O  O38  1  0.24999600  0.08360600  0.19335200  1
  O  O39  1  0.24999800  0.08355300  0.69336100  1
  O  O40  1  0.94243200  0.67444700  0.42197300  1
  O  O41  1  0.94241600  0.67456400  0.92211300  1
  O  O42  1  0.55753500  0.67444600  0.42197400  1
  O  O43  1  0.55762000  0.67456400  0.92211400  1
  O  O44  1  0.44238700  0.32529400  0.57767100  1
  O  O45  1  0.44252100  0.32565600  0.07802500  1
  O  O46  1  0.05753700  0.32533600  0.57766400  1
  O  O47  1  0.05762500  0.32563900  0.07803000  1
