# generated using pymatgen
data_LiCo2(PO4)3
_symmetry_space_group_name_H-M   'P 1'
_cell_length_a   8.79900300
_cell_length_b   8.50403300
_cell_length_c   14.54271081
_cell_angle_alpha   55.28920491
_cell_angle_beta   90.00000000
_cell_angle_gamma   90.00000000
_symmetry_Int_Tables_number   1
_chemical_formula_structural   LiCo2(PO4)3
_chemical_formula_sum   'Li4 Co8 P12 O48'
_cell_volume   894.53021377
_cell_formula_units_Z   4
loop_
 _symmetry_equiv_pos_site_id
 _symmetry_equiv_pos_as_xyz
  1  'x, y, z'
loop_
 _atom_site_type_symbol
 _atom_site_label
 _atom_site_symmetry_multiplicity
 _atom_site_fract_x
 _atom_site_fract_y
 _atom_site_fract_z
 _atom_site_occupancy
  Li  Li0  1  0.28394300  0.00384600  0.68140200  1
  Li  Li1  1  0.21605700  0.00384600  0.18140200  1
  Li  Li2  1  0.71605700  0.99615400  0.31859800  1
  Li  Li3  1  0.78394300  0.99615400  0.81859800  1
  Co  Co4  1  0.96902000  0.13854100  0.60990500  1
  Co  Co5  1  0.52286700  0.36999900  0.38192900  1
  Co  Co6  1  0.03098000  0.86145900  0.39009500  1
  Co  Co7  1  0.97713300  0.36999900  0.88192900  1
  Co  Co8  1  0.47713300  0.63000100  0.61807100  1
  Co  Co9  1  0.46902000  0.86145900  0.89009500  1
  Co  Co10  1  0.53098000  0.13854100  0.10990500  1
  Co  Co11  1  0.02286700  0.63000100  0.11807100  1
  P  P12  1  0.60774900  0.96701600  0.64778300  1
  P  P13  1  0.61803800  0.25842200  0.85231100  1
  P  P14  1  0.88196200  0.25842200  0.35231100  1
  P  P15  1  0.10774900  0.03298400  0.85221700  1
  P  P16  1  0.25051400  0.45310800  0.50969200  1
  P  P17  1  0.89225100  0.96701600  0.14778300  1
  P  P18  1  0.38196200  0.74157800  0.14768900  1
  P  P19  1  0.39225100  0.03298400  0.35221700  1
  P  P20  1  0.24948600  0.45310800  0.00969200  1
  P  P21  1  0.11803800  0.74157800  0.64768900  1
  P  P22  1  0.75051400  0.54689200  0.99030800  1
  P  P23  1  0.74948600  0.54689200  0.49030800  1
  O  O24  1  0.50913800  0.10004300  0.25664000  1
  O  O25  1  0.31876900  0.25125100  0.06761400  1
  O  O26  1  0.42680700  0.82995100  0.02407600  1
  O  O27  1  0.54547600  0.15552500  0.54448300  1
  O  O28  1  0.95452400  0.15552500  0.04448300  1
  O  O29  1  0.57319300  0.17004900  0.97592400  1
  O  O30  1  0.58523200  0.11128800  0.82496800  1
  O  O31  1  0.36535100  0.48566100  0.41960900  1
  O  O32  1  0.70796300  0.29198600  0.33860200  1
  O  O33  1  0.47034100  0.55404400  0.22294800  1
  O  O34  1  0.91476800  0.11128800  0.32496800  1
  O  O35  1  0.12991100  0.60910400  0.44960600  1
  O  O36  1  0.00913800  0.89995700  0.24336000  1
  O  O37  1  0.49086200  0.89995700  0.74336000  1
  O  O38  1  0.26448000  0.00773800  0.81724700  1
  O  O39  1  0.13464900  0.48566100  0.91960900  1
  O  O40  1  0.61342000  0.82040000  0.61579100  1
  O  O41  1  0.52965900  0.44595600  0.77705200  1
  O  O42  1  0.79203700  0.29198600  0.83860200  1
  O  O43  1  0.92680700  0.17004900  0.47592400  1
  O  O44  1  0.63464900  0.51433900  0.58039100  1
  O  O45  1  0.41476800  0.88871200  0.17503200  1
  O  O46  1  0.16308400  0.46499500  0.09831900  1
  O  O47  1  0.08523200  0.88871200  0.67503200  1
  O  O48  1  0.18123100  0.25125100  0.56761400  1
  O  O49  1  0.02965900  0.55404400  0.72294800  1
  O  O50  1  0.29203700  0.70801400  0.66139800  1
  O  O51  1  0.66308400  0.53500500  0.40168100  1
  O  O52  1  0.88658000  0.82040000  0.11579100  1
  O  O53  1  0.73552000  0.99226200  0.18275300  1
  O  O54  1  0.62991100  0.39089600  0.05039400  1
  O  O55  1  0.81876900  0.74874900  0.43238600  1
  O  O56  1  0.86535100  0.51433900  0.08039100  1
  O  O57  1  0.68123100  0.74874900  0.93238600  1
  O  O58  1  0.76448000  0.99226200  0.68275300  1
  O  O59  1  0.07319300  0.82995100  0.52407600  1
  O  O60  1  0.11342000  0.17960000  0.88420900  1
  O  O61  1  0.04547600  0.84447500  0.95551700  1
  O  O62  1  0.37008900  0.60910400  0.94960600  1
  O  O63  1  0.23552000  0.00773800  0.31724700  1
  O  O64  1  0.33691600  0.46499500  0.59831900  1
  O  O65  1  0.45452400  0.84447500  0.45551700  1
  O  O66  1  0.99086200  0.10004300  0.75664000  1
  O  O67  1  0.83691600  0.53500500  0.90168100  1
  O  O68  1  0.38658000  0.17960000  0.38420900  1
  O  O69  1  0.20796300  0.70801400  0.16139800  1
  O  O70  1  0.87008900  0.39089600  0.55039400  1
  O  O71  1  0.97034100  0.44595600  0.27705200  1
