# generated using pymatgen
data_LiCr2(PO4)3
_symmetry_space_group_name_H-M   'P 1'
_cell_length_a   8.54451000
_cell_length_b   8.64256500
_cell_length_c   12.04510400
_cell_angle_alpha   90.00000000
_cell_angle_beta   90.00000000
_cell_angle_gamma   90.00000000
_symmetry_Int_Tables_number   1
_chemical_formula_structural   LiCr2(PO4)3
_chemical_formula_sum   'Li4 Cr8 P12 O48'
_cell_volume   889.48856859
_cell_formula_units_Z   4
loop_
 _symmetry_equiv_pos_site_id
 _symmetry_equiv_pos_as_xyz
  1  'x, y, z'
loop_
 _atom_site_type_symbol
 _atom_site_label
 _atom_site_symmetry_multiplicity
 _atom_site_fract_x
 _atom_site_fract_y
 _atom_site_fract_z
 _atom_site_occupancy
  Li  Li0  1  0.53676000  0.72408900  0.18218800  1
  Li  Li1  1  0.03676000  0.77591100  0.68218800  1
  Li  Li2  1  0.96324000  0.22408900  0.18218800  1
  Li  Li3  1  0.46324000  0.27591100  0.68218800  1
  Cr  Cr4  1  0.00302000  0.03156500  0.38390500  1
  Cr  Cr5  1  0.50302000  0.46843500  0.88390500  1
  Cr  Cr6  1  0.49698000  0.53156500  0.38390500  1
  Cr  Cr7  1  0.00642100  0.54242400  0.11884600  1
  Cr  Cr8  1  0.49357900  0.04242400  0.11884600  1
  Cr  Cr9  1  0.99357900  0.45757600  0.61884600  1
  Cr  Cr10  1  0.50642100  0.95757600  0.61884600  1
  Cr  Cr11  1  0.99698000  0.96843500  0.88390500  1
  P  P12  1  0.64463000  0.10547300  0.85538700  1
  P  P13  1  0.14736200  0.10522800  0.64553900  1
  P  P14  1  0.85537000  0.60547300  0.85538700  1
  P  P15  1  0.64736200  0.39477200  0.14553900  1
  P  P16  1  0.21386500  0.25254000  0.99899900  1
  P  P17  1  0.85263800  0.89477200  0.14553900  1
  P  P18  1  0.35537000  0.89452700  0.35538700  1
  P  P19  1  0.71386500  0.24746000  0.49899900  1
  P  P20  1  0.78613500  0.74746000  0.49899900  1
  P  P21  1  0.14463000  0.39452700  0.35538700  1
  P  P22  1  0.28613500  0.75254000  0.99899900  1
  P  P23  1  0.35263800  0.60522800  0.64553900  1
  O  O24  1  0.40513900  0.56083800  0.52841100  1
  O  O25  1  0.07882700  0.51489300  0.27224400  1
  O  O26  1  0.32905500  0.09592300  0.65848100  1
  O  O27  1  0.89642000  0.84019800  0.41863700  1
  O  O28  1  0.09489300  0.43393500  0.47294800  1
  O  O29  1  0.82462300  0.09302800  0.84100200  1
  O  O30  1  0.09486100  0.06083800  0.52841100  1
  O  O31  1  0.40165300  0.84049700  0.07815600  1
  O  O32  1  0.59486100  0.43916200  0.02841100  1
  O  O33  1  0.19114200  0.86003800  0.92724900  1
  O  O34  1  0.90510700  0.56606500  0.97294800  1
  O  O35  1  0.31219400  0.14481400  0.07461900  1
  O  O36  1  0.41558400  0.73201200  0.32260400  1
  O  O37  1  0.69114200  0.63996200  0.42724900  1
  O  O38  1  0.90381000  0.72663700  0.17474900  1
  O  O39  1  0.59489300  0.06606500  0.97294800  1
  O  O40  1  0.08441600  0.23201200  0.32260400  1
  O  O41  1  0.60358000  0.34019800  0.41863700  1
  O  O42  1  0.81219400  0.35518600  0.57461900  1
  O  O43  1  0.92117300  0.48510700  0.77224400  1
  O  O44  1  0.09619000  0.27336300  0.67474900  1
  O  O45  1  0.09834700  0.34049700  0.07815600  1
  O  O46  1  0.59834700  0.15950300  0.57815600  1
  O  O47  1  0.92760800  0.01346100  0.22643000  1
  O  O48  1  0.58441600  0.26798800  0.82260400  1
  O  O49  1  0.40381000  0.77336300  0.67474900  1
  O  O50  1  0.82905500  0.40407700  0.15848100  1
  O  O51  1  0.17094500  0.59592300  0.65848100  1
  O  O52  1  0.07239200  0.98653900  0.72643000  1
  O  O53  1  0.57882700  0.98510700  0.77224400  1
  O  O54  1  0.90165300  0.65950300  0.57815600  1
  O  O55  1  0.90513900  0.93916200  0.02841100  1
  O  O56  1  0.67094500  0.90407700  0.15848100  1
  O  O57  1  0.59619000  0.22663700  0.17474900  1
  O  O58  1  0.91558400  0.76798800  0.82260400  1
  O  O59  1  0.42117300  0.01489300  0.27224400  1
  O  O60  1  0.68780600  0.85518600  0.57461900  1
  O  O61  1  0.42760800  0.48653900  0.72643000  1
  O  O62  1  0.80885800  0.13996200  0.42724900  1
  O  O63  1  0.40510700  0.93393500  0.47294800  1
  O  O64  1  0.32462300  0.40697200  0.34100200  1
  O  O65  1  0.10358000  0.15980200  0.91863700  1
  O  O66  1  0.17537700  0.90697200  0.34100200  1
  O  O67  1  0.67537700  0.59302800  0.84100200  1
  O  O68  1  0.18780600  0.64481400  0.07461900  1
  O  O69  1  0.30885800  0.36003800  0.92724900  1
  O  O70  1  0.57239200  0.51346100  0.22643000  1
  O  O71  1  0.39642000  0.65980200  0.91863700  1
