# generated using pymatgen
data_LiNi(PO3)4
_symmetry_space_group_name_H-M   'P 1'
_cell_length_a   8.38681300
_cell_length_b   9.02823100
_cell_length_c   12.57897300
_cell_angle_alpha   90.00000000
_cell_angle_beta   90.00000000
_cell_angle_gamma   90.00000000
_symmetry_Int_Tables_number   1
_chemical_formula_structural   LiNi(PO3)4
_chemical_formula_sum   'Li4 Ni4 P16 O48'
_cell_volume   952.45574831
_cell_formula_units_Z   4
loop_
 _symmetry_equiv_pos_site_id
 _symmetry_equiv_pos_as_xyz
  1  'x, y, z'
loop_
 _atom_site_type_symbol
 _atom_site_label
 _atom_site_symmetry_multiplicity
 _atom_site_fract_x
 _atom_site_fract_y
 _atom_site_fract_z
 _atom_site_occupancy
  Li  Li0  1  0.00996000  0.75000000  0.00000000  1
  Li  Li1  1  0.99004000  0.25000000  0.00000000  1
  Li  Li2  1  0.49004000  0.25000000  0.50000000  1
  Li  Li3  1  0.50996000  0.75000000  0.50000000  1
  Ni  Ni4  1  0.37109700  0.75000000  0.00000000  1
  Ni  Ni5  1  0.62890300  0.25000000  0.00000000  1
  Ni  Ni6  1  0.12890300  0.25000000  0.50000000  1
  Ni  Ni7  1  0.87109700  0.75000000  0.50000000  1
  P  P8  1  0.81607300  0.50162200  0.86157400  1
  P  P9  1  0.18392700  0.00162200  0.86157400  1
  P  P10  1  0.53951200  0.99400500  0.85423300  1
  P  P11  1  0.46048800  0.49400500  0.85423300  1
  P  P12  1  0.18392700  0.49837800  0.13842600  1
  P  P13  1  0.81607300  0.99837800  0.13842600  1
  P  P14  1  0.46048800  0.00599500  0.14576700  1
  P  P15  1  0.53951200  0.50599500  0.14576700  1
  P  P16  1  0.03951200  0.50599500  0.35423300  1
  P  P17  1  0.96048800  0.00599500  0.35423300  1
  P  P18  1  0.96048800  0.49400500  0.64576700  1
  P  P19  1  0.68392700  0.49837800  0.36157400  1
  P  P20  1  0.31607300  0.50162200  0.63842600  1
  P  P21  1  0.68392700  0.00162200  0.63842600  1
  P  P22  1  0.03951200  0.99400500  0.64576700  1
  P  P23  1  0.31607300  0.99837800  0.36157400  1
  O  O24  1  0.86217300  0.86698700  0.37709500  1
  O  O25  1  0.90297900  0.63760500  0.89150500  1
  O  O26  1  0.54311600  0.87328300  0.93683200  1
  O  O27  1  0.45688400  0.37328300  0.93683200  1
  O  O28  1  0.19008500  0.62670300  0.06062200  1
  O  O29  1  0.80991500  0.12670300  0.06062200  1
  O  O30  1  0.45688400  0.12671700  0.06316800  1
  O  O31  1  0.54311600  0.62671700  0.06316800  1
  O  O32  1  0.09702100  0.36239500  0.10849500  1
  O  O33  1  0.90297900  0.86239500  0.10849500  1
  O  O34  1  0.36217300  0.86698700  0.12290500  1
  O  O35  1  0.63782700  0.36698700  0.12290500  1
  O  O36  1  0.36261700  0.45891000  0.17732600  1
  O  O37  1  0.63738300  0.95891000  0.17732600  1
  O  O38  1  0.11163600  0.57069600  0.24685300  1
  O  O39  1  0.88836400  0.07069600  0.24685300  1
  O  O40  1  0.38836400  0.07069600  0.25314700  1
  O  O41  1  0.61163600  0.57069600  0.25314700  1
  O  O42  1  0.13738300  0.95891000  0.32267400  1
  O  O43  1  0.86261700  0.45891000  0.32267400  1
  O  O44  1  0.13782700  0.36698700  0.37709500  1
  O  O45  1  0.80991500  0.37329700  0.93937800  1
  O  O46  1  0.40297900  0.86239500  0.39150500  1
  O  O47  1  0.59702100  0.36239500  0.39150500  1
  O  O48  1  0.04311600  0.62671700  0.43683200  1
  O  O49  1  0.95688400  0.12671700  0.43683200  1
  O  O50  1  0.30991500  0.12670300  0.43937800  1
  O  O51  1  0.69008500  0.62670300  0.43937800  1
  O  O52  1  0.30991500  0.37329700  0.56062200  1
  O  O53  1  0.69008500  0.87329700  0.56062200  1
  O  O54  1  0.04311600  0.87328300  0.56316800  1
  O  O55  1  0.95688400  0.37328300  0.56316800  1
  O  O56  1  0.40297900  0.63760500  0.60849500  1
  O  O57  1  0.59702100  0.13760500  0.60849500  1
  O  O58  1  0.13782700  0.13301300  0.62290500  1
  O  O59  1  0.86217300  0.63301300  0.62290500  1
  O  O60  1  0.13738300  0.54109000  0.67732600  1
  O  O61  1  0.86261700  0.04109000  0.67732600  1
  O  O62  1  0.38836400  0.42930400  0.74685300  1
  O  O63  1  0.61163600  0.92930400  0.74685300  1
  O  O64  1  0.11163600  0.92930400  0.75314700  1
  O  O65  1  0.88836400  0.42930400  0.75314700  1
  O  O66  1  0.36261700  0.04109000  0.82267400  1
  O  O67  1  0.63738300  0.54109000  0.82267400  1
  O  O68  1  0.36217300  0.63301300  0.87709500  1
  O  O69  1  0.63782700  0.13301300  0.87709500  1
  O  O70  1  0.09702100  0.13760500  0.89150500  1
  O  O71  1  0.19008500  0.87329700  0.93937800  1
