# generated using pymatgen
data_LiTi(PO3)4
_symmetry_space_group_name_H-M   'P 1'
_cell_length_a   7.39280914
_cell_length_b   7.39280914
_cell_length_c   9.98333399
_cell_angle_alpha   66.83124782
_cell_angle_beta   66.83124782
_cell_angle_gamma   69.66218178
_symmetry_Int_Tables_number   1
_chemical_formula_structural   LiTi(PO3)4
_chemical_formula_sum   'Li2 Ti2 P8 O24'
_cell_volume   449.01178481
_cell_formula_units_Z   2
loop_
 _symmetry_equiv_pos_site_id
 _symmetry_equiv_pos_as_xyz
  1  'x, y, z'
loop_
 _atom_site_type_symbol
 _atom_site_label
 _atom_site_symmetry_multiplicity
 _atom_site_fract_x
 _atom_site_fract_y
 _atom_site_fract_z
 _atom_site_occupancy
  Li  Li0  1  0.95882600  0.04117400  0.75000000  1
  Li  Li1  1  0.04117400  0.95882600  0.25000000  1
  Ti  Ti2  1  0.00000000  0.50000000  0.50000000  1
  Ti  Ti3  1  0.50000000  0.00000000  0.00000000  1
  P  P4  1  0.25736400  0.73041300  0.97334400  1
  P  P5  1  0.69524300  0.68401700  0.80440000  1
  P  P6  1  0.30475700  0.31598300  0.19560000  1
  P  P7  1  0.68401700  0.69524300  0.30440000  1
  P  P8  1  0.26958700  0.74263600  0.52665600  1
  P  P9  1  0.31598300  0.30475700  0.69560000  1
  P  P10  1  0.74263600  0.26958700  0.02665600  1
  P  P11  1  0.73041300  0.25736400  0.47334400  1
  O  O12  1  0.12813600  0.29589100  0.67347200  1
  O  O13  1  0.46606200  0.68263800  0.83808700  1
  O  O14  1  0.68263800  0.46606200  0.33808700  1
  O  O15  1  0.65102600  0.80942800  0.15076300  1
  O  O16  1  0.69173300  0.19272100  0.92760600  1
  O  O17  1  0.19272100  0.69173300  0.42760600  1
  O  O18  1  0.80727900  0.30826700  0.57239400  1
  O  O19  1  0.49660300  0.77630100  0.43271300  1
  O  O20  1  0.80942800  0.65102600  0.65076300  1
  O  O21  1  0.34897400  0.19057200  0.84923700  1
  O  O22  1  0.15484700  0.90976200  0.59237700  1
  O  O23  1  0.31736200  0.53393800  0.66191300  1
  O  O24  1  0.29589100  0.12813600  0.17347200  1
  O  O25  1  0.53393800  0.31736200  0.16191300  1
  O  O26  1  0.87186400  0.70410900  0.32652800  1
  O  O27  1  0.09023800  0.84515300  0.90762300  1
  O  O28  1  0.70410900  0.87186400  0.82652800  1
  O  O29  1  0.50339700  0.22369900  0.56728700  1
  O  O30  1  0.22369900  0.50339700  0.06728700  1
  O  O31  1  0.77630100  0.49660300  0.93271300  1
  O  O32  1  0.90976200  0.15484700  0.09237700  1
  O  O33  1  0.19057200  0.34897400  0.34923700  1
  O  O34  1  0.30826700  0.80727900  0.07239400  1
  O  O35  1  0.84515300  0.09023800  0.40762300  1
