# generated using pymatgen
data_LiMnP2O7
_symmetry_space_group_name_H-M   'P 1'
_cell_length_a   6.32498200
_cell_length_b   9.37973280
_cell_length_c   10.67449696
_cell_angle_alpha   113.26164043
_cell_angle_beta   86.67384875
_cell_angle_gamma   108.39156938
_symmetry_Int_Tables_number   1
_chemical_formula_structural   LiMnP2O7
_chemical_formula_sum   'Li4 Mn4 P8 O28'
_cell_volume   550.47344907
_cell_formula_units_Z   4
loop_
 _symmetry_equiv_pos_site_id
 _symmetry_equiv_pos_as_xyz
  1  'x, y, z'
loop_
 _atom_site_type_symbol
 _atom_site_label
 _atom_site_symmetry_multiplicity
 _atom_site_fract_x
 _atom_site_fract_y
 _atom_site_fract_z
 _atom_site_occupancy
  Li  Li0  1  0.02739200  0.19676400  0.49808300  1
  Li  Li1  1  0.37579400  0.93829300  0.40547500  1
  Li  Li2  1  0.53753400  0.49664200  0.97732300  1
  Li  Li3  1  0.92740800  0.85830900  0.52579300  1
  Mn  Mn4  1  0.26941700  0.89913900  0.78334900  1
  Mn  Mn5  1  0.35793400  0.51071300  0.74359200  1
  Mn  Mn6  1  0.63736400  0.48078500  0.24632400  1
  Mn  Mn7  1  0.73785000  0.08940300  0.21294800  1
  P  P8  1  0.87643700  0.55386400  0.69289600  1
  P  P9  1  0.69474700  0.18890500  0.95030400  1
  P  P10  1  0.93655900  0.80275400  0.21492300  1
  P  P11  1  0.56880500  0.29758500  0.45209400  1
  P  P12  1  0.11950200  0.43540400  0.29903700  1
  P  P13  1  0.31471800  0.79632100  0.04353800  1
  P  P14  1  0.08137000  0.18273600  0.77958300  1
  P  P15  1  0.41912600  0.70012100  0.53779800  1
  O  O16  1  0.97819300  0.09905200  0.63353300  1
  O  O17  1  0.91842200  0.26389400  0.88661800  1
  O  O18  1  0.95234400  0.50650400  0.26814300  1
  O  O19  1  0.98687900  0.72986700  0.70434600  1
  O  O20  1  0.05368200  0.87336900  0.35706000  1
  O  O21  1  0.08823400  0.71535000  0.10201800  1
  O  O22  1  0.03869500  0.47056300  0.71216400  1
  O  O23  1  0.01090500  0.26210700  0.29750000  1
  O  O24  1  0.25841400  0.87909800  0.95955400  1
  O  O25  1  0.35079700  0.84846900  0.55393400  1
  O  O26  1  0.21349000  0.53743500  0.45697900  1
  O  O27  1  0.45908400  0.92315500  0.17854300  1
  O  O28  1  0.32134300  0.45529400  0.21429600  1
  O  O29  1  0.12783500  0.06458500  0.83137800  1
  O  O30  1  0.42149200  0.69653100  0.68467600  1
  O  O31  1  0.40530400  0.65764000  0.96272600  1
  O  O32  1  0.29336200  0.33351100  0.80417800  1
  O  O33  1  0.36182100  0.30884300  0.52878700  1
  O  O34  1  0.62988000  0.68587300  0.46608400  1
  O  O35  1  0.71366300  0.66015700  0.18945500  1
  O  O36  1  0.55969100  0.30418100  0.30895400  1
  O  O37  1  0.60702500  0.33113500  0.02514900  1
  O  O38  1  0.89976000  0.93236500  0.17555600  1
  O  O39  1  0.67655200  0.53362100  0.77946800  1
  O  O40  1  0.55109800  0.05340400  0.82000200  1
  O  O41  1  0.63637300  0.14395000  0.42643700  1
  O  O42  1  0.77727200  0.45553100  0.53524300  1
  O  O43  1  0.75347000  0.11521600  0.04261700  1
