# generated using pymatgen
data_LiFe3(P3O10)2
_symmetry_space_group_name_H-M   'P 1'
_cell_length_a   8.42227151
_cell_length_b   8.42227151
_cell_length_c   12.32708200
_cell_angle_alpha   90.00000000
_cell_angle_beta   90.00000000
_cell_angle_gamma   104.93227824
_symmetry_Int_Tables_number   1
_chemical_formula_structural   LiFe3(P3O10)2
_chemical_formula_sum   'Li2 Fe6 P12 O40'
_cell_volume   844.88919718
_cell_formula_units_Z   2
loop_
 _symmetry_equiv_pos_site_id
 _symmetry_equiv_pos_as_xyz
  1  'x, y, z'
loop_
 _atom_site_type_symbol
 _atom_site_label
 _atom_site_symmetry_multiplicity
 _atom_site_fract_x
 _atom_site_fract_y
 _atom_site_fract_z
 _atom_site_occupancy
  Li  Li0  1  0.58637200  0.58637200  0.00000000  1
  Li  Li1  1  0.41362800  0.41362800  0.50000000  1
  Fe  Fe2  1  0.87069400  0.87069400  0.00000000  1
  Fe  Fe3  1  0.76077800  0.23922200  0.75000000  1
  Fe  Fe4  1  0.12930600  0.12930600  0.50000000  1
  Fe  Fe5  1  0.70096300  0.29903700  0.25000000  1
  Fe  Fe6  1  0.23922200  0.76077800  0.25000000  1
  Fe  Fe7  1  0.29903700  0.70096300  0.75000000  1
  P  P8  1  0.18128000  0.30166400  0.72167500  1
  P  P9  1  0.62897600  0.90907400  0.31642800  1
  P  P10  1  0.85129100  0.26419300  0.01317700  1
  P  P11  1  0.37102400  0.09092600  0.81642800  1
  P  P12  1  0.14870900  0.73580700  0.51317700  1
  P  P13  1  0.30166400  0.18128000  0.27832500  1
  P  P14  1  0.90907400  0.62897600  0.68357200  1
  P  P15  1  0.73580700  0.14870900  0.48682300  1
  P  P16  1  0.09092600  0.37102400  0.18357200  1
  P  P17  1  0.69833600  0.81872000  0.77832500  1
  P  P18  1  0.26419300  0.85129100  0.98682300  1
  P  P19  1  0.81872000  0.69833600  0.22167500  1
  O  O20  1  0.94498900  0.34203000  0.25810400  1
  O  O21  1  0.72624000  0.53684800  0.26962900  1
  O  O22  1  0.27365500  0.68302400  0.58473500  1
  O  O23  1  0.26416700  0.99755900  0.29390100  1
  O  O24  1  0.27376000  0.46315200  0.76962900  1
  O  O25  1  0.16414300  0.21301600  0.19502100  1
  O  O26  1  0.68117600  0.15258600  0.60299700  1
  O  O27  1  0.00244100  0.73583300  0.20609900  1
  O  O28  1  0.27329000  0.25894500  0.39089800  1
  O  O29  1  0.83585700  0.78698400  0.69502100  1
  O  O30  1  0.15428100  0.91998100  0.52551800  1
  O  O31  1  0.25894500  0.27329000  0.60910200  1
  O  O32  1  0.08001900  0.84571900  0.97448200  1
  O  O33  1  0.31697600  0.72634500  0.91526500  1
  O  O34  1  0.35832500  0.03498700  0.94138300  1
  O  O35  1  0.05501100  0.65797000  0.75810400  1
  O  O36  1  0.73583300  0.00244100  0.79390100  1
  O  O37  1  0.22606800  0.52635600  0.19787300  1
  O  O38  1  0.72634500  0.31697600  0.08473500  1
  O  O39  1  0.78698400  0.83585700  0.30497900  1
  O  O40  1  0.72671000  0.74105500  0.89089800  1
  O  O41  1  0.96501300  0.64167500  0.55861700  1
  O  O42  1  0.77393200  0.47364400  0.69787300  1
  O  O43  1  0.65797000  0.05501100  0.24189600  1
  O  O44  1  0.74105500  0.72671000  0.10910200  1
  O  O45  1  0.47364400  0.77393200  0.30212700  1
  O  O46  1  0.68302400  0.27365500  0.41526500  1
  O  O47  1  0.31882400  0.84741400  0.10299700  1
  O  O48  1  0.84741400  0.31882400  0.89700300  1
  O  O49  1  0.99755900  0.26416700  0.70609900  1
  O  O50  1  0.15258600  0.68117600  0.39700300  1
  O  O51  1  0.84571900  0.08001900  0.02551800  1
  O  O52  1  0.03498700  0.35832500  0.05861700  1
  O  O53  1  0.34203000  0.94498900  0.74189600  1
  O  O54  1  0.64167500  0.96501300  0.44138300  1
  O  O55  1  0.46315200  0.27376000  0.23037100  1
  O  O56  1  0.52635600  0.22606800  0.80212700  1
  O  O57  1  0.91998100  0.15428100  0.47448200  1
  O  O58  1  0.21301600  0.16414300  0.80497900  1
  O  O59  1  0.53684800  0.72624000  0.73037100  1
