# generated using pymatgen
data_LiCr2(PO4)3
_symmetry_space_group_name_H-M   'P 1'
_cell_length_a   8.65262500
_cell_length_b   8.31430600
_cell_length_c   14.44568719
_cell_angle_alpha   54.80448932
_cell_angle_beta   90.00000000
_cell_angle_gamma   90.00000000
_symmetry_Int_Tables_number   1
_chemical_formula_structural   LiCr2(PO4)3
_chemical_formula_sum   'Li4 Cr8 P12 O48'
_cell_volume   849.24924351
_cell_formula_units_Z   4
loop_
 _symmetry_equiv_pos_site_id
 _symmetry_equiv_pos_as_xyz
  1  'x, y, z'
loop_
 _atom_site_type_symbol
 _atom_site_label
 _atom_site_symmetry_multiplicity
 _atom_site_fract_x
 _atom_site_fract_y
 _atom_site_fract_z
 _atom_site_occupancy
  Li  Li0  1  0.78433300  0.63824000  0.18053800  1
  Li  Li1  1  0.21566700  0.36176000  0.81946200  1
  Li  Li2  1  0.28433300  0.36176000  0.31946200  1
  Li  Li3  1  0.71566700  0.63824000  0.68053800  1
  Cr  Cr4  1  0.52753700  0.13802100  0.61634500  1
  Cr  Cr5  1  0.97246300  0.13802100  0.11634500  1
  Cr  Cr6  1  0.46407000  0.63511400  0.11360500  1
  Cr  Cr7  1  0.96407000  0.36488600  0.38639500  1
  Cr  Cr8  1  0.53593000  0.36488600  0.88639500  1
  Cr  Cr9  1  0.02753700  0.86197900  0.88365500  1
  Cr  Cr10  1  0.03593000  0.63511400  0.61360500  1
  Cr  Cr11  1  0.47246300  0.86197900  0.38365500  1
  P  P12  1  0.39054300  0.74569500  0.64210900  1
  P  P13  1  0.10945700  0.74569500  0.14210900  1
  P  P14  1  0.25202500  0.47387800  0.49107800  1
  P  P15  1  0.61822000  0.96096300  0.14745000  1
  P  P16  1  0.60945700  0.25430500  0.35789100  1
  P  P17  1  0.75202500  0.52612200  0.00892200  1
  P  P18  1  0.24797500  0.47387800  0.99107800  1
  P  P19  1  0.74797500  0.52612200  0.50892200  1
  P  P20  1  0.89054300  0.25430500  0.85789100  1
  P  P21  1  0.11822000  0.03903700  0.35255000  1
  P  P22  1  0.88178000  0.96096300  0.64745000  1
  P  P23  1  0.38178000  0.03903700  0.85255000  1
  O  O24  1  0.63481400  0.67353000  0.41776000  1
  O  O25  1  0.11233300  0.95784800  0.10854400  1
  O  O26  1  0.92124000  0.75429900  0.67603700  1
  O  O27  1  0.38766700  0.95784800  0.60854400  1
  O  O28  1  0.42124000  0.24570100  0.82396300  1
  O  O29  1  0.97338500  0.99562400  0.72676400  1
  O  O30  1  0.77033700  0.35427900  0.31799400  1
  O  O31  1  0.55400800  0.26590600  0.45566800  1
  O  O32  1  0.02661500  0.00437600  0.27323600  1
  O  O33  1  0.22966300  0.64572100  0.68200600  1
  O  O34  1  0.87472700  0.49411500  0.44479000  1
  O  O35  1  0.32368900  0.38703100  0.93229800  1
  O  O36  1  0.47338500  0.00437600  0.77323600  1
  O  O37  1  0.13481400  0.32647000  0.08224000  1
  O  O38  1  0.20481700  0.04306100  0.83866900  1
  O  O39  1  0.62527300  0.49411500  0.94479000  1
  O  O40  1  0.88766700  0.04215200  0.89145600  1
  O  O41  1  0.07876000  0.24570100  0.32396300  1
  O  O42  1  0.82368900  0.61296900  0.56770200  1
  O  O43  1  0.42886500  0.88411300  0.97568800  1
  O  O44  1  0.12527300  0.50588500  0.55521000  1
  O  O45  1  0.00750300  0.37969000  0.75992300  1
  O  O46  1  0.67631100  0.61296900  0.06770200  1
  O  O47  1  0.27033700  0.64572100  0.18200600  1
  O  O48  1  0.79518300  0.95693900  0.16133100  1
  O  O49  1  0.52661500  0.99562400  0.22676400  1
  O  O50  1  0.17421100  0.67340500  0.89675900  1
  O  O51  1  0.07113500  0.88411300  0.47568800  1
  O  O52  1  0.61233300  0.04215200  0.39145600  1
  O  O53  1  0.50750300  0.62031000  0.74007700  1
  O  O54  1  0.67421100  0.32659500  0.60324100  1
  O  O55  1  0.57876000  0.75429900  0.17603700  1
  O  O56  1  0.49249700  0.37969000  0.25992300  1
  O  O57  1  0.37472700  0.50588500  0.05521000  1
  O  O58  1  0.82578900  0.32659500  0.10324100  1
  O  O59  1  0.86518600  0.67353000  0.91776000  1
  O  O60  1  0.29518300  0.04306100  0.33866900  1
  O  O61  1  0.17631100  0.38703100  0.43229800  1
  O  O62  1  0.44599200  0.73409400  0.54433200  1
  O  O63  1  0.36518600  0.32647000  0.58224000  1
  O  O64  1  0.92886500  0.11588700  0.52431200  1
  O  O65  1  0.99249700  0.62031000  0.24007700  1
  O  O66  1  0.32578900  0.67340500  0.39675900  1
  O  O67  1  0.57113500  0.11588700  0.02431200  1
  O  O68  1  0.05400800  0.73409400  0.04433200  1
  O  O69  1  0.94599200  0.26590600  0.95566800  1
  O  O70  1  0.72966300  0.35427900  0.81799400  1
  O  O71  1  0.70481700  0.95693900  0.66133100  1
