# generated using pymatgen
data_LiCr(PO3)4
_symmetry_space_group_name_H-M   'P 1'
_cell_length_a   8.37141800
_cell_length_b   9.25480400
_cell_length_c   12.73173700
_cell_angle_alpha   90.00000000
_cell_angle_beta   90.00000000
_cell_angle_gamma   90.00000000
_symmetry_Int_Tables_number   1
_chemical_formula_structural   LiCr(PO3)4
_chemical_formula_sum   'Li4 Cr4 P16 O48'
_cell_volume   986.40192696
_cell_formula_units_Z   4
loop_
 _symmetry_equiv_pos_site_id
 _symmetry_equiv_pos_as_xyz
  1  'x, y, z'
loop_
 _atom_site_type_symbol
 _atom_site_label
 _atom_site_symmetry_multiplicity
 _atom_site_fract_x
 _atom_site_fract_y
 _atom_site_fract_z
 _atom_site_occupancy
  Li  Li0  1  0.00304300  0.75000000  0.00000000  1
  Li  Li1  1  0.50304300  0.75000000  0.50000000  1
  Li  Li2  1  0.49695700  0.25000000  0.50000000  1
  Li  Li3  1  0.99695700  0.25000000  0.00000000  1
  Cr  Cr4  1  0.86859900  0.75000000  0.50000000  1
  Cr  Cr5  1  0.13140100  0.25000000  0.50000000  1
  Cr  Cr6  1  0.63140100  0.25000000  0.00000000  1
  Cr  Cr7  1  0.36859900  0.75000000  0.00000000  1
  P  P8  1  0.46439300  0.48892800  0.85032500  1
  P  P9  1  0.53560700  0.98892800  0.85032500  1
  P  P10  1  0.96439300  0.48892800  0.64967500  1
  P  P11  1  0.18079500  0.99452500  0.86144300  1
  P  P12  1  0.18079500  0.50547500  0.13855700  1
  P  P13  1  0.81920500  0.00547500  0.13855700  1
  P  P14  1  0.46439300  0.01107200  0.14967500  1
  P  P15  1  0.53560700  0.51107200  0.14967500  1
  P  P16  1  0.03560700  0.51107200  0.35032500  1
  P  P17  1  0.96439300  0.01107200  0.35032500  1
  P  P18  1  0.31920500  0.00547500  0.36144300  1
  P  P19  1  0.68079500  0.50547500  0.36144300  1
  P  P20  1  0.31920500  0.49452500  0.63855700  1
  P  P21  1  0.68079500  0.99452500  0.63855700  1
  P  P22  1  0.03560700  0.98892800  0.64967500  1
  P  P23  1  0.81920500  0.49452500  0.86144300  1
  O  O24  1  0.86644300  0.87922100  0.37586600  1
  O  O25  1  0.46626300  0.36912100  0.93073600  1
  O  O26  1  0.53373700  0.86912100  0.93073600  1
  O  O27  1  0.80726100  0.36618700  0.93597600  1
  O  O28  1  0.19273900  0.63381300  0.06402400  1
  O  O29  1  0.80726100  0.13381300  0.06402400  1
  O  O30  1  0.46626300  0.13087900  0.06926400  1
  O  O31  1  0.53373700  0.63087900  0.06926400  1
  O  O32  1  0.09425800  0.37494000  0.10377900  1
  O  O33  1  0.90574200  0.87494000  0.10377900  1
  O  O34  1  0.36644300  0.87922100  0.12413400  1
  O  O35  1  0.63355700  0.37922100  0.12413400  1
  O  O36  1  0.35724400  0.46357700  0.17962800  1
  O  O37  1  0.64275600  0.96357700  0.17962800  1
  O  O38  1  0.10269500  0.57660000  0.24314000  1
  O  O39  1  0.89730500  0.07660000  0.24314000  1
  O  O40  1  0.39730500  0.07660000  0.25686000  1
  O  O41  1  0.60269500  0.57660000  0.25686000  1
  O  O42  1  0.14275600  0.96357700  0.32037200  1
  O  O43  1  0.85724400  0.46357700  0.32037200  1
  O  O44  1  0.13355700  0.37922100  0.37586600  1
  O  O45  1  0.19273900  0.86618700  0.93597600  1
  O  O46  1  0.40574200  0.87494000  0.39622100  1
  O  O47  1  0.59425800  0.37494000  0.39622100  1
  O  O48  1  0.03373700  0.63087900  0.43073600  1
  O  O49  1  0.96626300  0.13087900  0.43073600  1
  O  O50  1  0.30726100  0.13381300  0.43597600  1
  O  O51  1  0.69273900  0.63381300  0.43597600  1
  O  O52  1  0.30726100  0.36618700  0.56402400  1
  O  O53  1  0.69273900  0.86618700  0.56402400  1
  O  O54  1  0.03373700  0.86912100  0.56926400  1
  O  O55  1  0.96626300  0.36912100  0.56926400  1
  O  O56  1  0.40574200  0.62506000  0.60377900  1
  O  O57  1  0.59425800  0.12506000  0.60377900  1
  O  O58  1  0.13355700  0.12077900  0.62413400  1
  O  O59  1  0.86644300  0.62077900  0.62413400  1
  O  O60  1  0.14275600  0.53642300  0.67962800  1
  O  O61  1  0.85724400  0.03642300  0.67962800  1
  O  O62  1  0.39730500  0.42340000  0.74314000  1
  O  O63  1  0.60269500  0.92340000  0.74314000  1
  O  O64  1  0.10269500  0.92340000  0.75686000  1
  O  O65  1  0.89730500  0.42340000  0.75686000  1
  O  O66  1  0.35724400  0.03642300  0.82037200  1
  O  O67  1  0.64275600  0.53642300  0.82037200  1
  O  O68  1  0.36644300  0.62077900  0.87586600  1
  O  O69  1  0.90574200  0.62506000  0.89622100  1
  O  O70  1  0.09425800  0.12506000  0.89622100  1
  O  O71  1  0.63355700  0.12077900  0.87586600  1
