# generated using pymatgen
data_Li3Mn3(PO4)4
_symmetry_space_group_name_H-M   'P 1'
_cell_length_a   8.16513100
_cell_length_b   7.72399000
_cell_length_c   10.01496730
_cell_angle_alpha   87.26255708
_cell_angle_beta   90.00000000
_cell_angle_gamma   90.00000000
_symmetry_Int_Tables_number   1
_chemical_formula_structural   Li3Mn3(PO4)4
_chemical_formula_sum   'Li6 Mn6 P8 O32'
_cell_volume   630.89709742
_cell_formula_units_Z   2
loop_
 _symmetry_equiv_pos_site_id
 _symmetry_equiv_pos_as_xyz
  1  'x, y, z'
loop_
 _atom_site_type_symbol
 _atom_site_label
 _atom_site_symmetry_multiplicity
 _atom_site_fract_x
 _atom_site_fract_y
 _atom_site_fract_z
 _atom_site_occupancy
  Li  Li0  1  0.36947100  0.66610200  0.17488400  1
  Li  Li1  1  0.86947100  0.33389800  0.82511600  1
  Li  Li2  1  0.14185800  0.15288700  0.42318000  1
  Li  Li3  1  0.13665400  0.16222400  0.92265700  1
  Li  Li4  1  0.64185800  0.84711300  0.57682000  1
  Li  Li5  1  0.63665400  0.83777600  0.07734300  1
  Mn  Mn6  1  0.36104000  0.65933000  0.68840600  1
  Mn  Mn7  1  0.86104000  0.34067000  0.31159400  1
  Mn  Mn8  1  0.49253200  0.24542100  0.37778200  1
  Mn  Mn9  1  0.51109300  0.22148500  0.87735600  1
  Mn  Mn10  1  0.99253200  0.75457900  0.62221800  1
  Mn  Mn11  1  0.01109300  0.77851500  0.12264400  1
  P  P12  1  0.80647500  0.94311500  0.35921400  1
  P  P13  1  0.82146700  0.94047500  0.86002900  1
  P  P14  1  0.32146700  0.05952500  0.13997100  1
  P  P15  1  0.30647500  0.05688500  0.64078600  1
  P  P16  1  0.68210800  0.43959800  0.10208700  1
  P  P17  1  0.68212200  0.43391800  0.61554300  1
  P  P18  1  0.18212200  0.56608200  0.38445700  1
  P  P19  1  0.18210800  0.56040200  0.89791300  1
  O  O20  1  0.88005800  0.79691000  0.96733200  1
  O  O21  1  0.86317800  0.80020000  0.46507800  1
  O  O22  1  0.81906500  0.86741600  0.21817700  1
  O  O23  1  0.43344500  0.90493800  0.14878300  1
  O  O24  1  0.81714400  0.84707400  0.72261200  1
  O  O25  1  0.42176000  0.89556500  0.63717600  1
  O  O26  1  0.14904700  0.70333900  0.77665900  1
  O  O27  1  0.12763100  0.71328600  0.28407200  1
  O  O28  1  0.17599000  0.63898300  0.52923800  1
  O  O29  1  0.56086700  0.59150800  0.61409100  1
  O  O30  1  0.19023700  0.65592200  0.02919000  1
  O  O31  1  0.56751200  0.58994300  0.09905000  1
  O  O32  1  0.85492400  0.49117800  0.64883400  1
  O  O33  1  0.35987800  0.50987500  0.84745600  1
  O  O34  1  0.85987800  0.49012500  0.15254400  1
  O  O35  1  0.35492400  0.50882200  0.35116600  1
  O  O36  1  0.06086700  0.40849200  0.38590900  1
  O  O37  1  0.67599000  0.36101700  0.47076200  1
  O  O38  1  0.06751200  0.41005700  0.90095000  1
  O  O39  1  0.62763100  0.28671400  0.71592800  1
  O  O40  1  0.69023700  0.34407800  0.97081000  1
  O  O41  1  0.64904700  0.29666100  0.22334100  1
  O  O42  1  0.36317800  0.19980000  0.53492200  1
  O  O43  1  0.38005800  0.20309000  0.03266800  1
  O  O44  1  0.31906500  0.13258400  0.78182300  1
  O  O45  1  0.93344500  0.09506200  0.85121700  1
  O  O46  1  0.31714400  0.15292600  0.27738800  1
  O  O47  1  0.92176000  0.10443500  0.36282400  1
  O  O48  1  0.63217600  0.99379600  0.39719900  1
  O  O49  1  0.13217600  0.00620400  0.60280100  1
  O  O50  1  0.14226800  0.01838600  0.10267300  1
  O  O51  1  0.64226800  0.98161400  0.89732700  1
