# generated using pymatgen
data_LiCrP2O7
_symmetry_space_group_name_H-M   'P 1'
_cell_length_a   8.24946500
_cell_length_b   6.68331600
_cell_length_c   9.17411490
_cell_angle_alpha   74.77509933
_cell_angle_beta   90.00000000
_cell_angle_gamma   90.00000000
_symmetry_Int_Tables_number   1
_chemical_formula_structural   LiCrP2O7
_chemical_formula_sum   'Li4 Cr4 P8 O28'
_cell_volume   488.05118004
_cell_formula_units_Z   4
loop_
 _symmetry_equiv_pos_site_id
 _symmetry_equiv_pos_as_xyz
  1  'x, y, z'
loop_
 _atom_site_type_symbol
 _atom_site_label
 _atom_site_symmetry_multiplicity
 _atom_site_fract_x
 _atom_site_fract_y
 _atom_site_fract_z
 _atom_site_occupancy
  Li  Li0  1  0.07294600  0.74345200  0.24912100  1
  Li  Li1  1  0.92705400  0.25654800  0.75087900  1
  Li  Li2  1  0.57294600  0.25654800  0.75087900  1
  Li  Li3  1  0.42705400  0.74345200  0.24912100  1
  Cr  Cr4  1  0.43375700  0.75016400  0.75005400  1
  Cr  Cr5  1  0.06624300  0.75016400  0.75005400  1
  Cr  Cr6  1  0.93375700  0.24983600  0.24994600  1
  Cr  Cr7  1  0.56624300  0.24983600  0.24994600  1
  P  P8  1  0.75000000  0.49718100  0.44200200  1
  P  P9  1  0.25000000  0.50281900  0.55799800  1
  P  P10  1  0.75000000  0.91599900  0.52692200  1
  P  P11  1  0.75000000  0.58369900  0.97227400  1
  P  P12  1  0.75000000  0.00468600  0.05687000  1
  P  P13  1  0.25000000  0.41630100  0.02772600  1
  P  P14  1  0.25000000  0.99531400  0.94313000  1
  P  P15  1  0.25000000  0.08400100  0.47307800  1
  O  O16  1  0.25000000  0.25996200  0.55982800  1
  O  O17  1  0.25000000  0.23772600  0.94365200  1
  O  O18  1  0.09300500  0.98102000  0.85172400  1
  O  O19  1  0.40699500  0.98102000  0.85172400  1
  O  O20  1  0.59300500  0.01898000  0.14827600  1
  O  O21  1  0.90699500  0.01898000  0.14827600  1
  O  O22  1  0.75000000  0.76227400  0.05634800  1
  O  O23  1  0.75000000  0.38584400  0.11070200  1
  O  O24  1  0.09715000  0.41500700  0.11936400  1
  O  O25  1  0.40285000  0.41500700  0.11936400  1
  O  O26  1  0.25000000  0.86312000  0.10348500  1
  O  O27  1  0.09716700  0.08721100  0.38140300  1
  O  O28  1  0.40283300  0.08721100  0.38140300  1
  O  O29  1  0.75000000  0.11517000  0.38942000  1
  O  O30  1  0.59302400  0.48146800  0.35092400  1
  O  O31  1  0.90285000  0.58499300  0.88063600  1
  O  O32  1  0.25000000  0.63286700  0.39706500  1
  O  O33  1  0.75000000  0.74003800  0.44017200  1
  O  O34  1  0.90697600  0.48146800  0.35092400  1
  O  O35  1  0.75000000  0.36713300  0.60293500  1
  O  O36  1  0.09302400  0.51853200  0.64907600  1
  O  O37  1  0.40697600  0.51853200  0.64907600  1
  O  O38  1  0.25000000  0.88483000  0.61058000  1
  O  O39  1  0.59716700  0.91278900  0.61859700  1
  O  O40  1  0.90283300  0.91278900  0.61859700  1
  O  O41  1  0.75000000  0.13688000  0.89651500  1
  O  O42  1  0.59715000  0.58499300  0.88063600  1
  O  O43  1  0.25000000  0.61415600  0.88929800  1
