# generated using pymatgen
data_Li3Mo(PO4)2
_symmetry_space_group_name_H-M   'P 1'
_cell_length_a   9.10747100
_cell_length_b   4.99231800
_cell_length_c   7.93010925
_cell_angle_alpha   55.02565224
_cell_angle_beta   90.00000000
_cell_angle_gamma   90.00000000
_symmetry_Int_Tables_number   1
_chemical_formula_structural   Li3Mo(PO4)2
_chemical_formula_sum   'Li6 Mo2 P4 O16'
_cell_volume   295.44715484
_cell_formula_units_Z   2
loop_
 _symmetry_equiv_pos_site_id
 _symmetry_equiv_pos_as_xyz
  1  'x, y, z'
loop_
 _atom_site_type_symbol
 _atom_site_label
 _atom_site_symmetry_multiplicity
 _atom_site_fract_x
 _atom_site_fract_y
 _atom_site_fract_z
 _atom_site_occupancy
  Li  Li0  1  0.00000000  0.00000000  0.50000000  1
  Li  Li1  1  0.14412800  0.32307500  0.69190400  1
  Li  Li2  1  0.85587200  0.67692500  0.30809600  1
  Li  Li3  1  0.64412800  0.67692500  0.80809600  1
  Li  Li4  1  0.35587200  0.32307500  0.19190400  1
  Li  Li5  1  0.50000000  0.00000000  0.00000000  1
  Mo  Mo6  1  0.00000000  0.50000000  0.00000000  1
  Mo  Mo7  1  0.50000000  0.50000000  0.50000000  1
  P  P8  1  0.81728900  0.19841800  0.77620800  1
  P  P9  1  0.31728900  0.80158200  0.72379200  1
  P  P10  1  0.68271100  0.19841800  0.27620800  1
  P  P11  1  0.18271100  0.80158200  0.22379200  1
  O  O12  1  0.64689400  0.16704000  0.75643700  1
  O  O13  1  0.84799600  0.48893700  0.79505300  1
  O  O14  1  0.13447600  0.12818800  0.02118500  1
  O  O15  1  0.63447600  0.87181200  0.47881500  1
  O  O16  1  0.86552400  0.87181200  0.97881500  1
  O  O17  1  0.15200400  0.51106300  0.20494700  1
  O  O18  1  0.65200400  0.48893700  0.29505300  1
  O  O19  1  0.60151400  0.25488500  0.09009900  1
  O  O20  1  0.10151400  0.74511500  0.40990100  1
  O  O21  1  0.89848600  0.25488500  0.59009900  1
  O  O22  1  0.36552400  0.12818800  0.52118500  1
  O  O23  1  0.14689400  0.83296000  0.74356300  1
  O  O24  1  0.34799600  0.51106300  0.70494700  1
  O  O25  1  0.39848600  0.74511500  0.90990100  1
  O  O26  1  0.35310600  0.83296000  0.24356300  1
  O  O27  1  0.85310600  0.16704000  0.25643700  1
