# generated using pymatgen
data_Li3Ni(PO4)2
_symmetry_space_group_name_H-M   'P 1'
_cell_length_a   10.39008800
_cell_length_b   8.17335000
_cell_length_c   8.27702817
_cell_angle_alpha   74.60136036
_cell_angle_beta   90.00000000
_cell_angle_gamma   90.00000000
_symmetry_Int_Tables_number   1
_chemical_formula_structural   Li3Ni(PO4)2
_chemical_formula_sum   'Li12 Ni4 P8 O32'
_cell_volume   677.66742258
_cell_formula_units_Z   4
loop_
 _symmetry_equiv_pos_site_id
 _symmetry_equiv_pos_as_xyz
  1  'x, y, z'
loop_
 _atom_site_type_symbol
 _atom_site_label
 _atom_site_symmetry_multiplicity
 _atom_site_fract_x
 _atom_site_fract_y
 _atom_site_fract_z
 _atom_site_occupancy
  Li  Li0  1  0.33640200  0.60948400  0.65130500  1
  Li  Li1  1  0.84757500  0.64462300  0.58185000  1
  Li  Li2  1  0.64582000  0.16282900  0.59331100  1
  Li  Li3  1  0.14582000  0.83717100  0.40668900  1
  Li  Li4  1  0.34757500  0.35537700  0.41815000  1
  Li  Li5  1  0.83640200  0.39051600  0.34869500  1
  Li  Li6  1  0.16656600  0.60511900  0.16075500  1
  Li  Li7  1  0.65815800  0.65191000  0.08835300  1
  Li  Li8  1  0.92310500  0.45426300  0.03438900  1
  Li  Li9  1  0.42310500  0.54573700  0.96561100  1
  Li  Li10  1  0.15815800  0.34809000  0.91164700  1
  Li  Li11  1  0.66656600  0.39488100  0.83924500  1
  Ni  Ni12  1  0.16117900  0.09607500  0.67081600  1
  Ni  Ni13  1  0.66117900  0.90392500  0.32918400  1
  Ni  Ni14  1  0.34100200  0.09264800  0.16788100  1
  Ni  Ni15  1  0.84100200  0.90735200  0.83211900  1
  P  P16  1  0.40444800  0.23199100  0.79837300  1
  P  P17  1  0.08763000  0.72098500  0.78387600  1
  P  P18  1  0.58763000  0.27901500  0.21612400  1
  P  P19  1  0.10147300  0.23385700  0.29467900  1
  P  P20  1  0.60147300  0.76614300  0.70532100  1
  P  P21  1  0.90896000  0.29107800  0.71937700  1
  P  P22  1  0.40896000  0.70892200  0.28062300  1
  P  P23  1  0.90444800  0.76800900  0.20162700  1
  O  O24  1  0.05473000  0.23723200  0.75945000  1
  O  O25  1  0.34105300  0.38867600  0.83724000  1
  O  O26  1  0.46267700  0.72594300  0.75811300  1
  O  O27  1  0.85683300  0.34960000  0.86666200  1
  O  O28  1  0.93906800  0.75813500  0.74131700  1
  O  O29  1  0.67608600  0.61887100  0.67082100  1
  O  O30  1  0.54501500  0.25471600  0.74762400  1
  O  O31  1  0.15446100  0.68550900  0.63327000  1
  O  O32  1  0.61454000  0.92679200  0.54730600  1
  O  O33  1  0.83116300  0.13132200  0.69583000  1
  O  O34  1  0.32857900  0.18832100  0.64763000  1
  O  O35  1  0.89739900  0.42578000  0.55322300  1
  O  O36  1  0.39739900  0.57422000  0.44677700  1
  O  O37  1  0.82857900  0.81167900  0.35237000  1
  O  O38  1  0.33116300  0.86867800  0.30417000  1
  O  O39  1  0.11454000  0.07320800  0.45269400  1
  O  O40  1  0.65446100  0.31449100  0.36673000  1
  O  O41  1  0.04501500  0.74528400  0.25237600  1
  O  O42  1  0.55473000  0.76276800  0.24055000  1
  O  O43  1  0.17608600  0.38112900  0.32917900  1
  O  O44  1  0.84105300  0.61132400  0.16276000  1
  O  O45  1  0.43906800  0.24186500  0.25868300  1
  O  O46  1  0.96267700  0.27405700  0.24188700  1
  O  O47  1  0.35683300  0.65040000  0.13333800  1
  O  O48  1  0.88432400  0.92338300  0.04510900  1
  O  O49  1  0.64334100  0.11608800  0.17543600  1
  O  O50  1  0.17006100  0.17727200  0.14489000  1
  O  O51  1  0.59618500  0.42911400  0.05693700  1
  O  O52  1  0.09618500  0.57088600  0.94306300  1
  O  O53  1  0.67006100  0.82272800  0.85511000  1
  O  O54  1  0.14334100  0.88391200  0.82456400  1
  O  O55  1  0.38432400  0.07661700  0.95489100  1
