# generated using pymatgen
data_Li3Fe3(PO4)4
_symmetry_space_group_name_H-M   'P 1'
_cell_length_a   8.13173500
_cell_length_b   7.75538000
_cell_length_c   10.15389863
_cell_angle_alpha   84.71213048
_cell_angle_beta   90.00000000
_cell_angle_gamma   90.00000000
_symmetry_Int_Tables_number   1
_chemical_formula_structural   Li3Fe3(PO4)4
_chemical_formula_sum   'Li6 Fe6 P8 O32'
_cell_volume   637.62732867
_cell_formula_units_Z   2
loop_
 _symmetry_equiv_pos_site_id
 _symmetry_equiv_pos_as_xyz
  1  'x, y, z'
loop_
 _atom_site_type_symbol
 _atom_site_label
 _atom_site_symmetry_multiplicity
 _atom_site_fract_x
 _atom_site_fract_y
 _atom_site_fract_z
 _atom_site_occupancy
  Li  Li0  1  0.36161700  0.63746300  0.92066700  1
  Li  Li1  1  0.63161900  0.84638300  0.33601900  1
  Li  Li2  1  0.13161900  0.15361700  0.66398100  1
  Li  Li3  1  0.86357400  0.34114800  0.58387300  1
  Li  Li4  1  0.86161700  0.36253700  0.07933300  1
  Li  Li5  1  0.36357400  0.65885200  0.41612700  1
  Fe  Fe6  1  0.63934800  0.85213900  0.82956000  1
  Fe  Fe7  1  0.13934800  0.14786100  0.17044000  1
  Fe  Fe8  1  0.51799300  0.26233000  0.13132900  1
  Fe  Fe9  1  0.48540100  0.27748400  0.62080900  1
  Fe  Fe10  1  0.98540100  0.72251600  0.37919100  1
  Fe  Fe11  1  0.01799300  0.73767000  0.86867100  1
  P  P12  1  0.19828300  0.54875100  0.14596500  1
  P  P13  1  0.69828300  0.45124900  0.85403500  1
  P  P14  1  0.68660100  0.45105400  0.36004300  1
  P  P15  1  0.30261800  0.04986100  0.88899400  1
  P  P16  1  0.31407500  0.05527100  0.39613300  1
  P  P17  1  0.80261800  0.95013900  0.11100600  1
  P  P18  1  0.18660100  0.54894600  0.63995700  1
  P  P19  1  0.81407500  0.94472900  0.60386700  1
  O  O20  1  0.69828300  0.36382800  0.22685400  1
  O  O21  1  0.79728500  0.87389700  0.97297600  1
  O  O22  1  0.42570200  0.90090600  0.40676000  1
  O  O23  1  0.80636400  0.85308500  0.47552800  1
  O  O24  1  0.86300700  0.80584700  0.72314600  1
  O  O25  1  0.86203000  0.80805900  0.21595600  1
  O  O26  1  0.13679500  0.68147000  0.03216300  1
  O  O27  1  0.13158800  0.69182200  0.53018200  1
  O  O28  1  0.19828300  0.63617200  0.77314600  1
  O  O29  1  0.57980700  0.61148300  0.84450200  1
  O  O30  1  0.19062800  0.63241300  0.27718000  1
  O  O31  1  0.57215800  0.60391900  0.34585500  1
  O  O32  1  0.87100300  0.51006500  0.89725900  1
  O  O33  1  0.37100300  0.48993500  0.10274100  1
  O  O34  1  0.36552100  0.49820200  0.59915900  1
  O  O35  1  0.86552100  0.50179800  0.40084100  1
  O  O36  1  0.63332300  0.01752400  0.15123100  1
  O  O37  1  0.69062800  0.36758700  0.72282000  1
  O  O38  1  0.63679500  0.31853000  0.96783700  1
  O  O39  1  0.07980700  0.38851700  0.15549800  1
  O  O40  1  0.07215800  0.39608100  0.65414500  1
  O  O41  1  0.63158800  0.30817800  0.46981800  1
  O  O42  1  0.36203000  0.19194100  0.78404400  1
  O  O43  1  0.29728500  0.12610300  0.02702400  1
  O  O44  1  0.36300700  0.19415300  0.27685400  1
  O  O45  1  0.92939200  0.10192800  0.09722700  1
  O  O46  1  0.30636400  0.14691500  0.52447200  1
  O  O47  1  0.92570200  0.09909400  0.59324000  1
  O  O48  1  0.13332300  0.98247600  0.84876900  1
  O  O49  1  0.63598400  0.99138300  0.65634900  1
  O  O50  1  0.13598400  0.00861700  0.34365100  1
  O  O51  1  0.42939200  0.89807200  0.90277300  1
