# generated using pymatgen
data_Li6Cr9(PO4)8
_symmetry_space_group_name_H-M   'P 1'
_cell_length_a   9.20535400
_cell_length_b   9.05217541
_cell_length_c   8.94903498
_cell_angle_alpha   103.55691940
_cell_angle_beta   99.51191338
_cell_angle_gamma   111.74642969
_symmetry_Int_Tables_number   1
_chemical_formula_structural   Li6Cr9(PO4)8
_chemical_formula_sum   'Li6 Cr9 P8 O32'
_cell_volume   646.56445707
_cell_formula_units_Z   1
loop_
 _symmetry_equiv_pos_site_id
 _symmetry_equiv_pos_as_xyz
  1  'x, y, z'
loop_
 _atom_site_type_symbol
 _atom_site_label
 _atom_site_symmetry_multiplicity
 _atom_site_fract_x
 _atom_site_fract_y
 _atom_site_fract_z
 _atom_site_occupancy
  Li  Li0  1  0.00439600  0.89747900  0.64411000  1
  Li  Li1  1  0.99560400  0.10252100  0.35589000  1
  Li  Li2  1  0.73219100  0.24945900  0.95989400  1
  Li  Li3  1  0.65020700  0.68543600  0.69419500  1
  Li  Li4  1  0.34979300  0.31456400  0.30580500  1
  Li  Li5  1  0.26780900  0.75054100  0.04010600  1
  Cr  Cr6  1  0.93512400  0.72478600  0.21020100  1
  Cr  Cr7  1  0.57003300  0.12507700  0.28567900  1
  Cr  Cr8  1  0.56342200  0.30805900  0.65825400  1
  Cr  Cr9  1  0.50000000  0.50000000  0.00000000  1
  Cr  Cr10  1  0.43657800  0.69194100  0.34174600  1
  Cr  Cr11  1  0.00000000  0.00000000  0.00000000  1
  Cr  Cr12  1  0.42996700  0.87492300  0.71432100  1
  Cr  Cr13  1  0.06487600  0.27521400  0.78979900  1
  Cr  Cr14  1  0.00000000  0.50000000  0.50000000  1
  P  P15  1  0.27947800  0.95383200  0.40797700  1
  P  P16  1  0.08878100  0.37220200  0.16131000  1
  P  P17  1  0.28100500  0.44254700  0.65448800  1
  P  P18  1  0.34867300  0.11505400  0.96138200  1
  P  P19  1  0.65132700  0.88494600  0.03861800  1
  P  P20  1  0.71899500  0.55745300  0.34551200  1
  P  P21  1  0.91121900  0.62779800  0.83869000  1
  P  P22  1  0.72052200  0.04616800  0.59202300  1
  O  O23  1  0.90907900  0.78696300  0.79690900  1
  O  O24  1  0.68345400  0.17331600  0.71149300  1
  O  O25  1  0.88056400  0.04495900  0.67625300  1
  O  O26  1  0.59837900  0.83117200  0.85250900  1
  O  O27  1  0.75520600  0.42416000  0.40503200  1
  O  O28  1  0.86874200  0.73237500  0.42173300  1
  O  O29  1  0.66243700  0.06466900  0.10519800  1
  O  O30  1  0.73289700  0.08387100  0.43434800  1
  O  O31  1  0.97882500  0.53468100  0.72346300  1
  O  O32  1  0.11943600  0.95504100  0.32374700  1
  O  O33  1  0.02113300  0.68813900  0.01289100  1
  O  O34  1  0.02117500  0.46531900  0.27653700  1
  O  O35  1  0.26710300  0.91612900  0.56565200  1
  O  O36  1  0.33756300  0.93533100  0.89480200  1
  O  O37  1  0.13125800  0.26762500  0.57826700  1
  O  O38  1  0.24479400  0.57584000  0.59496800  1
  O  O39  1  0.70382300  0.52482400  0.16020700  1
  O  O40  1  0.31654600  0.82668400  0.28850700  1
  O  O41  1  0.29617700  0.47517600  0.83979300  1
  O  O42  1  0.17613900  0.10859900  0.90260400  1
  O  O43  1  0.26854300  0.48228500  0.17080700  1
  O  O44  1  0.09092100  0.21303700  0.20309100  1
  O  O45  1  0.57561800  0.86703900  0.55644800  1
  O  O46  1  0.43958800  0.44532700  0.61826500  1
  O  O47  1  0.47072800  0.25031800  0.90655400  1
  O  O48  1  0.52927200  0.74968200  0.09344600  1
  O  O49  1  0.56041200  0.55467300  0.38173500  1
  O  O50  1  0.42438200  0.13296100  0.44355200  1
  O  O51  1  0.40162100  0.16882800  0.14749100  1
  O  O52  1  0.73145700  0.51771500  0.82919300  1
  O  O53  1  0.82386100  0.89140100  0.09739600  1
  O  O54  1  0.97886700  0.31186100  0.98710900  1
