# generated using pymatgen
data_Li4V3O8
_symmetry_space_group_name_H-M   'P 1'
_cell_length_a   4.02655700
_cell_length_b   6.21723800
_cell_length_c   11.80242112
_cell_angle_alpha   79.64547377
_cell_angle_beta   90.00000000
_cell_angle_gamma   90.00000000
_symmetry_Int_Tables_number   1
_chemical_formula_structural   Li4V3O8
_chemical_formula_sum   'Li8 V6 O16'
_cell_volume   290.65078085
_cell_formula_units_Z   2
loop_
 _symmetry_equiv_pos_site_id
 _symmetry_equiv_pos_as_xyz
  1  'x, y, z'
loop_
 _atom_site_type_symbol
 _atom_site_label
 _atom_site_symmetry_multiplicity
 _atom_site_fract_x
 _atom_site_fract_y
 _atom_site_fract_z
 _atom_site_occupancy
  Li  Li0  1  0.75000000  0.18299300  0.40608600  1
  Li  Li1  1  0.25000000  0.81700700  0.59391400  1
  Li  Li2  1  0.75000000  0.01354800  0.68247800  1
  Li  Li3  1  0.25000000  0.45122400  0.30344100  1
  Li  Li4  1  0.75000000  0.42155600  0.94201800  1
  Li  Li5  1  0.25000000  0.57844400  0.05798200  1
  Li  Li6  1  0.25000000  0.98645200  0.31752200  1
  Li  Li7  1  0.75000000  0.54877600  0.69655900  1
  V  V8  1  0.75000000  0.76732300  0.19189300  1
  V  V9  1  0.25000000  0.23267700  0.80810700  1
  V  V10  1  0.75000000  0.88785400  0.92220200  1
  V  V11  1  0.25000000  0.11214600  0.07779800  1
  V  V12  1  0.75000000  0.67027200  0.44703000  1
  V  V13  1  0.25000000  0.32972800  0.55297000  1
  O  O14  1  0.75000000  0.19268000  0.82224100  1
  O  O15  1  0.75000000  0.51731400  0.31002400  1
  O  O16  1  0.25000000  0.80732000  0.17775900  1
  O  O17  1  0.25000000  0.48268600  0.68997600  1
  O  O18  1  0.25000000  0.63079100  0.45370600  1
  O  O19  1  0.75000000  0.36920900  0.54629400  1
  O  O20  1  0.25000000  0.94352700  0.93366700  1
  O  O21  1  0.75000000  0.05647300  0.06633300  1
  O  O22  1  0.25000000  0.07437000  0.68293800  1
  O  O23  1  0.75000000  0.92563000  0.31706200  1
  O  O24  1  0.25000000  0.26996700  0.18093800  1
  O  O25  1  0.75000000  0.73003300  0.81906200  1
  O  O26  1  0.25000000  0.18020100  0.43780300  1
  O  O27  1  0.75000000  0.81979900  0.56219700  1
  O  O28  1  0.25000000  0.35886300  0.94315500  1
  O  O29  1  0.75000000  0.64113700  0.05684500  1
