# generated using pymatgen
data_Li3V(PO4)2
_symmetry_space_group_name_H-M   'P 1'
_cell_length_a   8.86573100
_cell_length_b   4.93236200
_cell_length_c   7.86222093
_cell_angle_alpha   55.56627579
_cell_angle_beta   90.00000000
_cell_angle_gamma   90.00000000
_symmetry_Int_Tables_number   1
_chemical_formula_structural   Li3V(PO4)2
_chemical_formula_sum   'Li6 V2 P4 O16'
_cell_volume   283.56543251
_cell_formula_units_Z   2
loop_
 _symmetry_equiv_pos_site_id
 _symmetry_equiv_pos_as_xyz
  1  'x, y, z'
loop_
 _atom_site_type_symbol
 _atom_site_label
 _atom_site_symmetry_multiplicity
 _atom_site_fract_x
 _atom_site_fract_y
 _atom_site_fract_z
 _atom_site_occupancy
  Li  Li0  1  0.13877100  0.32375500  0.69013300  1
  Li  Li1  1  0.50000000  0.00000000  0.00000000  1
  Li  Li2  1  0.63877100  0.67624500  0.80986700  1
  Li  Li3  1  0.00000000  0.00000000  0.50000000  1
  Li  Li4  1  0.36122900  0.32375500  0.19013300  1
  Li  Li5  1  0.86122900  0.67624500  0.30986700  1
  V  V6  1  0.50000000  0.50000000  0.50000000  1
  V  V7  1  0.00000000  0.50000000  0.00000000  1
  P  P8  1  0.18146300  0.80821100  0.22027900  1
  P  P9  1  0.68146300  0.19178900  0.27972100  1
  P  P10  1  0.31853700  0.80821100  0.72027900  1
  P  P11  1  0.81853700  0.19178900  0.77972100  1
  O  O12  1  0.85641900  0.47445000  0.80833200  1
  O  O13  1  0.09797200  0.74491000  0.40836900  1
  O  O14  1  0.35641900  0.52555000  0.69166800  1
  O  O15  1  0.13357500  0.14662700  0.02196600  1
  O  O16  1  0.35583800  0.82608500  0.24529900  1
  O  O17  1  0.63357500  0.85337300  0.47803400  1
  O  O18  1  0.59797200  0.25509000  0.09163100  1
  O  O19  1  0.85583800  0.17391500  0.25470100  1
  O  O20  1  0.64416200  0.17391500  0.75470100  1
  O  O21  1  0.40202800  0.74491000  0.90836900  1
  O  O22  1  0.36642500  0.14662700  0.52196600  1
  O  O23  1  0.14358100  0.52555000  0.19166800  1
  O  O24  1  0.86642500  0.85337300  0.97803400  1
  O  O25  1  0.64358100  0.47445000  0.30833200  1
  O  O26  1  0.90202800  0.25509000  0.59163100  1
  O  O27  1  0.14416200  0.82608500  0.74529900  1
