# generated using pymatgen
data_Li3Fe(PO4)2
_symmetry_space_group_name_H-M   'P 1'
_cell_length_a   10.40006700
_cell_length_b   8.24261400
_cell_length_c   8.33040768
_cell_angle_alpha   74.74119736
_cell_angle_beta   90.00000000
_cell_angle_gamma   90.00000000
_symmetry_Int_Tables_number   1
_chemical_formula_structural   Li3Fe(PO4)2
_chemical_formula_sum   'Li12 Fe4 P8 O32'
_cell_volume   688.93896435
_cell_formula_units_Z   4
loop_
 _symmetry_equiv_pos_site_id
 _symmetry_equiv_pos_as_xyz
  1  'x, y, z'
loop_
 _atom_site_type_symbol
 _atom_site_label
 _atom_site_symmetry_multiplicity
 _atom_site_fract_x
 _atom_site_fract_y
 _atom_site_fract_z
 _atom_site_occupancy
  Li  Li0  1  0.33682100  0.60715600  0.65162400  1
  Li  Li1  1  0.66685800  0.39959700  0.83805800  1
  Li  Li2  1  0.15751800  0.35428000  0.90429600  1
  Li  Li3  1  0.42254800  0.54618800  0.96642300  1
  Li  Li4  1  0.92254800  0.45381200  0.03357700  1
  Li  Li5  1  0.84774400  0.64241600  0.58530500  1
  Li  Li6  1  0.64651800  0.17117700  0.59127300  1
  Li  Li7  1  0.14651800  0.82882300  0.40872700  1
  Li  Li8  1  0.34774400  0.35758400  0.41469500  1
  Li  Li9  1  0.83682100  0.39284400  0.34837600  1
  Li  Li10  1  0.16685800  0.60040300  0.16194200  1
  Li  Li11  1  0.65751800  0.64572000  0.09570400  1
  Fe  Fe12  1  0.83872600  0.90923600  0.83947800  1
  Fe  Fe13  1  0.33872600  0.09076400  0.16052200  1
  Fe  Fe14  1  0.66056800  0.90360800  0.34010800  1
  Fe  Fe15  1  0.16056800  0.09639200  0.65989200  1
  P  P16  1  0.90747700  0.76353400  0.20557000  1
  P  P17  1  0.09867900  0.23443100  0.28926900  1
  P  P18  1  0.58748000  0.27978400  0.21685000  1
  P  P19  1  0.08748000  0.72021600  0.78315000  1
  P  P20  1  0.59867900  0.76556900  0.71073100  1
  P  P21  1  0.90872900  0.29432600  0.71782900  1
  P  P22  1  0.40747700  0.23646600  0.79443000  1
  P  P23  1  0.40872900  0.70567400  0.28217100  1
  O  O24  1  0.65398900  0.31810600  0.36545400  1
  O  O25  1  0.45987300  0.72539200  0.75971600  1
  O  O26  1  0.34256600  0.38933400  0.83661200  1
  O  O27  1  0.05492000  0.23992300  0.75290300  1
  O  O28  1  0.93936600  0.76053700  0.74274000  1
  O  O29  1  0.67431200  0.62326200  0.67011600  1
  O  O30  1  0.54765800  0.26060600  0.74481700  1
  O  O31  1  0.15398900  0.68189400  0.63454600  1
  O  O32  1  0.61218200  0.92827000  0.55531300  1
  O  O33  1  0.83316100  0.13170600  0.69859300  1
  O  O34  1  0.32837600  0.19325000  0.64765500  1
  O  O35  1  0.89543100  0.42699200  0.55312800  1
  O  O36  1  0.39543100  0.57300800  0.44687200  1
  O  O37  1  0.38986400  0.08119400  0.94990600  1
  O  O38  1  0.33316100  0.86829400  0.30140700  1
  O  O39  1  0.11218200  0.07173000  0.44468700  1
  O  O40  1  0.82837600  0.80675000  0.35234500  1
  O  O41  1  0.04765800  0.73939400  0.25518300  1
  O  O42  1  0.55492000  0.76007700  0.24709700  1
  O  O43  1  0.17431200  0.37673800  0.32988400  1
  O  O44  1  0.84256600  0.61066600  0.16338800  1
  O  O45  1  0.43936600  0.23946300  0.25726000  1
  O  O46  1  0.95987300  0.27460800  0.24028400  1
  O  O47  1  0.35653000  0.64818700  0.13543100  1
  O  O48  1  0.88986400  0.91880600  0.05009400  1
  O  O49  1  0.64439200  0.11436900  0.18410400  1
  O  O50  1  0.16940900  0.18263800  0.13953700  1
  O  O51  1  0.59622000  0.42712600  0.05783100  1
  O  O52  1  0.09622000  0.57287400  0.94216900  1
  O  O53  1  0.66940900  0.81736200  0.86046300  1
  O  O54  1  0.14439200  0.88563100  0.81589600  1
  O  O55  1  0.85653000  0.35181300  0.86456900  1
