# generated using pymatgen
data_LiCr2(PO4)3
_symmetry_space_group_name_H-M   'P 1'
_cell_length_a   8.56808995
_cell_length_b   8.56808995
_cell_length_c   6.25904699
_cell_angle_alpha   74.17631062
_cell_angle_beta   74.17631062
_cell_angle_gamma   91.95312684
_symmetry_Int_Tables_number   1
_chemical_formula_structural   LiCr2(PO4)3
_chemical_formula_sum   'Li2 Cr4 P6 O24'
_cell_volume   422.39710830
_cell_formula_units_Z   2
loop_
 _symmetry_equiv_pos_site_id
 _symmetry_equiv_pos_as_xyz
  1  'x, y, z'
loop_
 _atom_site_type_symbol
 _atom_site_label
 _atom_site_symmetry_multiplicity
 _atom_site_fract_x
 _atom_site_fract_y
 _atom_site_fract_z
 _atom_site_occupancy
  Li  Li0  1  0.50000000  0.50000000  0.50000000  1
  Li  Li1  1  0.50000000  0.50000000  0.00000000  1
  Cr  Cr2  1  0.93980100  0.62158600  0.13726400  1
  Cr  Cr3  1  0.62158600  0.93980100  0.63726400  1
  Cr  Cr4  1  0.37841400  0.06019900  0.36273600  1
  Cr  Cr5  1  0.06019900  0.37841400  0.86273600  1
  P  P6  1  0.27656800  0.72343200  0.75000000  1
  P  P7  1  0.35428200  0.16161000  0.85508100  1
  P  P8  1  0.64571800  0.83839000  0.14491900  1
  P  P9  1  0.72343200  0.27656800  0.25000000  1
  P  P10  1  0.16161000  0.35428200  0.35508100  1
  P  P11  1  0.83839000  0.64571800  0.64491900  1
  O  O12  1  0.96253400  0.64003900  0.41302800  1
  O  O13  1  0.80725000  0.82777000  0.61308800  1
  O  O14  1  0.54745400  0.25066100  0.22941900  1
  O  O15  1  0.93923400  0.59153800  0.82762300  1
  O  O16  1  0.06076600  0.40846200  0.17237700  1
  O  O17  1  0.03746600  0.35996100  0.58697200  1
  O  O18  1  0.19275000  0.17223000  0.38691200  1
  O  O19  1  0.14779500  0.73932300  0.96944900  1
  O  O20  1  0.26067700  0.85220500  0.53055100  1
  O  O21  1  0.17223000  0.19275000  0.88691200  1
  O  O22  1  0.31793900  0.46282500  0.28394500  1
  O  O23  1  0.35996100  0.03746600  0.08697200  1
  O  O24  1  0.25066100  0.54745400  0.72941900  1
  O  O25  1  0.73932300  0.14779500  0.46944900  1
  O  O26  1  0.53717500  0.68206100  0.21605500  1
  O  O27  1  0.45254600  0.74933900  0.77058100  1
  O  O28  1  0.40846200  0.06076600  0.67237700  1
  O  O29  1  0.46282500  0.31793900  0.78394500  1
  O  O30  1  0.59153800  0.93923400  0.32762300  1
  O  O31  1  0.74933900  0.45254600  0.27058100  1
  O  O32  1  0.64003900  0.96253400  0.91302800  1
  O  O33  1  0.68206100  0.53717500  0.71605500  1
  O  O34  1  0.82777000  0.80725000  0.11308800  1
  O  O35  1  0.85220500  0.26067700  0.03055100  1
