# generated using pymatgen
data_Li2CuPO4
_symmetry_space_group_name_H-M   'P 1'
_cell_length_a   10.91697800
_cell_length_b   5.16589400
_cell_length_c   7.97171787
_cell_angle_alpha   50.29179600
_cell_angle_beta   90.00000000
_cell_angle_gamma   90.00000000
_symmetry_Int_Tables_number   1
_chemical_formula_structural   Li2CuPO4
_chemical_formula_sum   'Li8 Cu4 P4 O16'
_cell_volume   345.85984438
_cell_formula_units_Z   4
loop_
 _symmetry_equiv_pos_site_id
 _symmetry_equiv_pos_as_xyz
  1  'x, y, z'
loop_
 _atom_site_type_symbol
 _atom_site_label
 _atom_site_symmetry_multiplicity
 _atom_site_fract_x
 _atom_site_fract_y
 _atom_site_fract_z
 _atom_site_occupancy
  Li  Li0  1  0.83551300  0.69765600  0.99864100  1
  Li  Li1  1  0.07251200  0.44545900  0.25594500  1
  Li  Li2  1  0.57251200  0.55454100  0.24405500  1
  Li  Li3  1  0.33551300  0.30234400  0.50135900  1
  Li  Li4  1  0.16448700  0.30234400  0.00135900  1
  Li  Li5  1  0.92748800  0.55454100  0.74405500  1
  Li  Li6  1  0.42748800  0.44545900  0.75594500  1
  Li  Li7  1  0.66448700  0.69765600  0.49864100  1
  Cu  Cu8  1  0.82896400  0.21379700  0.49900100  1
  Cu  Cu9  1  0.17103600  0.78620300  0.50099900  1
  Cu  Cu10  1  0.32896400  0.78620300  0.00099900  1
  Cu  Cu11  1  0.67103600  0.21379700  0.99900100  1
  P  P12  1  0.08749900  0.04932200  0.75325700  1
  P  P13  1  0.58749900  0.95067800  0.74674300  1
  P  P14  1  0.41250100  0.04932200  0.25325700  1
  P  P15  1  0.91250100  0.95067800  0.24674300  1
  O  O16  1  0.04424900  0.06356900  0.24896900  1
  O  O17  1  0.91806700  0.66066400  0.23465400  1
  O  O18  1  0.84751100  0.26532000  0.03806300  1
  O  O19  1  0.45575100  0.06356900  0.74896900  1
  O  O20  1  0.65910300  0.82669400  0.95534100  1
  O  O21  1  0.54424900  0.93643100  0.25103100  1
  O  O22  1  0.08193300  0.33933600  0.76534600  1
  O  O23  1  0.95575100  0.93643100  0.75103100  1
  O  O24  1  0.15248900  0.73468000  0.96193700  1
  O  O25  1  0.58193300  0.66066400  0.73465400  1
  O  O26  1  0.65248900  0.26532000  0.53806300  1
  O  O27  1  0.15910300  0.17330600  0.54465900  1
  O  O28  1  0.84089700  0.82669400  0.45534100  1
  O  O29  1  0.34751100  0.73468000  0.46193700  1
  O  O30  1  0.41806700  0.33933600  0.26534600  1
  O  O31  1  0.34089700  0.17330600  0.04465900  1
