# generated using pymatgen
data_LiMnPO4
_symmetry_space_group_name_H-M   'P 1'
_cell_length_a   8.72185731
_cell_length_b   8.72185731
_cell_length_c   8.72185788
_cell_angle_alpha   107.75587412
_cell_angle_beta   107.75587412
_cell_angle_gamma   107.75587148
_symmetry_Int_Tables_number   1
_chemical_formula_structural   LiMnPO4
_chemical_formula_sum   'Li6 Mn6 P6 O24'
_cell_volume   540.75369972
_cell_formula_units_Z   6
loop_
 _symmetry_equiv_pos_site_id
 _symmetry_equiv_pos_as_xyz
  1  'x, y, z'
loop_
 _atom_site_type_symbol
 _atom_site_label
 _atom_site_symmetry_multiplicity
 _atom_site_fract_x
 _atom_site_fract_y
 _atom_site_fract_z
 _atom_site_occupancy
  Li  Li0  1  0.89098400  0.12914100  0.72147000  1
  Li  Li1  1  0.42781000  0.21282500  0.61019900  1
  Li  Li2  1  0.61019900  0.42781000  0.21282500  1
  Li  Li3  1  0.12914100  0.72147000  0.89098400  1
  Li  Li4  1  0.21282500  0.61019900  0.42781000  1
  Li  Li5  1  0.72147000  0.89098400  0.12914100  1
  Mn  Mn6  1  0.45516300  0.05432100  0.22974300  1
  Mn  Mn7  1  0.76958100  0.53831500  0.94427000  1
  Mn  Mn8  1  0.05432100  0.22974300  0.45516300  1
  Mn  Mn9  1  0.94427000  0.76958100  0.53831500  1
  Mn  Mn10  1  0.22974300  0.45516300  0.05432100  1
  Mn  Mn11  1  0.53831500  0.94427000  0.76958100  1
  P  P12  1  0.28109900  0.09862500  0.87223200  1
  P  P13  1  0.79020600  0.38498400  0.57111100  1
  P  P14  1  0.87223200  0.28109900  0.09862500  1
  P  P15  1  0.38498400  0.57111100  0.79020600  1
  P  P16  1  0.57111100  0.79020600  0.38498400  1
  P  P17  1  0.09862500  0.87223200  0.28109900  1
  O  O18  1  0.96093100  0.29434500  0.96918900  1
  O  O19  1  0.39397600  0.09476500  0.76471000  1
  O  O20  1  0.08115500  0.03382200  0.74338600  1
  O  O21  1  0.89780500  0.27271300  0.58378700  1
  O  O22  1  0.28995200  0.02342800  0.35699000  1
  O  O23  1  0.74338600  0.08115500  0.03382200  1
  O  O24  1  0.68344500  0.36238300  0.68316000  1
  O  O25  1  0.65468000  0.31566300  0.37381700  1
  O  O26  1  0.31566300  0.37381700  0.65468000  1
  O  O27  1  0.92144900  0.58650500  0.64828200  1
  O  O28  1  0.76471000  0.39397600  0.09476500  1
  O  O29  1  0.35699000  0.28995200  0.02342800  1
  O  O30  1  0.58650500  0.64828200  0.92144900  1
  O  O31  1  0.27271300  0.58378700  0.89780500  1
  O  O32  1  0.02342800  0.35699000  0.28995200  1
  O  O33  1  0.36238300  0.68316000  0.68344500  1
  O  O34  1  0.68316000  0.68344500  0.36238300  1
  O  O35  1  0.37381700  0.65468000  0.31566300  1
  O  O36  1  0.64828200  0.92144900  0.58650500  1
  O  O37  1  0.96918900  0.96093100  0.29434500  1
  O  O38  1  0.29434500  0.96918900  0.96093100  1
  O  O39  1  0.09476500  0.76471000  0.39397600  1
  O  O40  1  0.58378700  0.89780500  0.27271300  1
  O  O41  1  0.03382200  0.74338600  0.08115500  1
