# generated using pymatgen
data_Li4Fe5(P3O11)2
_symmetry_space_group_name_H-M   'P 1'
_cell_length_a   6.56691600
_cell_length_b   10.94563400
_cell_length_c   12.49726489
_cell_angle_alpha   76.17499092
_cell_angle_beta   90.00000000
_cell_angle_gamma   90.00000000
_symmetry_Int_Tables_number   1
_chemical_formula_structural   Li4Fe5(P3O11)2
_chemical_formula_sum   'Li8 Fe10 P12 O44'
_cell_volume   872.26819490
_cell_formula_units_Z   2
loop_
 _symmetry_equiv_pos_site_id
 _symmetry_equiv_pos_as_xyz
  1  'x, y, z'
loop_
 _atom_site_type_symbol
 _atom_site_label
 _atom_site_symmetry_multiplicity
 _atom_site_fract_x
 _atom_site_fract_y
 _atom_site_fract_z
 _atom_site_occupancy
  Li  Li0  1  0.86476200  0.56886500  0.81308200  1
  Li  Li1  1  0.13523800  0.43113500  0.18691800  1
  Li  Li2  1  0.52497200  0.11327200  0.33917500  1
  Li  Li3  1  0.36476200  0.93113500  0.18691800  1
  Li  Li4  1  0.97502800  0.61327200  0.33917500  1
  Li  Li5  1  0.02497200  0.38672800  0.66082500  1
  Li  Li6  1  0.63523800  0.06886500  0.81308200  1
  Li  Li7  1  0.47502800  0.88672800  0.66082500  1
  Fe  Fe8  1  0.77074500  0.21768500  0.14093600  1
  Fe  Fe9  1  0.72925500  0.71768500  0.14093600  1
  Fe  Fe10  1  0.97758000  0.19523000  0.33176800  1
  Fe  Fe11  1  0.52242000  0.69523000  0.33176800  1
  Fe  Fe12  1  0.47758000  0.30477000  0.66823200  1
  Fe  Fe13  1  0.02242000  0.80477000  0.66823200  1
  Fe  Fe14  1  0.27074500  0.28231500  0.85906400  1
  Fe  Fe15  1  0.00000000  0.00000000  0.00000000  1
  Fe  Fe16  1  0.22925500  0.78231500  0.85906400  1
  Fe  Fe17  1  0.50000000  0.50000000  0.00000000  1
  P  P18  1  0.39970300  0.56918400  0.73581500  1
  P  P19  1  0.10029700  0.06918400  0.73581500  1
  P  P20  1  0.72529200  0.58284300  0.58046700  1
  P  P21  1  0.77766900  0.27853300  0.91160300  1
  P  P22  1  0.22529200  0.91715700  0.41953300  1
  P  P23  1  0.77470800  0.08284300  0.58046700  1
  P  P24  1  0.27470800  0.41715700  0.41953300  1
  P  P25  1  0.89970300  0.93081600  0.26418500  1
  P  P26  1  0.60029700  0.43081600  0.26418500  1
  P  P27  1  0.22233100  0.72146700  0.08839700  1
  P  P28  1  0.72233100  0.77853300  0.91160300  1
  P  P29  1  0.27766900  0.22146700  0.08839700  1
  O  O30  1  0.20474200  0.94584200  0.72656700  1
  O  O31  1  0.40504100  0.74558900  0.16108000  1
  O  O32  1  0.43474500  0.45223400  0.17659200  1
  O  O33  1  0.79525800  0.05415800  0.27343300  1
  O  O34  1  0.09495900  0.24558900  0.16108000  1
  O  O35  1  0.45979900  0.17069500  0.16477800  1
  O  O36  1  0.18518300  0.84999500  0.00218200  1
  O  O37  1  0.26505100  0.63133900  0.01134900  1
  O  O38  1  0.31481700  0.34999500  0.00218200  1
  O  O39  1  0.23494900  0.13133900  0.01134900  1
  O  O40  1  0.76505100  0.86866100  0.98865100  1
  O  O41  1  0.68518300  0.65000500  0.99781800  1
  O  O42  1  0.73494900  0.36866100  0.98865100  1
  O  O43  1  0.81481700  0.15000500  0.99781800  1
  O  O44  1  0.54020100  0.82930500  0.83522200  1
  O  O45  1  0.90504100  0.75441100  0.83892000  1
  O  O46  1  0.56525500  0.54776600  0.82340800  1
  O  O47  1  0.04020100  0.67069500  0.16477800  1
  O  O48  1  0.95979900  0.32930500  0.83522200  1
  O  O49  1  0.59495900  0.25441100  0.83892000  1
  O  O50  1  0.24007300  0.66522800  0.75206600  1
  O  O51  1  0.93474500  0.04776600  0.82340800  1
  O  O52  1  0.29525800  0.44584200  0.72656700  1
  O  O53  1  0.77119600  0.93777300  0.61322200  1
  O  O54  1  0.25992700  0.16522800  0.75206600  1
  O  O55  1  0.88635600  0.63500000  0.64696600  1
  O  O56  1  0.50301400  0.62849700  0.61781800  1
  O  O57  1  0.23553800  0.85978300  0.54315400  1
  O  O58  1  0.72880400  0.43777300  0.61322200  1
  O  O59  1  0.61364400  0.13500000  0.64696600  1
  O  O60  1  0.99698600  0.12849700  0.61781800  1
  O  O61  1  0.26446200  0.35978300  0.54315400  1
  O  O62  1  0.73553800  0.64021700  0.45684600  1
  O  O63  1  0.00301400  0.87150300  0.38218200  1
  O  O64  1  0.38635600  0.86500000  0.35303400  1
  O  O65  1  0.27119600  0.56222700  0.38677800  1
  O  O66  1  0.76446200  0.14021700  0.45684600  1
  O  O67  1  0.49698600  0.37150300  0.38218200  1
  O  O68  1  0.75992700  0.33477200  0.24793400  1
  O  O69  1  0.74007300  0.83477200  0.24793400  1
  O  O70  1  0.22880400  0.06222700  0.38677800  1
  O  O71  1  0.70474200  0.55415800  0.27343300  1
  O  O72  1  0.06525500  0.95223400  0.17659200  1
  O  O73  1  0.11364400  0.36500000  0.35303400  1
