# generated using pymatgen
data_K3LiSi4
_symmetry_space_group_name_H-M   'P 1'
_cell_length_a   7.67385400
_cell_length_b   9.78984400
_cell_length_c   12.29516300
_cell_angle_alpha   90.00000000
_cell_angle_beta   90.00000000
_cell_angle_gamma   90.00000000
_symmetry_Int_Tables_number   1
_chemical_formula_structural   K3LiSi4
_chemical_formula_sum   'K12 Li4 Si16'
_cell_volume   923.68436887
_cell_formula_units_Z   4
loop_
 _symmetry_equiv_pos_site_id
 _symmetry_equiv_pos_as_xyz
  1  'x, y, z'
loop_
 _atom_site_type_symbol
 _atom_site_label
 _atom_site_symmetry_multiplicity
 _atom_site_fract_x
 _atom_site_fract_y
 _atom_site_fract_z
 _atom_site_occupancy
  K  K0  1  0.65527200  0.25000000  0.39890600  1
  K  K1  1  0.15527200  0.25000000  0.10109400  1
  K  K2  1  0.34472800  0.75000000  0.60109400  1
  K  K3  1  0.84472800  0.75000000  0.89890600  1
  K  K4  1  0.65402500  0.44517200  0.69346600  1
  K  K5  1  0.15402500  0.05482800  0.80653400  1
  K  K6  1  0.34597500  0.94517200  0.30653400  1
  K  K7  1  0.84597500  0.55482800  0.19346600  1
  K  K8  1  0.34597500  0.55482800  0.30653400  1
  K  K9  1  0.84597500  0.94517200  0.19346600  1
  K  K10  1  0.65402500  0.05482800  0.69346600  1
  K  K11  1  0.15402500  0.44517200  0.80653400  1
  Li  Li12  1  0.50000000  0.50000000  0.00000000  1
  Li  Li13  1  0.00000000  0.00000000  0.50000000  1
  Li  Li14  1  0.50000000  0.00000000  0.00000000  1
  Li  Li15  1  0.00000000  0.50000000  0.50000000  1
  Si  Si16  1  0.36116800  0.75000000  0.89932400  1
  Si  Si17  1  0.86116800  0.75000000  0.60067600  1
  Si  Si18  1  0.63883200  0.25000000  0.10067600  1
  Si  Si19  1  0.13883200  0.25000000  0.39932400  1
  Si  Si20  1  0.71550000  0.62850700  0.45202200  1
  Si  Si21  1  0.21550000  0.87149300  0.04797800  1
  Si  Si22  1  0.28450000  0.12850700  0.54797800  1
  Si  Si23  1  0.78450000  0.37149300  0.95202200  1
  Si  Si24  1  0.01154200  0.25000000  0.58269300  1
  Si  Si25  1  0.51154200  0.25000000  0.91730700  1
  Si  Si26  1  0.98845800  0.75000000  0.41730700  1
  Si  Si27  1  0.48845800  0.75000000  0.08269300  1
  Si  Si28  1  0.21550000  0.62850700  0.04797800  1
  Si  Si29  1  0.71550000  0.87149300  0.45202200  1
  Si  Si30  1  0.78450000  0.12850700  0.95202200  1
  Si  Si31  1  0.28450000  0.37149300  0.54797800  1
