# generated using pymatgen
data_Li2Si
_symmetry_space_group_name_H-M   'P 1'
_cell_length_a   6.63566920
_cell_length_b   6.63566920
_cell_length_c   6.63566960
_cell_angle_alpha   38.20793760
_cell_angle_beta   38.20793760
_cell_angle_gamma   38.20793633
_symmetry_Int_Tables_number   1
_chemical_formula_structural   Li2Si
_chemical_formula_sum   'Li4 Si2'
_cell_volume   100.37576692
_cell_formula_units_Z   2
loop_
 _symmetry_equiv_pos_site_id
 _symmetry_equiv_pos_as_xyz
  1  'x, y, z'
loop_
 _atom_site_type_symbol
 _atom_site_label
 _atom_site_symmetry_multiplicity
 _atom_site_fract_x
 _atom_site_fract_y
 _atom_site_fract_z
 _atom_site_occupancy
  Li  Li0  1  0.64426300  0.64426300  0.64426300  1
  Li  Li1  1  0.35573700  0.35573700  0.35573700  1
  Li  Li2  1  0.20487000  0.20487000  0.20487000  1
  Li  Li3  1  0.79513000  0.79513000  0.79513000  1
  Si  Si4  1  0.93776200  0.93776200  0.93776200  1
  Si  Si5  1  0.06223800  0.06223800  0.06223800  1
