# generated using pymatgen
data_LiMnO2
_symmetry_space_group_name_H-M   'P 1'
_cell_length_a   3.17032120
_cell_length_b   5.14622048
_cell_length_c   5.17177460
_cell_angle_alpha   92.65692068
_cell_angle_beta   85.66573161
_cell_angle_gamma   96.07155146
_symmetry_Int_Tables_number   1
_chemical_formula_structural   LiMnO2
_chemical_formula_sum   'Li2 Mn2 O4'
_cell_volume   83.60247938
_cell_formula_units_Z   2
loop_
 _symmetry_equiv_pos_site_id
 _symmetry_equiv_pos_as_xyz
  1  'x, y, z'
loop_
 _atom_site_type_symbol
 _atom_site_label
 _atom_site_symmetry_multiplicity
 _atom_site_fract_x
 _atom_site_fract_y
 _atom_site_fract_z
 _atom_site_occupancy
  Li  Li0  1  0.49963400  0.16697000  0.41657600  1
  Li  Li1  1  0.99963400  0.66697100  0.41657500  1
  Mn  Mn2  1  0.48223100  0.50569600  0.97633800  1
  Mn  Mn3  1  0.98225400  0.00568000  0.97635200  1
  O  O4  1  0.04254900  0.31866700  0.21494600  1
  O  O5  1  0.54254400  0.81866600  0.21493900  1
  O  O6  1  0.47553100  0.17532400  0.78353300  1
  O  O7  1  0.97551800  0.67532400  0.78353900  1
