# generated using pymatgen
data_Li3Ni2(PO4)3
_symmetry_space_group_name_H-M   'P 1'
_cell_length_a   8.75465600
_cell_length_b   8.46606700
_cell_length_c   14.66224042
_cell_angle_alpha   56.02003868
_cell_angle_beta   90.00000000
_cell_angle_gamma   90.00000000
_symmetry_Int_Tables_number   1
_chemical_formula_structural   Li3Ni2(PO4)3
_chemical_formula_sum   'Li12 Ni8 P12 O48'
_cell_volume   901.15137553
_cell_formula_units_Z   4
loop_
 _symmetry_equiv_pos_site_id
 _symmetry_equiv_pos_as_xyz
  1  'x, y, z'
loop_
 _atom_site_type_symbol
 _atom_site_label
 _atom_site_symmetry_multiplicity
 _atom_site_fract_x
 _atom_site_fract_y
 _atom_site_fract_z
 _atom_site_occupancy
  Li  Li0  1  0.99011400  0.27657000  0.15543500  1
  Li  Li1  1  0.41410600  0.61304600  0.80711100  1
  Li  Li2  1  0.71963500  0.99899000  0.32132700  1
  Li  Li3  1  0.21963500  0.00101000  0.17867300  1
  Li  Li4  1  0.91410600  0.38695400  0.69288900  1
  Li  Li5  1  0.49011400  0.72343000  0.34456500  1
  Li  Li6  1  0.50988600  0.27657000  0.65543500  1
  Li  Li7  1  0.08589400  0.61304600  0.30711100  1
  Li  Li8  1  0.78036500  0.99899000  0.82132700  1
  Li  Li9  1  0.28036500  0.00101000  0.67867300  1
  Li  Li10  1  0.58589400  0.38695400  0.19288900  1
  Li  Li11  1  0.00988600  0.72343000  0.84456500  1
  Ni  Ni12  1  0.47084800  0.64885300  0.60445200  1
  Ni  Ni13  1  0.97084800  0.35114700  0.89554800  1
  Ni  Ni14  1  0.03405800  0.86491800  0.38913300  1
  Ni  Ni15  1  0.53405800  0.13508200  0.11086700  1
  Ni  Ni16  1  0.46594200  0.86491800  0.88913300  1
  Ni  Ni17  1  0.96594200  0.13508200  0.61086700  1
  Ni  Ni18  1  0.02915200  0.64885300  0.10445200  1
  Ni  Ni19  1  0.52915200  0.35114700  0.39554800  1
  P  P20  1  0.75072300  0.55077300  0.99092000  1
  P  P21  1  0.88323700  0.26383000  0.34842700  1
  P  P22  1  0.60937000  0.96349100  0.64688000  1
  P  P23  1  0.38323700  0.73617000  0.15157300  1
  P  P24  1  0.10937000  0.03650900  0.85312000  1
  P  P25  1  0.25072300  0.44922700  0.50908000  1
  P  P26  1  0.74927700  0.55077300  0.49092000  1
  P  P27  1  0.89063000  0.96349100  0.14688000  1
  P  P28  1  0.24927700  0.44922700  0.00908000  1
  P  P29  1  0.11676300  0.73617000  0.65157300  1
  P  P30  1  0.61676300  0.26383000  0.84842700  1
  P  P31  1  0.39063000  0.03650900  0.35312000  1
  O  O32  1  0.31526800  0.24680300  0.06648200  1
  O  O33  1  0.38242800  0.16164100  0.39844200  1
  O  O34  1  0.16609500  0.45468600  0.10102800  1
  O  O35  1  0.07925800  0.86962800  0.69116700  1
  O  O36  1  0.86289100  0.50832300  0.08441900  1
  O  O37  1  0.70598800  0.28567500  0.33332100  1
  O  O38  1  0.49107000  0.87756900  0.74330400  1
  O  O39  1  0.76716400  0.98163400  0.68807000  1
  O  O40  1  0.62713400  0.39757300  0.05466500  1
  O  O41  1  0.61757200  0.83835900  0.60155800  1
  O  O42  1  0.83390500  0.54531400  0.89897200  1
  O  O43  1  0.92074200  0.13037200  0.30883300  1
  O  O44  1  0.13710900  0.49167700  0.91558100  1
  O  O45  1  0.29401200  0.71432500  0.66667900  1
  O  O46  1  0.50893000  0.12243100  0.25669600  1
  O  O47  1  0.07212800  0.83480800  0.53091600  1
  O  O48  1  0.23283600  0.01836600  0.31193000  1
  O  O49  1  0.37286600  0.60242700  0.94533500  1
  O  O50  1  0.02961900  0.54627900  0.72210400  1
  O  O51  1  0.44999700  0.83047100  0.43777600  1
  O  O52  1  0.52961900  0.45372100  0.77789600  1
  O  O53  1  0.94999700  0.16952900  0.06222400  1
  O  O54  1  0.81526800  0.75319700  0.43351800  1
  O  O55  1  0.73283600  0.98163400  0.18807000  1
  O  O56  1  0.57212800  0.16519200  0.96908400  1
  O  O57  1  0.79401200  0.28567500  0.83332100  1
  O  O58  1  0.00893000  0.87756900  0.24330400  1
  O  O59  1  0.63710900  0.50832300  0.58441900  1
  O  O60  1  0.33390500  0.45468600  0.60102800  1
  O  O61  1  0.11757200  0.16164100  0.89844200  1
  O  O62  1  0.42074200  0.86962800  0.19116700  1
  O  O63  1  0.12713400  0.60242700  0.44533500  1
  O  O64  1  0.87286600  0.39757300  0.55466500  1
  O  O65  1  0.57925800  0.13037200  0.80883300  1
  O  O66  1  0.88242800  0.83835900  0.10155800  1
  O  O67  1  0.66609500  0.54531400  0.39897200  1
  O  O68  1  0.36289100  0.49167700  0.41558100  1
  O  O69  1  0.99107000  0.12243100  0.75669600  1
  O  O70  1  0.20598800  0.71432500  0.16667900  1
  O  O71  1  0.42787200  0.83480800  0.03091600  1
  O  O72  1  0.26716400  0.01836600  0.81193000  1
  O  O73  1  0.18473200  0.24680300  0.56648200  1
  O  O74  1  0.05000300  0.83047100  0.93777600  1
  O  O75  1  0.47038100  0.54627900  0.22210400  1
  O  O76  1  0.55000300  0.16952900  0.56222400  1
  O  O77  1  0.97038100  0.45372100  0.27789600  1
  O  O78  1  0.68473200  0.75319700  0.93351800  1
  O  O79  1  0.92787200  0.16519200  0.46908400  1
