# generated using pymatgen
data_Li3Mo2(PO4)3
_symmetry_space_group_name_H-M   'P 1'
_cell_length_a   5.01202188
_cell_length_b   5.01202188
_cell_length_c   19.36280497
_cell_angle_alpha   89.88464604
_cell_angle_beta   89.88464604
_cell_angle_gamma   66.27927554
_symmetry_Int_Tables_number   1
_chemical_formula_structural   Li3Mo2(PO4)3
_chemical_formula_sum   'Li6 Mo4 P6 O24'
_cell_volume   445.30688962
_cell_formula_units_Z   2
loop_
 _symmetry_equiv_pos_site_id
 _symmetry_equiv_pos_as_xyz
  1  'x, y, z'
loop_
 _atom_site_type_symbol
 _atom_site_label
 _atom_site_symmetry_multiplicity
 _atom_site_fract_x
 _atom_site_fract_y
 _atom_site_fract_z
 _atom_site_occupancy
  Li  Li0  1  0.99984500  0.99984500  0.83593500  1
  Li  Li1  1  0.66810900  0.66810900  0.91082900  1
  Li  Li2  1  0.66581100  0.66581100  0.23894100  1
  Li  Li3  1  0.33418900  0.33418900  0.76105900  1
  Li  Li4  1  0.33189100  0.33189100  0.08917100  1
  Li  Li5  1  0.00015500  0.00015500  0.16406500  1
  Mo  Mo6  1  0.00000000  0.00000000  0.50000000  1
  Mo  Mo7  1  0.00000000  0.00000000  0.00000000  1
  Mo  Mo8  1  0.99653800  0.99653800  0.32889800  1
  Mo  Mo9  1  0.00346200  0.00346200  0.67110200  1
  P  P10  1  0.34686800  0.34686800  0.24788200  1
  P  P11  1  0.35205300  0.35205300  0.91979600  1
  P  P12  1  0.35216100  0.35216100  0.58769900  1
  P  P13  1  0.64794700  0.64794700  0.08020400  1
  P  P14  1  0.64783900  0.64783900  0.41230100  1
  P  P15  1  0.65313200  0.65313200  0.75211800  1
  O  O16  1  0.30871200  0.76308900  0.75024300  1
  O  O17  1  0.69815400  0.22762100  0.58504600  1
  O  O18  1  0.69480100  0.24099000  0.92015000  1
  O  O19  1  0.75901000  0.30519900  0.07985000  1
  O  O20  1  0.30184600  0.77237900  0.41495400  1
  O  O21  1  0.22762100  0.69815400  0.58504600  1
  O  O22  1  0.24099000  0.69480100  0.92015000  1
  O  O23  1  0.30519900  0.75901000  0.07985000  1
  O  O24  1  0.77237900  0.30184600  0.41495400  1
  O  O25  1  0.23691100  0.69128800  0.24975700  1
  O  O26  1  0.75594300  0.75594300  0.68652700  1
  O  O27  1  0.75442200  0.75442200  0.47546600  1
  O  O28  1  0.74593600  0.74593600  0.01193200  1
  O  O29  1  0.75284700  0.75284700  0.14364200  1
  O  O30  1  0.69128800  0.23691100  0.24975700  1
  O  O31  1  0.73801200  0.73801200  0.34296200  1
  O  O32  1  0.26198800  0.26198800  0.65703800  1
  O  O33  1  0.24853400  0.24853400  0.18239100  1
  O  O34  1  0.24715300  0.24715300  0.85635800  1
  O  O35  1  0.25406400  0.25406400  0.98806800  1
  O  O36  1  0.24557800  0.24557800  0.52453400  1
  O  O37  1  0.24405700  0.24405700  0.31347300  1
  O  O38  1  0.76308900  0.30871200  0.75024300  1
  O  O39  1  0.75146600  0.75146600  0.81760900  1
