# generated using pymatgen
data_Li4Cr(PO4)2
_symmetry_space_group_name_H-M   'P 1'
_cell_length_a   10.40236300
_cell_length_b   8.27035500
_cell_length_c   8.41367450
_cell_angle_alpha   74.91821908
_cell_angle_beta   90.00000000
_cell_angle_gamma   90.00000000
_symmetry_Int_Tables_number   1
_chemical_formula_structural   Li4Cr(PO4)2
_chemical_formula_sum   'Li16 Cr4 P8 O32'
_cell_volume   698.90648182
_cell_formula_units_Z   4
loop_
 _symmetry_equiv_pos_site_id
 _symmetry_equiv_pos_as_xyz
  1  'x, y, z'
loop_
 _atom_site_type_symbol
 _atom_site_label
 _atom_site_symmetry_multiplicity
 _atom_site_fract_x
 _atom_site_fract_y
 _atom_site_fract_z
 _atom_site_occupancy
  Li  Li0  1  0.07281400  0.72831600  0.52301900  1
  Li  Li1  1  0.66447600  0.09815100  0.40143300  1
  Li  Li2  1  0.64867800  0.85057600  0.15040400  1
  Li  Li3  1  0.16447600  0.40184900  0.59856700  1
  Li  Li4  1  0.66405300  0.34269100  0.65117400  1
  Li  Li5  1  0.35132200  0.14942400  0.84959600  1
  Li  Li6  1  0.57281400  0.77168400  0.47698100  1
  Li  Li7  1  0.16405300  0.15730900  0.34882600  1
  Li  Li8  1  0.85132200  0.35057600  0.15040400  1
  Li  Li9  1  0.33552400  0.90184900  0.59856700  1
  Li  Li10  1  0.83594700  0.84269100  0.65117400  1
  Li  Li11  1  0.42718600  0.22831600  0.52301900  1
  Li  Li12  1  0.92718600  0.27168400  0.47698100  1
  Li  Li13  1  0.14867800  0.64942400  0.84959600  1
  Li  Li14  1  0.33594700  0.65730900  0.34882600  1
  Li  Li15  1  0.83552400  0.59815100  0.40143300  1
  Cr  Cr16  1  0.84395700  0.08787200  0.90266900  1
  Cr  Cr17  1  0.65604300  0.58787200  0.90266900  1
  Cr  Cr18  1  0.15604300  0.91212800  0.09733100  1
  Cr  Cr19  1  0.34395700  0.41212800  0.09733100  1
  P  P20  1  0.91157400  0.46646700  0.76718000  1
  P  P21  1  0.40681700  0.52872600  0.70213800  1
  P  P22  1  0.08842600  0.53353300  0.23282000  1
  P  P23  1  0.59318300  0.47127400  0.29786200  1
  P  P24  1  0.41157400  0.03353300  0.23282000  1
  P  P25  1  0.90681700  0.97127400  0.29786200  1
  P  P26  1  0.09318300  0.02872600  0.70213800  1
  P  P27  1  0.58842600  0.96646700  0.76718000  1
  O  O28  1  0.15140200  0.59189700  0.37700700  1
  O  O29  1  0.84859800  0.40810300  0.62299300  1
  O  O30  1  0.94838700  0.47672100  0.27917800  1
  O  O31  1  0.55161300  0.97672100  0.27917800  1
  O  O32  1  0.83254700  0.93934700  0.14789100  1
  O  O33  1  0.66745300  0.43934700  0.14789100  1
  O  O34  1  0.65125700  0.62664200  0.34318300  1
  O  O35  1  0.40496700  0.17601800  0.06947000  1
  O  O36  1  0.05266700  0.00732300  0.25595100  1
  O  O37  1  0.84874300  0.12664200  0.34318300  1
  O  O38  1  0.94733300  0.99267700  0.74404900  1
  O  O39  1  0.90496700  0.32398200  0.93053000  1
  O  O40  1  0.33254700  0.56065300  0.85210900  1
  O  O41  1  0.59503300  0.82398200  0.93053000  1
  O  O42  1  0.44838700  0.02327900  0.72082200  1
  O  O43  1  0.15125700  0.87335800  0.65681700  1
  O  O44  1  0.83312600  0.61731100  0.79680000  1
  O  O45  1  0.10181400  0.18891600  0.55734900  1
  O  O46  1  0.60181400  0.31108400  0.44265100  1
  O  O47  1  0.05161300  0.52327900  0.72082200  1
  O  O48  1  0.33312600  0.88268900  0.20320000  1
  O  O49  1  0.55266700  0.49267700  0.74404900  1
  O  O50  1  0.39818600  0.68891600  0.55734900  1
  O  O51  1  0.16745300  0.06065300  0.85210900  1
  O  O52  1  0.65140200  0.90810300  0.62299300  1
  O  O53  1  0.34874300  0.37335800  0.65681700  1
  O  O54  1  0.16687400  0.38268900  0.20320000  1
  O  O55  1  0.09503300  0.67601800  0.06947000  1
  O  O56  1  0.89818600  0.81108400  0.44265100  1
  O  O57  1  0.66687400  0.11731100  0.79680000  1
  O  O58  1  0.44733300  0.50732300  0.25595100  1
  O  O59  1  0.34859800  0.09189700  0.37700700  1
