# generated using pymatgen
data_Li3Sb3(PO4)4
_symmetry_space_group_name_H-M   'P 1'
_cell_length_a   9.20336800
_cell_length_b   9.25781600
_cell_length_c   13.11638416
_cell_angle_alpha   94.41429936
_cell_angle_beta   90.66689114
_cell_angle_gamma   90.73271251
_symmetry_Int_Tables_number   1
_chemical_formula_structural   Li3Sb3(PO4)4
_chemical_formula_sum   'Li9 Sb9 P12 O48'
_cell_volume   1114.06085138
_cell_formula_units_Z   3
loop_
 _symmetry_equiv_pos_site_id
 _symmetry_equiv_pos_as_xyz
  1  'x, y, z'
loop_
 _atom_site_type_symbol
 _atom_site_label
 _atom_site_symmetry_multiplicity
 _atom_site_fract_x
 _atom_site_fract_y
 _atom_site_fract_z
 _atom_site_occupancy
  Li  Li0  1  0.11460300  0.77436500  0.15492800  1
  Li  Li1  1  0.88085200  0.89245700  0.51870900  1
  Li  Li2  1  0.38382100  0.25056700  0.14704700  1
  Li  Li3  1  0.38294800  0.59676100  0.48114500  1
  Li  Li4  1  0.38677900  0.95088500  0.82092500  1
  Li  Li5  1  0.62141300  0.07629600  0.18295400  1
  Li  Li6  1  0.61276900  0.41829000  0.52128400  1
  Li  Li7  1  0.12170700  0.41477200  0.81328900  1
  Li  Li8  1  0.88702300  0.24482000  0.85190000  1
  Sb  Sb9  1  0.46051900  0.67060800  0.14505800  1
  Sb  Sb10  1  0.85102500  0.55774500  0.20422500  1
  Sb  Sb11  1  0.01767800  0.16000200  0.17023400  1
  Sb  Sb12  1  0.99253300  0.51304100  0.49791600  1
  Sb  Sb13  1  0.03840000  0.84141300  0.81536100  1
  Sb  Sb14  1  0.64292900  0.70764400  0.86530100  1
  Sb  Sb15  1  0.14456400  0.10993800  0.45927700  1
  Sb  Sb16  1  0.53359800  0.00513500  0.51784900  1
  Sb  Sb17  1  0.49431400  0.31656200  0.83209600  1
  P  P18  1  0.81526400  0.85744400  0.06853000  1
  P  P19  1  0.32183600  0.96665000  0.26780200  1
  P  P20  1  0.71803000  0.33007800  0.05160200  1
  P  P21  1  0.67991900  0.70413000  0.39780100  1
  P  P22  1  0.21310200  0.49226500  0.26934900  1
  P  P23  1  0.19208800  0.82131200  0.60360100  1
  P  P24  1  0.79558200  0.17691400  0.39847800  1
  P  P25  1  0.79851500  0.49224400  0.71658300  1
  P  P26  1  0.28819000  0.33921500  0.61132400  1
  P  P27  1  0.29333500  0.66735800  0.93803200  1
  P  P28  1  0.69122400  0.01180400  0.73545500  1
  P  P29  1  0.18945000  0.14081000  0.94004900  1
  O  O30  1  0.91568100  0.99101000  0.07308700  1
  O  O31  1  0.66165200  0.88339400  0.10408100  1
  O  O32  1  0.15978200  0.96399600  0.23452200  1
  O  O33  1  0.26783300  0.71838000  0.05418200  1
  O  O34  1  0.89908800  0.74154300  0.13035600  1
  O  O35  1  0.32753700  0.00367800  0.38857500  1
  O  O36  1  0.37574900  0.80566200  0.25542800  1
  O  O37  1  0.70729200  0.50176600  0.08063400  1
  O  O38  1  0.62614700  0.86535200  0.41325400  1
  O  O39  1  0.67133500  0.66906500  0.27684600  1
  O  O40  1  0.10269100  0.59025100  0.21721700  1
  O  O41  1  0.10293000  0.93243600  0.53987600  1
  O  O42  1  0.71016300  0.95008400  0.62130700  1
  O  O43  1  0.36368400  0.50028300  0.20849100  1
  O  O44  1  0.84190800  0.70632700  0.43140700  1
  O  O45  1  0.87760000  0.30358400  0.09213600  1
  O  O46  1  0.33771400  0.78531500  0.55736300  1
  O  O47  1  0.59847400  0.25118400  0.10430900  1
  O  O48  1  0.23360400  0.53987400  0.38219200  1
  O  O49  1  0.18879300  0.17510600  0.05967000  1
  O  O50  1  0.21225100  0.89320500  0.71719800  1
  O  O51  1  0.58656900  0.59823200  0.45052400  1
  O  O52  1  0.17007900  0.32997900  0.25231900  1
  O  O53  1  0.60660700  0.89310100  0.79506400  1
  O  O54  1  0.08229600  0.69418600  0.61255900  1
  O  O55  1  0.13952200  0.97615100  0.92157600  1
  O  O56  1  0.86163900  0.33308500  0.41078500  1
  O  O57  1  0.79959500  0.65994400  0.75446300  1
  O  O58  1  0.41703600  0.07060700  0.21506800  1
  O  O59  1  0.81897800  0.48291200  0.59774600  1
  O  O60  1  0.76867500  0.12873900  0.28650200  1
  O  O61  1  0.40269300  0.42200000  0.55771700  1
  O  O62  1  0.39774200  0.77694700  0.89276000  1
  O  O63  1  0.81744900  0.79739300  0.95157200  1
  O  O64  1  0.12644700  0.37592200  0.58418700  1
  O  O65  1  0.14260100  0.66692600  0.87837500  1
  O  O66  1  0.64687900  0.18106800  0.46195300  1
  O  O67  1  0.63916900  0.44097500  0.73285400  1
  O  O68  1  0.89715600  0.07087100  0.45193900  1
  O  O69  1  0.91470800  0.41369400  0.77140000  1
  O  O70  1  0.30541100  0.35605800  0.73005900  1
  O  O71  1  0.29433300  0.17062900  0.57729800  1
  O  O72  1  0.35395900  0.51398800  0.93192700  1
  O  O73  1  0.57482300  0.13387400  0.73338100  1
  O  O74  1  0.71351500  0.30249600  0.93424300  1
  O  O75  1  0.09101200  0.24112700  0.88675100  1
  O  O76  1  0.83591500  0.05399500  0.78490000  1
  O  O77  1  0.34927700  0.14208300  0.90184200  1
