# generated using pymatgen
data_Li3V3(PO4)4
_symmetry_space_group_name_H-M   'P 1'
_cell_length_a   10.10947049
_cell_length_b   10.10947049
_cell_length_c   10.60131014
_cell_angle_alpha   88.47151811
_cell_angle_beta   88.47151811
_cell_angle_gamma   37.27185309
_symmetry_Int_Tables_number   1
_chemical_formula_structural   Li3V3(PO4)4
_chemical_formula_sum   'Li6 V6 P8 O32'
_cell_volume   655.88594637
_cell_formula_units_Z   2
loop_
 _symmetry_equiv_pos_site_id
 _symmetry_equiv_pos_as_xyz
  1  'x, y, z'
loop_
 _atom_site_type_symbol
 _atom_site_label
 _atom_site_symmetry_multiplicity
 _atom_site_fract_x
 _atom_site_fract_y
 _atom_site_fract_z
 _atom_site_occupancy
  Li  Li0  1  0.97366900  0.16211800  0.94893800  1
  Li  Li1  1  0.16211800  0.97366900  0.44893800  1
  Li  Li2  1  0.83788200  0.02633100  0.55106200  1
  Li  Li3  1  0.02633100  0.83788200  0.05106200  1
  Li  Li4  1  0.47454600  0.52545400  0.75000000  1
  Li  Li5  1  0.52545400  0.47454600  0.25000000  1
  V  V6  1  0.67119600  0.64067600  0.75676900  1
  V  V7  1  0.64067600  0.67119600  0.25676900  1
  V  V8  1  0.00000000  0.50000000  0.50000000  1
  V  V9  1  0.50000000  0.00000000  0.00000000  1
  V  V10  1  0.35932400  0.32880400  0.74323100  1
  V  V11  1  0.32880400  0.35932400  0.24323100  1
  P  P12  1  0.41878000  0.74470300  0.00333200  1
  P  P13  1  0.74470300  0.41878000  0.50333200  1
  P  P14  1  0.21723500  0.18110500  0.74829800  1
  P  P15  1  0.18110500  0.21723500  0.24829800  1
  P  P16  1  0.81889500  0.78276500  0.75170200  1
  P  P17  1  0.78276500  0.81889500  0.25170200  1
  P  P18  1  0.25529700  0.58122000  0.49666800  1
  P  P19  1  0.58122000  0.25529700  0.99666800  1
  O  O20  1  0.21488400  0.82539300  0.98372600  1
  O  O21  1  0.82539300  0.21488400  0.48372600  1
  O  O22  1  0.62347300  0.53375800  0.63152400  1
  O  O23  1  0.58716500  0.58403300  0.89303700  1
  O  O24  1  0.53375800  0.62347300  0.13152400  1
  O  O25  1  0.58403300  0.58716500  0.39303700  1
  O  O26  1  0.35087500  0.94737700  0.99760600  1
  O  O27  1  0.94737700  0.35087500  0.49760600  1
  O  O28  1  0.98776300  0.31700600  0.78683100  1
  O  O29  1  0.36598200  0.94541800  0.72160800  1
  O  O30  1  0.31700600  0.98776300  0.28683100  1
  O  O31  1  0.94541800  0.36598200  0.22160800  1
  O  O32  1  0.71999300  0.77328600  0.86434900  1
  O  O33  1  0.79971600  0.68700700  0.64719700  1
  O  O34  1  0.77328600  0.71999300  0.36434900  1
  O  O35  1  0.68700700  0.79971600  0.14719700  1
  O  O36  1  0.31299300  0.20028400  0.85280300  1
  O  O37  1  0.22671400  0.28000700  0.63565100  1
  O  O38  1  0.20028400  0.31299300  0.35280300  1
  O  O39  1  0.28000700  0.22671400  0.13565100  1
  O  O40  1  0.05458200  0.63401800  0.77839200  1
  O  O41  1  0.68299400  0.01223700  0.71316900  1
  O  O42  1  0.63401800  0.05458200  0.27839200  1
  O  O43  1  0.01223700  0.68299400  0.21316900  1
  O  O44  1  0.05262300  0.64912500  0.50239400  1
  O  O45  1  0.64912500  0.05262300  0.00239400  1
  O  O46  1  0.41596700  0.41283500  0.60696300  1
  O  O47  1  0.46624200  0.37652700  0.86847600  1
  O  O48  1  0.41283500  0.41596700  0.10696300  1
  O  O49  1  0.37652700  0.46624200  0.36847600  1
  O  O50  1  0.17460700  0.78511600  0.51627400  1
  O  O51  1  0.78511600  0.17460700  0.01627400  1
