# generated using pymatgen
data_LiCo2P3O10
_symmetry_space_group_name_H-M   'P 1'
_cell_length_a   8.57072400
_cell_length_b   4.65615800
_cell_length_c   9.07327227
_cell_angle_alpha   82.13494652
_cell_angle_beta   90.00000000
_cell_angle_gamma   90.00000000
_symmetry_Int_Tables_number   1
_chemical_formula_structural   LiCo2P3O10
_chemical_formula_sum   'Li2 Co4 P6 O20'
_cell_volume   358.67777370
_cell_formula_units_Z   2
loop_
 _symmetry_equiv_pos_site_id
 _symmetry_equiv_pos_as_xyz
  1  'x, y, z'
loop_
 _atom_site_type_symbol
 _atom_site_label
 _atom_site_symmetry_multiplicity
 _atom_site_fract_x
 _atom_site_fract_y
 _atom_site_fract_z
 _atom_site_occupancy
  Li  Li0  1  0.50000000  0.00000000  0.00000000  1
  Li  Li1  1  0.00000000  0.00000000  0.00000000  1
  Co  Co2  1  0.56986900  0.96334400  0.33605000  1
  Co  Co3  1  0.06986900  0.03665600  0.66395000  1
  Co  Co4  1  0.43013100  0.03665600  0.66395000  1
  Co  Co5  1  0.93013100  0.96334400  0.33605000  1
  P  P6  1  0.25000000  0.45754200  0.85541900  1
  P  P7  1  0.75000000  0.54245800  0.14458100  1
  P  P8  1  0.25000000  0.32830400  0.17743300  1
  P  P9  1  0.75000000  0.67169600  0.82256700  1
  P  P10  1  0.25000000  0.60538500  0.46140800  1
  P  P11  1  0.75000000  0.39461500  0.53859200  1
  O  O12  1  0.90028600  0.22388200  0.51795600  1
  O  O13  1  0.75000000  0.24227300  0.23943800  1
  O  O14  1  0.60062500  0.71657800  0.15835900  1
  O  O15  1  0.10062500  0.28342200  0.84164100  1
  O  O16  1  0.39937500  0.28342200  0.84164100  1
  O  O17  1  0.89937500  0.71657800  0.15835900  1
  O  O18  1  0.25000000  0.54919000  0.02409500  1
  O  O19  1  0.75000000  0.45081000  0.97590500  1
  O  O20  1  0.25000000  0.75772700  0.76056200  1
  O  O21  1  0.40028600  0.77611800  0.48204400  1
  O  O22  1  0.09971400  0.77611800  0.48204400  1
  O  O23  1  0.59971400  0.22388200  0.51795600  1
  O  O24  1  0.75000000  0.69723300  0.44741100  1
  O  O25  1  0.25000000  0.30276700  0.55258900  1
  O  O26  1  0.59945300  0.84153200  0.81376300  1
  O  O27  1  0.25000000  0.56442300  0.28764300  1
  O  O28  1  0.90054700  0.84153200  0.81376300  1
  O  O29  1  0.40054700  0.15846800  0.18623700  1
  O  O30  1  0.09945300  0.15846800  0.18623700  1
  O  O31  1  0.75000000  0.43557700  0.71235700  1
