# generated using pymatgen
data_LiSn2(PO4)3
_symmetry_space_group_name_H-M   'P 1'
_cell_length_a   8.80473200
_cell_length_b   8.61477200
_cell_length_c   14.92948044
_cell_angle_alpha   55.53335828
_cell_angle_beta   90.00000000
_cell_angle_gamma   90.00000000
_symmetry_Int_Tables_number   1
_chemical_formula_structural   LiSn2(PO4)3
_chemical_formula_sum   'Li4 Sn8 P12 O48'
_cell_volume   933.62400607
_cell_formula_units_Z   4
loop_
 _symmetry_equiv_pos_site_id
 _symmetry_equiv_pos_as_xyz
  1  'x, y, z'
loop_
 _atom_site_type_symbol
 _atom_site_label
 _atom_site_symmetry_multiplicity
 _atom_site_fract_x
 _atom_site_fract_y
 _atom_site_fract_z
 _atom_site_occupancy
  Li  Li0  1  0.09603200  0.22868900  0.69675200  1
  Li  Li1  1  0.59603200  0.77131100  0.80324800  1
  Li  Li2  1  0.40396800  0.22868900  0.19675200  1
  Li  Li3  1  0.90396800  0.77131100  0.30324800  1
  Sn  Sn4  1  0.53244100  0.15001900  0.60584300  1
  Sn  Sn5  1  0.46967600  0.64244300  0.11556300  1
  Sn  Sn6  1  0.03244100  0.84998100  0.89415700  1
  Sn  Sn7  1  0.96967600  0.35755700  0.38443700  1
  Sn  Sn8  1  0.03032400  0.64244300  0.61556300  1
  Sn  Sn9  1  0.96755900  0.15001900  0.10584300  1
  Sn  Sn10  1  0.53032400  0.35755700  0.88443700  1
  Sn  Sn11  1  0.46755900  0.84998100  0.39415700  1
  P  P12  1  0.24740600  0.46553700  0.49538700  1
  P  P13  1  0.11218700  0.74480400  0.14768900  1
  P  P14  1  0.38608800  0.03794700  0.84911800  1
  P  P15  1  0.88608800  0.96205300  0.65088200  1
  P  P16  1  0.61218700  0.25519600  0.35231100  1
  P  P17  1  0.74740600  0.53446300  0.00461300  1
  P  P18  1  0.25259400  0.46553700  0.99538700  1
  P  P19  1  0.38781300  0.74480400  0.64768900  1
  P  P20  1  0.11391200  0.03794700  0.34911800  1
  P  P21  1  0.61391200  0.96205300  0.15088200  1
  P  P22  1  0.88781300  0.25519600  0.85231100  1
  P  P23  1  0.75259400  0.53446300  0.50461300  1
  O  O24  1  0.87420400  0.51806300  0.43427600  1
  O  O25  1  0.57828500  0.76343700  0.18075700  1
  O  O26  1  0.88962300  0.04827300  0.88741300  1
  O  O27  1  0.68754300  0.34186200  0.59447100  1
  O  O28  1  0.36428000  0.32864100  0.58206800  1
  O  O29  1  0.00504000  0.63122800  0.24819700  1
  O  O30  1  0.21247600  0.04140500  0.82497200  1
  O  O31  1  0.41638700  0.88526400  0.96843300  1
  O  O32  1  0.27344300  0.66160600  0.18190400  1
  O  O33  1  0.17515300  0.36932200  0.44500200  1
  O  O34  1  0.05332500  0.72644000  0.05685300  1
  O  O35  1  0.48317700  0.99904900  0.77615200  1
  O  O36  1  0.98317700  0.00095100  0.72384800  1
  O  O37  1  0.55332500  0.27356000  0.44314700  1
  O  O38  1  0.67515300  0.63067800  0.05499800  1
  O  O39  1  0.77344300  0.33839400  0.31809600  1
  O  O40  1  0.91638700  0.11473600  0.53156700  1
  O  O41  1  0.71247600  0.95859500  0.67502800  1
  O  O42  1  0.50504000  0.36877200  0.25180300  1
  O  O43  1  0.86428000  0.67135900  0.91793200  1
  O  O44  1  0.18754300  0.65813800  0.90552900  1
  O  O45  1  0.38962300  0.95172700  0.61258700  1
  O  O46  1  0.07828500  0.23656300  0.31924300  1
  O  O47  1  0.37420400  0.48193700  0.06572400  1
  O  O48  1  0.62579600  0.51806300  0.93427600  1
  O  O49  1  0.92171500  0.76343700  0.68075700  1
  O  O50  1  0.61037700  0.04827300  0.38741300  1
  O  O51  1  0.81245700  0.34186200  0.09447100  1
  O  O52  1  0.13572000  0.32864100  0.08206800  1
  O  O53  1  0.49496000  0.63122800  0.74819700  1
  O  O54  1  0.28752400  0.04140500  0.32497200  1
  O  O55  1  0.08361300  0.88526400  0.46843300  1
  O  O56  1  0.22655700  0.66160600  0.68190400  1
  O  O57  1  0.32484700  0.36932200  0.94500200  1
  O  O58  1  0.44667500  0.72644000  0.55685300  1
  O  O59  1  0.01682300  0.99904900  0.27615200  1
  O  O60  1  0.51682300  0.00095100  0.22384800  1
  O  O61  1  0.94667500  0.27356000  0.94314700  1
  O  O62  1  0.82484700  0.63067800  0.55499800  1
  O  O63  1  0.72655700  0.33839400  0.81809600  1
  O  O64  1  0.58361300  0.11473600  0.03156700  1
  O  O65  1  0.78752400  0.95859500  0.17502800  1
  O  O66  1  0.99496000  0.36877200  0.75180300  1
  O  O67  1  0.63572000  0.67135900  0.41793200  1
  O  O68  1  0.31245700  0.65813800  0.40552900  1
  O  O69  1  0.11037700  0.95172700  0.11258700  1
  O  O70  1  0.42171500  0.23656300  0.81924300  1
  O  O71  1  0.12579600  0.48193700  0.56572400  1
