# generated using pymatgen
data_LiNi2P5O16
_symmetry_space_group_name_H-M   'P 1'
_cell_length_a   18.46594032
_cell_length_b   6.81288900
_cell_length_c   5.03646382
_cell_angle_alpha   90.00000000
_cell_angle_beta   90.95676385
_cell_angle_gamma   90.00000000
_symmetry_Int_Tables_number   1
_chemical_formula_structural   LiNi2P5O16
_chemical_formula_sum   'Li2 Ni4 P10 O32'
_cell_volume   633.53105071
_cell_formula_units_Z   2
loop_
 _symmetry_equiv_pos_site_id
 _symmetry_equiv_pos_as_xyz
  1  'x, y, z'
loop_
 _atom_site_type_symbol
 _atom_site_label
 _atom_site_symmetry_multiplicity
 _atom_site_fract_x
 _atom_site_fract_y
 _atom_site_fract_z
 _atom_site_occupancy
  Li  Li0  1  0.96814300  0.64418500  0.73571900  1
  Li  Li1  1  0.46814300  0.35581500  0.73571900  1
  Ni  Ni2  1  0.09291500  0.81422000  0.26109100  1
  Ni  Ni3  1  0.59291500  0.18578000  0.26109100  1
  Ni  Ni4  1  0.40654000  0.81993800  0.73853500  1
  Ni  Ni5  1  0.90654000  0.18006200  0.73853500  1
  P  P6  1  0.12802700  0.53693000  0.74380200  1
  P  P7  1  0.24999800  0.75279500  0.00563400  1
  P  P8  1  0.62802700  0.46307000  0.74380200  1
  P  P9  1  0.41869900  0.12605800  0.22756000  1
  P  P10  1  0.58132300  0.87332100  0.77388900  1
  P  P11  1  0.08132300  0.12667900  0.77388900  1
  P  P12  1  0.37176800  0.53273500  0.25101500  1
  P  P13  1  0.74999800  0.24720500  0.00563400  1
  P  P14  1  0.91869900  0.87394200  0.22756000  1
  P  P15  1  0.87176800  0.46726500  0.25101500  1
  O  O16  1  0.29018700  0.60524600  0.20930200  1
  O  O17  1  0.57157900  0.94059600  0.06152100  1
  O  O18  1  0.51148100  0.78764000  0.65676700  1
  O  O19  1  0.11700900  0.97466200  0.60057200  1
  O  O20  1  0.30386100  0.86513100  0.84566400  1
  O  O21  1  0.88324100  0.03620900  0.38465400  1
  O  O22  1  0.11275800  0.56270100  0.44959900  1
  O  O23  1  0.01148100  0.21236000  0.65676700  1
  O  O24  1  0.35877000  0.30267100  0.20810700  1
  O  O25  1  0.61275800  0.43729900  0.44959900  1
  O  O26  1  0.61700900  0.02533800  0.60057200  1
  O  O27  1  0.43264600  0.08215000  0.93386100  1
  O  O28  1  0.57268700  0.36881100  0.92292000  1
  O  O29  1  0.07157900  0.05940400  0.06152100  1
  O  O30  1  0.85877000  0.69732900  0.20810700  1
  O  O31  1  0.42220600  0.61386400  0.04607900  1
  O  O32  1  0.63839600  0.69192900  0.79899000  1
  O  O33  1  0.19584600  0.86710500  0.16026600  1
  O  O34  1  0.93264600  0.91785000  0.93386100  1
  O  O35  1  0.70918500  0.39820900  0.80934600  1
  O  O36  1  0.38324100  0.96379100  0.38465400  1
  O  O37  1  0.07268700  0.63118900  0.92292000  1
  O  O38  1  0.69584600  0.13289500  0.16026600  1
  O  O39  1  0.39312600  0.55692800  0.54147100  1
  O  O40  1  0.48561200  0.21132400  0.37365600  1
  O  O41  1  0.98561200  0.78867500  0.37365600  1
  O  O42  1  0.89312600  0.44307200  0.54147100  1
  O  O43  1  0.79018700  0.39475400  0.20930200  1
  O  O44  1  0.92220600  0.38613600  0.04607900  1
  O  O45  1  0.80386100  0.13486900  0.84566400  1
  O  O46  1  0.20918500  0.60179100  0.80934600  1
  O  O47  1  0.13839600  0.30807100  0.79899000  1
