# generated using pymatgen
data_Li3Cr3(PO4)4
_symmetry_space_group_name_H-M   'P 1'
_cell_length_a   10.09079266
_cell_length_b   10.09079266
_cell_length_c   10.44066435
_cell_angle_alpha   89.79475899
_cell_angle_beta   89.79475899
_cell_angle_gamma   36.68798687
_symmetry_Int_Tables_number   1
_chemical_formula_structural   Li3Cr3(PO4)4
_chemical_formula_sum   'Li6 Cr6 P8 O32'
_cell_volume   635.15874222
_cell_formula_units_Z   2
loop_
 _symmetry_equiv_pos_site_id
 _symmetry_equiv_pos_as_xyz
  1  'x, y, z'
loop_
 _atom_site_type_symbol
 _atom_site_label
 _atom_site_symmetry_multiplicity
 _atom_site_fract_x
 _atom_site_fract_y
 _atom_site_fract_z
 _atom_site_occupancy
  Li  Li0  1  0.18057800  0.95184500  0.04813500  1
  Li  Li1  1  0.46632500  0.53367500  0.75000000  1
  Li  Li2  1  0.53367500  0.46632500  0.25000000  1
  Li  Li3  1  0.81942200  0.04815500  0.95186500  1
  Li  Li4  1  0.04815500  0.81942200  0.45186500  1
  Li  Li5  1  0.95184500  0.18057800  0.54813500  1
  Cr  Cr6  1  0.36561700  0.32153300  0.75419700  1
  Cr  Cr7  1  0.32153300  0.36561700  0.25419700  1
  Cr  Cr8  1  0.00000000  0.50000000  0.00000000  1
  Cr  Cr9  1  0.50000000  0.00000000  0.50000000  1
  Cr  Cr10  1  0.67846700  0.63438300  0.74580300  1
  Cr  Cr11  1  0.63438300  0.67846700  0.24580300  1
  P  P12  1  0.41919900  0.74626600  0.50242700  1
  P  P13  1  0.17945700  0.22025500  0.25338600  1
  P  P14  1  0.22025500  0.17945700  0.75338600  1
  P  P15  1  0.77974500  0.82054300  0.24661400  1
  P  P16  1  0.82054300  0.77974500  0.74661400  1
  P  P17  1  0.58080100  0.25373400  0.49757300  1
  P  P18  1  0.74626600  0.41919900  0.00242700  1
  P  P19  1  0.25373400  0.58080100  0.99757300  1
  O  O20  1  0.72271800  0.76776100  0.63490800  1
  O  O21  1  0.42682100  0.40033100  0.89159500  1
  O  O22  1  0.36949200  0.47523800  0.13131200  1
  O  O23  1  0.47523800  0.36949200  0.63131200  1
  O  O24  1  0.78625600  0.17098200  0.46977900  1
  O  O25  1  0.17098200  0.78625600  0.96977900  1
  O  O26  1  0.82901800  0.21374400  0.03022100  1
  O  O27  1  0.21374400  0.82901800  0.53022100  1
  O  O28  1  0.52476200  0.63050800  0.36868800  1
  O  O29  1  0.63050800  0.52476200  0.86868800  1
  O  O30  1  0.57317900  0.59966900  0.10840500  1
  O  O31  1  0.59966900  0.57317900  0.60840500  1
  O  O32  1  0.95022000  0.34985800  0.00505400  1
  O  O33  1  0.34985800  0.95022000  0.50505400  1
  O  O34  1  0.31905700  0.98744700  0.21749700  1
  O  O35  1  0.94190000  0.36942700  0.28202700  1
  O  O36  1  0.04978000  0.65014200  0.99494600  1
  O  O37  1  0.36942700  0.94190000  0.78202700  1
  O  O38  1  0.76776100  0.72271800  0.13490800  1
  O  O39  1  0.68999800  0.79465100  0.35593300  1
  O  O40  1  0.98744700  0.31905700  0.71749700  1
  O  O41  1  0.79465100  0.68999800  0.85593300  1
  O  O42  1  0.20534900  0.31000200  0.14406700  1
  O  O43  1  0.27728200  0.23223900  0.36509200  1
  O  O44  1  0.31000200  0.20534900  0.64406700  1
  O  O45  1  0.23223900  0.27728200  0.86509200  1
  O  O46  1  0.63057300  0.05810000  0.21797300  1
  O  O47  1  0.01255300  0.68094300  0.28250300  1
  O  O48  1  0.05810000  0.63057300  0.71797300  1
  O  O49  1  0.68094300  0.01255300  0.78250300  1
  O  O50  1  0.65014200  0.04978000  0.49494600  1
  O  O51  1  0.40033100  0.42682100  0.39159500  1
