# generated using pymatgen
data_Li3Bi2(PO4)3
_symmetry_space_group_name_H-M   'P 1'
_cell_length_a   9.36366800
_cell_length_b   8.87366500
_cell_length_c   15.56377790
_cell_angle_alpha   56.68106809
_cell_angle_beta   90.00000000
_cell_angle_gamma   90.00000000
_symmetry_Int_Tables_number   1
_chemical_formula_structural   Li3Bi2(PO4)3
_chemical_formula_sum   'Li12 Bi8 P12 O48'
_cell_volume   1080.62735197
_cell_formula_units_Z   4
loop_
 _symmetry_equiv_pos_site_id
 _symmetry_equiv_pos_as_xyz
  1  'x, y, z'
loop_
 _atom_site_type_symbol
 _atom_site_label
 _atom_site_symmetry_multiplicity
 _atom_site_fract_x
 _atom_site_fract_y
 _atom_site_fract_z
 _atom_site_occupancy
  Li  Li0  1  0.50751600  0.59401200  0.35076000  1
  Li  Li1  1  0.49248400  0.40598800  0.64924000  1
  Li  Li2  1  0.91552800  0.77502500  0.31703100  1
  Li  Li3  1  0.21880000  0.36096700  0.81531100  1
  Li  Li4  1  0.71880000  0.63903300  0.68468900  1
  Li  Li5  1  0.41552800  0.22497500  0.18296900  1
  Li  Li6  1  0.99248400  0.59401200  0.85076000  1
  Li  Li7  1  0.00751600  0.40598800  0.14924000  1
  Li  Li8  1  0.58447200  0.77502500  0.81703100  1
  Li  Li9  1  0.08447200  0.22497500  0.68296900  1
  Li  Li10  1  0.78120000  0.63903300  0.18468900  1
  Li  Li11  1  0.28120000  0.36096700  0.31531100  1
  Bi  Bi12  1  0.54283300  0.33491500  0.90546500  1
  Bi  Bi13  1  0.95991400  0.12952300  0.09215000  1
  Bi  Bi14  1  0.04283300  0.66508500  0.59453500  1
  Bi  Bi15  1  0.45991400  0.87047700  0.40785000  1
  Bi  Bi16  1  0.54008600  0.12952300  0.59215000  1
  Bi  Bi17  1  0.95716700  0.33491500  0.40546500  1
  Bi  Bi18  1  0.04008600  0.87047700  0.90785000  1
  Bi  Bi19  1  0.45716700  0.66508500  0.09453500  1
  P  P20  1  0.60074500  0.29129500  0.33534600  1
  P  P21  1  0.88086600  0.93436400  0.67486500  1
  P  P22  1  0.75908700  0.55221000  0.00771700  1
  P  P23  1  0.24091300  0.44779000  0.99228300  1
  P  P24  1  0.11913400  0.06563600  0.32513500  1
  P  P25  1  0.39925500  0.70870500  0.66465400  1
  P  P26  1  0.89925500  0.29129500  0.83534600  1
  P  P27  1  0.61913400  0.93436400  0.17486500  1
  P  P28  1  0.25908700  0.44779000  0.49228300  1
  P  P29  1  0.38086600  0.06563600  0.82513500  1
  P  P30  1  0.10074500  0.70870500  0.16465400  1
  P  P31  1  0.74091300  0.55221000  0.50771700  1
  O  O32  1  0.20078800  0.35355900  0.43919300  1
  O  O33  1  0.77899800  0.90980300  0.20554800  1
  O  O34  1  0.00205500  0.36344200  0.74092100  1
  O  O35  1  0.62995100  0.67789300  0.42266800  1
  O  O36  1  0.43092500  0.25785000  0.79664100  1
  O  O37  1  0.32870200  0.62938800  0.41077000  1
  O  O38  1  0.11639700  0.91598600  0.10436100  1
  O  O39  1  0.13493400  0.46552400  0.55262600  1
  O  O40  1  0.86506600  0.53447600  0.44737400  1
  O  O41  1  0.88360300  0.08401400  0.89563900  1
  O  O42  1  0.67129800  0.37061200  0.58923000  1
  O  O43  1  0.56907500  0.74215000  0.20335900  1
  O  O44  1  0.37004900  0.32210700  0.57733200  1
  O  O45  1  0.99794500  0.63655800  0.25907900  1
  O  O46  1  0.22100200  0.09019700  0.79445200  1
  O  O47  1  0.39314800  0.92733800  0.94205500  1
  O  O48  1  0.24877800  0.61442200  0.19915700  1
  O  O49  1  0.60685200  0.07266200  0.05794500  1
  O  O50  1  0.47512100  0.00577200  0.76665000  1
  O  O51  1  0.02663400  0.65936100  0.09310100  1
  O  O52  1  0.52663400  0.34063900  0.40689900  1
  O  O53  1  0.97512100  0.99422800  0.73335000  1
  O  O54  1  0.70078800  0.64644100  0.06080700  1
  O  O55  1  0.74877800  0.38557800  0.30084300  1
  O  O56  1  0.89314800  0.07266200  0.55794500  1
  O  O57  1  0.72100200  0.90980300  0.70554800  1
  O  O58  1  0.49794500  0.36344200  0.24092100  1
  O  O59  1  0.87004900  0.67789300  0.92266800  1
  O  O60  1  0.06907500  0.25785000  0.29664100  1
  O  O61  1  0.17129800  0.62938800  0.91077000  1
  O  O62  1  0.36506600  0.46552400  0.05262600  1
  O  O63  1  0.38360300  0.91598600  0.60436100  1
  O  O64  1  0.61639700  0.08401400  0.39563900  1
  O  O65  1  0.63493400  0.53447600  0.94737400  1
  O  O66  1  0.82870200  0.37061200  0.08923000  1
  O  O67  1  0.93092500  0.74215000  0.70335900  1
  O  O68  1  0.12995100  0.32210700  0.07733200  1
  O  O69  1  0.50205500  0.63655800  0.75907900  1
  O  O70  1  0.27899800  0.09019700  0.29445200  1
  O  O71  1  0.10685200  0.92733800  0.44205500  1
  O  O72  1  0.75122200  0.38557800  0.80084300  1
  O  O73  1  0.29921200  0.35355900  0.93919300  1
  O  O74  1  0.02487900  0.00577200  0.26665000  1
  O  O75  1  0.47336600  0.65936100  0.59310100  1
  O  O76  1  0.97336600  0.34063900  0.90689900  1
  O  O77  1  0.52487900  0.99422800  0.23335000  1
  O  O78  1  0.79921200  0.64644100  0.56080700  1
  O  O79  1  0.25122200  0.61442200  0.69915700  1
