# generated using pymatgen
data_LiCoPO4
_symmetry_space_group_name_H-M   'P 1'
_cell_length_a   8.58993771
_cell_length_b   8.58993771
_cell_length_c   8.58993846
_cell_angle_alpha   107.85234099
_cell_angle_beta   107.85234099
_cell_angle_gamma   107.85234577
_symmetry_Int_Tables_number   1
_chemical_formula_structural   LiCoPO4
_chemical_formula_sum   'Li6 Co6 P6 O24'
_cell_volume   515.09060867
_cell_formula_units_Z   6
loop_
 _symmetry_equiv_pos_site_id
 _symmetry_equiv_pos_as_xyz
  1  'x, y, z'
loop_
 _atom_site_type_symbol
 _atom_site_label
 _atom_site_symmetry_multiplicity
 _atom_site_fract_x
 _atom_site_fract_y
 _atom_site_fract_z
 _atom_site_occupancy
  Li  Li0  1  0.78810800  0.57045100  0.39101600  1
  Li  Li1  1  0.39101600  0.78810800  0.57045100  1
  Li  Li2  1  0.10789200  0.27800300  0.87425000  1
  Li  Li3  1  0.57045100  0.39101600  0.78810800  1
  Li  Li4  1  0.27800300  0.87425000  0.10789200  1
  Li  Li5  1  0.87425000  0.10789200  0.27800300  1
  Co  Co6  1  0.46508400  0.23066300  0.05462500  1
  Co  Co7  1  0.94864700  0.54375100  0.76499900  1
  Co  Co8  1  0.23066300  0.05462500  0.46508400  1
  Co  Co9  1  0.54375100  0.76499900  0.94864700  1
  Co  Co10  1  0.05462500  0.46508400  0.23066300  1
  Co  Co11  1  0.76499900  0.94864700  0.54375100  1
  P  P12  1  0.12521700  0.90400800  0.71873900  1
  P  P13  1  0.90400800  0.71873900  0.12521700  1
  P  P14  1  0.71873900  0.12521700  0.90400800  1
  P  P15  1  0.43127500  0.61380100  0.20845000  1
  P  P16  1  0.61380100  0.20845000  0.43127500  1
  P  P17  1  0.20845000  0.43127500  0.61380100  1
  O  O18  1  0.09948000  0.41697200  0.72811300  1
  O  O19  1  0.63112500  0.69128200  0.35289300  1
  O  O20  1  0.72811300  0.09948000  0.41697200  1
  O  O21  1  0.64580200  0.97965500  0.70640400  1
  O  O22  1  0.69128200  0.35289300  0.63112500  1
  O  O23  1  0.69819700  0.02639500  0.02653700  1
  O  O24  1  0.97965500  0.70640400  0.64580200  1
  O  O25  1  0.90948300  0.60420500  0.23482400  1
  O  O26  1  0.41697200  0.72811300  0.09948000  1
  O  O27  1  0.02653700  0.69819700  0.02639500  1
  O  O28  1  0.62970400  0.31001000  0.31075900  1
  O  O29  1  0.31075900  0.62970400  0.31001000  1
  O  O30  1  0.70640400  0.64580200  0.97965500  1
  O  O31  1  0.25808800  0.97823500  0.92339700  1
  O  O32  1  0.07520300  0.36115600  0.41068700  1
  O  O33  1  0.02639500  0.02653700  0.69819700  1
  O  O34  1  0.60420500  0.23482400  0.90948300  1
  O  O35  1  0.35289300  0.63112500  0.69128200  1
  O  O36  1  0.31001000  0.31075900  0.62970400  1
  O  O37  1  0.41068700  0.07520300  0.36115600  1
  O  O38  1  0.97823500  0.92339700  0.25808800  1
  O  O39  1  0.23482400  0.90948300  0.60420500  1
  O  O40  1  0.92339700  0.25808800  0.97823500  1
  O  O41  1  0.36115600  0.41068700  0.07520300  1
