# generated using pymatgen
data_LiMn2(PO4)3
_symmetry_space_group_name_H-M   'P 1'
_cell_length_a   8.49761414
_cell_length_b   8.49761414
_cell_length_c   6.18823470
_cell_angle_alpha   74.24647590
_cell_angle_beta   74.24647590
_cell_angle_gamma   91.72092509
_symmetry_Int_Tables_number   1
_chemical_formula_structural   LiMn2(PO4)3
_chemical_formula_sum   'Li2 Mn4 P6 O24'
_cell_volume   411.30664415
_cell_formula_units_Z   2
loop_
 _symmetry_equiv_pos_site_id
 _symmetry_equiv_pos_as_xyz
  1  'x, y, z'
loop_
 _atom_site_type_symbol
 _atom_site_label
 _atom_site_symmetry_multiplicity
 _atom_site_fract_x
 _atom_site_fract_y
 _atom_site_fract_z
 _atom_site_occupancy
  Li  Li0  1  0.50000000  0.50000000  0.50000000  1
  Li  Li1  1  0.50000000  0.50000000  0.00000000  1
  Mn  Mn2  1  0.05943800  0.37999900  0.36272600  1
  Mn  Mn3  1  0.37999900  0.05943800  0.86272600  1
  Mn  Mn4  1  0.62000100  0.94056200  0.13727400  1
  Mn  Mn5  1  0.94056200  0.62000100  0.63727400  1
  P  P6  1  0.72408400  0.27591600  0.75000000  1
  P  P7  1  0.83890500  0.64794400  0.14133600  1
  P  P8  1  0.64794400  0.83890500  0.64133600  1
  P  P9  1  0.35205600  0.16109500  0.35866400  1
  P  P10  1  0.27591600  0.72408400  0.25000000  1
  P  P11  1  0.16109500  0.35205600  0.85866400  1
  O  O12  1  0.96905100  0.64385900  0.91021700  1
  O  O13  1  0.94073000  0.58990100  0.33004300  1
  O  O14  1  0.85075500  0.25711400  0.52597600  1
  O  O15  1  0.74288600  0.14924500  0.97402400  1
  O  O16  1  0.03094900  0.35614100  0.08978300  1
  O  O17  1  0.05927000  0.41009900  0.66995700  1
  O  O18  1  0.14924500  0.74288600  0.47402400  1
  O  O19  1  0.25711400  0.85075500  0.02597600  1
  O  O20  1  0.16696900  0.18897400  0.39172400  1
  O  O21  1  0.25334400  0.54634400  0.22625900  1
  O  O22  1  0.18897400  0.16696900  0.89172400  1
  O  O23  1  0.31688700  0.46152200  0.78747200  1
  O  O24  1  0.41009900  0.05927000  0.16995700  1
  O  O25  1  0.45365600  0.74665600  0.27374100  1
  O  O26  1  0.35614100  0.03094900  0.58978300  1
  O  O27  1  0.46152200  0.31688700  0.28747200  1
  O  O28  1  0.53847800  0.68311300  0.71252800  1
  O  O29  1  0.64385900  0.96905100  0.41021700  1
  O  O30  1  0.54634400  0.25334400  0.72625900  1
  O  O31  1  0.58990100  0.94073000  0.83004300  1
  O  O32  1  0.68311300  0.53847800  0.21252800  1
  O  O33  1  0.81102600  0.83303100  0.10827600  1
  O  O34  1  0.74665600  0.45365600  0.77374100  1
  O  O35  1  0.83303100  0.81102600  0.60827600  1
