# generated using pymatgen
data_Li2CoP2O7
_symmetry_space_group_name_H-M   'P 1'
_cell_length_a   6.53104600
_cell_length_b   9.21860492
_cell_length_c   10.40544254
_cell_angle_alpha   113.84540159
_cell_angle_beta   87.76001134
_cell_angle_gamma   106.60050465
_symmetry_Int_Tables_number   1
_chemical_formula_structural   Li2CoP2O7
_chemical_formula_sum   'Li8 Co4 P8 O28'
_cell_volume   547.03163342
_cell_formula_units_Z   4
loop_
 _symmetry_equiv_pos_site_id
 _symmetry_equiv_pos_as_xyz
  1  'x, y, z'
loop_
 _atom_site_type_symbol
 _atom_site_label
 _atom_site_symmetry_multiplicity
 _atom_site_fract_x
 _atom_site_fract_y
 _atom_site_fract_z
 _atom_site_occupancy
  Li  Li0  1  0.35413700  0.92601600  0.37910500  1
  Li  Li1  1  0.04750000  0.20582500  0.51187600  1
  Li  Li2  1  0.16664000  0.48492500  0.03533000  1
  Li  Li3  1  0.59205800  0.50950800  0.97041200  1
  Li  Li4  1  0.17262200  0.11250700  0.13276800  1
  Li  Li5  1  0.64087900  0.07461600  0.62061900  1
  Li  Li6  1  0.93545400  0.82678100  0.50308600  1
  Li  Li7  1  0.87034300  0.89247100  0.89422600  1
  Co  Co8  1  0.62589600  0.48888700  0.25120400  1
  Co  Co9  1  0.36348800  0.50374000  0.73918400  1
  Co  Co10  1  0.28686100  0.89465100  0.77887400  1
  Co  Co11  1  0.71962400  0.09763300  0.21644700  1
  P  P12  1  0.87413000  0.54502000  0.69781100  1
  P  P13  1  0.31283100  0.80200700  0.05246500  1
  P  P14  1  0.56155500  0.29078800  0.46191700  1
  P  P15  1  0.08042900  0.18019300  0.79422200  1
  P  P16  1  0.69394500  0.18921100  0.94590500  1
  P  P17  1  0.92399300  0.80847600  0.19956600  1
  P  P18  1  0.43320600  0.70504100  0.53206700  1
  P  P19  1  0.11462100  0.44217500  0.29806800  1
  O  O20  1  0.69326000  0.52857400  0.79454600  1
  O  O21  1  0.61341900  0.33239700  0.03956400  1
  O  O22  1  0.28401900  0.32226600  0.81900600  1
  O  O23  1  0.02406100  0.26300600  0.28726300  1
  O  O24  1  0.44892000  0.91009100  0.19348000  1
  O  O25  1  0.08476700  0.70924000  0.09632000  1
  O  O26  1  0.96210300  0.09151000  0.64544200  1
  O  O27  1  0.73831200  0.08036200  0.01393900  1
  O  O28  1  0.90731300  0.93203100  0.13861100  1
  O  O29  1  0.97489500  0.72733300  0.72133100  1
  O  O30  1  0.23784500  0.54101800  0.45497800  1
  O  O31  1  0.54431200  0.27522100  0.30773500  1
  O  O32  1  0.36058600  0.31000500  0.53792100  1
  O  O33  1  0.56161400  0.08220700  0.80346800  1
  O  O34  1  0.10647000  0.05679300  0.85164900  1
  O  O35  1  0.38445400  0.65203800  0.95878200  1
  O  O36  1  0.92737700  0.28003000  0.90507100  1
  O  O37  1  0.75509300  0.45676400  0.53819800  1
  O  O38  1  0.36926600  0.85689900  0.53852400  1
  O  O39  1  0.28732500  0.45154800  0.19361000  1
  O  O40  1  0.71546300  0.67072900  0.17357800  1
  O  O41  1  0.95032100  0.52610400  0.29107200  1
  O  O42  1  0.63271500  0.68534800  0.45427700  1
  O  O43  1  0.03585800  0.89723700  0.34950700  1
  O  O44  1  0.44673400  0.71384700  0.68414200  1
  O  O45  1  0.26871900  0.90885900  0.98301700  1
  O  O46  1  0.03424500  0.45180200  0.69422400  1
  O  O47  1  0.62917700  0.14207500  0.46035300  1
