# generated using pymatgen
data_LiVPO5
_symmetry_space_group_name_H-M   'P 1'
_cell_length_a   6.32985900
_cell_length_b   6.33051900
_cell_length_c   9.19766300
_cell_angle_alpha   90.00000000
_cell_angle_beta   90.00000000
_cell_angle_gamma   90.00000000
_symmetry_Int_Tables_number   1
_chemical_formula_structural   LiVPO5
_chemical_formula_sum   'Li4 V4 P4 O20'
_cell_volume   368.56224592
_cell_formula_units_Z   4
loop_
 _symmetry_equiv_pos_site_id
 _symmetry_equiv_pos_as_xyz
  1  'x, y, z'
loop_
 _atom_site_type_symbol
 _atom_site_label
 _atom_site_symmetry_multiplicity
 _atom_site_fract_x
 _atom_site_fract_y
 _atom_site_fract_z
 _atom_site_occupancy
  Li  Li0  1  0.48420400  0.01305200  0.24208400  1
  Li  Li1  1  0.48420400  0.48694800  0.74208400  1
  Li  Li2  1  0.98420400  0.51305200  0.25791600  1
  Li  Li3  1  0.98420400  0.98694800  0.75791600  1
  V  V4  1  0.24852900  0.24668100  0.96126900  1
  V  V5  1  0.24852900  0.25331900  0.46126900  1
  V  V6  1  0.74852900  0.74668100  0.53873100  1
  V  V7  1  0.74852900  0.75331900  0.03873100  1
  P  P8  1  0.24750500  0.74859000  0.00003400  1
  P  P9  1  0.24750500  0.75141000  0.50003400  1
  P  P10  1  0.74750500  0.24859000  0.49996600  1
  P  P11  1  0.74750500  0.25141000  0.99996600  1
  O  O12  1  0.05090300  0.73804000  0.10071000  1
  O  O13  1  0.05090300  0.76196000  0.60071000  1
  O  O14  1  0.23366700  0.55544600  0.39882900  1
  O  O15  1  0.23366700  0.94455400  0.89882900  1
  O  O16  1  0.25560000  0.24036500  0.13777800  1
  O  O17  1  0.25560000  0.25963500  0.63777800  1
  O  O18  1  0.26010700  0.55001100  0.90167100  1
  O  O19  1  0.26010700  0.94998900  0.40167100  1
  O  O20  1  0.44548400  0.73553700  0.59893800  1
  O  O21  1  0.44548400  0.76446300  0.09893800  1
  O  O22  1  0.55090300  0.23804000  0.39929000  1
  O  O23  1  0.55090300  0.26196000  0.89929000  1
  O  O24  1  0.73366700  0.05544600  0.10117100  1
  O  O25  1  0.73366700  0.44455400  0.60117100  1
  O  O26  1  0.75560000  0.74036500  0.36222200  1
  O  O27  1  0.75560000  0.75963500  0.86222200  1
  O  O28  1  0.76010700  0.05001100  0.59832900  1
  O  O29  1  0.76010700  0.44998900  0.09832900  1
  O  O30  1  0.94548400  0.23553700  0.90106200  1
  O  O31  1  0.94548400  0.26446300  0.40106200  1
