# generated using pymatgen
data_LiB2H3O5
_symmetry_space_group_name_H-M   'P 1'
_cell_length_a   8.38729000
_cell_length_b   9.78145600
_cell_length_c   9.97059900
_cell_angle_alpha   90.00000000
_cell_angle_beta   90.00000000
_cell_angle_gamma   90.00000000
_symmetry_Int_Tables_number   1
_chemical_formula_structural   LiB2H3O5
_chemical_formula_sum   'Li8 B16 H24 O40'
_cell_volume   817.98702560
_cell_formula_units_Z   8
loop_
 _symmetry_equiv_pos_site_id
 _symmetry_equiv_pos_as_xyz
  1  'x, y, z'
loop_
 _atom_site_type_symbol
 _atom_site_label
 _atom_site_symmetry_multiplicity
 _atom_site_fract_x
 _atom_site_fract_y
 _atom_site_fract_z
 _atom_site_occupancy
  Li  Li0  1  0.52585300  0.83185700  0.44569100  1
  Li  Li1  1  0.02585300  0.66814300  0.05430900  1
  Li  Li2  1  0.47414700  0.83185700  0.05430900  1
  Li  Li3  1  0.97414700  0.66814300  0.44569100  1
  Li  Li4  1  0.47414700  0.16814300  0.55430900  1
  Li  Li5  1  0.97414700  0.33185700  0.94569100  1
  Li  Li6  1  0.52585300  0.16814300  0.94569100  1
  Li  Li7  1  0.02585300  0.33185700  0.55430900  1
  B  B8  1  0.25000000  0.75000000  0.26530600  1
  B  B9  1  0.75000000  0.75000000  0.23469400  1
  B  B10  1  0.75000000  0.25000000  0.73469400  1
  B  B11  1  0.25000000  0.25000000  0.76530600  1
  B  B12  1  0.72514900  0.53999400  0.09598600  1
  B  B13  1  0.22514900  0.96000600  0.40401400  1
  B  B14  1  0.27485100  0.53999400  0.40401400  1
  B  B15  1  0.77485100  0.96000600  0.09598600  1
  B  B16  1  0.27485100  0.46000600  0.90401400  1
  B  B17  1  0.77485100  0.03999400  0.59598600  1
  B  B18  1  0.72514900  0.46000600  0.59598600  1
  B  B19  1  0.22514900  0.03999400  0.90401400  1
  B  B20  1  0.50000000  0.60762600  0.25000000  1
  B  B21  1  0.00000000  0.89237400  0.25000000  1
  B  B22  1  0.50000000  0.39237400  0.75000000  1
  B  B23  1  0.00000000  0.10762600  0.75000000  1
  H  H24  1  0.70865100  0.40667700  0.93794600  1
  H  H25  1  0.20865100  0.09332300  0.56205400  1
  H  H26  1  0.29134900  0.40667700  0.56205400  1
  H  H27  1  0.79134900  0.09332300  0.93794600  1
  H  H28  1  0.29134900  0.59332300  0.06205400  1
  H  H29  1  0.79134900  0.90667700  0.43794600  1
  H  H30  1  0.70865100  0.59332300  0.43794600  1
  H  H31  1  0.20865100  0.90667700  0.06205400  1
  H  H32  1  0.40594800  0.23575500  0.18302500  1
  H  H33  1  0.90594800  0.26424500  0.31697500  1
  H  H34  1  0.59405200  0.23575500  0.31697500  1
  H  H35  1  0.09405200  0.26424500  0.18302500  1
  H  H36  1  0.59405200  0.76424500  0.81697500  1
  H  H37  1  0.09405200  0.73575500  0.68302500  1
  H  H38  1  0.40594800  0.76424500  0.68302500  1
  H  H39  1  0.90594800  0.73575500  0.81697500  1
  H  H40  1  0.50152800  0.36239900  0.12477300  1
  H  H41  1  0.00152800  0.13760100  0.37522700  1
  H  H42  1  0.49847200  0.36239900  0.37522700  1
  H  H43  1  0.99847200  0.13760100  0.12477300  1
  H  H44  1  0.49847200  0.63760100  0.87522700  1
  H  H45  1  0.99847200  0.86239900  0.62477300  1
  H  H46  1  0.50152800  0.63760100  0.62477300  1
  H  H47  1  0.00152800  0.86239900  0.87522700  1
  O  O48  1  0.52720200  0.73581200  0.89148200  1
  O  O49  1  0.02720200  0.76418800  0.60851800  1
  O  O50  1  0.47279800  0.73581200  0.60851800  1
  O  O51  1  0.97279800  0.76418800  0.89148200  1
  O  O52  1  0.47279800  0.26418800  0.10851800  1
  O  O53  1  0.97279800  0.23581200  0.39148200  1
  O  O54  1  0.52720200  0.26418800  0.39148200  1
  O  O55  1  0.02720200  0.23581200  0.10851800  1
  O  O56  1  0.78776400  0.45897800  0.99416500  1
  O  O57  1  0.28776400  0.04102200  0.50583500  1
  O  O58  1  0.21223600  0.45897800  0.50583500  1
  O  O59  1  0.71223600  0.04102200  0.99416500  1
  O  O60  1  0.21223600  0.54102200  0.00583500  1
  O  O61  1  0.71223600  0.95897800  0.49416500  1
  O  O62  1  0.78776400  0.54102200  0.49416500  1
  O  O63  1  0.28776400  0.95897800  0.00583500  1
  O  O64  1  0.57479900  0.51723400  0.14704000  1
  O  O65  1  0.07479900  0.98276600  0.35296000  1
  O  O66  1  0.42520100  0.51723400  0.35296000  1
  O  O67  1  0.92520100  0.98276600  0.14704000  1
  O  O68  1  0.42520100  0.48276600  0.85296000  1
  O  O69  1  0.92520100  0.01723400  0.64704000  1
  O  O70  1  0.57479900  0.48276600  0.64704000  1
  O  O71  1  0.07479900  0.01723400  0.85296000  1
  O  O72  1  0.62301600  0.69167600  0.31867900  1
  O  O73  1  0.12301600  0.80832400  0.18132100  1
  O  O74  1  0.37698400  0.69167600  0.18132100  1
  O  O75  1  0.87698400  0.80832400  0.31867900  1
  O  O76  1  0.37698400  0.30832400  0.68132100  1
  O  O77  1  0.87698400  0.19167600  0.81867900  1
  O  O78  1  0.62301600  0.30832400  0.81867900  1
  O  O79  1  0.12301600  0.19167600  0.68132100  1
  O  O80  1  0.82081500  0.64128500  0.14604000  1
  O  O81  1  0.32081500  0.85871500  0.35396000  1
  O  O82  1  0.17918500  0.64128500  0.35396000  1
  O  O83  1  0.67918500  0.85871500  0.14604000  1
  O  O84  1  0.17918500  0.35871500  0.85396000  1
  O  O85  1  0.67918500  0.14128500  0.64604000  1
  O  O86  1  0.82081500  0.35871500  0.64604000  1
  O  O87  1  0.32081500  0.14128500  0.85396000  1
