# generated using pymatgen
data_Li3Cr(PO4)2
_symmetry_space_group_name_H-M   'P 1'
_cell_length_a   8.72771600
_cell_length_b   4.90788400
_cell_length_c   6.47036552
_cell_angle_alpha   85.55387055
_cell_angle_beta   90.00000000
_cell_angle_gamma   90.00000000
_symmetry_Int_Tables_number   1
_chemical_formula_structural   Li3Cr(PO4)2
_chemical_formula_sum   'Li6 Cr2 P4 O16'
_cell_volume   276.32157840
_cell_formula_units_Z   2
loop_
 _symmetry_equiv_pos_site_id
 _symmetry_equiv_pos_as_xyz
  1  'x, y, z'
loop_
 _atom_site_type_symbol
 _atom_site_label
 _atom_site_symmetry_multiplicity
 _atom_site_fract_x
 _atom_site_fract_y
 _atom_site_fract_z
 _atom_site_occupancy
  Li  Li0  1  0.85977500  0.01617300  0.30739600  1
  Li  Li1  1  0.14022500  0.98382700  0.69260400  1
  Li  Li2  1  0.64022500  0.51617300  0.80739600  1
  Li  Li3  1  0.50000000  0.00000000  0.00000000  1
  Li  Li4  1  0.35977500  0.48382700  0.19260400  1
  Li  Li5  1  0.00000000  0.50000000  0.50000000  1
  Cr  Cr6  1  0.00000000  0.50000000  0.00000000  1
  Cr  Cr7  1  0.50000000  0.00000000  0.50000000  1
  P  P8  1  0.31891300  0.47176100  0.72304100  1
  P  P9  1  0.68108700  0.52823900  0.27695900  1
  P  P10  1  0.81891300  0.02823900  0.77695900  1
  P  P11  1  0.18108700  0.97176100  0.22304100  1
  O  O12  1  0.40279400  0.34560300  0.91189700  1
  O  O13  1  0.35913700  0.93157400  0.25147300  1
  O  O14  1  0.64086300  0.06842600  0.74852700  1
  O  O15  1  0.90279400  0.15439700  0.58810300  1
  O  O16  1  0.64336500  0.21546400  0.30920100  1
  O  O17  1  0.86544700  0.17139000  0.97553200  1
  O  O18  1  0.35663500  0.78453600  0.69079900  1
  O  O19  1  0.36544700  0.32861000  0.52446800  1
  O  O20  1  0.14336500  0.28453600  0.19079900  1
  O  O21  1  0.14086300  0.43157400  0.75147300  1
  O  O22  1  0.85913700  0.56842600  0.24852700  1
  O  O23  1  0.59720600  0.65439700  0.08810300  1
  O  O24  1  0.63455300  0.67139000  0.47553200  1
  O  O25  1  0.85663500  0.71546400  0.80920100  1
  O  O26  1  0.13455300  0.82861000  0.02446800  1
  O  O27  1  0.09720600  0.84560300  0.41189700  1
