# generated using pymatgen
data_LiMn(PO3)3
_symmetry_space_group_name_H-M   'P 1'
_cell_length_a   9.85805700
_cell_length_b   9.60726904
_cell_length_c   9.51202776
_cell_angle_alpha   108.36831278
_cell_angle_beta   104.55470439
_cell_angle_gamma   109.62584057
_symmetry_Int_Tables_number   1
_chemical_formula_structural   LiMn(PO3)3
_chemical_formula_sum   'Li4 Mn4 P12 O36'
_cell_volume   738.24054050
_cell_formula_units_Z   4
loop_
 _symmetry_equiv_pos_site_id
 _symmetry_equiv_pos_as_xyz
  1  'x, y, z'
loop_
 _atom_site_type_symbol
 _atom_site_label
 _atom_site_symmetry_multiplicity
 _atom_site_fract_x
 _atom_site_fract_y
 _atom_site_fract_z
 _atom_site_occupancy
  Li  Li0  1  0.50207800  0.93035800  0.34508500  1
  Li  Li1  1  0.33342800  0.14391000  0.35174100  1
  Li  Li2  1  0.66657200  0.85609000  0.64825900  1
  Li  Li3  1  0.49792200  0.06964200  0.65491500  1
  Mn  Mn4  1  0.27346300  0.23496600  0.74292200  1
  Mn  Mn5  1  0.21047500  0.30174000  0.10347400  1
  Mn  Mn6  1  0.78952500  0.69826000  0.89652600  1
  Mn  Mn7  1  0.72653700  0.76503400  0.25707800  1
  P  P8  1  0.91808000  0.08662900  0.18826500  1
  P  P9  1  0.89039300  0.14888800  0.50852100  1
  P  P10  1  0.64353800  0.38482900  0.99776700  1
  P  P11  1  0.83416800  0.21022400  0.94578600  1
  P  P12  1  0.08192000  0.91337100  0.81173500  1
  P  P13  1  0.10960700  0.85111200  0.49147900  1
  P  P14  1  0.35646200  0.61517100  0.00223300  1
  P  P15  1  0.16583200  0.78977600  0.05421400  1
  P  P16  1  0.29819800  0.66918300  0.43437700  1
  P  P17  1  0.41208000  0.57754000  0.69611800  1
  P  P18  1  0.58792000  0.42246000  0.30388200  1
  P  P19  1  0.70180200  0.33081700  0.56562300  1
  O  O20  1  0.92014900  0.18436500  0.36098200  1
  O  O21  1  0.82369000  0.15599800  0.08904400  1
  O  O22  1  0.80030300  0.36802500  0.00441100  1
  O  O23  1  0.96067200  0.82479100  0.37508600  1
  O  O24  1  0.07985100  0.81563500  0.63901800  1
  O  O25  1  0.99825000  0.27215500  0.95641900  1
  O  O26  1  0.17631000  0.84400200  0.91095600  1
  O  O27  1  0.19969700  0.63197500  0.99558900  1
  O  O28  1  0.00175000  0.72784500  0.04358100  1
  O  O29  1  0.03932800  0.17520900  0.62491400  1
  O  O30  1  0.14581700  0.70195700  0.40788900  1
  O  O31  1  0.18606600  0.09617400  0.87872400  1
  O  O32  1  0.32152600  0.43892900  0.96798700  1
  O  O33  1  0.37878800  0.65072400  0.85365700  1
  O  O34  1  0.29356200  0.60981000  0.57533600  1
  O  O35  1  0.29818300  0.92262000  0.21073400  1
  O  O36  1  0.08424400  0.14218000  0.19865500  1
  O  O37  1  0.26248900  0.53004700  0.28255300  1
  O  O38  1  0.44635800  0.82799300  0.50030600  1
  O  O39  1  0.35990200  0.39641100  0.63914500  1
  O  O40  1  0.25482500  0.01359800  0.55926600  1
  O  O41  1  0.57978300  0.68799100  0.73068700  1
  O  O42  1  0.50604200  0.25083200  0.84517900  1
  O  O43  1  0.49395800  0.74916800  0.15482100  1
  O  O44  1  0.42021700  0.31200900  0.26931300  1
  O  O45  1  0.74517500  0.98640200  0.44073400  1
  O  O46  1  0.64009800  0.60358900  0.36085500  1
  O  O47  1  0.55364200  0.17200700  0.49969400  1
  O  O48  1  0.73751100  0.46995300  0.71744700  1
  O  O49  1  0.91575600  0.85782000  0.80134500  1
  O  O50  1  0.70181700  0.07738000  0.78926600  1
  O  O51  1  0.70643800  0.39019000  0.42466400  1
  O  O52  1  0.62121200  0.34927600  0.14634300  1
  O  O53  1  0.67847400  0.56107100  0.03201300  1
  O  O54  1  0.81393400  0.90382600  0.12127600  1
  O  O55  1  0.85418300  0.29804300  0.59211100  1
