# generated using pymatgen
data_Li4Mn(PO4)2
_symmetry_space_group_name_H-M   'P 1'
_cell_length_a   10.47298800
_cell_length_b   8.24564900
_cell_length_c   8.31223468
_cell_angle_alpha   75.49919086
_cell_angle_beta   90.00000000
_cell_angle_gamma   90.00000000
_symmetry_Int_Tables_number   1
_chemical_formula_structural   Li4Mn(PO4)2
_chemical_formula_sum   'Li16 Mn4 P8 O32'
_cell_volume   694.94950689
_cell_formula_units_Z   4
loop_
 _symmetry_equiv_pos_site_id
 _symmetry_equiv_pos_as_xyz
  1  'x, y, z'
loop_
 _atom_site_type_symbol
 _atom_site_label
 _atom_site_symmetry_multiplicity
 _atom_site_fract_x
 _atom_site_fract_y
 _atom_site_fract_z
 _atom_site_occupancy
  Li  Li0  1  0.33692200  0.09951400  0.40178400  1
  Li  Li1  1  0.83719800  0.15447900  0.34710700  1
  Li  Li2  1  0.57299200  0.22793000  0.52140600  1
  Li  Li3  1  0.65137500  0.15140200  0.84699400  1
  Li  Li4  1  0.15137500  0.34859800  0.15300600  1
  Li  Li5  1  0.07299200  0.27207000  0.47859400  1
  Li  Li6  1  0.33719800  0.34552100  0.65289300  1
  Li  Li7  1  0.83692200  0.40048600  0.59821600  1
  Li  Li8  1  0.16307800  0.59951400  0.40178400  1
  Li  Li9  1  0.66280200  0.65447900  0.34710700  1
  Li  Li10  1  0.92700800  0.72793000  0.52140600  1
  Li  Li11  1  0.84862500  0.65140200  0.84699400  1
  Li  Li12  1  0.34862500  0.84859800  0.15300600  1
  Li  Li13  1  0.42700800  0.77207000  0.47859400  1
  Li  Li14  1  0.16280200  0.84552100  0.65289300  1
  Li  Li15  1  0.66307800  0.90048600  0.59821600  1
  Mn  Mn16  1  0.15607600  0.09212700  0.90834800  1
  Mn  Mn17  1  0.65607600  0.40787300  0.09165200  1
  Mn  Mn18  1  0.34392400  0.59212700  0.90834800  1
  Mn  Mn19  1  0.84392400  0.90787300  0.09165200  1
  P  P20  1  0.40887600  0.96911700  0.76669200  1
  P  P21  1  0.09319800  0.97318500  0.29417800  1
  P  P22  1  0.59319800  0.52681500  0.70582200  1
  P  P23  1  0.09112400  0.46911700  0.76669200  1
  P  P24  1  0.59112400  0.03088300  0.23330800  1
  P  P25  1  0.90680200  0.02681500  0.70582200  1
  P  P26  1  0.40680200  0.47318500  0.29417800  1
  P  P27  1  0.90887600  0.53088300  0.23330800  1
  O  O28  1  0.05036700  0.99029100  0.75158800  1
  O  O29  1  0.34676800  0.91074500  0.62002200  1
  O  O30  1  0.39849100  0.82388300  0.92877500  1
  O  O31  1  0.45123500  0.97737500  0.27718500  1
  O  O32  1  0.94963300  0.00970900  0.24841200  1
  O  O33  1  0.65323200  0.08925500  0.37997800  1
  O  O34  1  0.60150900  0.17611700  0.07122500  1
  O  O35  1  0.54876500  0.02262500  0.72281500  1
  O  O36  1  0.15255700  0.12726500  0.34217000  1
  O  O37  1  0.83214400  0.06089900  0.85677700  1
  O  O38  1  0.33242200  0.12036100  0.79846000  1
  O  O39  1  0.89924000  0.18638600  0.55952000  1
  O  O40  1  0.39924000  0.31361400  0.44048000  1
  O  O41  1  0.83242200  0.37963900  0.20154000  1
  O  O42  1  0.33214400  0.43910100  0.14322300  1
  O  O43  1  0.65255700  0.37273500  0.65783000  1
  O  O44  1  0.04876500  0.47737500  0.27718500  1
  O  O45  1  0.10150900  0.32388300  0.92877500  1
  O  O46  1  0.15323200  0.41074500  0.62002200  1
  O  O47  1  0.55036700  0.50970900  0.24841200  1
  O  O48  1  0.44963300  0.49029100  0.75158800  1
  O  O49  1  0.84676800  0.58925500  0.37997800  1
  O  O50  1  0.89849100  0.67611700  0.07122500  1
  O  O51  1  0.95123500  0.52262500  0.72281500  1
  O  O52  1  0.34744300  0.62726500  0.34217000  1
  O  O53  1  0.66785600  0.56089900  0.85677700  1
  O  O54  1  0.16757800  0.62036100  0.79846000  1
  O  O55  1  0.60076000  0.68638600  0.55952000  1
  O  O56  1  0.10076000  0.81361400  0.44048000  1
  O  O57  1  0.66757800  0.87963900  0.20154000  1
  O  O58  1  0.16785600  0.93910100  0.14322300  1
  O  O59  1  0.84744300  0.87273500  0.65783000  1
