# generated using pymatgen
data_LiCo(PO3)4
_symmetry_space_group_name_H-M   'P 1'
_cell_length_a   7.28875789
_cell_length_b   7.28875789
_cell_length_c   9.77488742
_cell_angle_alpha   67.81166577
_cell_angle_beta   67.81166577
_cell_angle_gamma   70.06561789
_symmetry_Int_Tables_number   1
_chemical_formula_structural   LiCo(PO3)4
_chemical_formula_sum   'Li2 Co2 P8 O24'
_cell_volume   433.16222951
_cell_formula_units_Z   2
loop_
 _symmetry_equiv_pos_site_id
 _symmetry_equiv_pos_as_xyz
  1  'x, y, z'
loop_
 _atom_site_type_symbol
 _atom_site_label
 _atom_site_symmetry_multiplicity
 _atom_site_fract_x
 _atom_site_fract_y
 _atom_site_fract_z
 _atom_site_occupancy
  Li  Li0  1  0.04435800  0.95564200  0.75000000  1
  Li  Li1  1  0.95564200  0.04435800  0.25000000  1
  Co  Co2  1  0.00000000  0.50000000  0.00000000  1
  Co  Co3  1  0.50000000  0.00000000  0.50000000  1
  P  P4  1  0.69632000  0.68406500  0.30306700  1
  P  P5  1  0.74099200  0.26833500  0.52830700  1
  P  P6  1  0.26833500  0.74099200  0.02830700  1
  P  P7  1  0.30368000  0.31593500  0.69693300  1
  P  P8  1  0.31593500  0.30368000  0.19693300  1
  P  P9  1  0.73166500  0.25900800  0.97169300  1
  P  P10  1  0.68406500  0.69632000  0.80306700  1
  P  P11  1  0.25900800  0.73166500  0.47169300  1
  O  O12  1  0.31633500  0.80750300  0.57287700  1
  O  O13  1  0.87373700  0.70207100  0.82998900  1
  O  O14  1  0.81264700  0.65832100  0.14528500  1
  O  O15  1  0.50572700  0.22101100  0.06790000  1
  O  O16  1  0.31977800  0.53423300  0.16546700  1
  O  O17  1  0.34167900  0.18735300  0.35471500  1
  O  O18  1  0.68366500  0.19249700  0.42712300  1
  O  O19  1  0.46576700  0.68022200  0.33453300  1
  O  O20  1  0.29792900  0.12626300  0.67001100  1
  O  O21  1  0.53423300  0.31977800  0.66546700  1
  O  O22  1  0.77898900  0.49427300  0.43210000  1
  O  O23  1  0.91176300  0.14987100  0.59302400  1
  O  O24  1  0.85012900  0.08823700  0.90697600  1
  O  O25  1  0.12626300  0.29792900  0.17001100  1
  O  O26  1  0.70207100  0.87373700  0.32998900  1
  O  O27  1  0.19249700  0.68366500  0.92712300  1
  O  O28  1  0.22101100  0.50572700  0.56790000  1
  O  O29  1  0.68022200  0.46576700  0.83453300  1
  O  O30  1  0.08823700  0.85012900  0.40697600  1
  O  O31  1  0.14987100  0.91176300  0.09302400  1
  O  O32  1  0.18735300  0.34167900  0.85471500  1
  O  O33  1  0.49427300  0.77898900  0.93210000  1
  O  O34  1  0.80750300  0.31633500  0.07287700  1
  O  O35  1  0.65832100  0.81264700  0.64528500  1
