# generated using pymatgen
data_LiCuPO4
_symmetry_space_group_name_H-M   'P 1'
_cell_length_a   4.74166800
_cell_length_b   6.03761300
_cell_length_c   10.10222800
_cell_angle_alpha   90.00000000
_cell_angle_beta   90.00000000
_cell_angle_gamma   90.00000000
_symmetry_Int_Tables_number   1
_chemical_formula_structural   LiCuPO4
_chemical_formula_sum   'Li4 Cu4 P4 O16'
_cell_volume   289.21018320
_cell_formula_units_Z   4
loop_
 _symmetry_equiv_pos_site_id
 _symmetry_equiv_pos_as_xyz
  1  'x, y, z'
loop_
 _atom_site_type_symbol
 _atom_site_label
 _atom_site_symmetry_multiplicity
 _atom_site_fract_x
 _atom_site_fract_y
 _atom_site_fract_z
 _atom_site_occupancy
  Li  Li0  1  0.00000000  0.00000000  0.00000000  1
  Li  Li1  1  0.50000000  0.00000000  0.50000000  1
  Li  Li2  1  0.00000000  0.50000000  0.00000000  1
  Li  Li3  1  0.50000000  0.50000000  0.50000000  1
  Cu  Cu4  1  0.02238700  0.75000000  0.28186800  1
  Cu  Cu5  1  0.47761300  0.75000000  0.78186800  1
  Cu  Cu6  1  0.97761300  0.25000000  0.71813200  1
  Cu  Cu7  1  0.52238700  0.25000000  0.21813200  1
  P  P8  1  0.57485500  0.75000000  0.09615800  1
  P  P9  1  0.92514500  0.75000000  0.59615800  1
  P  P10  1  0.42514500  0.25000000  0.90384200  1
  P  P11  1  0.07485500  0.25000000  0.40384200  1
  O  O12  1  0.74979100  0.25000000  0.90108000  1
  O  O13  1  0.21240200  0.45498200  0.33319200  1
  O  O14  1  0.71240200  0.54501800  0.16680800  1
  O  O15  1  0.78759800  0.95498200  0.66680800  1
  O  O16  1  0.28759800  0.04501800  0.83319200  1
  O  O17  1  0.78759800  0.54501800  0.66680800  1
  O  O18  1  0.28759800  0.45498200  0.83319200  1
  O  O19  1  0.21240200  0.04501800  0.33319200  1
  O  O20  1  0.25020900  0.75000000  0.09892000  1
  O  O21  1  0.75020900  0.25000000  0.40108000  1
  O  O22  1  0.71240200  0.95498200  0.16680800  1
  O  O23  1  0.24979100  0.75000000  0.59892000  1
  O  O24  1  0.69827600  0.75000000  0.95257800  1
  O  O25  1  0.30172400  0.25000000  0.04742200  1
  O  O26  1  0.19827600  0.25000000  0.54742200  1
  O  O27  1  0.80172400  0.75000000  0.45257800  1
