# generated using pymatgen
data_LiMo2P3O13
_symmetry_space_group_name_H-M   'P 1'
_cell_length_a   22.54342500
_cell_length_b   6.46198100
_cell_length_c   7.14715806
_cell_angle_alpha   81.20946629
_cell_angle_beta   90.00000000
_cell_angle_gamma   90.00000000
_symmetry_Int_Tables_number   1
_chemical_formula_structural   LiMo2P3O13
_chemical_formula_sum   'Li4 Mo8 P12 O52'
_cell_volume   1028.93368818
_cell_formula_units_Z   4
loop_
 _symmetry_equiv_pos_site_id
 _symmetry_equiv_pos_as_xyz
  1  'x, y, z'
loop_
 _atom_site_type_symbol
 _atom_site_label
 _atom_site_symmetry_multiplicity
 _atom_site_fract_x
 _atom_site_fract_y
 _atom_site_fract_z
 _atom_site_occupancy
  Li  Li0  1  0.64947400  0.26910600  0.78725200  1
  Li  Li1  1  0.14947400  0.23089400  0.71274800  1
  Li  Li2  1  0.85052600  0.76910600  0.28725200  1
  Li  Li3  1  0.35052600  0.73089400  0.21274800  1
  Mo  Mo4  1  0.79279300  0.22250000  0.04177200  1
  Mo  Mo5  1  0.06397700  0.22278100  0.22348300  1
  Mo  Mo6  1  0.56397700  0.27721900  0.27651700  1
  Mo  Mo7  1  0.29279300  0.27750000  0.45822800  1
  Mo  Mo8  1  0.70720700  0.72250000  0.54177200  1
  Mo  Mo9  1  0.43602300  0.72278100  0.72348300  1
  Mo  Mo10  1  0.93602300  0.77721900  0.77651700  1
  Mo  Mo11  1  0.20720700  0.77750000  0.95822800  1
  P  P12  1  0.08363200  0.87976600  0.65105300  1
  P  P13  1  0.79645500  0.72984400  0.91719100  1
  P  P14  1  0.29645500  0.77015600  0.58280900  1
  P  P15  1  0.59930100  0.78083500  0.20113000  1
  P  P16  1  0.09930100  0.71916500  0.29887000  1
  P  P17  1  0.58363200  0.62023400  0.84894700  1
  P  P18  1  0.41636800  0.37976600  0.15105300  1
  P  P19  1  0.90069900  0.28083500  0.70113000  1
  P  P20  1  0.91636800  0.12023400  0.34894700  1
  P  P21  1  0.20354500  0.27015600  0.08280900  1
  P  P22  1  0.40069900  0.21916500  0.79887000  1
  P  P23  1  0.70354500  0.22984400  0.41719100  1
  O  O24  1  0.33968000  0.23093400  0.70476800  1
  O  O25  1  0.12349900  0.85639500  0.82492600  1
  O  O26  1  0.56578500  0.98469000  0.20739700  1
  O  O27  1  0.91464200  0.89564100  0.45476200  1
  O  O28  1  0.61321400  0.77645100  0.98128700  1
  O  O29  1  0.05893500  0.90577400  0.22936800  1
  O  O30  1  0.02178200  0.78983000  0.69769400  1
  O  O31  1  0.84598400  0.77864300  0.76811500  1
  O  O32  1  0.69078400  0.02593200  0.56001800  1
  O  O33  1  0.87650100  0.14360500  0.17507400  1
  O  O34  1  0.43421500  0.01531000  0.79260300  1
  O  O35  1  0.08535800  0.10435900  0.54523800  1
  O  O36  1  0.38678600  0.22354900  0.01871300  1
  O  O37  1  0.94106500  0.09422600  0.77063200  1
  O  O38  1  0.76246400  0.20538700  0.31441800  1
  O  O39  1  0.15401600  0.22135700  0.23188500  1
  O  O40  1  0.97821800  0.21017000  0.30230600  1
  O  O41  1  0.20453800  0.10267500  0.94862200  1
  O  O42  1  0.56001700  0.21688500  0.51513500  1
  O  O43  1  0.47821800  0.28983000  0.19769400  1
  O  O44  1  0.65401600  0.27864300  0.26811500  1
  O  O45  1  0.26246400  0.29461300  0.18558200  1
  O  O46  1  0.88678600  0.27645100  0.48128700  1
  O  O47  1  0.30921600  0.97406800  0.43998200  1
  O  O48  1  0.22376100  0.26364600  0.55711700  1
  O  O49  1  0.72376100  0.23635400  0.94288300  1
  O  O50  1  0.83968000  0.26906600  0.79523200  1
  O  O51  1  0.37650100  0.35639500  0.32492600  1
  O  O52  1  0.06001700  0.28311500  0.98486500  1
  O  O53  1  0.70453800  0.39732500  0.55137800  1
  O  O54  1  0.80921600  0.52593200  0.06001800  1
  O  O55  1  0.44106500  0.40577400  0.72936800  1
  O  O56  1  0.06578500  0.51531000  0.29260300  1
  O  O57  1  0.58535800  0.39564100  0.95476200  1
  O  O58  1  0.41464200  0.60435900  0.04523800  1
  O  O59  1  0.93421500  0.48469000  0.70739700  1
  O  O60  1  0.55893500  0.59422600  0.27063200  1
  O  O61  1  0.19078400  0.47406800  0.93998200  1
  O  O62  1  0.29546200  0.60267500  0.44862200  1
  O  O63  1  0.93998300  0.71688500  0.01513500  1
  O  O64  1  0.62349900  0.64360500  0.67507400  1
  O  O65  1  0.16032000  0.73093400  0.20476800  1
  O  O66  1  0.27623900  0.76364600  0.05711700  1
  O  O67  1  0.77623900  0.73635400  0.44288300  1
  O  O68  1  0.66032000  0.76906600  0.29523200  1
  O  O69  1  0.11321400  0.72354900  0.51871300  1
  O  O70  1  0.73753600  0.70538700  0.81441800  1
  O  O71  1  0.34598400  0.72135700  0.73188500  1
  O  O72  1  0.52178200  0.71017000  0.80230600  1
  O  O73  1  0.43998300  0.78311500  0.48486500  1
  O  O74  1  0.79546200  0.89732500  0.05137800  1
  O  O75  1  0.23753600  0.79461300  0.68558200  1
