# generated using pymatgen
data_Li8PbO6
_symmetry_space_group_name_H-M   'P 1'
_cell_length_a   6.20022151
_cell_length_b   6.20022151
_cell_length_c   6.20022161
_cell_angle_alpha   53.77239422
_cell_angle_beta   53.77239422
_cell_angle_gamma   53.77238831
_symmetry_Int_Tables_number   1
_chemical_formula_structural   Li8PbO6
_chemical_formula_sum   'Li8 Pb1 O6'
_cell_volume   144.00484735
_cell_formula_units_Z   1
loop_
 _symmetry_equiv_pos_site_id
 _symmetry_equiv_pos_as_xyz
  1  'x, y, z'
loop_
 _atom_site_type_symbol
 _atom_site_label
 _atom_site_symmetry_multiplicity
 _atom_site_fract_x
 _atom_site_fract_y
 _atom_site_fract_z
 _atom_site_occupancy
  Li  Li0  1  0.34569400  0.34569400  0.34569400  1
  Li  Li1  1  0.10286800  0.49008500  0.77029800  1
  Li  Li2  1  0.49008500  0.77029800  0.10286800  1
  Li  Li3  1  0.77029800  0.10286800  0.49008500  1
  Li  Li4  1  0.89713200  0.50991500  0.22970200  1
  Li  Li5  1  0.50991500  0.22970200  0.89713200  1
  Li  Li6  1  0.65430600  0.65430600  0.65430600  1
  Li  Li7  1  0.22970200  0.89713200  0.50991500  1
  Pb  Pb8  1  0.00000000  0.00000000  0.00000000  1
  O  O9  1  0.90356500  0.24064900  0.60432800  1
  O  O10  1  0.39567200  0.09643500  0.75935100  1
  O  O11  1  0.09643500  0.75935100  0.39567200  1
  O  O12  1  0.24064900  0.60432800  0.90356500  1
  O  O13  1  0.60432800  0.90356500  0.24064900  1
  O  O14  1  0.75935100  0.39567200  0.09643500  1
