# generated using pymatgen
data_Li11Ge6
_symmetry_space_group_name_H-M   'P 1'
_cell_length_a   12.62266333
_cell_length_b   12.62266333
_cell_length_c   10.62123900
_cell_angle_alpha   90.00000000
_cell_angle_beta   90.00000000
_cell_angle_gamma   160.29758590
_symmetry_Int_Tables_number   1
_chemical_formula_structural   Li11Ge6
_chemical_formula_sum   'Li22 Ge12'
_cell_volume   570.53320540
_cell_formula_units_Z   2
loop_
 _symmetry_equiv_pos_site_id
 _symmetry_equiv_pos_as_xyz
  1  'x, y, z'
loop_
 _atom_site_type_symbol
 _atom_site_label
 _atom_site_symmetry_multiplicity
 _atom_site_fract_x
 _atom_site_fract_y
 _atom_site_fract_z
 _atom_site_occupancy
  Li  Li0  1  0.82015400  0.17984600  0.88025200  1
  Li  Li1  1  0.17984600  0.82015400  0.11974800  1
  Li  Li2  1  0.17984600  0.82015400  0.38025200  1
  Li  Li3  1  0.82015400  0.17984600  0.61974800  1
  Li  Li4  1  0.09053600  0.90946400  0.00070600  1
  Li  Li5  1  0.90946400  0.09053600  0.99929400  1
  Li  Li6  1  0.90946400  0.09053600  0.50070600  1
  Li  Li7  1  0.09053600  0.90946400  0.49929400  1
  Li  Li8  1  0.85669700  0.14330300  0.25000000  1
  Li  Li9  1  0.14330300  0.85669700  0.75000000  1
  Li  Li10  1  0.97412700  0.02587300  0.25000000  1
  Li  Li11  1  0.02587300  0.97412700  0.75000000  1
  Li  Li12  1  0.36054500  0.63945500  0.75000000  1
  Li  Li13  1  0.63945500  0.36054500  0.25000000  1
  Li  Li14  1  0.46500000  0.53500000  0.88740500  1
  Li  Li15  1  0.53500000  0.46500000  0.11259500  1
  Li  Li16  1  0.53500000  0.46500000  0.38740500  1
  Li  Li17  1  0.46500000  0.53500000  0.61259500  1
  Li  Li18  1  0.24173100  0.75826900  0.60558000  1
  Li  Li19  1  0.75826900  0.24173100  0.39442000  1
  Li  Li20  1  0.75826900  0.24173100  0.10558000  1
  Li  Li21  1  0.24173100  0.75826900  0.89442000  1
  Ge  Ge22  1  0.08072900  0.91927100  0.25000000  1
  Ge  Ge23  1  0.91927100  0.08072900  0.75000000  1
  Ge  Ge24  1  0.27157300  0.72842700  0.25000000  1
  Ge  Ge25  1  0.72842700  0.27157300  0.75000000  1
  Ge  Ge26  1  0.67114900  0.32885100  0.55203100  1
  Ge  Ge27  1  0.32885100  0.67114900  0.44796900  1
  Ge  Ge28  1  0.32885100  0.67114900  0.05203100  1
  Ge  Ge29  1  0.67114900  0.32885100  0.94796900  1
  Ge  Ge30  1  0.57550100  0.42449900  0.63398300  1
  Ge  Ge31  1  0.42449900  0.57550100  0.36601700  1
  Ge  Ge32  1  0.42449900  0.57550100  0.13398300  1
  Ge  Ge33  1  0.57550100  0.42449900  0.86601700  1
