# generated using pymatgen
data_Li6Bi3P8O29
_symmetry_space_group_name_H-M   'P 1'
_cell_length_a   10.36654850
_cell_length_b   10.36654850
_cell_length_c   14.28336055
_cell_angle_alpha   89.43451329
_cell_angle_beta   89.43451329
_cell_angle_gamma   59.89280789
_symmetry_Int_Tables_number   1
_chemical_formula_structural   Li6Bi3P8O29
_chemical_formula_sum   'Li12 Bi6 P16 O58'
_cell_volume   1327.79525663
_cell_formula_units_Z   2
loop_
 _symmetry_equiv_pos_site_id
 _symmetry_equiv_pos_as_xyz
  1  'x, y, z'
loop_
 _atom_site_type_symbol
 _atom_site_label
 _atom_site_symmetry_multiplicity
 _atom_site_fract_x
 _atom_site_fract_y
 _atom_site_fract_z
 _atom_site_occupancy
  Li  Li0  1  0.08964600  0.69025800  0.44370800  1
  Li  Li1  1  0.78120300  0.31564300  0.06129800  1
  Li  Li2  1  0.91029500  0.31140900  0.55172800  1
  Li  Li3  1  0.31564300  0.78120300  0.56129800  1
  Li  Li4  1  0.31140900  0.91029500  0.05172800  1
  Li  Li5  1  0.21800100  0.08948300  0.44225400  1
  Li  Li6  1  0.91995500  0.79004200  0.05375900  1
  Li  Li7  1  0.33726200  0.33794900  0.12305200  1
  Li  Li8  1  0.33794900  0.33726200  0.62305200  1
  Li  Li9  1  0.69025800  0.08964600  0.94370800  1
  Li  Li10  1  0.79004200  0.91995500  0.55375900  1
  Li  Li11  1  0.08948300  0.21800100  0.94225400  1
  Bi  Bi12  1  0.57007800  0.43128800  0.25938500  1
  Bi  Bi13  1  0.43128800  0.57007800  0.75938500  1
  Bi  Bi14  1  0.99337900  0.43425100  0.75268200  1
  Bi  Bi15  1  0.99433700  0.57227800  0.25038400  1
  Bi  Bi16  1  0.43425100  0.99337900  0.25268200  1
  Bi  Bi17  1  0.57227800  0.99433700  0.75038400  1
  P  P18  1  0.23016000  0.09409600  0.65389000  1
  P  P19  1  0.30885600  0.91931300  0.83989500  1
  P  P20  1  0.66539700  0.66835800  0.60826100  1
  P  P21  1  0.66835800  0.66539700  0.10826100  1
  P  P22  1  0.30696000  0.76989300  0.34888200  1
  P  P23  1  0.91931300  0.30885600  0.33989500  1
  P  P24  1  0.22919500  0.68519300  0.16174700  1
  P  P25  1  0.09051300  0.68239200  0.65703300  1
  P  P26  1  0.68519300  0.22919500  0.66174700  1
  P  P27  1  0.32573200  0.33215200  0.38840100  1
  P  P28  1  0.33215200  0.32573200  0.88840100  1
  P  P29  1  0.68239200  0.09051300  0.15703300  1
  P  P30  1  0.77136600  0.91765400  0.34378300  1
  P  P31  1  0.09409600  0.23016000  0.15389000  1
  P  P32  1  0.91765400  0.77136600  0.84378300  1
  P  P33  1  0.76989300  0.30696000  0.84888200  1
  O  O34  1  0.65252400  0.87295300  0.32643900  1
  O  O35  1  0.65532000  0.47169500  0.82886100  1
  O  O36  1  0.92700400  0.29072300  0.84778700  1
  O  O37  1  0.99284600  0.26194300  0.07090500  1
  O  O38  1  0.77926400  0.29355900  0.34401000  1
  O  O39  1  0.77013100  0.25889400  0.58882400  1
  O  O40  1  0.20852800  0.76293100  0.26435900  1
  O  O41  1  0.24426100  0.74576500  0.43915700  1
  O  O42  1  0.23743400  0.68681200  0.65097200  1
  O  O43  1  0.00532100  0.77607800  0.74934900  1
  O  O44  1  0.00615800  0.75270100  0.92977600  1
  O  O45  1  0.07752200  0.69180100  0.14816700  1
  O  O46  1  0.34955600  0.51770400  0.17365900  1
  O  O47  1  0.31712800  0.46914900  0.84254400  1
  O  O48  1  0.74576500  0.24426100  0.93915700  1
  O  O49  1  0.51770400  0.34955600  0.67365900  1
  O  O50  1  0.76293100  0.20852800  0.76435900  1
  O  O51  1  0.13213000  0.51705700  0.67118100  1
  O  O52  1  0.18333300  0.48370700  0.35855900  1
  O  O53  1  0.68681200  0.23743400  0.15097200  1
  O  O54  1  0.46914900  0.31712800  0.34254400  1
  O  O55  1  0.33108400  0.33444900  0.49415800  1
  O  O56  1  0.33444900  0.33108400  0.99415800  1
  O  O57  1  0.48370700  0.18333300  0.85855900  1
  O  O58  1  0.69180100  0.07752200  0.64816700  1
  O  O59  1  0.13935600  0.35022400  0.17110600  1
  O  O60  1  0.19370900  0.31172300  0.85808000  1
  O  O61  1  0.77607800  0.00532100  0.24934900  1
  O  O62  1  0.51705700  0.13213000  0.17118100  1
  O  O63  1  0.75270100  0.00615800  0.42977600  1
  O  O64  1  0.75521900  0.99506500  0.07183000  1
  O  O65  1  0.31172300  0.19370900  0.35808000  1
  O  O66  1  0.77157000  0.92661000  0.84656100  1
  O  O67  1  0.35022400  0.13935600  0.67110600  1
  O  O68  1  0.07836500  0.23886100  0.64350200  1
  O  O69  1  0.99506500  0.75521900  0.57183000  1
  O  O70  1  0.01195300  0.24111400  0.42672800  1
  O  O71  1  0.92661000  0.77157000  0.34656100  1
  O  O72  1  0.01453400  0.21574800  0.24823500  1
  O  O73  1  0.47169500  0.65532000  0.32886100  1
  O  O74  1  0.23886100  0.07836500  0.14350200  1
  O  O75  1  0.67696500  0.80727400  0.63880300  1
  O  O76  1  0.24111400  0.01195300  0.92672800  1
  O  O77  1  0.26194300  0.99284600  0.57090500  1
  O  O78  1  0.21574800  0.01453400  0.74823500  1
  O  O79  1  0.47379700  0.87165600  0.82272500  1
  O  O80  1  0.87295300  0.65252400  0.82643900  1
  O  O81  1  0.80727400  0.67696500  0.13880300  1
  O  O82  1  0.29072300  0.92700400  0.34778700  1
  O  O83  1  0.51998600  0.80673800  0.14030200  1
  O  O84  1  0.66549900  0.66581400  0.50116100  1
  O  O85  1  0.67865900  0.51724300  0.14372200  1
  O  O86  1  0.51724300  0.67865900  0.64372200  1
  O  O87  1  0.29355900  0.77926400  0.84401000  1
  O  O88  1  0.80673800  0.51998600  0.64030200  1
  O  O89  1  0.87165600  0.47379700  0.32272500  1
  O  O90  1  0.25889400  0.77013100  0.08882400  1
  O  O91  1  0.66581400  0.66549900  0.00116100  1
