# generated using pymatgen
data_Li3Mo3(PO4)4
_symmetry_space_group_name_H-M   'P 1'
_cell_length_a   8.39285600
_cell_length_b   9.15291799
_cell_length_c   13.03439537
_cell_angle_alpha   94.17702804
_cell_angle_beta   90.29617292
_cell_angle_gamma   90.02660431
_symmetry_Int_Tables_number   1
_chemical_formula_structural   Li3Mo3(PO4)4
_chemical_formula_sum   'Li9 Mo9 P12 O48'
_cell_volume   998.61745177
_cell_formula_units_Z   3
loop_
 _symmetry_equiv_pos_site_id
 _symmetry_equiv_pos_as_xyz
  1  'x, y, z'
loop_
 _atom_site_type_symbol
 _atom_site_label
 _atom_site_symmetry_multiplicity
 _atom_site_fract_x
 _atom_site_fract_y
 _atom_site_fract_z
 _atom_site_occupancy
  Li  Li0  1  0.13854100  0.22434700  0.83610000  1
  Li  Li1  1  0.85978200  0.10758600  0.49702400  1
  Li  Li2  1  0.36284900  0.74577200  0.83621900  1
  Li  Li3  1  0.37261100  0.40473600  0.50939400  1
  Li  Li4  1  0.35800000  0.05581300  0.16820700  1
  Li  Li5  1  0.62799600  0.92409800  0.82231900  1
  Li  Li6  1  0.63337500  0.59227700  0.50206600  1
  Li  Li7  1  0.13120000  0.57635400  0.16666900  1
  Li  Li8  1  0.87367300  0.76406300  0.16269000  1
  Mo  Mo9  1  0.48838400  0.33053800  0.83452300  1
  Mo  Mo10  1  0.50996600  0.00453700  0.49844800  1
  Mo  Mo11  1  0.86352600  0.44089200  0.83675700  1
  Mo  Mo12  1  0.00229900  0.83798600  0.83147700  1
  Mo  Mo13  1  0.00046000  0.49538800  0.50402500  1
  Mo  Mo14  1  0.01068200  0.16144200  0.16800000  1
  Mo  Mo15  1  0.63649500  0.27471500  0.16661700  1
  Mo  Mo16  1  0.13654700  0.89261900  0.49785800  1
  Mo  Mo17  1  0.49631400  0.67289300  0.16483900  1
  P  P18  1  0.19214800  0.85267600  0.05445300  1
  P  P19  1  0.70111400  0.97412400  0.27376700  1
  P  P20  1  0.29742800  0.35723700  0.05656700  1
  P  P21  1  0.31554400  0.67788500  0.38686200  1
  P  P22  1  0.81462200  0.48727800  0.28124700  1
  P  P23  1  0.79983800  0.80951300  0.60987400  1
  P  P24  1  0.20157800  0.19425100  0.39309800  1
  P  P25  1  0.19990000  0.52395800  0.72372600  1
  P  P26  1  0.69703900  0.31191800  0.61137600  1
  P  P27  1  0.79589400  0.13668400  0.94064400  1
  P  P28  1  0.68470500  0.65570200  0.94628300  1
  P  P29  1  0.30334300  0.02193100  0.72261100  1
  O  O30  1  0.08323300  0.09900000  0.45244700  1
  O  O31  1  0.36463700  0.83955100  0.10098500  1
  O  O32  1  0.07470700  0.75096000  0.10022200  1
  O  O33  1  0.69769300  0.68461800  0.06336300  1
  O  O34  1  0.64708400  0.81275600  0.25726300  1
  O  O35  1  0.35329400  0.51737800  0.07769500  1
  O  O36  1  0.35200600  0.84798100  0.41400100  1
  O  O37  1  0.30078400  0.99500800  0.59907400  1
  O  O38  1  0.92797700  0.58755200  0.23323700  1
  O  O39  1  0.13014400  0.00709100  0.76311000  1
  O  O40  1  0.62468100  0.15746200  0.90174700  1
  O  O41  1  0.91622700  0.23550900  0.88728000  1
  O  O42  1  0.29702600  0.31566800  0.93899700  1
  O  O43  1  0.34613500  0.18666300  0.74366600  1
  O  O44  1  0.64854700  0.48473700  0.92113600  1
  O  O45  1  0.65425000  0.14749600  0.58897500  1
  O  O46  1  0.70030400  0.33650500  0.73524500  1
  O  O47  1  0.08579300  0.41779800  0.77669600  1
  O  O48  1  0.69651600  0.02427800  0.39018900  1
  O  O49  1  0.87244800  0.98835300  0.23147200  1
  O  O50  1  0.36848000  0.50834500  0.77061200  1
  O  O51  1  0.86136600  0.65966800  0.89501100  1
  O  O52  1  0.37318600  0.17915900  0.43581100  1
  O  O53  1  0.86997700  0.32727800  0.57079200  1
  O  O54  1  0.57176600  0.75235800  0.89461200  1
  O  O55  1  0.19703300  0.82471100  0.93505300  1
  O  O56  1  0.57885000  0.41647900  0.57060600  1
  O  O57  1  0.19776700  0.48227700  0.60639100  1
  O  O58  1  0.58403900  0.06881400  0.21229800  1
  O  O59  1  0.19720100  0.14489700  0.27647100  1
  O  O60  1  0.14637300  0.68488100  0.74475700  1
  O  O61  1  0.14846900  0.35559600  0.41053500  1
  O  O62  1  0.15135500  0.01905700  0.07890200  1
  O  O63  1  0.84779200  0.97650100  0.92277600  1
  O  O64  1  0.85321800  0.64831600  0.58887200  1
  O  O65  1  0.85107600  0.31777000  0.25191200  1
  O  O66  1  0.80359700  0.85153900  0.72690500  1
  O  O67  1  0.42136000  0.91811800  0.76420800  1
  O  O68  1  0.80146000  0.51103700  0.39841800  1
  O  O69  1  0.42927200  0.57848600  0.43590000  1
  O  O70  1  0.80415100  0.17904500  0.06162400  1
  O  O71  1  0.41083700  0.25053300  0.10972600  1
  O  O72  1  0.13974100  0.67281600  0.43882600  1
  O  O73  1  0.63125600  0.82481700  0.56258200  1
  O  O74  1  0.12863000  0.34216000  0.10247700  1
  O  O75  1  0.63838500  0.49291300  0.22844900  1
  O  O76  1  0.91275000  0.91487300  0.55528400  1
  O  O77  1  0.30127500  0.65198000  0.26964900  1
