# generated using pymatgen
data_LiV(PO3)4
_symmetry_space_group_name_H-M   'P 1'
_cell_length_a   7.32233286
_cell_length_b   7.32233286
_cell_length_c   9.98748669
_cell_angle_alpha   67.47764473
_cell_angle_beta   67.47764473
_cell_angle_gamma   70.40154577
_symmetry_Int_Tables_number   1
_chemical_formula_structural   LiV(PO3)4
_chemical_formula_sum   'Li2 V2 P8 O24'
_cell_volume   445.61177295
_cell_formula_units_Z   2
loop_
 _symmetry_equiv_pos_site_id
 _symmetry_equiv_pos_as_xyz
  1  'x, y, z'
loop_
 _atom_site_type_symbol
 _atom_site_label
 _atom_site_symmetry_multiplicity
 _atom_site_fract_x
 _atom_site_fract_y
 _atom_site_fract_z
 _atom_site_occupancy
  Li  Li0  1  0.03239500  0.96760500  0.75000000  1
  Li  Li1  1  0.96760500  0.03239500  0.25000000  1
  V  V2  1  0.00000000  0.50000000  0.00000000  1
  V  V3  1  0.50000000  0.00000000  0.50000000  1
  P  P4  1  0.69694800  0.68256300  0.30360000  1
  P  P5  1  0.25979500  0.72885600  0.47181800  1
  P  P6  1  0.30305200  0.31743700  0.69640000  1
  P  P7  1  0.27114400  0.74020500  0.02818200  1
  P  P8  1  0.68256300  0.69694800  0.80360000  1
  P  P9  1  0.74020500  0.27114400  0.52818200  1
  P  P10  1  0.72885600  0.25979500  0.97181800  1
  P  P11  1  0.31743700  0.30305200  0.19640000  1
  O  O12  1  0.65396300  0.80756800  0.64995700  1
  O  O13  1  0.31556700  0.80864400  0.56915000  1
  O  O14  1  0.46646900  0.67476800  0.33945600  1
  O  O15  1  0.09190500  0.84688600  0.40678600  1
  O  O16  1  0.87252800  0.70297900  0.82743700  1
  O  O17  1  0.80864400  0.31556700  0.06915000  1
  O  O18  1  0.21874100  0.50559100  0.56976500  1
  O  O19  1  0.15311400  0.90809500  0.09321400  1
  O  O20  1  0.49440900  0.78125900  0.93023500  1
  O  O21  1  0.32523200  0.53353100  0.16054400  1
  O  O22  1  0.80756800  0.65396300  0.14995700  1
  O  O23  1  0.29702100  0.12747200  0.67256300  1
  O  O24  1  0.70297900  0.87252800  0.32743700  1
  O  O25  1  0.34603700  0.19243200  0.35004300  1
  O  O26  1  0.67476800  0.46646900  0.83945600  1
  O  O27  1  0.50559100  0.21874100  0.06976500  1
  O  O28  1  0.19243200  0.34603700  0.85004300  1
  O  O29  1  0.78125900  0.49440900  0.43023500  1
  O  O30  1  0.19135600  0.68443300  0.93085000  1
  O  O31  1  0.12747200  0.29702100  0.17256300  1
  O  O32  1  0.90809500  0.15311400  0.59321400  1
  O  O33  1  0.53353100  0.32523200  0.66054400  1
  O  O34  1  0.68443300  0.19135600  0.43085000  1
  O  O35  1  0.84688600  0.09190500  0.90678600  1
