# generated using pymatgen
data_LiCoP2O7
_symmetry_space_group_name_H-M   'P 1'
_cell_length_a   8.33271300
_cell_length_b   6.97672200
_cell_length_c   9.19733609
_cell_angle_alpha   68.41076824
_cell_angle_beta   90.00000000
_cell_angle_gamma   90.00000000
_symmetry_Int_Tables_number   1
_chemical_formula_structural   LiCoP2O7
_chemical_formula_sum   'Li4 Co4 P8 O28'
_cell_volume   497.17669696
_cell_formula_units_Z   4
loop_
 _symmetry_equiv_pos_site_id
 _symmetry_equiv_pos_as_xyz
  1  'x, y, z'
loop_
 _atom_site_type_symbol
 _atom_site_label
 _atom_site_symmetry_multiplicity
 _atom_site_fract_x
 _atom_site_fract_y
 _atom_site_fract_z
 _atom_site_occupancy
  Li  Li0  1  0.07482200  0.79340000  0.59705900  1
  Li  Li1  1  0.57482200  0.20660000  0.90294100  1
  Li  Li2  1  0.92517800  0.20660000  0.40294100  1
  Li  Li3  1  0.42517800  0.79340000  0.09705900  1
  Co  Co4  1  0.06513900  0.69334000  0.18851000  1
  Co  Co5  1  0.56513900  0.30666000  0.31149000  1
  Co  Co6  1  0.93486100  0.30666000  0.81149000  1
  Co  Co7  1  0.43486100  0.69334000  0.68851000  1
  P  P8  1  0.73810200  0.93087300  0.24326300  1
  P  P9  1  0.26189800  0.06912700  0.75673700  1
  P  P10  1  0.28233900  0.47828200  0.46717400  1
  P  P11  1  0.21766100  0.47828200  0.96717400  1
  P  P12  1  0.23810200  0.06912700  0.25673700  1
  P  P13  1  0.78233900  0.52171800  0.03282600  1
  P  P14  1  0.76189800  0.93087300  0.74326300  1
  P  P15  1  0.71766100  0.52171800  0.53282600  1
  O  O16  1  0.71760800  0.36485800  0.44954000  1
  O  O17  1  0.88688800  0.94703600  0.62198000  1
  O  O18  1  0.25192800  0.88135800  0.70933900  1
  O  O19  1  0.58270900  0.49075400  0.65182100  1
  O  O20  1  0.75192800  0.11864200  0.79066100  1
  O  O21  1  0.80889600  0.74573200  0.90580400  1
  O  O22  1  0.40739100  0.12544400  0.30226100  1
  O  O23  1  0.91729100  0.49075400  0.15182100  1
  O  O24  1  0.61610900  0.51740200  0.10982800  1
  O  O25  1  0.90739100  0.87455600  0.19773900  1
  O  O26  1  0.11311200  0.05296400  0.37802000  1
  O  O27  1  0.59260900  0.87455600  0.69773900  1
  O  O28  1  0.38688800  0.05296400  0.87802000  1
  O  O29  1  0.69110400  0.74573200  0.40580400  1
  O  O30  1  0.74807200  0.11864200  0.29066100  1
  O  O31  1  0.30889600  0.25426800  0.59419600  1
  O  O32  1  0.19110400  0.25426800  0.09419600  1
  O  O33  1  0.24807200  0.88135800  0.20933900  1
  O  O34  1  0.09260900  0.12544400  0.80226100  1
  O  O35  1  0.08270900  0.50924600  0.84817900  1
  O  O36  1  0.38389100  0.48259800  0.89017200  1
  O  O37  1  0.61311200  0.94703600  0.12198000  1
  O  O38  1  0.28239200  0.63514200  0.55046000  1
  O  O39  1  0.11610900  0.48259800  0.39017200  1
  O  O40  1  0.41729100  0.50924600  0.34817900  1
  O  O41  1  0.21760800  0.63514200  0.05046000  1
  O  O42  1  0.88389100  0.51740200  0.60982800  1
  O  O43  1  0.78239200  0.36485800  0.94954000  1
