# generated using pymatgen
data_LiBi2(PO4)3
_symmetry_space_group_name_H-M   'P 1'
_cell_length_a   9.34117400
_cell_length_b   8.93976900
_cell_length_c   12.78211803
_cell_angle_alpha   89.46895122
_cell_angle_beta   90.00000000
_cell_angle_gamma   90.00000000
_symmetry_Int_Tables_number   1
_chemical_formula_structural   LiBi2(PO4)3
_chemical_formula_sum   'Li4 Bi8 P12 O48'
_cell_volume   1067.36246838
_cell_formula_units_Z   4
loop_
 _symmetry_equiv_pos_site_id
 _symmetry_equiv_pos_as_xyz
  1  'x, y, z'
loop_
 _atom_site_type_symbol
 _atom_site_label
 _atom_site_symmetry_multiplicity
 _atom_site_fract_x
 _atom_site_fract_y
 _atom_site_fract_z
 _atom_site_occupancy
  Li  Li0  1  0.99763500  0.82775000  0.89780300  1
  Li  Li1  1  0.49763500  0.17225000  0.10219700  1
  Li  Li2  1  0.91420900  0.17961500  0.43889400  1
  Li  Li3  1  0.41420900  0.82038500  0.56110600  1
  Bi  Bi4  1  0.53016100  0.00106900  0.86048700  1
  Bi  Bi5  1  0.03016100  0.99893100  0.13951300  1
  Bi  Bi6  1  0.45551400  0.00950700  0.35534900  1
  Bi  Bi7  1  0.95551400  0.99049300  0.64465100  1
  Bi  Bi8  1  0.53756000  0.51634000  0.14411200  1
  Bi  Bi9  1  0.97276600  0.52392800  0.36165900  1
  Bi  Bi10  1  0.03756000  0.48366000  0.85588800  1
  Bi  Bi11  1  0.47276600  0.47607200  0.63834100  1
  P  P12  1  0.88299400  0.64069700  0.08131300  1
  P  P13  1  0.75424200  0.70140500  0.74571900  1
  P  P14  1  0.60528300  0.65349100  0.39642200  1
  P  P15  1  0.24235000  0.79269200  0.75321800  1
  P  P16  1  0.12321900  0.86848200  0.41722300  1
  P  P17  1  0.38726500  0.86315200  0.10123300  1
  P  P18  1  0.88726500  0.13684800  0.89876700  1
  P  P19  1  0.62321900  0.13151800  0.58277700  1
  P  P20  1  0.25424200  0.29859500  0.25428100  1
  P  P21  1  0.38299400  0.35930300  0.91868700  1
  P  P22  1  0.10528300  0.34650900  0.60357800  1
  P  P23  1  0.74235000  0.20730800  0.24678200  1
  O  O24  1  0.96523400  0.51566400  0.01959900  1
  O  O25  1  0.62939400  0.16374900  0.33315700  1
  O  O26  1  0.78615000  0.10943200  0.55156400  1
  O  O27  1  0.60715000  0.09965300  0.69889400  1
  O  O28  1  0.99805600  0.12680700  0.98631100  1
  O  O29  1  0.09599800  0.18648600  0.65648300  1
  O  O30  1  0.42512100  0.20321800  0.96162500  1
  O  O31  1  0.14287500  0.21132600  0.19230400  1
  O  O32  1  0.85687200  0.29109900  0.30989700  1
  O  O33  1  0.89141400  0.29348000  0.84283500  1
  O  O34  1  0.58401100  0.29062900  0.54859700  1
  O  O35  1  0.66948300  0.30096300  0.15640800  1
  O  O36  1  0.37896900  0.33374000  0.17476000  1
  O  O37  1  0.00607400  0.35371800  0.50704000  1
  O  O38  1  0.21641200  0.37177800  0.93626000  1
  O  O39  1  0.41935100  0.37710500  0.80279200  1
  O  O40  1  0.26208600  0.37339100  0.57534200  1
  O  O41  1  0.19734300  0.44179400  0.30290200  1
  O  O42  1  0.05375600  0.46681800  0.68428500  1
  O  O43  1  0.46523400  0.48433600  0.98040100  1
  O  O44  1  0.55375600  0.53318200  0.31571500  1
  O  O45  1  0.31419000  0.20415300  0.35048200  1
  O  O46  1  0.69734300  0.55820600  0.69709800  1
  O  O47  1  0.76208600  0.62660900  0.42465800  1
  O  O48  1  0.91935100  0.62289500  0.19720800  1
  O  O49  1  0.71641200  0.62822200  0.06374000  1
  O  O50  1  0.50607400  0.64628200  0.49296000  1
  O  O51  1  0.87896900  0.66626000  0.82524000  1
  O  O52  1  0.08401100  0.70937100  0.45140300  1
  O  O53  1  0.35687200  0.70890100  0.69010300  1
  O  O54  1  0.16948300  0.69903700  0.84359200  1
  O  O55  1  0.39141400  0.70652000  0.15716500  1
  O  O56  1  0.64287500  0.78867400  0.80769600  1
  O  O57  1  0.59599800  0.81351400  0.34351700  1
  O  O58  1  0.81419000  0.79584700  0.64951800  1
  O  O59  1  0.92512100  0.79678200  0.03837500  1
  O  O60  1  0.12939400  0.83625100  0.66684300  1
  O  O61  1  0.49805600  0.87319300  0.01368900  1
  O  O62  1  0.28615000  0.89056800  0.44843600  1
  O  O63  1  0.10715000  0.90034700  0.30110600  1
  O  O64  1  0.23366000  0.89338200  0.06598900  1
  O  O65  1  0.29986900  0.93262700  0.80636100  1
  O  O66  1  0.73366000  0.10661800  0.93401100  1
  O  O67  1  0.43398500  0.98883800  0.18240200  1
  O  O68  1  0.93398500  0.01116200  0.81759800  1
  O  O69  1  0.52790300  0.01331000  0.52279900  1
  O  O70  1  0.79986900  0.06737300  0.19363900  1
  O  O71  1  0.02790300  0.98669000  0.47720100  1
