# generated using pymatgen
data_Li4Mn5(P3O11)2
_symmetry_space_group_name_H-M   'P 1'
_cell_length_a   6.69011700
_cell_length_b   10.99920800
_cell_length_c   12.79008716
_cell_angle_alpha   76.75120107
_cell_angle_beta   90.00000000
_cell_angle_gamma   90.00000000
_symmetry_Int_Tables_number   1
_chemical_formula_structural   Li4Mn5(P3O11)2
_chemical_formula_sum   'Li8 Mn10 P12 O44'
_cell_volume   916.12105179
_cell_formula_units_Z   2
loop_
 _symmetry_equiv_pos_site_id
 _symmetry_equiv_pos_as_xyz
  1  'x, y, z'
loop_
 _atom_site_type_symbol
 _atom_site_label
 _atom_site_symmetry_multiplicity
 _atom_site_fract_x
 _atom_site_fract_y
 _atom_site_fract_z
 _atom_site_occupancy
  Li  Li0  1  0.84577000  0.43184000  0.18567100  1
  Li  Li1  1  0.65423000  0.93184000  0.18567100  1
  Li  Li2  1  0.47288100  0.11331700  0.33484100  1
  Li  Li3  1  0.02711900  0.61331700  0.33484100  1
  Li  Li4  1  0.97288100  0.38668300  0.66515900  1
  Li  Li5  1  0.52711900  0.88668300  0.66515900  1
  Li  Li6  1  0.34577000  0.06816000  0.81432900  1
  Li  Li7  1  0.15423000  0.56816000  0.81432900  1
  Mn  Mn8  1  0.50000000  0.50000000  0.00000000  1
  Mn  Mn9  1  0.24478300  0.21843800  0.13190400  1
  Mn  Mn10  1  0.00000000  0.00000000  0.00000000  1
  Mn  Mn11  1  0.25521700  0.71843800  0.13190400  1
  Mn  Mn12  1  0.00655700  0.19787200  0.34668400  1
  Mn  Mn13  1  0.49344300  0.69787200  0.34668400  1
  Mn  Mn14  1  0.50655700  0.30212800  0.65331600  1
  Mn  Mn15  1  0.99344300  0.80212800  0.65331600  1
  Mn  Mn16  1  0.74478300  0.28156200  0.86809600  1
  Mn  Mn17  1  0.75521700  0.78156200  0.86809600  1
  P  P18  1  0.73679300  0.22106500  0.09511500  1
  P  P19  1  0.76320700  0.72106500  0.09511500  1
  P  P20  1  0.39264200  0.43136400  0.26732600  1
  P  P21  1  0.10735800  0.93136400  0.26732600  1
  P  P22  1  0.72336400  0.42356600  0.41803400  1
  P  P23  1  0.77663600  0.92356600  0.41803400  1
  P  P24  1  0.22336400  0.07643400  0.58196600  1
  P  P25  1  0.27663600  0.57643400  0.58196600  1
  P  P26  1  0.89264200  0.06863600  0.73267400  1
  P  P27  1  0.60735800  0.56863600  0.73267400  1
  P  P28  1  0.23679300  0.27893500  0.90488500  1
  P  P29  1  0.26320700  0.77893500  0.90488500  1
  O  O30  1  0.77400900  0.13213300  0.01779100  1
  O  O31  1  0.70236700  0.34936200  0.01349900  1
  O  O32  1  0.72599100  0.63213300  0.01779100  1
  O  O33  1  0.79763300  0.84936200  0.01349900  1
  O  O34  1  0.55701500  0.17080500  0.16845900  1
  O  O35  1  0.91845600  0.24190100  0.16606800  1
  O  O36  1  0.55212500  0.45241300  0.18021500  1
  O  O37  1  0.21494800  0.05408100  0.27214000  1
  O  O38  1  0.94298500  0.67080500  0.16845900  1
  O  O39  1  0.58154400  0.74190100  0.16606800  1
  O  O40  1  0.24916500  0.32559400  0.25766400  1
  O  O41  1  0.94787500  0.95241300  0.18021500  1
  O  O42  1  0.28505200  0.55408100  0.27214000  1
  O  O43  1  0.76507900  0.06734400  0.39097400  1
  O  O44  1  0.25083500  0.82559400  0.25766400  1
  O  O45  1  0.87612100  0.37368900  0.34837100  1
  O  O46  1  0.50168300  0.38284900  0.38309500  1
  O  O47  1  0.23732100  0.13745600  0.46289700  1
  O  O48  1  0.73492100  0.56734400  0.39097400  1
  O  O49  1  0.62387900  0.87368900  0.34837100  1
  O  O50  1  0.99831700  0.88284900  0.38309500  1
  O  O51  1  0.26267900  0.63745600  0.46289700  1
  O  O52  1  0.73732100  0.36254400  0.53710300  1
  O  O53  1  0.00168300  0.11715100  0.61690500  1
  O  O54  1  0.37612100  0.12631100  0.65162900  1
  O  O55  1  0.26507900  0.43265600  0.60902600  1
  O  O56  1  0.76267900  0.86254400  0.53710300  1
  O  O57  1  0.49831700  0.61715100  0.61690500  1
  O  O58  1  0.12387900  0.62631100  0.65162900  1
  O  O59  1  0.74916500  0.17440600  0.74233600  1
  O  O60  1  0.23492100  0.93265600  0.60902600  1
  O  O61  1  0.71494800  0.44591900  0.72786000  1
  O  O62  1  0.05212500  0.04758700  0.81978500  1
  O  O63  1  0.75083500  0.67440600  0.74233600  1
  O  O64  1  0.41845600  0.25809900  0.83393200  1
  O  O65  1  0.05701500  0.32919500  0.83154100  1
  O  O66  1  0.78505200  0.94591900  0.72786000  1
  O  O67  1  0.44787500  0.54758700  0.81978500  1
  O  O68  1  0.08154400  0.75809900  0.83393200  1
  O  O69  1  0.44298500  0.82919500  0.83154100  1
  O  O70  1  0.20236700  0.15063800  0.98650100  1
  O  O71  1  0.27400900  0.36786700  0.98220900  1
  O  O72  1  0.29763300  0.65063800  0.98650100  1
  O  O73  1  0.22599100  0.86786700  0.98220900  1
