# generated using pymatgen
data_LiNiP2O7
_symmetry_space_group_name_H-M   'P 1'
_cell_length_a   6.34724071
_cell_length_b   6.34701722
_cell_length_c   13.28883296
_cell_angle_alpha   78.84432925
_cell_angle_beta   77.93444509
_cell_angle_gamma   99.05569778
_symmetry_Int_Tables_number   1
_chemical_formula_structural   LiNiP2O7
_chemical_formula_sum   'Li4 Ni4 P8 O28'
_cell_volume   502.59773703
_cell_formula_units_Z   4
loop_
 _symmetry_equiv_pos_site_id
 _symmetry_equiv_pos_as_xyz
  1  'x, y, z'
loop_
 _atom_site_type_symbol
 _atom_site_label
 _atom_site_symmetry_multiplicity
 _atom_site_fract_x
 _atom_site_fract_y
 _atom_site_fract_z
 _atom_site_occupancy
  Li  Li0  1  0.41711031  1.01985737  0.34622186  1
  Li  Li1  1  0.13391696  0.23637673  0.84631677  1
  Li  Li2  1  0.86608280  0.76362333  0.15368322  1
  Li  Li3  1  0.58289110  -0.01985732  0.65377799  1
  O  O4  1  0.29736551  0.60997563  0.47792789  1
  O  O5  1  0.72773207  0.06509883  0.37821086  1
  O  O6  1  0.78942132  0.18645532  0.87175249  1
  O  O7  1  0.54300815  0.10037707  0.18476732  1
  O  O8  1  0.05656968  0.89393320  0.87827030  1
  O  O9  1  0.27226769  0.93490124  0.62178913  1
  O  O10  1  0.21057844  0.81354474  0.12824751  1
  O  O11  1  0.45699161  0.89962299  0.81523268  1
  O  O12  1  0.17485931  0.56908622  0.80695991  1
  O  O13  1  0.09820616  0.46042148  0.35088163  1
  O  O14  1  0.22813990  0.61679352  0.98028399  1
  O  O15  1  0.94343007  0.10606686  0.12172970  1
  O  O16  1  0.58778541  0.77518031  0.02212036  1
  O  O17  1  0.31121771  0.44902651  0.14917471  1
  O  O18  1  0.09717442  0.20846287  0.51973513  1
  O  O19  1  0.55819695  0.66100209  0.62830336  1
  O  O20  1  0.87607950  0.98188430  0.69303181  1
  O  O21  1  0.21486408  0.27226716  0.68479667  1
  O  O22  1  0.82514045  0.43091384  0.19304009  1
  O  O23  1  0.12392025  0.01811576  0.30696819  1
  O  O24  1  0.44180280  0.33899798  0.37169664  1
  O  O25  1  0.90282699  0.79153718  0.48026472  1
  O  O26  1  0.68878205  0.55097355  0.85082529  1
  O  O27  1  0.41221435  0.22481976  0.97787964  1
  O  O28  1  0.70263425  0.39002443  0.52207211  1
  O  O29  1  0.77185986  0.38320655  0.01971601  1
  O  O30  1  0.90179360  0.53957859  0.64911837  1
  O  O31  1  0.78513568  0.72773290  0.31520332  1
  P  P32  1  0.77184843  0.25037668  0.13603388  1
  P  P33  1  0.65508909  0.32820198  0.92844273  1
  P  P34  1  0.75659394  0.58345197  0.57152709  1
  P  P35  1  0.11359771  0.09214971  0.63606488  1
  P  P36  1  0.22815133  0.74962338  0.86396612  1
  P  P37  1  0.34491233  0.67179807  0.07155712  1
  P  P38  1  0.88640205  0.90785036  0.36393512  1
  P  P39  1  0.24340582  0.41654809  0.42847291  1
  Ni  Ni40  1  0.22794825  0.60038326  0.64147073  1
  Ni  Ni41  1  0.74182605  0.86949733  0.85851872  1
  Ni  Ni42  1  0.25817371  0.13050274  0.14148128  1
  Ni  Ni43  1  0.77205150  0.39961680  0.35852927  1
