# generated using pymatgen
data_Sr6Li23
_symmetry_space_group_name_H-M   'P 1'
_cell_length_a   10.44513388
_cell_length_b   10.44513388
_cell_length_c   10.44513388
_cell_angle_alpha   60.00000000
_cell_angle_beta   60.00000000
_cell_angle_gamma   60.00000000
_symmetry_Int_Tables_number   1
_chemical_formula_structural   Sr6Li23
_chemical_formula_sum   'Sr6 Li23'
_cell_volume   805.79957762
_cell_formula_units_Z   1
loop_
 _symmetry_equiv_pos_site_id
 _symmetry_equiv_pos_as_xyz
  1  'x, y, z'
loop_
 _atom_site_type_symbol
 _atom_site_label
 _atom_site_symmetry_multiplicity
 _atom_site_fract_x
 _atom_site_fract_y
 _atom_site_fract_z
 _atom_site_occupancy
  Sr  Sr0  1  0.20608800  0.20608800  0.79391200  1
  Sr  Sr1  1  0.20608800  0.79391200  0.79391200  1
  Sr  Sr2  1  0.79391200  0.20608800  0.20608800  1
  Sr  Sr3  1  0.20608800  0.79391200  0.20608800  1
  Sr  Sr4  1  0.79391200  0.20608800  0.79391200  1
  Sr  Sr5  1  0.79391200  0.79391200  0.20608800  1
  Li  Li6  1  0.50000000  0.50000000  0.50000000  1
  Li  Li7  1  0.50000000  0.50000000  0.00000000  1
  Li  Li8  1  0.00000000  0.50000000  0.50000000  1
  Li  Li9  1  0.50000000  0.00000000  0.00000000  1
  Li  Li10  1  0.00000000  0.00000000  0.50000000  1
  Li  Li11  1  0.00000000  0.50000000  0.00000000  1
  Li  Li12  1  0.50000000  0.00000000  0.50000000  1
  Li  Li13  1  0.62173200  0.13480400  0.62173200  1
  Li  Li14  1  0.37826800  0.37826800  0.86519600  1
  Li  Li15  1  0.86519600  0.37826800  0.37826800  1
  Li  Li16  1  0.37826800  0.37826800  0.37826800  1
  Li  Li17  1  0.13480400  0.62173200  0.62173200  1
  Li  Li18  1  0.62173200  0.62173200  0.62173200  1
  Li  Li19  1  0.62173200  0.62173200  0.13480400  1
  Li  Li20  1  0.37826800  0.86519600  0.37826800  1
  Li  Li21  1  0.82237900  0.53286300  0.82237900  1
  Li  Li22  1  0.17762100  0.17762100  0.46713700  1
  Li  Li23  1  0.46713700  0.17762100  0.17762100  1
  Li  Li24  1  0.17762100  0.17762100  0.17762100  1
  Li  Li25  1  0.53286300  0.82237900  0.82237900  1
  Li  Li26  1  0.82237900  0.82237900  0.82237900  1
  Li  Li27  1  0.82237900  0.82237900  0.53286300  1
  Li  Li28  1  0.17762100  0.46713700  0.17762100  1
