# generated using pymatgen
data_LiMn(PO3)3
_symmetry_space_group_name_H-M   'P 1'
_cell_length_a   6.48271536
_cell_length_b   6.48271536
_cell_length_c   9.84475100
_cell_angle_alpha   90.00000000
_cell_angle_beta   90.00000000
_cell_angle_gamma   119.99999345
_symmetry_Int_Tables_number   1
_chemical_formula_structural   LiMn(PO3)3
_chemical_formula_sum   'Li2 Mn2 P6 O18'
_cell_volume   358.30205802
_cell_formula_units_Z   2
loop_
 _symmetry_equiv_pos_site_id
 _symmetry_equiv_pos_as_xyz
  1  'x, y, z'
loop_
 _atom_site_type_symbol
 _atom_site_label
 _atom_site_symmetry_multiplicity
 _atom_site_fract_x
 _atom_site_fract_y
 _atom_site_fract_z
 _atom_site_occupancy
  Li  Li0  1  0.00000000  0.00000000  0.50000000  1
  Li  Li1  1  0.00000000  0.00000000  0.00000000  1
  Mn  Mn2  1  0.66666700  0.33333300  0.50000000  1
  Mn  Mn3  1  0.66666700  0.33333300  0.00000000  1
  P  P4  1  0.06048900  0.41049100  0.25000000  1
  P  P5  1  0.06048900  0.64999800  0.75000000  1
  P  P6  1  0.35000200  0.41049100  0.75000000  1
  P  P7  1  0.58950900  0.64999800  0.25000000  1
  P  P8  1  0.58950900  0.93951100  0.75000000  1
  P  P9  1  0.35000200  0.93951100  0.25000000  1
  O  O10  1  0.70501200  0.64461400  0.11815900  1
  O  O11  1  0.11779800  0.68155200  0.25000000  1
  O  O12  1  0.35538600  0.29498800  0.61815900  1
  O  O13  1  0.35538600  0.29498800  0.88184100  1
  O  O14  1  0.35538600  0.06039900  0.38184100  1
  O  O15  1  0.35538600  0.06039900  0.11815900  1
  O  O16  1  0.70501200  0.64461400  0.38184100  1
  O  O17  1  0.31844800  0.88220200  0.75000000  1
  O  O18  1  0.93960100  0.64461400  0.88184100  1
  O  O19  1  0.93960100  0.64461400  0.61815900  1
  O  O20  1  0.56375400  0.88220200  0.25000000  1
  O  O21  1  0.70501200  0.06039900  0.88184100  1
  O  O22  1  0.31844800  0.43624600  0.25000000  1
  O  O23  1  0.56375400  0.68155200  0.75000000  1
  O  O24  1  0.93960100  0.29498800  0.11815900  1
  O  O25  1  0.93960100  0.29498800  0.38184100  1
  O  O26  1  0.11779800  0.43624600  0.75000000  1
  O  O27  1  0.70501200  0.06039900  0.61815900  1
