# generated using pymatgen
data_LiMnPO4
_symmetry_space_group_name_H-M   'P 1'
_cell_length_a   5.69657300
_cell_length_b   6.33341707
_cell_length_c   9.32069932
_cell_angle_alpha   76.75482805
_cell_angle_beta   84.48018493
_cell_angle_gamma   75.06026885
_symmetry_Int_Tables_number   1
_chemical_formula_structural   LiMnPO4
_chemical_formula_sum   'Li4 Mn4 P4 O16'
_cell_volume   316.02272100
_cell_formula_units_Z   4
loop_
 _symmetry_equiv_pos_site_id
 _symmetry_equiv_pos_as_xyz
  1  'x, y, z'
loop_
 _atom_site_type_symbol
 _atom_site_label
 _atom_site_symmetry_multiplicity
 _atom_site_fract_x
 _atom_site_fract_y
 _atom_site_fract_z
 _atom_site_occupancy
  Li  Li0  1  0.37045900  0.01812300  0.75783200  1
  Li  Li1  1  0.76804100  0.14450900  0.61582600  1
  Li  Li2  1  0.23195900  0.85549100  0.38417400  1
  Li  Li3  1  0.62954100  0.98187700  0.24216800  1
  Mn  Mn4  1  0.73653200  0.33413500  0.91131500  1
  Mn  Mn5  1  0.15512800  0.56762200  0.69656600  1
  Mn  Mn6  1  0.84487200  0.43237800  0.30343400  1
  Mn  Mn7  1  0.26346800  0.66586500  0.08868500  1
  P  P8  1  0.20377100  0.18944900  0.05474400  1
  P  P9  1  0.32461900  0.31307100  0.42821200  1
  P  P10  1  0.67538100  0.68692900  0.57178800  1
  P  P11  1  0.79622900  0.81055100  0.94525600  1
  O  O12  1  0.05198800  0.69942000  0.88440200  1
  O  O13  1  0.94801200  0.30058000  0.11559800  1
  O  O14  1  0.84481500  0.81702200  0.10516700  1
  O  O15  1  0.30594400  0.95448700  0.15252500  1
  O  O16  1  0.60731500  0.67173100  0.94317600  1
  O  O17  1  0.39268500  0.32826900  0.05682400  1
  O  O18  1  0.15518500  0.18297800  0.89483300  1
  O  O19  1  0.69405600  0.04551300  0.84747500  1
  O  O20  1  0.85627300  0.82841400  0.58347100  1
  O  O21  1  0.79234400  0.44467600  0.66026000  1
  O  O22  1  0.14372700  0.17158600  0.41652900  1
  O  O23  1  0.35463200  0.31030500  0.59354400  1
  O  O24  1  0.64536800  0.68969500  0.40645600  1
  O  O25  1  0.58315400  0.22281500  0.36322900  1
  O  O26  1  0.20765600  0.55532400  0.33974000  1
  O  O27  1  0.41684600  0.77718500  0.63677100  1
