# generated using pymatgen
data_LiCr(PO3)3
_symmetry_space_group_name_H-M   'P 1'
_cell_length_a   9.75108700
_cell_length_b   9.75145914
_cell_length_c   9.67270449
_cell_angle_alpha   112.43062856
_cell_angle_beta   106.54265353
_cell_angle_gamma   106.03515907
_symmetry_Int_Tables_number   1
_chemical_formula_structural   LiCr(PO3)3
_chemical_formula_sum   'Li4 Cr4 P12 O36'
_cell_volume   734.08416249
_cell_formula_units_Z   4
loop_
 _symmetry_equiv_pos_site_id
 _symmetry_equiv_pos_as_xyz
  1  'x, y, z'
loop_
 _atom_site_type_symbol
 _atom_site_label
 _atom_site_symmetry_multiplicity
 _atom_site_fract_x
 _atom_site_fract_y
 _atom_site_fract_z
 _atom_site_occupancy
  Li  Li0  1  0.49653100  0.93210900  0.34543100  1
  Li  Li1  1  0.50346900  0.06789100  0.65456900  1
  Li  Li2  1  0.68185800  0.83636400  0.64701200  1
  Li  Li3  1  0.31814200  0.16363600  0.35298800  1
  Cr  Cr4  1  0.72000000  0.76979600  0.26038700  1
  Cr  Cr5  1  0.78496700  0.70332600  0.89793400  1
  Cr  Cr6  1  0.21503300  0.29667400  0.10206600  1
  Cr  Cr7  1  0.28000000  0.23020400  0.73961300  1
  P  P8  1  0.70175600  0.33148900  0.57195700  1
  P  P9  1  0.84080500  0.21033700  0.95324400  1
  P  P10  1  0.64573100  0.38935900  0.01367400  1
  P  P11  1  0.89566900  0.14945300  0.50994400  1
  P  P12  1  0.07620200  0.91375800  0.81037500  1
  P  P13  1  0.10433100  0.85054700  0.49005600  1
  P  P14  1  0.35426900  0.61064100  0.98632600  1
  P  P15  1  0.15919500  0.78966300  0.04675600  1
  P  P16  1  0.92379800  0.08624200  0.18962500  1
  P  P17  1  0.41128500  0.57533600  0.68490500  1
  P  P18  1  0.58871500  0.42466400  0.31509500  1
  P  P19  1  0.29824400  0.66851100  0.42804300  1
  O  O20  1  0.75048900  0.98906200  0.43799200  1
  O  O21  1  0.84347200  0.17329800  0.10243300  1
  O  O22  1  0.91303200  0.17805800  0.36202800  1
  O  O23  1  0.99684300  0.73008400  0.03819700  1
  O  O24  1  0.00315700  0.26991600  0.96180300  1
  O  O25  1  0.08696800  0.82194200  0.63797200  1
  O  O26  1  0.15652800  0.82670200  0.89756700  1
  O  O27  1  0.19739400  0.63061100  0.98524100  1
  O  O28  1  0.04977600  0.17551200  0.62687600  1
  O  O29  1  0.14114400  0.70074000  0.39538500  1
  O  O30  1  0.19018600  0.09465100  0.90211800  1
  O  O31  1  0.32287500  0.43563000  0.94133100  1
  O  O32  1  0.37346900  0.64714500  0.84348200  1
  O  O33  1  0.29874300  0.62251700  0.57176400  1
  O  O34  1  0.29468000  0.92814500  0.20892300  1
  O  O35  1  0.09365700  0.13560400  0.21870700  1
  O  O36  1  0.26050700  0.52128100  0.27254800  1
  O  O37  1  0.44355000  0.82447600  0.49425500  1
  O  O38  1  0.35785100  0.39358700  0.60832200  1
  O  O39  1  0.24951100  0.01093800  0.56200800  1
  O  O40  1  0.58199100  0.68791100  0.73745500  1
  O  O41  1  0.95022400  0.82448800  0.37312400  1
  O  O42  1  0.49330700  0.74403100  0.15186900  1
  O  O43  1  0.41800900  0.31208900  0.26254500  1
  O  O44  1  0.50669300  0.25596900  0.84813100  1
  O  O45  1  0.64214900  0.60641300  0.39167800  1
  O  O46  1  0.55645000  0.17552400  0.50574500  1
  O  O47  1  0.73949300  0.47871900  0.72745200  1
  O  O48  1  0.90634300  0.86439600  0.78129300  1
  O  O49  1  0.70532000  0.07185500  0.79107700  1
  O  O50  1  0.70125700  0.37748300  0.42823600  1
  O  O51  1  0.62653100  0.35285500  0.15651800  1
  O  O52  1  0.67712500  0.56437000  0.05866900  1
  O  O53  1  0.80981400  0.90534900  0.09788200  1
  O  O54  1  0.85885600  0.29926000  0.60461500  1
  O  O55  1  0.80260600  0.36938900  0.01475900  1
