# generated using pymatgen
data_Li3Mn2(PO4)3
_symmetry_space_group_name_H-M   'P 1'
_cell_length_a   9.05940112
_cell_length_b   9.05940112
_cell_length_c   9.05940148
_cell_angle_alpha   55.95080042
_cell_angle_beta   55.95080042
_cell_angle_gamma   55.95079365
_symmetry_Int_Tables_number   1
_chemical_formula_structural   Li3Mn2(PO4)3
_chemical_formula_sum   'Li6 Mn4 P6 O24'
_cell_volume   476.42405937
_cell_formula_units_Z   2
loop_
 _symmetry_equiv_pos_site_id
 _symmetry_equiv_pos_as_xyz
  1  'x, y, z'
loop_
 _atom_site_type_symbol
 _atom_site_label
 _atom_site_symmetry_multiplicity
 _atom_site_fract_x
 _atom_site_fract_y
 _atom_site_fract_z
 _atom_site_occupancy
  Li  Li0  1  0.73554500  0.07829900  0.33756900  1
  Li  Li1  1  0.26445500  0.92170100  0.66243100  1
  Li  Li2  1  0.33756900  0.73554500  0.07829900  1
  Li  Li3  1  0.92170100  0.66243100  0.26445500  1
  Li  Li4  1  0.07829900  0.33756900  0.73554500  1
  Li  Li5  1  0.66243100  0.26445500  0.92170100  1
  Mn  Mn6  1  0.34656900  0.34656900  0.34656900  1
  Mn  Mn7  1  0.65343100  0.65343100  0.65343100  1
  Mn  Mn8  1  0.14618100  0.14618100  0.14618100  1
  Mn  Mn9  1  0.85381900  0.85381900  0.85381900  1
  P  P10  1  0.45856300  0.04355200  0.74745700  1
  P  P11  1  0.54143700  0.95644800  0.25254300  1
  P  P12  1  0.25254300  0.54143700  0.95644800  1
  P  P13  1  0.95644800  0.25254300  0.54143700  1
  P  P14  1  0.04355200  0.74745700  0.45856300  1
  P  P15  1  0.74745700  0.45856300  0.04355200  1
  O  O16  1  0.54158600  0.15251900  0.20915800  1
  O  O17  1  0.38944700  0.98834100  0.20142100  1
  O  O18  1  0.16714100  0.53208200  0.49527700  1
  O  O19  1  0.45841400  0.84748100  0.79084200  1
  O  O20  1  0.50472300  0.83285900  0.46791800  1
  O  O21  1  0.83285900  0.46791800  0.50472300  1
  O  O22  1  0.86303200  0.12806200  0.74676100  1
  O  O23  1  0.25323900  0.13696800  0.87193800  1
  O  O24  1  0.15251900  0.20915800  0.54158600  1
  O  O25  1  0.46791800  0.50472300  0.83285900  1
  O  O26  1  0.01165900  0.79857900  0.61055300  1
  O  O27  1  0.61055300  0.01165900  0.79857900  1
  O  O28  1  0.20915800  0.54158600  0.15251900  1
  O  O29  1  0.12806200  0.74676100  0.86303200  1
  O  O30  1  0.84748100  0.79084200  0.45841400  1
  O  O31  1  0.49527700  0.16714100  0.53208200  1
  O  O32  1  0.20142100  0.38944700  0.98834100  1
  O  O33  1  0.79084200  0.45841400  0.84748100  1
  O  O34  1  0.98834100  0.20142100  0.38944700  1
  O  O35  1  0.79857900  0.61055300  0.01165900  1
  O  O36  1  0.87193800  0.25323900  0.13696800  1
  O  O37  1  0.74676100  0.86303200  0.12806200  1
  O  O38  1  0.53208200  0.49527700  0.16714100  1
  O  O39  1  0.13696800  0.87193800  0.25323900  1
