# generated using pymatgen
data_K2Li2FeO4
_symmetry_space_group_name_H-M   'P 1'
_cell_length_a   9.10377200
_cell_length_b   5.54233900
_cell_length_c   11.21899694
_cell_angle_alpha   69.26627958
_cell_angle_beta   90.00000000
_cell_angle_gamma   90.00000000
_symmetry_Int_Tables_number   1
_chemical_formula_structural   K2Li2FeO4
_chemical_formula_sum   'K8 Li8 Fe4 O16'
_cell_volume   529.40693793
_cell_formula_units_Z   4
loop_
 _symmetry_equiv_pos_site_id
 _symmetry_equiv_pos_as_xyz
  1  'x, y, z'
loop_
 _atom_site_type_symbol
 _atom_site_label
 _atom_site_symmetry_multiplicity
 _atom_site_fract_x
 _atom_site_fract_y
 _atom_site_fract_z
 _atom_site_occupancy
  K  K0  1  0.74847000  0.23320100  0.13274000  1
  K  K1  1  0.50061300  0.29097600  0.35746800  1
  K  K2  1  0.75153000  0.23320100  0.63274000  1
  K  K3  1  0.00061300  0.70902400  0.14253200  1
  K  K4  1  0.99938700  0.29097600  0.85746800  1
  K  K5  1  0.24847000  0.76679900  0.36726000  1
  K  K6  1  0.49938700  0.70902400  0.64253200  1
  K  K7  1  0.25153000  0.76679900  0.86726000  1
  Li  Li8  1  0.48669000  0.64020400  0.07375400  1
  Li  Li9  1  0.24660500  0.37988700  0.19568800  1
  Li  Li10  1  0.98669000  0.35979600  0.42624600  1
  Li  Li11  1  0.74660500  0.62011300  0.30431200  1
  Li  Li12  1  0.25339500  0.37988700  0.69568800  1
  Li  Li13  1  0.01331000  0.64020400  0.57375400  1
  Li  Li14  1  0.51331000  0.35979600  0.92624600  1
  Li  Li15  1  0.75339500  0.62011300  0.80431200  1
  Fe  Fe16  1  0.29252000  0.10943400  0.05372600  1
  Fe  Fe17  1  0.20748000  0.10943400  0.55372600  1
  Fe  Fe18  1  0.79252000  0.89056600  0.44627400  1
  Fe  Fe19  1  0.70748000  0.89056600  0.94627400  1
  O  O20  1  0.30921100  0.26265200  0.87690700  1
  O  O21  1  0.70494700  0.24548600  0.87887400  1
  O  O22  1  0.93245100  0.71986400  0.38291800  1
  O  O23  1  0.62119200  0.79007400  0.40211400  1
  O  O24  1  0.69078900  0.73734800  0.12309300  1
  O  O25  1  0.29505300  0.75451400  0.12112600  1
  O  O26  1  0.06754900  0.28013600  0.61708200  1
  O  O27  1  0.37880800  0.20992600  0.59788600  1
  O  O28  1  0.79505300  0.24548600  0.37887400  1
  O  O29  1  0.19078900  0.26265200  0.37690700  1
  O  O30  1  0.12119200  0.20992600  0.09788600  1
  O  O31  1  0.43245100  0.28013600  0.11708200  1
  O  O32  1  0.87880800  0.79007400  0.90211400  1
  O  O33  1  0.56754900  0.71986400  0.88291800  1
  O  O34  1  0.80921100  0.73734800  0.62309300  1
  O  O35  1  0.20494700  0.75451400  0.62112600  1
