# generated using pymatgen
data_LiCr2(PO4)3
_symmetry_space_group_name_H-M   'P 1'
_cell_length_a   8.45499439
_cell_length_b   8.45499439
_cell_length_c   8.45499513
_cell_angle_alpha   60.28076067
_cell_angle_beta   60.28076067
_cell_angle_gamma   60.28076537
_symmetry_Int_Tables_number   1
_chemical_formula_structural   LiCr2(PO4)3
_chemical_formula_sum   'Li2 Cr4 P6 O24'
_cell_volume   430.10637733
_cell_formula_units_Z   2
loop_
 _symmetry_equiv_pos_site_id
 _symmetry_equiv_pos_as_xyz
  1  'x, y, z'
loop_
 _atom_site_type_symbol
 _atom_site_label
 _atom_site_symmetry_multiplicity
 _atom_site_fract_x
 _atom_site_fract_y
 _atom_site_fract_z
 _atom_site_occupancy
  Li  Li0  1  0.00000000  0.00000000  0.00000000  1
  Li  Li1  1  0.50000000  0.50000000  0.50000000  1
  Cr  Cr2  1  0.63972200  0.63972200  0.63972200  1
  Cr  Cr3  1  0.13972200  0.13972200  0.13972200  1
  Cr  Cr4  1  0.36027800  0.36027800  0.36027800  1
  Cr  Cr5  1  0.86027800  0.86027800  0.86027800  1
  P  P6  1  0.46169800  0.75000000  0.03830200  1
  P  P7  1  0.96169800  0.53830200  0.25000000  1
  P  P8  1  0.03830200  0.46169800  0.75000000  1
  P  P9  1  0.75000000  0.03830200  0.46169800  1
  P  P10  1  0.25000000  0.96169800  0.53830200  1
  P  P11  1  0.53830200  0.25000000  0.96169800  1
  O  O12  1  0.23374700  0.44321100  0.58196600  1
  O  O13  1  0.69252700  0.87410300  0.49784900  1
  O  O14  1  0.44321100  0.58196600  0.23374700  1
  O  O15  1  0.94321100  0.73374700  0.08196600  1
  O  O16  1  0.19252700  0.99784900  0.37410300  1
  O  O17  1  0.58196600  0.23374700  0.44321100  1
  O  O18  1  0.37410300  0.19252700  0.99784900  1
  O  O19  1  0.87410300  0.49784900  0.69252700  1
  O  O20  1  0.12589700  0.50215100  0.30747300  1
  O  O21  1  0.62589700  0.80747300  0.00215100  1
  O  O22  1  0.41803400  0.76625300  0.55678900  1
  O  O23  1  0.91803400  0.05678900  0.26625300  1
  O  O24  1  0.30747300  0.12589700  0.50215100  1
  O  O25  1  0.80747300  0.00215100  0.62589700  1
  O  O26  1  0.55678900  0.41803400  0.76625300  1
  O  O27  1  0.05678900  0.26625300  0.91803400  1
  O  O28  1  0.50215100  0.30747300  0.12589700  1
  O  O29  1  0.26625300  0.91803400  0.05678900  1
  O  O30  1  0.00215100  0.62589700  0.80747300  1
  O  O31  1  0.73374700  0.08196600  0.94321100  1
  O  O32  1  0.76625300  0.55678900  0.41803400  1
  O  O33  1  0.08196600  0.94321100  0.73374700  1
  O  O34  1  0.49784900  0.69252700  0.87410300  1
  O  O35  1  0.99784900  0.37410300  0.19252700  1
