# generated using pymatgen
data_Li7Ge2
_symmetry_space_group_name_H-M   'P 1'
_cell_length_a   8.05963885
_cell_length_b   8.05963885
_cell_length_c   4.48146700
_cell_angle_alpha   90.00000000
_cell_angle_beta   90.00000000
_cell_angle_gamma   110.27108042
_symmetry_Int_Tables_number   1
_chemical_formula_structural   Li7Ge2
_chemical_formula_sum   'Li14 Ge4'
_cell_volume   273.07616916
_cell_formula_units_Z   2
loop_
 _symmetry_equiv_pos_site_id
 _symmetry_equiv_pos_as_xyz
  1  'x, y, z'
loop_
 _atom_site_type_symbol
 _atom_site_label
 _atom_site_symmetry_multiplicity
 _atom_site_fract_x
 _atom_site_fract_y
 _atom_site_fract_z
 _atom_site_occupancy
  Li  Li0  1  0.50142100  0.81666800  0.50000000  1
  Li  Li1  1  0.49857900  0.18333200  0.50000000  1
  Li  Li2  1  0.81666800  0.50142100  0.50000000  1
  Li  Li3  1  0.18333200  0.49857900  0.50000000  1
  Li  Li4  1  0.00000000  0.00000000  0.00000000  1
  Li  Li5  1  0.50000000  0.50000000  0.50000000  1
  Li  Li6  1  0.33998000  0.33998000  0.00000000  1
  Li  Li7  1  0.66002000  0.66002000  0.00000000  1
  Li  Li8  1  0.82705000  0.17295000  0.50000000  1
  Li  Li9  1  0.17295000  0.82705000  0.50000000  1
  Li  Li10  1  0.02034800  0.34324900  0.00000000  1
  Li  Li11  1  0.97965200  0.65675100  0.00000000  1
  Li  Li12  1  0.34324900  0.02034800  0.00000000  1
  Li  Li13  1  0.65675100  0.97965200  0.00000000  1
  Ge  Ge14  1  0.84451200  0.84451200  0.50000000  1
  Ge  Ge15  1  0.15548800  0.15548800  0.50000000  1
  Ge  Ge16  1  0.32156200  0.67843800  0.00000000  1
  Ge  Ge17  1  0.67843800  0.32156200  0.00000000  1
