# generated using pymatgen
data_LiTi2(PO4)3
_symmetry_space_group_name_H-M   'P 1'
_cell_length_a   8.49768968
_cell_length_b   8.44562384
_cell_length_c   8.93544449
_cell_angle_alpha   90.17839944
_cell_angle_beta   118.00570323
_cell_angle_gamma   59.86730314
_symmetry_Int_Tables_number   1
_chemical_formula_structural   LiTi2(PO4)3
_chemical_formula_sum   'Li2 Ti4 P6 O24'
_cell_volume   466.40341084
_cell_formula_units_Z   2
loop_
 _symmetry_equiv_pos_site_id
 _symmetry_equiv_pos_as_xyz
  1  'x, y, z'
loop_
 _atom_site_type_symbol
 _atom_site_label
 _atom_site_symmetry_multiplicity
 _atom_site_fract_x
 _atom_site_fract_y
 _atom_site_fract_z
 _atom_site_occupancy
  Li  Li0  1  0.60982823  0.31395892  0.85866763  1
  Li  Li1  1  0.39017177  0.68604108  0.14133237  1
  O  O2  1  0.99531580  0.89949779  0.72253185  1
  O  O3  1  0.65513638  0.84046926  0.89449128  1
  O  O4  1  0.98271592  0.46526629  0.81070880  1
  O  O5  1  0.72830555  0.48307310  0.89857622  1
  O  O6  1  0.38788195  0.75776022  0.92493807  1
  O  O7  1  0.63339211  0.98241948  0.43208297  1
  O  O8  1  0.81036293  0.27953652  0.71486652  1
  O  O9  1  0.58682279  0.63875787  0.57887045  1
  O  O10  1  0.26975805  0.54393435  0.78776583  1
  O  O11  1  0.22389036  0.79580642  0.59216244  1
  O  O12  1  0.65879396  0.81307683  0.20408088  1
  O  O13  1  0.62937148  0.10794151  0.73885321  1
  O  O14  1  0.37062852  0.89205849  0.26114679  1
  O  O15  1  0.34120604  0.18692317  0.79591912  1
  O  O16  1  0.77610964  0.20419358  0.40783756  1
  O  O17  1  0.73024195  0.45606565  0.21223417  1
  O  O18  1  0.41317721  0.36124213  0.42112955  1
  O  O19  1  0.18963707  0.72046348  0.28513348  1
  O  O20  1  0.36660789  0.01758052  0.56791703  1
  O  O21  1  0.61211805  0.24223978  0.07506193  1
  O  O22  1  0.27169445  0.51692690  0.10142378  1
  O  O23  1  0.01728408  0.53473371  0.18929120  1
  O  O24  1  0.34486362  0.15953074  0.10550872  1
  O  O25  1  0.00468420  0.10050221  0.27746815  1
  P  P26  1  0.77633934  0.46996863  0.74838936  1
  P  P27  1  0.21940497  0.74945881  0.75626237  1
  P  P28  1  0.50221782  0.96375197  0.25223479  1
  P  P29  1  0.49778218  0.03624803  0.74776521  1
  P  P30  1  0.78059503  0.25054119  0.24373763  1
  P  P31  1  0.22366066  0.53003137  0.25161064  1
  Ti  Ti32  1  0.28427448  0.35266204  0.93654041  1
  Ti  Ti33  1  0.28443234  0.86428772  0.43237462  1
  Ti  Ti34  1  0.71556766  0.13571228  0.56762538  1
  Ti  Ti35  1  0.71572552  0.64733796  0.06345959  1
