# generated using pymatgen
data_Li2CoP2O7
_symmetry_space_group_name_H-M   'P 1'
_cell_length_a   13.40636100
_cell_length_b   5.08447300
_cell_length_c   9.36191658
_cell_angle_alpha   59.68378415
_cell_angle_beta   90.00000000
_cell_angle_gamma   90.00000000
_symmetry_Int_Tables_number   1
_chemical_formula_structural   Li2CoP2O7
_chemical_formula_sum   'Li8 Co4 P8 O28'
_cell_volume   550.88326598
_cell_formula_units_Z   4
loop_
 _symmetry_equiv_pos_site_id
 _symmetry_equiv_pos_as_xyz
  1  'x, y, z'
loop_
 _atom_site_type_symbol
 _atom_site_label
 _atom_site_symmetry_multiplicity
 _atom_site_fract_x
 _atom_site_fract_y
 _atom_site_fract_z
 _atom_site_occupancy
  Li  Li0  1  0.30154200  0.57581800  0.16493700  1
  Li  Li1  1  0.69845800  0.42418200  0.83506300  1
  Li  Li2  1  0.61049000  0.03381500  0.63686200  1
  Li  Li3  1  0.88951000  0.03381500  0.13686200  1
  Li  Li4  1  0.80154200  0.42418200  0.33506300  1
  Li  Li5  1  0.38951000  0.96618500  0.36313800  1
  Li  Li6  1  0.19845800  0.57581800  0.66493700  1
  Li  Li7  1  0.11049000  0.96618500  0.86313800  1
  Co  Co8  1  0.33989100  0.96185300  0.73694500  1
  Co  Co9  1  0.66010900  0.03814700  0.26305500  1
  Co  Co10  1  0.16010900  0.96185300  0.23694500  1
  Co  Co11  1  0.83989100  0.03814700  0.76305500  1
  P  P12  1  0.47139000  0.47370400  0.72477200  1
  P  P13  1  0.82125200  0.73256200  0.53315800  1
  P  P14  1  0.67874800  0.73256200  0.03315800  1
  P  P15  1  0.97139000  0.52629600  0.77522800  1
  P  P16  1  0.02861000  0.47370400  0.22477200  1
  P  P17  1  0.17874800  0.26743800  0.46684200  1
  P  P18  1  0.32125200  0.26743800  0.96684200  1
  P  P19  1  0.52861000  0.52629600  0.27522800  1
  O  O20  1  0.57436100  0.59691700  0.71889600  1
  O  O21  1  0.42563900  0.40308300  0.28110400  1
  O  O22  1  0.76935300  0.79879300  0.65793800  1
  O  O23  1  0.21092900  0.57205600  0.45129600  1
  O  O24  1  0.10713800  0.72808200  0.12776800  1
  O  O25  1  0.73064700  0.79879300  0.15793800  1
  O  O26  1  0.78907100  0.42794400  0.54870400  1
  O  O27  1  0.23064700  0.20120700  0.34206200  1
  O  O28  1  0.19129700  0.00057000  0.64519100  1
  O  O29  1  0.89286200  0.27191800  0.87223200  1
  O  O30  1  0.28907100  0.57205600  0.95129600  1
  O  O31  1  0.71092900  0.42794400  0.04870400  1
  O  O32  1  0.92563900  0.59691700  0.21889600  1
  O  O33  1  0.69129700  0.99943000  0.85480900  1
  O  O34  1  0.39286200  0.72808200  0.62776800  1
  O  O35  1  0.07436100  0.40308300  0.78110400  1
  O  O36  1  0.43851600  0.30442300  0.92222200  1
  O  O37  1  0.06148400  0.30442300  0.42222200  1
  O  O38  1  0.60713800  0.27191800  0.37223200  1
  O  O39  1  0.80870300  0.99943000  0.35480900  1
  O  O40  1  0.46490700  0.21894200  0.68132600  1
  O  O41  1  0.96490700  0.78105800  0.81867400  1
  O  O42  1  0.26935300  0.20120700  0.84206200  1
  O  O43  1  0.93851600  0.69557700  0.57777800  1
  O  O44  1  0.53509300  0.78105800  0.31867400  1
  O  O45  1  0.56148400  0.69557700  0.07777800  1
  O  O46  1  0.30870300  0.00057000  0.14519100  1
  O  O47  1  0.03509300  0.21894200  0.18132600  1
