# generated using pymatgen
data_LiMn(PO3)4
_symmetry_space_group_name_H-M   'P 1'
_cell_length_a   7.23280790
_cell_length_b   7.23280790
_cell_length_c   10.19318479
_cell_angle_alpha   68.62717145
_cell_angle_beta   68.62717145
_cell_angle_gamma   71.47330438
_symmetry_Int_Tables_number   1
_chemical_formula_structural   LiMn(PO3)4
_chemical_formula_sum   'Li2 Mn2 P8 O24'
_cell_volume   451.78247617
_cell_formula_units_Z   2
loop_
 _symmetry_equiv_pos_site_id
 _symmetry_equiv_pos_as_xyz
  1  'x, y, z'
loop_
 _atom_site_type_symbol
 _atom_site_label
 _atom_site_symmetry_multiplicity
 _atom_site_fract_x
 _atom_site_fract_y
 _atom_site_fract_z
 _atom_site_occupancy
  Li  Li0  1  0.02556000  0.97444000  0.25000000  1
  Li  Li1  1  0.97444000  0.02556000  0.75000000  1
  Mn  Mn2  1  0.00000000  0.50000000  0.50000000  1
  Mn  Mn3  1  0.50000000  0.00000000  0.00000000  1
  P  P4  1  0.73978000  0.27202700  0.02909400  1
  P  P5  1  0.69653300  0.68159100  0.81111000  1
  P  P6  1  0.26022000  0.72797300  0.97090600  1
  P  P7  1  0.30346700  0.31840900  0.18889000  1
  P  P8  1  0.27202700  0.73978000  0.52909400  1
  P  P9  1  0.72797300  0.26022000  0.47090600  1
  P  P10  1  0.31840900  0.30346700  0.68889000  1
  P  P11  1  0.68159100  0.69653300  0.31111000  1
  O  O12  1  0.49175400  0.78764700  0.43030400  1
  O  O13  1  0.67827300  0.19098500  0.93392200  1
  O  O14  1  0.80871500  0.66644300  0.66004700  1
  O  O15  1  0.32172700  0.80901500  0.06607800  1
  O  O16  1  0.46632400  0.66616800  0.84632900  1
  O  O17  1  0.09375500  0.84620100  0.90520300  1
  O  O18  1  0.87244300  0.69608300  0.34375000  1
  O  O19  1  0.80901500  0.32172700  0.56607800  1
  O  O20  1  0.21235300  0.50824600  0.06969600  1
  O  O21  1  0.15379900  0.90624500  0.59479700  1
  O  O22  1  0.19128500  0.33355700  0.33995300  1
  O  O23  1  0.66644300  0.80871500  0.16004700  1
  O  O24  1  0.33383200  0.53367600  0.65367100  1
  O  O25  1  0.30391700  0.12755700  0.15625000  1
  O  O26  1  0.69608300  0.87244300  0.84375000  1
  O  O27  1  0.66616800  0.46632400  0.34632900  1
  O  O28  1  0.53367600  0.33383200  0.15367100  1
  O  O29  1  0.50824600  0.21235300  0.56969600  1
  O  O30  1  0.84620100  0.09375500  0.40520300  1
  O  O31  1  0.78764700  0.49175400  0.93030400  1
  O  O32  1  0.19098500  0.67827300  0.43392200  1
  O  O33  1  0.12755700  0.30391700  0.65625000  1
  O  O34  1  0.90624500  0.15379900  0.09479700  1
  O  O35  1  0.33355700  0.19128500  0.83995300  1
