# generated using pymatgen
data_Li3Cr(PO4)2
_symmetry_space_group_name_H-M   'P 1'
_cell_length_a   5.14530312
_cell_length_b   5.14530312
_cell_length_c   13.12562740
_cell_angle_alpha   83.03205517
_cell_angle_beta   83.03205517
_cell_angle_gamma   54.69989753
_symmetry_Int_Tables_number   1
_chemical_formula_structural   Li3Cr(PO4)2
_chemical_formula_sum   'Li6 Cr2 P4 O16'
_cell_volume   280.94143670
_cell_formula_units_Z   2
loop_
 _symmetry_equiv_pos_site_id
 _symmetry_equiv_pos_as_xyz
  1  'x, y, z'
loop_
 _atom_site_type_symbol
 _atom_site_label
 _atom_site_symmetry_multiplicity
 _atom_site_fract_x
 _atom_site_fract_y
 _atom_site_fract_z
 _atom_site_occupancy
  Li  Li0  1  0.62922000  0.70359600  0.35076500  1
  Li  Li1  1  0.05645100  0.94354900  0.75000000  1
  Li  Li2  1  0.94354900  0.05645100  0.25000000  1
  Li  Li3  1  0.70359600  0.62922000  0.85076500  1
  Li  Li4  1  0.29640400  0.37078000  0.14923500  1
  Li  Li5  1  0.37078000  0.29640400  0.64923500  1
  Cr  Cr6  1  0.00000000  0.00000000  0.00000000  1
  Cr  Cr7  1  0.00000000  0.00000000  0.50000000  1
  P  P8  1  0.68232500  0.63815900  0.61230600  1
  P  P9  1  0.31767500  0.36184100  0.38769400  1
  P  P10  1  0.63815900  0.68232500  0.11230600  1
  P  P11  1  0.36184100  0.31767500  0.88769400  1
  O  O12  1  0.50574400  0.81324900  0.71098100  1
  O  O13  1  0.73094500  0.17197900  0.87098400  1
  O  O14  1  0.26905500  0.82802100  0.12901600  1
  O  O15  1  0.77654700  0.45092400  0.02555500  1
  O  O16  1  0.82802100  0.26905500  0.62901600  1
  O  O17  1  0.45092400  0.77654700  0.52555500  1
  O  O18  1  0.17197900  0.73094500  0.37098400  1
  O  O19  1  0.03258400  0.33071400  0.41617000  1
  O  O20  1  0.81324900  0.50574400  0.21098100  1
  O  O21  1  0.33071400  0.03258400  0.91617000  1
  O  O22  1  0.66928600  0.96741600  0.08383000  1
  O  O23  1  0.49425600  0.18675100  0.28901900  1
  O  O24  1  0.96741600  0.66928600  0.58383000  1
  O  O25  1  0.18675100  0.49425600  0.78901900  1
  O  O26  1  0.54907600  0.22345300  0.47444500  1
  O  O27  1  0.22345300  0.54907600  0.97444500  1
