# generated using pymatgen
data_Li3Cr2(PO4)3
_symmetry_space_group_name_H-M   'P 1'
_cell_length_a   8.90643760
_cell_length_b   8.90643760
_cell_length_c   8.90643686
_cell_angle_alpha   56.13853591
_cell_angle_beta   56.13853591
_cell_angle_gamma   56.13853247
_symmetry_Int_Tables_number   1
_chemical_formula_structural   Li3Cr2(PO4)3
_chemical_formula_sum   'Li6 Cr4 P6 O24'
_cell_volume   454.90793557
_cell_formula_units_Z   2
loop_
 _symmetry_equiv_pos_site_id
 _symmetry_equiv_pos_as_xyz
  1  'x, y, z'
loop_
 _atom_site_type_symbol
 _atom_site_label
 _atom_site_symmetry_multiplicity
 _atom_site_fract_x
 _atom_site_fract_y
 _atom_site_fract_z
 _atom_site_occupancy
  Li  Li0  1  0.07958200  0.33237800  0.73566600  1
  Li  Li1  1  0.92041800  0.66762200  0.26433400  1
  Li  Li2  1  0.66762200  0.26433400  0.92041800  1
  Li  Li3  1  0.26433400  0.92041800  0.66762200  1
  Li  Li4  1  0.73566600  0.07958200  0.33237800  1
  Li  Li5  1  0.33237800  0.73566600  0.07958200  1
  Cr  Cr6  1  0.85544500  0.85544500  0.85544500  1
  Cr  Cr7  1  0.65117500  0.65117500  0.65117500  1
  Cr  Cr8  1  0.34882500  0.34882500  0.34882500  1
  Cr  Cr9  1  0.14455500  0.14455500  0.14455500  1
  P  P10  1  0.46244700  0.03929000  0.74976100  1
  P  P11  1  0.74976100  0.46244700  0.03929000  1
  P  P12  1  0.25023900  0.53755300  0.96071000  1
  P  P13  1  0.53755300  0.96071000  0.25023900  1
  P  P14  1  0.03929000  0.74976100  0.46244700  1
  P  P15  1  0.96071000  0.25023900  0.53755300  1
  O  O16  1  0.12060100  0.74536100  0.86908800  1
  O  O17  1  0.46286400  0.84179800  0.78822800  1
  O  O18  1  0.78822800  0.46286400  0.84179800  1
  O  O19  1  0.84179800  0.78822800  0.46286400  1
  O  O20  1  0.15820200  0.21177200  0.53713600  1
  O  O21  1  0.21177200  0.53713600  0.15820200  1
  O  O22  1  0.53713600  0.15820200  0.21177200  1
  O  O23  1  0.17005000  0.53348700  0.49309900  1
  O  O24  1  0.13091200  0.87939900  0.25463900  1
  O  O25  1  0.00371400  0.80437600  0.61556200  1
  O  O26  1  0.25463900  0.13091200  0.87939900  1
  O  O27  1  0.86908800  0.12060100  0.74536100  1
  O  O28  1  0.53348700  0.49309900  0.17005000  1
  O  O29  1  0.19562400  0.38443800  0.99628600  1
  O  O30  1  0.49309900  0.17005000  0.53348700  1
  O  O31  1  0.38443800  0.99628600  0.19562400  1
  O  O32  1  0.61556200  0.00371400  0.80437600  1
  O  O33  1  0.87939900  0.25463900  0.13091200  1
  O  O34  1  0.80437600  0.61556200  0.00371400  1
  O  O35  1  0.46651300  0.50690100  0.82995000  1
  O  O36  1  0.50690100  0.82995000  0.46651300  1
  O  O37  1  0.74536100  0.86908800  0.12060100  1
  O  O38  1  0.99628600  0.19562400  0.38443800  1
  O  O39  1  0.82995000  0.46651300  0.50690100  1
