# generated using pymatgen
data_Li3Mo(PO4)2
_symmetry_space_group_name_H-M   'P 1'
_cell_length_a   5.55980200
_cell_length_b   6.24208900
_cell_length_c   8.41543900
_cell_angle_alpha   89.99831832
_cell_angle_beta   90.00000000
_cell_angle_gamma   90.00000000
_symmetry_Int_Tables_number   1
_chemical_formula_structural   Li3Mo(PO4)2
_chemical_formula_sum   'Li6 Mo2 P4 O16'
_cell_volume   292.05594990
_cell_formula_units_Z   2
loop_
 _symmetry_equiv_pos_site_id
 _symmetry_equiv_pos_as_xyz
  1  'x, y, z'
loop_
 _atom_site_type_symbol
 _atom_site_label
 _atom_site_symmetry_multiplicity
 _atom_site_fract_x
 _atom_site_fract_y
 _atom_site_fract_z
 _atom_site_occupancy
  Li  Li0  1  0.75000000  0.28079800  0.08209600  1
  Li  Li1  1  0.25000000  0.49944400  0.25040500  1
  Li  Li2  1  0.75000000  0.72065100  0.41779500  1
  Li  Li3  1  0.25000000  0.27934900  0.58220500  1
  Li  Li4  1  0.75000000  0.50055600  0.74959500  1
  Li  Li5  1  0.25000000  0.71920200  0.91790400  1
  Mo  Mo6  1  0.25000000  0.00002100  0.24991000  1
  Mo  Mo7  1  0.75000000  0.99997900  0.75009000  1
  P  P8  1  0.25000000  0.23507900  0.89975700  1
  P  P9  1  0.25000000  0.76403000  0.60024900  1
  P  P10  1  0.75000000  0.76492100  0.10024300  1
  P  P11  1  0.75000000  0.23597000  0.39975100  1
  O  O12  1  0.25000000  0.02387300  0.99795900  1
  O  O13  1  0.75000000  0.56971300  0.99311600  1
  O  O14  1  0.75000000  0.97612700  0.00204100  1
  O  O15  1  0.25000000  0.43028700  0.00688400  1
  O  O16  1  0.52591200  0.76250100  0.21599600  1
  O  O17  1  0.97408800  0.76250100  0.21599600  1
  O  O18  1  0.52583700  0.23789600  0.28405700  1
  O  O19  1  0.97416300  0.23789600  0.28405700  1
  O  O20  1  0.25000000  0.56845700  0.49351300  1
  O  O21  1  0.75000000  0.02502500  0.49827900  1
  O  O22  1  0.25000000  0.97497500  0.50172100  1
  O  O23  1  0.75000000  0.43154300  0.50648700  1
  O  O24  1  0.02583700  0.76210400  0.71594300  1
  O  O25  1  0.47416300  0.76210400  0.71594300  1
  O  O26  1  0.02591200  0.23749900  0.78400400  1
  O  O27  1  0.47408800  0.23749900  0.78400400  1
