# generated using pymatgen
data_Li4Ge9O20
_symmetry_space_group_name_H-M   'P 1'
_cell_length_a   7.49721631
_cell_length_b   7.49721631
_cell_length_c   7.60146441
_cell_angle_alpha   89.49195990
_cell_angle_beta   89.49195990
_cell_angle_gamma   65.48828525
_symmetry_Int_Tables_number   1
_chemical_formula_structural   Li4Ge9O20
_chemical_formula_sum   'Li4 Ge9 O20'
_cell_volume   388.73679150
_cell_formula_units_Z   1
loop_
 _symmetry_equiv_pos_site_id
 _symmetry_equiv_pos_as_xyz
  1  'x, y, z'
loop_
 _atom_site_type_symbol
 _atom_site_label
 _atom_site_symmetry_multiplicity
 _atom_site_fract_x
 _atom_site_fract_y
 _atom_site_fract_z
 _atom_site_occupancy
  Li  Li0  1  0.34647800  0.06749200  0.38198700  1
  Li  Li1  1  0.93250800  0.65352200  0.61801300  1
  Li  Li2  1  0.32801400  0.67198600  0.00000000  1
  Li  Li3  1  0.70961700  0.29038300  0.00000000  1
  Ge  Ge4  1  0.34765400  0.34929300  0.70897700  1
  Ge  Ge5  1  0.65070700  0.65234600  0.29102300  1
  Ge  Ge6  1  0.60736500  0.92096600  0.95042100  1
  Ge  Ge7  1  0.07903400  0.39263500  0.04957900  1
  Ge  Ge8  1  0.11671200  0.08398600  0.75985700  1
  Ge  Ge9  1  0.91601400  0.88328800  0.24014300  1
  Ge  Ge10  1  0.50808900  0.68159700  0.66957000  1
  Ge  Ge11  1  0.31840300  0.49191100  0.33043000  1
  Ge  Ge12  1  0.76641300  0.23358700  0.50000000  1
  O  O13  1  0.21821500  0.55803100  0.54498200  1
  O  O14  1  0.44196900  0.78178500  0.45501800  1
  O  O15  1  0.14836600  0.50344900  0.87047900  1
  O  O16  1  0.49655100  0.85163400  0.12952100  1
  O  O17  1  0.45659400  0.16081800  0.88402500  1
  O  O18  1  0.91470800  0.10697600  0.31868500  1
  O  O19  1  0.89302400  0.08529200  0.68131500  1
  O  O20  1  0.52068600  0.46649300  0.78532400  1
  O  O21  1  0.53350700  0.47931400  0.21467600  1
  O  O22  1  0.15666800  0.70880000  0.20116700  1
  O  O23  1  0.29120000  0.84333200  0.79883300  1
  O  O24  1  0.80915300  0.96436300  0.03029500  1
  O  O25  1  0.03563700  0.19084700  0.96970500  1
  O  O26  1  0.52451200  0.24082200  0.49869900  1
  O  O27  1  0.75917800  0.47548800  0.50130100  1
  O  O28  1  0.79032200  0.79340000  0.38722600  1
  O  O29  1  0.20660000  0.20967800  0.61277400  1
  O  O30  1  0.24708000  0.31286100  0.23031800  1
  O  O31  1  0.68713900  0.75292000  0.76968200  1
  O  O32  1  0.83918200  0.54340600  0.11597500  1
