# generated using pymatgen
data_LiVPO5
_symmetry_space_group_name_H-M   'P 1'
_cell_length_a   5.28325430
_cell_length_b   10.26638185
_cell_length_c   7.36653556
_cell_angle_alpha   71.54949434
_cell_angle_beta   68.99257069
_cell_angle_gamma   75.09359840
_symmetry_Int_Tables_number   1
_chemical_formula_structural   LiVPO5
_chemical_formula_sum   'Li4 V4 P4 O20'
_cell_volume   349.13448721
_cell_formula_units_Z   4
loop_
 _symmetry_equiv_pos_site_id
 _symmetry_equiv_pos_as_xyz
  1  'x, y, z'
loop_
 _atom_site_type_symbol
 _atom_site_label
 _atom_site_symmetry_multiplicity
 _atom_site_fract_x
 _atom_site_fract_y
 _atom_site_fract_z
 _atom_site_occupancy
  Li  Li0  1  0.50000078  0.24999976  0.74999957  1
  Li  Li1  1  0.49999905  0.25000041  0.25000035  1
  Li  Li2  1  0.50000064  0.74999977  0.75000004  1
  Li  Li3  1  0.99999947  0.75000021  0.24999971  1
  O  O4  1  0.83912284  0.34008303  0.52288051  1
  O  O5  1  0.79348455  0.09443344  0.81218839  1
  O  O6  1  0.32079641  0.16114977  0.59294187  1
  O  O7  1  0.79620184  0.08659849  0.30022688  1
  O  O8  1  0.28158262  0.09747096  0.29260336  1
  O  O9  1  0.67920279  0.33885079  0.90705742  1
  O  O10  1  0.20651497  0.40556608  0.68781264  1
  O  O11  1  0.16087635  0.15991753  0.97711878  1
  O  O12  1  0.31674929  0.58661925  0.80036961  1
  O  O13  1  0.82817370  0.59747182  0.79259400  1
  O  O14  1  0.71841582  0.40252880  0.20739771  1
  O  O15  1  0.20379863  0.41340128  0.19977367  1
  O  O16  1  0.79803356  0.84007378  0.02282670  1
  O  O17  1  0.79995392  0.59444361  0.31231563  1
  O  O18  1  0.42519319  0.66111547  0.09301032  1
  O  O19  1  0.17182759  0.90252772  0.70740608  1
  O  O20  1  0.68325199  0.91338029  0.69963047  1
  O  O21  1  0.57480700  0.83888432  0.40698980  1
  O  O22  1  0.20004594  0.90555722  0.18768411  1
  O  O23  1  0.20196630  0.65992705  0.47717305  1
  P  P24  1  0.10928271  0.06144944  0.19008010  1
  P  P25  1  0.13901337  0.56150010  0.69011255  1
  P  P26  1  0.89071777  0.43855032  0.30991908  1
  P  P27  1  0.86098791  0.93849944  0.80988753  1
  V  V28  1  0.47768845  0.00003874  0.50000076  1
  V  V29  1  0.99999930  0.24999956  0.75000035  1
  V  V30  1  0.52231203  0.49996103  -0.00000158  1
  V  V31  1  0.49999892  0.75000041  0.24999945  1
