# generated using pymatgen
data_LiMnH6O7
_symmetry_space_group_name_H-M   'P 1'
_cell_length_a   7.77012283
_cell_length_b   7.77012283
_cell_length_c   5.65000300
_cell_angle_alpha   90.00000000
_cell_angle_beta   90.00000000
_cell_angle_gamma   120.00000706
_symmetry_Int_Tables_number   1
_chemical_formula_structural   LiMnH6O7
_chemical_formula_sum   'Li2 Mn2 H12 O14'
_cell_volume   295.41670341
_cell_formula_units_Z   2
loop_
 _symmetry_equiv_pos_site_id
 _symmetry_equiv_pos_as_xyz
  1  'x, y, z'
loop_
 _atom_site_type_symbol
 _atom_site_label
 _atom_site_symmetry_multiplicity
 _atom_site_fract_x
 _atom_site_fract_y
 _atom_site_fract_z
 _atom_site_occupancy
  Li  Li0  1  0.00000000  0.00000000  0.71880600  1
  Li  Li1  1  0.00000000  0.00000000  0.21880600  1
  Mn  Mn2  1  0.33333300  0.66666700  0.00183100  1
  Mn  Mn3  1  0.66666700  0.33333300  0.50183100  1
  H  H4  1  0.66840700  0.93483000  0.45727000  1
  H  H5  1  0.33159300  0.26642200  0.95727000  1
  H  H6  1  0.06517000  0.73357800  0.45727000  1
  H  H7  1  0.26642200  0.33159300  0.45727000  1
  H  H8  1  0.73357800  0.66840700  0.95727000  1
  H  H9  1  0.33159300  0.06517000  0.95727000  1
  H  H10  1  0.93483000  0.26642200  0.95727000  1
  H  H11  1  0.66840700  0.73357800  0.45727000  1
  H  H12  1  0.93483000  0.66840700  0.95727000  1
  H  H13  1  0.73357800  0.06517000  0.95727000  1
  H  H14  1  0.26642200  0.93483000  0.45727000  1
  H  H15  1  0.06517000  0.33159300  0.45727000  1
  O  O16  1  0.87826900  0.75653800  0.96829300  1
  O  O17  1  0.55257200  0.10514300  0.40856900  1
  O  O18  1  0.75653800  0.87826900  0.46829300  1
  O  O19  1  0.87826900  0.12173100  0.96829300  1
  O  O20  1  0.12173100  0.87826900  0.46829300  1
  O  O21  1  0.55257200  0.44742800  0.40856900  1
  O  O22  1  0.10514300  0.55257200  0.90856900  1
  O  O23  1  0.44742800  0.89485700  0.90856900  1
  O  O24  1  0.12173100  0.24346200  0.46829300  1
  O  O25  1  0.89485700  0.44742800  0.40856900  1
  O  O26  1  0.44742800  0.55257200  0.90856900  1
  O  O27  1  0.66666700  0.33333300  0.78645900  1
  O  O28  1  0.33333300  0.66666700  0.28645900  1
  O  O29  1  0.24346200  0.12173100  0.96829300  1
