# generated using pymatgen
data_Li2Ni(PO3)4
_symmetry_space_group_name_H-M   'P 1'
_cell_length_a   9.24042700
_cell_length_b   9.40834800
_cell_length_c   10.23219200
_cell_angle_alpha   90.00000000
_cell_angle_beta   90.00000000
_cell_angle_gamma   90.00000000
_symmetry_Int_Tables_number   1
_chemical_formula_structural   Li2Ni(PO3)4
_chemical_formula_sum   'Li8 Ni4 P16 O48'
_cell_volume   889.55764025
_cell_formula_units_Z   4
loop_
 _symmetry_equiv_pos_site_id
 _symmetry_equiv_pos_as_xyz
  1  'x, y, z'
loop_
 _atom_site_type_symbol
 _atom_site_label
 _atom_site_symmetry_multiplicity
 _atom_site_fract_x
 _atom_site_fract_y
 _atom_site_fract_z
 _atom_site_occupancy
  Li  Li0  1  0.09481400  0.00810200  0.17738700  1
  Li  Li1  1  0.40518600  0.00810200  0.17738700  1
  Li  Li2  1  0.59481400  0.49189800  0.67738700  1
  Li  Li3  1  0.90518600  0.49189800  0.67738700  1
  Li  Li4  1  0.09481400  0.50810200  0.32261300  1
  Li  Li5  1  0.40518600  0.50810200  0.32261300  1
  Li  Li6  1  0.59481400  0.99189800  0.82261300  1
  Li  Li7  1  0.90518600  0.99189800  0.82261300  1
  Ni  Ni8  1  0.25000000  0.01105900  0.79677500  1
  Ni  Ni9  1  0.75000000  0.48894100  0.29677500  1
  Ni  Ni10  1  0.25000000  0.51105900  0.70322500  1
  Ni  Ni11  1  0.75000000  0.98894100  0.20322500  1
  P  P12  1  0.75000000  0.19465200  0.60864100  1
  P  P13  1  0.54207600  0.21043200  0.38792700  1
  P  P14  1  0.95792400  0.21043200  0.38792700  1
  P  P15  1  0.25000000  0.22998200  0.51904300  1
  P  P16  1  0.75000000  0.27001800  0.01904300  1
  P  P17  1  0.04207600  0.28956800  0.88792700  1
  P  P18  1  0.45792400  0.28956800  0.88792700  1
  P  P19  1  0.25000000  0.30534800  0.10864100  1
  P  P20  1  0.75000000  0.69465200  0.89135900  1
  P  P21  1  0.54207600  0.71043200  0.11207300  1
  P  P22  1  0.95792400  0.71043200  0.11207300  1
  P  P23  1  0.25000000  0.72998200  0.98095700  1
  P  P24  1  0.75000000  0.77001800  0.48095700  1
  P  P25  1  0.04207600  0.78956800  0.61207300  1
  P  P26  1  0.45792400  0.78956800  0.61207300  1
  P  P27  1  0.25000000  0.80534800  0.39135900  1
  O  O28  1  0.75000000  0.09652700  0.72357200  1
  O  O29  1  0.75000000  0.11087000  0.03540100  1
  O  O30  1  0.57564300  0.11322400  0.27485100  1
  O  O31  1  0.92435700  0.11322400  0.27485100  1
  O  O32  1  0.07148800  0.13221400  0.87445700  1
  O  O33  1  0.42851200  0.13221400  0.87445700  1
  O  O34  1  0.25000000  0.13472900  0.63436800  1
  O  O35  1  0.61429000  0.14843200  0.51914300  1
  O  O36  1  0.88571000  0.14843200  0.51914300  1
  O  O37  1  0.25000000  0.14797000  0.12937600  1
  O  O38  1  0.12344800  0.18372000  0.41922400  1
  O  O39  1  0.37655200  0.18372000  0.41922400  1
  O  O40  1  0.62344800  0.31628000  0.91922400  1
  O  O41  1  0.87655200  0.31628000  0.91922400  1
  O  O42  1  0.75000000  0.35203000  0.62937600  1
  O  O43  1  0.11429000  0.35156800  0.01914300  1
  O  O44  1  0.38571000  0.35156800  0.01914300  1
  O  O45  1  0.75000000  0.36527100  0.13436800  1
  O  O46  1  0.57148800  0.36778600  0.37445700  1
  O  O47  1  0.92851200  0.36778600  0.37445700  1
  O  O48  1  0.07564300  0.38677600  0.77485100  1
  O  O49  1  0.42435700  0.38677600  0.77485100  1
  O  O50  1  0.25000000  0.38913000  0.53540100  1
  O  O51  1  0.25000000  0.40347300  0.22357200  1
  O  O52  1  0.75000000  0.59652700  0.77642800  1
  O  O53  1  0.75000000  0.61087000  0.46459900  1
  O  O54  1  0.57564300  0.61322400  0.22514900  1
  O  O55  1  0.92435700  0.61322400  0.22514900  1
  O  O56  1  0.07148800  0.63221400  0.62554300  1
  O  O57  1  0.42851200  0.63221400  0.62554300  1
  O  O58  1  0.25000000  0.63472900  0.86563200  1
  O  O59  1  0.61429000  0.64843200  0.98085700  1
  O  O60  1  0.88571000  0.64843200  0.98085700  1
  O  O61  1  0.25000000  0.64797000  0.37062400  1
  O  O62  1  0.12344800  0.68372000  0.08077600  1
  O  O63  1  0.37655200  0.68372000  0.08077600  1
  O  O64  1  0.62344800  0.81628000  0.58077600  1
  O  O65  1  0.87655200  0.81628000  0.58077600  1
  O  O66  1  0.75000000  0.85203000  0.87062400  1
  O  O67  1  0.11429000  0.85156800  0.48085700  1
  O  O68  1  0.38571000  0.85156800  0.48085700  1
  O  O69  1  0.75000000  0.86527100  0.36563200  1
  O  O70  1  0.57148800  0.86778600  0.12554300  1
  O  O71  1  0.92851200  0.86778600  0.12554300  1
  O  O72  1  0.07564300  0.88677600  0.72514900  1
  O  O73  1  0.42435700  0.88677600  0.72514900  1
  O  O74  1  0.25000000  0.88913000  0.96459900  1
  O  O75  1  0.25000000  0.90347300  0.27642800  1
