# generated using pymatgen
data_Li2Te2O5
_symmetry_space_group_name_H-M   'P 1'
_cell_length_a   4.86816900
_cell_length_b   10.60825900
_cell_length_c   12.29431501
_cell_angle_alpha   57.30554168
_cell_angle_beta   90.00000000
_cell_angle_gamma   90.00000000
_symmetry_Int_Tables_number   1
_chemical_formula_structural   Li2Te2O5
_chemical_formula_sum   'Li8 Te8 O20'
_cell_volume   534.31915852
_cell_formula_units_Z   4
loop_
 _symmetry_equiv_pos_site_id
 _symmetry_equiv_pos_as_xyz
  1  'x, y, z'
loop_
 _atom_site_type_symbol
 _atom_site_label
 _atom_site_symmetry_multiplicity
 _atom_site_fract_x
 _atom_site_fract_y
 _atom_site_fract_z
 _atom_site_occupancy
  Li  Li0  1  0.18124300  0.92311900  0.82451500  1
  Li  Li1  1  0.68124300  0.07688100  0.67548500  1
  Li  Li2  1  0.81875700  0.07688100  0.17548500  1
  Li  Li3  1  0.31875700  0.92311900  0.32451500  1
  Li  Li4  1  0.29384100  0.07631900  0.50939900  1
  Li  Li5  1  0.79384100  0.92368100  0.99060100  1
  Li  Li6  1  0.70615900  0.92368100  0.49060100  1
  Li  Li7  1  0.20615900  0.07631900  0.00939900  1
  Te  Te8  1  0.16996100  0.29993500  0.62513900  1
  Te  Te9  1  0.66996100  0.70006500  0.87486100  1
  Te  Te10  1  0.83003900  0.70006500  0.37486100  1
  Te  Te11  1  0.33003900  0.29993500  0.12513900  1
  Te  Te12  1  0.18104300  0.70136500  0.64893200  1
  Te  Te13  1  0.68104300  0.29863500  0.85106800  1
  Te  Te14  1  0.81895700  0.29863500  0.35106800  1
  Te  Te15  1  0.31895700  0.70136500  0.14893200  1
  O  O16  1  0.01607200  0.62131900  0.54547600  1
  O  O17  1  0.51607200  0.37868100  0.95452400  1
  O  O18  1  0.98392800  0.37868100  0.45452400  1
  O  O19  1  0.48392800  0.62131900  0.04547600  1
  O  O20  1  0.17666600  0.76754700  0.28805900  1
  O  O21  1  0.67666600  0.23245300  0.21194100  1
  O  O22  1  0.82333400  0.23245300  0.71194100  1
  O  O23  1  0.32333400  0.76754700  0.78805900  1
  O  O24  1  0.22991800  0.11121000  0.15644800  1
  O  O25  1  0.72991800  0.88879000  0.34355200  1
  O  O26  1  0.77008200  0.88879000  0.84355200  1
  O  O27  1  0.27008200  0.11121000  0.65644800  1
  O  O28  1  0.32569600  0.23941600  0.83019700  1
  O  O29  1  0.82569600  0.76058400  0.66980300  1
  O  O30  1  0.67430400  0.76058400  0.16980300  1
  O  O31  1  0.17430400  0.23941600  0.33019700  1
  O  O32  1  0.28580900  0.88901400  0.50546400  1
  O  O33  1  0.78580900  0.11098600  0.99453600  1
  O  O34  1  0.71419100  0.11098600  0.49453600  1
  O  O35  1  0.21419100  0.88901400  0.00546400  1
