# generated using pymatgen
data_Li3Cr2P5O16
_symmetry_space_group_name_H-M   'P 1'
_cell_length_a   7.09523600
_cell_length_b   5.13736500
_cell_length_c   17.78505208
_cell_angle_alpha   88.24389564
_cell_angle_beta   90.00000000
_cell_angle_gamma   90.00000000
_symmetry_Int_Tables_number   1
_chemical_formula_structural   Li3Cr2P5O16
_chemical_formula_sum   'Li6 Cr4 P10 O32'
_cell_volume   647.97520377
_cell_formula_units_Z   2
loop_
 _symmetry_equiv_pos_site_id
 _symmetry_equiv_pos_as_xyz
  1  'x, y, z'
loop_
 _atom_site_type_symbol
 _atom_site_label
 _atom_site_symmetry_multiplicity
 _atom_site_fract_x
 _atom_site_fract_y
 _atom_site_fract_z
 _atom_site_occupancy
  Li  Li0  1  0.32854000  0.73552300  0.03709600  1
  Li  Li1  1  0.67146000  0.26447700  0.96290400  1
  Li  Li2  1  0.02394100  0.50000000  0.75000000  1
  Li  Li3  1  0.67146000  0.73552300  0.53709600  1
  Li  Li4  1  0.32854000  0.26447700  0.46290400  1
  Li  Li5  1  0.97605900  0.50000000  0.25000000  1
  Cr  Cr6  1  0.16738000  0.26123800  0.91254900  1
  Cr  Cr7  1  0.16738000  0.73876200  0.58745100  1
  Cr  Cr8  1  0.83262000  0.26123800  0.41254900  1
  Cr  Cr9  1  0.83262000  0.73876200  0.08745100  1
  P  P10  1  0.86954900  0.22015600  0.59190000  1
  P  P11  1  0.46675000  0.27225500  0.62379200  1
  P  P12  1  0.24612300  0.00000000  0.75000000  1
  P  P13  1  0.46675000  0.72774500  0.87620800  1
  P  P14  1  0.13045100  0.22015600  0.09190000  1
  P  P15  1  0.53325000  0.27225500  0.12379200  1
  P  P16  1  0.75387700  0.00000000  0.25000000  1
  P  P17  1  0.86954900  0.77984400  0.90810000  1
  P  P18  1  0.13045100  0.77984400  0.40810000  1
  P  P19  1  0.53325000  0.72774500  0.37620800  1
  O  O20  1  0.80591800  0.37851600  0.52094200  1
  O  O21  1  0.90801900  0.06606700  0.92606300  1
  O  O22  1  0.39299200  0.90010900  0.93637300  1
  O  O23  1  0.80591800  0.62148400  0.97905800  1
  O  O24  1  0.19408200  0.37851600  0.02094200  1
  O  O25  1  0.60700800  0.09989100  0.06362700  1
  O  O26  1  0.09198100  0.93393300  0.07393700  1
  O  O27  1  0.55945200  0.56351800  0.10941400  1
  O  O28  1  0.98632800  0.35624300  0.13964000  1
  O  O29  1  0.31940900  0.21124300  0.14571100  1
  O  O30  1  0.86329000  0.82648900  0.19888100  1
  O  O31  1  0.61728300  0.19433600  0.20534400  1
  O  O32  1  0.61728300  0.80566400  0.29465600  1
  O  O33  1  0.86329000  0.17351100  0.30111900  1
  O  O34  1  0.31940900  0.78875700  0.35428900  1
  O  O35  1  0.98632800  0.64375700  0.36036000  1
  O  O36  1  0.55945200  0.43648200  0.39058600  1
  O  O37  1  0.01367200  0.64375700  0.86036000  1
  O  O38  1  0.60700800  0.90010900  0.43637300  1
  O  O39  1  0.19408200  0.62148400  0.47905800  1
  O  O40  1  0.09198100  0.06606700  0.42606300  1
  O  O41  1  0.39299200  0.09989100  0.56362700  1
  O  O42  1  0.90801900  0.93393300  0.57393700  1
  O  O43  1  0.44054800  0.56351800  0.60941400  1
  O  O44  1  0.01367200  0.35624300  0.63964000  1
  O  O45  1  0.68059100  0.21124300  0.64571100  1
  O  O46  1  0.13671000  0.82648900  0.69888100  1
  O  O47  1  0.38271700  0.19433600  0.70534400  1
  O  O48  1  0.38271700  0.80566400  0.79465600  1
  O  O49  1  0.13671000  0.17351100  0.80111900  1
  O  O50  1  0.68059100  0.78875700  0.85428900  1
  O  O51  1  0.44054800  0.43648200  0.89058600  1
