# generated using pymatgen
data_Li2W2O7
_symmetry_space_group_name_H-M   'P 1'
_cell_length_a   5.18517800
_cell_length_b   7.10368836
_cell_length_c   8.50732635
_cell_angle_alpha   69.91160861
_cell_angle_beta   77.84047860
_cell_angle_gamma   85.74602576
_symmetry_Int_Tables_number   1
_chemical_formula_structural   Li2W2O7
_chemical_formula_sum   'Li4 W4 O14'
_cell_volume   287.69134260
_cell_formula_units_Z   2
loop_
 _symmetry_equiv_pos_site_id
 _symmetry_equiv_pos_as_xyz
  1  'x, y, z'
loop_
 _atom_site_type_symbol
 _atom_site_label
 _atom_site_symmetry_multiplicity
 _atom_site_fract_x
 _atom_site_fract_y
 _atom_site_fract_z
 _atom_site_occupancy
  Li  Li0  1  0.85969500  0.99861700  0.73247700  1
  Li  Li1  1  0.14030500  0.00138300  0.26752300  1
  Li  Li2  1  0.69086800  0.25771800  0.09886400  1
  Li  Li3  1  0.30913200  0.74228200  0.90113600  1
  W  W4  1  0.30180700  0.25383500  0.82229600  1
  W  W5  1  0.69819300  0.74616500  0.17770400  1
  W  W6  1  0.18483100  0.45857000  0.33447500  1
  W  W7  1  0.81516900  0.54143000  0.66552500  1
  O  O8  1  0.04870900  0.60663600  0.12941500  1
  O  O9  1  0.95129100  0.39336400  0.87058500  1
  O  O10  1  0.34983700  0.75009400  0.29903400  1
  O  O11  1  0.65016300  0.24990600  0.70096600  1
  O  O12  1  0.81914100  0.97556800  0.18225700  1
  O  O13  1  0.18085900  0.02443200  0.81774300  1
  O  O14  1  0.82281800  0.58448700  0.42268000  1
  O  O15  1  0.17718200  0.41551300  0.57732000  1
  O  O16  1  0.08130000  0.21342300  0.36719000  1
  O  O17  1  0.91870000  0.78657700  0.63281000  1
  O  O18  1  0.35605500  0.18704200  0.03665400  1
  O  O19  1  0.64394500  0.81295800  0.96334600  1
  O  O20  1  0.53828900  0.43992000  0.23363700  1
  O  O21  1  0.46171100  0.56008000  0.76636300  1
