# generated using pymatgen
data_LiInSe2
_symmetry_space_group_name_H-M   'P 1'
_cell_length_a   6.94212500
_cell_length_b   7.33774400
_cell_length_c   8.57463300
_cell_angle_alpha   90.00000000
_cell_angle_beta   90.00000000
_cell_angle_gamma   90.00000000
_symmetry_Int_Tables_number   1
_chemical_formula_structural   LiInSe2
_chemical_formula_sum   'Li4 In4 Se8'
_cell_volume   436.78782696
_cell_formula_units_Z   4
loop_
 _symmetry_equiv_pos_site_id
 _symmetry_equiv_pos_as_xyz
  1  'x, y, z'
loop_
 _atom_site_type_symbol
 _atom_site_label
 _atom_site_symmetry_multiplicity
 _atom_site_fract_x
 _atom_site_fract_y
 _atom_site_fract_z
 _atom_site_occupancy
  Li  Li0  1  0.99819300  0.58780300  0.87552500  1
  Li  Li1  1  0.49819300  0.41219700  0.12447500  1
  Li  Li2  1  0.49819300  0.91219700  0.37552500  1
  Li  Li3  1  0.99819300  0.08780300  0.62447500  1
  In  In4  1  0.99927300  0.57963200  0.37379900  1
  In  In5  1  0.49927300  0.42036800  0.62620100  1
  In  In6  1  0.49927300  0.92036800  0.87379900  1
  In  In7  1  0.99927300  0.07963200  0.12620100  1
  Se  Se8  1  0.61938500  0.08018700  0.12934600  1
  Se  Se9  1  0.11938500  0.91981300  0.87065400  1
  Se  Se10  1  0.11938500  0.41981300  0.62934600  1
  Se  Se11  1  0.61938500  0.58018700  0.37065400  1
  Se  Se12  1  0.12594900  0.41752100  0.12046500  1
  Se  Se13  1  0.62594900  0.58247900  0.87953500  1
  Se  Se14  1  0.62594900  0.08247900  0.62046500  1
  Se  Se15  1  0.12594900  0.91752100  0.37953500  1
