# generated using pymatgen
data_LiMo2(PO4)3
_symmetry_space_group_name_H-M   'P 1'
_cell_length_a   9.02878700
_cell_length_b   9.17952400
_cell_length_c   12.43258100
_cell_angle_alpha   90.00000000
_cell_angle_beta   90.00000000
_cell_angle_gamma   90.00000000
_symmetry_Int_Tables_number   1
_chemical_formula_structural   LiMo2(PO4)3
_chemical_formula_sum   'Li4 Mo8 P12 O48'
_cell_volume   1030.41190248
_cell_formula_units_Z   4
loop_
 _symmetry_equiv_pos_site_id
 _symmetry_equiv_pos_as_xyz
  1  'x, y, z'
loop_
 _atom_site_type_symbol
 _atom_site_label
 _atom_site_symmetry_multiplicity
 _atom_site_fract_x
 _atom_site_fract_y
 _atom_site_fract_z
 _atom_site_occupancy
  Li  Li0  1  0.14844600  0.73911600  0.75000000  1
  Li  Li1  1  0.85155400  0.26088400  0.25000000  1
  Li  Li2  1  0.14844600  0.76088400  0.25000000  1
  Li  Li3  1  0.85155400  0.23911600  0.75000000  1
  Mo  Mo4  1  0.75414200  0.52383400  0.40028800  1
  Mo  Mo5  1  0.24585800  0.47616600  0.59971200  1
  Mo  Mo6  1  0.24585800  0.02383400  0.09971200  1
  Mo  Mo7  1  0.75414200  0.52383400  0.09971200  1
  Mo  Mo8  1  0.75414200  0.97616600  0.90028800  1
  Mo  Mo9  1  0.75414200  0.97616600  0.59971200  1
  Mo  Mo10  1  0.24585800  0.02383400  0.40028800  1
  Mo  Mo11  1  0.24585800  0.47616600  0.90028800  1
  P  P12  1  0.03617700  0.75000000  0.50000000  1
  P  P13  1  0.60216700  0.62409800  0.63194100  1
  P  P14  1  0.39783300  0.37590200  0.36805900  1
  P  P15  1  0.96382300  0.25000000  0.00000000  1
  P  P16  1  0.39783300  0.37590200  0.13194100  1
  P  P17  1  0.60216700  0.87590200  0.13194100  1
  P  P18  1  0.39783300  0.12409800  0.63194100  1
  P  P19  1  0.03617700  0.75000000  0.00000000  1
  P  P20  1  0.39783300  0.12409800  0.86805900  1
  P  P21  1  0.60216700  0.62409800  0.86805900  1
  P  P22  1  0.60216700  0.87590200  0.36805900  1
  P  P23  1  0.96382300  0.25000000  0.50000000  1
  O  O24  1  0.36357100  0.21529700  0.11817700  1
  O  O25  1  0.20470900  0.48254400  0.75000000  1
  O  O26  1  0.36357100  0.28470300  0.88182300  1
  O  O27  1  0.65890600  0.57419000  0.75000000  1
  O  O28  1  0.05409600  0.13392500  0.05949000  1
  O  O29  1  0.79529100  0.51745600  0.25000000  1
  O  O30  1  0.63642900  0.78470300  0.88182300  1
  O  O31  1  0.05409600  0.13392500  0.44051000  1
  O  O32  1  0.86480900  0.18006300  0.91016800  1
  O  O33  1  0.30417500  0.02400900  0.56013100  1
  O  O34  1  0.63642900  0.71529700  0.11817700  1
  O  O35  1  0.86480900  0.31993700  0.08983200  1
  O  O36  1  0.56336800  0.09974000  0.87437900  1
  O  O37  1  0.05409600  0.36607500  0.55949000  1
  O  O38  1  0.34109400  0.42581000  0.25000000  1
  O  O39  1  0.69582500  0.52400900  0.93986900  1
  O  O40  1  0.43663200  0.90026000  0.12562100  1
  O  O41  1  0.86480900  0.31993700  0.41016800  1
  O  O42  1  0.43663200  0.59974000  0.62562100  1
  O  O43  1  0.69582500  0.97599100  0.43986900  1
  O  O44  1  0.56336800  0.09974000  0.62562100  1
  O  O45  1  0.69582500  0.52400900  0.56013100  1
  O  O46  1  0.13519100  0.68006300  0.58983200  1
  O  O47  1  0.65890600  0.92581000  0.25000000  1
  O  O48  1  0.56336800  0.40026000  0.37437900  1
  O  O49  1  0.94590400  0.86607500  0.94051000  1
  O  O50  1  0.79529100  0.98254400  0.75000000  1
  O  O51  1  0.94590400  0.86607500  0.55949000  1
  O  O52  1  0.13519100  0.68006300  0.91016800  1
  O  O53  1  0.13519100  0.81993700  0.41016800  1
  O  O54  1  0.34109400  0.07419000  0.75000000  1
  O  O55  1  0.56336800  0.40026000  0.12562100  1
  O  O56  1  0.43663200  0.59974000  0.87437900  1
  O  O57  1  0.94590400  0.63392500  0.44051000  1
  O  O58  1  0.30417500  0.02400900  0.93986900  1
  O  O59  1  0.05409600  0.36607500  0.94051000  1
  O  O60  1  0.30417500  0.47599100  0.06013100  1
  O  O61  1  0.36357100  0.21529700  0.38182300  1
  O  O62  1  0.43663200  0.90026000  0.37437900  1
  O  O63  1  0.86480900  0.18006300  0.58983200  1
  O  O64  1  0.63642900  0.78470300  0.61817700  1
  O  O65  1  0.13519100  0.81993700  0.08983200  1
  O  O66  1  0.94590400  0.63392500  0.05949000  1
  O  O67  1  0.20470900  0.01745600  0.25000000  1
  O  O68  1  0.69582500  0.97599100  0.06013100  1
  O  O69  1  0.63642900  0.71529700  0.38182300  1
  O  O70  1  0.30417500  0.47599100  0.43986900  1
  O  O71  1  0.36357100  0.28470300  0.61817700  1
