# generated using pymatgen
data_Li3Mn2(PO4)3
_symmetry_space_group_name_H-M   'P 1'
_cell_length_a   4.85264340
_cell_length_b   4.85264340
_cell_length_c   19.12137350
_cell_angle_alpha   89.71546837
_cell_angle_beta   89.71546837
_cell_angle_gamma   68.60014401
_symmetry_Int_Tables_number   1
_chemical_formula_structural   Li3Mn2(PO4)3
_chemical_formula_sum   'Li6 Mn4 P6 O24'
_cell_volume   419.22207053
_cell_formula_units_Z   2
loop_
 _symmetry_equiv_pos_site_id
 _symmetry_equiv_pos_as_xyz
  1  'x, y, z'
loop_
 _atom_site_type_symbol
 _atom_site_label
 _atom_site_symmetry_multiplicity
 _atom_site_fract_x
 _atom_site_fract_y
 _atom_site_fract_z
 _atom_site_occupancy
  Li  Li0  1  0.67611100  0.67611100  0.91299700  1
  Li  Li1  1  0.00019000  0.00019000  0.16596700  1
  Li  Li2  1  0.99981000  0.99981000  0.83403300  1
  Li  Li3  1  0.32457200  0.32457200  0.75453700  1
  Li  Li4  1  0.67542800  0.67542800  0.24546300  1
  Li  Li5  1  0.32388900  0.32388900  0.08700300  1
  Mn  Mn6  1  0.00000000  0.00000000  0.50000000  1
  Mn  Mn7  1  0.00053400  0.00053400  0.33171200  1
  Mn  Mn8  1  0.99946600  0.99946600  0.66828800  1
  Mn  Mn9  1  0.00000000  0.00000000  0.00000000  1
  P  P10  1  0.34635700  0.34635700  0.58382500  1
  P  P11  1  0.65196800  0.65196800  0.74977800  1
  P  P12  1  0.35029900  0.35029900  0.91757700  1
  P  P13  1  0.64970100  0.64970100  0.08242300  1
  P  P14  1  0.34803200  0.34803200  0.25022200  1
  P  P15  1  0.65364300  0.65364300  0.41617500  1
  O  O16  1  0.23259700  0.23259700  0.51921800  1
  O  O17  1  0.24981900  0.24981900  0.18288000  1
  O  O18  1  0.75018100  0.75018100  0.81712000  1
  O  O19  1  0.23926100  0.69611000  0.92169900  1
  O  O20  1  0.69488900  0.23877900  0.25510200  1
  O  O21  1  0.23191900  0.23191900  0.31563400  1
  O  O22  1  0.30672000  0.77509200  0.41714900  1
  O  O23  1  0.76122100  0.30511100  0.74489800  1
  O  O24  1  0.23877900  0.69488900  0.25510200  1
  O  O25  1  0.24746800  0.24746800  0.85151600  1
  O  O26  1  0.75253200  0.75253200  0.14848400  1
  O  O27  1  0.76322100  0.76322100  0.01487700  1
  O  O28  1  0.76073900  0.30389000  0.07830100  1
  O  O29  1  0.22490800  0.69328000  0.58285100  1
  O  O30  1  0.69611000  0.23926100  0.92169900  1
  O  O31  1  0.69328000  0.22490800  0.58285100  1
  O  O32  1  0.76740300  0.76740300  0.48078200  1
  O  O33  1  0.75967500  0.75967500  0.34743000  1
  O  O34  1  0.23677900  0.23677900  0.98512300  1
  O  O35  1  0.30389000  0.76073900  0.07830100  1
  O  O36  1  0.77509200  0.30672000  0.41714900  1
  O  O37  1  0.30511100  0.76122100  0.74489800  1
  O  O38  1  0.76808100  0.76808100  0.68436600  1
  O  O39  1  0.24032500  0.24032500  0.65257000  1
