# generated using pymatgen
data_LiCrPO4
_symmetry_space_group_name_H-M   'P 1'
_cell_length_a   4.76496200
_cell_length_b   6.35235700
_cell_length_c   10.26081200
_cell_angle_alpha   90.00000000
_cell_angle_beta   90.00000000
_cell_angle_gamma   90.00000000
_symmetry_Int_Tables_number   1
_chemical_formula_structural   LiCrPO4
_chemical_formula_sum   'Li4 Cr4 P4 O16'
_cell_volume   310.58184770
_cell_formula_units_Z   4
loop_
 _symmetry_equiv_pos_site_id
 _symmetry_equiv_pos_as_xyz
  1  'x, y, z'
loop_
 _atom_site_type_symbol
 _atom_site_label
 _atom_site_symmetry_multiplicity
 _atom_site_fract_x
 _atom_site_fract_y
 _atom_site_fract_z
 _atom_site_occupancy
  Li  Li0  1  0.50000000  0.50000000  0.50000000  1
  Li  Li1  1  0.00000000  0.00000000  0.00000000  1
  Li  Li2  1  0.00000000  0.50000000  0.00000000  1
  Li  Li3  1  0.50000000  0.00000000  0.50000000  1
  Cr  Cr4  1  0.44983400  0.75000000  0.21546700  1
  Cr  Cr5  1  0.05016600  0.75000000  0.71546700  1
  Cr  Cr6  1  0.55016600  0.25000000  0.78453300  1
  Cr  Cr7  1  0.94983400  0.25000000  0.28453300  1
  P  P8  1  0.58250300  0.75000000  0.90639800  1
  P  P9  1  0.91749700  0.75000000  0.40639800  1
  P  P10  1  0.08250300  0.25000000  0.59360200  1
  P  P11  1  0.41749700  0.25000000  0.09360200  1
  O  O12  1  0.78646300  0.55325100  0.33878900  1
  O  O13  1  0.30414600  0.25000000  0.95049300  1
  O  O14  1  0.21353700  0.05325100  0.66121100  1
  O  O15  1  0.71353700  0.94674900  0.83878900  1
  O  O16  1  0.78646300  0.94674900  0.33878900  1
  O  O17  1  0.21353700  0.44674900  0.66121100  1
  O  O18  1  0.25658100  0.75000000  0.90065800  1
  O  O19  1  0.71353700  0.55325100  0.83878900  1
  O  O20  1  0.28646300  0.05325100  0.16121100  1
  O  O21  1  0.80414600  0.75000000  0.54950700  1
  O  O22  1  0.19585400  0.25000000  0.45049300  1
  O  O23  1  0.74341900  0.25000000  0.09934200  1
  O  O24  1  0.28646300  0.44674900  0.16121100  1
  O  O25  1  0.69585400  0.75000000  0.04950700  1
  O  O26  1  0.75658100  0.25000000  0.59934200  1
  O  O27  1  0.24341900  0.75000000  0.40065800  1
