# generated using pymatgen
data_Li3Bi2(PO4)3
_symmetry_space_group_name_H-M   'P 1'
_cell_length_a   9.75635833
_cell_length_b   9.75635833
_cell_length_c   9.75635799
_cell_angle_alpha   54.45921640
_cell_angle_beta   54.45921640
_cell_angle_gamma   54.45921978
_symmetry_Int_Tables_number   1
_chemical_formula_structural   Li3Bi2(PO4)3
_chemical_formula_sum   'Li6 Bi4 P6 O24'
_cell_volume   571.83283418
_cell_formula_units_Z   2
loop_
 _symmetry_equiv_pos_site_id
 _symmetry_equiv_pos_as_xyz
  1  'x, y, z'
loop_
 _atom_site_type_symbol
 _atom_site_label
 _atom_site_symmetry_multiplicity
 _atom_site_fract_x
 _atom_site_fract_y
 _atom_site_fract_z
 _atom_site_occupancy
  Li  Li0  1  0.33325900  0.06480200  0.73715500  1
  Li  Li1  1  0.66674100  0.93519800  0.26284500  1
  Li  Li2  1  0.26284500  0.66674100  0.93519800  1
  Li  Li3  1  0.93519800  0.26284600  0.66674100  1
  Li  Li4  1  0.06480200  0.73715500  0.33325900  1
  Li  Li5  1  0.73715500  0.33325900  0.06480200  1
  Bi  Bi6  1  0.65540100  0.65540100  0.65540100  1
  Bi  Bi7  1  0.15233800  0.15233800  0.15233800  1
  Bi  Bi8  1  0.84766200  0.84766200  0.84766200  1
  Bi  Bi9  1  0.34459900  0.34459900  0.34459900  1
  P  P10  1  0.95002000  0.56227900  0.25198200  1
  P  P11  1  0.43772100  0.74801800  0.04998000  1
  P  P12  1  0.56227900  0.25198200  0.95002000  1
  P  P13  1  0.04998000  0.43772100  0.74801800  1
  P  P14  1  0.74801800  0.04998000  0.43772100  1
  P  P15  1  0.25198200  0.95002000  0.56227900  1
  O  O16  1  0.85655000  0.49520500  0.46374400  1
  O  O17  1  0.46374400  0.85655000  0.49520500  1
  O  O18  1  0.16075700  0.82425700  0.74784800  1
  O  O19  1  0.20007000  0.12212600  0.58936000  1
  O  O20  1  0.79993000  0.87787400  0.41064000  1
  O  O21  1  0.83924300  0.17574300  0.25215200  1
  O  O22  1  0.53625600  0.14345000  0.50479500  1
  O  O23  1  0.87787400  0.41064000  0.79993000  1
  O  O24  1  0.01062300  0.42066300  0.18499700  1
  O  O25  1  0.41064000  0.79993000  0.87787400  1
  O  O26  1  0.81500300  0.98937700  0.57933700  1
  O  O27  1  0.98937700  0.57933700  0.81500300  1
  O  O28  1  0.50479500  0.53625600  0.14345000  1
  O  O29  1  0.25215200  0.83924300  0.17574300  1
  O  O30  1  0.17574300  0.25215200  0.83924300  1
  O  O31  1  0.57933700  0.81500300  0.98937700  1
  O  O32  1  0.42066300  0.18499700  0.01062300  1
  O  O33  1  0.14345000  0.50479500  0.53625600  1
  O  O34  1  0.74784800  0.16075700  0.82425700  1
  O  O35  1  0.49520500  0.46374400  0.85655000  1
  O  O36  1  0.82425700  0.74784800  0.16075700  1
  O  O37  1  0.18499700  0.01062300  0.42066300  1
  O  O38  1  0.58936000  0.20007000  0.12212600  1
  O  O39  1  0.12212600  0.58936000  0.20007000  1
