# generated using pymatgen
data_LiV2(PO4)3
_symmetry_space_group_name_H-M   'P 1'
_cell_length_a   8.66675616
_cell_length_b   8.66675616
_cell_length_c   6.33284785
_cell_angle_alpha   73.77207832
_cell_angle_beta   73.77207832
_cell_angle_gamma   92.18158573
_symmetry_Int_Tables_number   1
_chemical_formula_structural   LiV2(PO4)3
_chemical_formula_sum   'Li2 V4 P6 O24'
_cell_volume   435.03271901
_cell_formula_units_Z   2
loop_
 _symmetry_equiv_pos_site_id
 _symmetry_equiv_pos_as_xyz
  1  'x, y, z'
loop_
 _atom_site_type_symbol
 _atom_site_label
 _atom_site_symmetry_multiplicity
 _atom_site_fract_x
 _atom_site_fract_y
 _atom_site_fract_z
 _atom_site_occupancy
  Li  Li0  1  0.50000000  0.50000000  0.50000000  1
  Li  Li1  1  0.50000000  0.50000000  0.00000000  1
  V  V2  1  0.62470300  0.94071200  0.63595500  1
  V  V3  1  0.94071200  0.62470300  0.13595500  1
  V  V4  1  0.05928800  0.37529700  0.86404500  1
  V  V5  1  0.37529700  0.05928800  0.36404500  1
  P  P6  1  0.27930500  0.72069500  0.75000000  1
  P  P7  1  0.64431400  0.83649100  0.15031800  1
  P  P8  1  0.83649100  0.64431400  0.65031800  1
  P  P9  1  0.16350900  0.35568600  0.34968200  1
  P  P10  1  0.35568600  0.16350900  0.84968200  1
  P  P11  1  0.72069500  0.27930500  0.25000000  1
  O  O12  1  0.63722300  0.95267600  0.91561600  1
  O  O13  1  0.59561600  0.93982900  0.32435800  1
  O  O14  1  0.26464800  0.85132900  0.53275300  1
  O  O15  1  0.14867100  0.73535200  0.96724700  1
  O  O16  1  0.80440700  0.82516100  0.61244500  1
  O  O17  1  0.45258500  0.74973700  0.76761700  1
  O  O18  1  0.82516100  0.80440700  0.11244500  1
  O  O19  1  0.93982900  0.59561600  0.82435800  1
  O  O20  1  0.53399500  0.68210600  0.23064800  1
  O  O21  1  0.25026300  0.54741500  0.73238300  1
  O  O22  1  0.95267600  0.63722300  0.41561600  1
  O  O23  1  0.68210600  0.53399500  0.73064800  1
  O  O24  1  0.31789400  0.46600500  0.26935200  1
  O  O25  1  0.04732400  0.36277700  0.58438400  1
  O  O26  1  0.74973700  0.45258500  0.26761700  1
  O  O27  1  0.46600500  0.31789400  0.76935200  1
  O  O28  1  0.06017100  0.40438400  0.17564200  1
  O  O29  1  0.17483900  0.19559300  0.88755500  1
  O  O30  1  0.54741500  0.25026300  0.23238300  1
  O  O31  1  0.19559300  0.17483900  0.38755500  1
  O  O32  1  0.85132900  0.26464800  0.03275300  1
  O  O33  1  0.73535200  0.14867100  0.46724700  1
  O  O34  1  0.40438400  0.06017100  0.67564200  1
  O  O35  1  0.36277700  0.04732400  0.08438400  1
