# generated using pymatgen
data_Li3Fe(PO4)2
_symmetry_space_group_name_H-M   'P 1'
_cell_length_a   17.91483300
_cell_length_b   4.94419100
_cell_length_c   6.38431079
_cell_angle_alpha   87.00922049
_cell_angle_beta   90.00000000
_cell_angle_gamma   90.00000000
_symmetry_Int_Tables_number   1
_chemical_formula_structural   Li3Fe(PO4)2
_chemical_formula_sum   'Li12 Fe4 P8 O32'
_cell_volume   564.71599327
_cell_formula_units_Z   4
loop_
 _symmetry_equiv_pos_site_id
 _symmetry_equiv_pos_as_xyz
  1  'x, y, z'
loop_
 _atom_site_type_symbol
 _atom_site_label
 _atom_site_symmetry_multiplicity
 _atom_site_fract_x
 _atom_site_fract_y
 _atom_site_fract_z
 _atom_site_occupancy
  Li  Li0  1  0.30081900  0.18269700  0.18836100  1
  Li  Li1  1  0.69918100  0.81730300  0.81163900  1
  Li  Li2  1  0.88387800  0.78003800  0.49580600  1
  Li  Li3  1  0.38387800  0.71996200  0.00419400  1
  Li  Li4  1  0.05619000  0.72040600  0.28182600  1
  Li  Li5  1  0.11612200  0.21996200  0.50419400  1
  Li  Li6  1  0.61612200  0.28003800  0.99580600  1
  Li  Li7  1  0.94381000  0.27959400  0.71817400  1
  Li  Li8  1  0.44381000  0.22040600  0.78182600  1
  Li  Li9  1  0.80081900  0.31730300  0.31163900  1
  Li  Li10  1  0.19918100  0.68269700  0.68836100  1
  Li  Li11  1  0.55619000  0.77959400  0.21817400  1
  Fe  Fe12  1  0.87298800  0.80573800  0.01442800  1
  Fe  Fe13  1  0.37298800  0.69426200  0.48557200  1
  Fe  Fe14  1  0.62701200  0.30573800  0.51442800  1
  Fe  Fe15  1  0.12701200  0.19426200  0.98557200  1
  P  P16  1  0.78442600  0.33070100  0.78950500  1
  P  P17  1  0.21557400  0.66929900  0.21049500  1
  P  P18  1  0.03576500  0.71771600  0.76760800  1
  P  P19  1  0.53576500  0.78228400  0.73239200  1
  P  P20  1  0.28442600  0.16929900  0.71049500  1
  P  P21  1  0.46423500  0.21771600  0.26760800  1
  P  P22  1  0.71557400  0.83070100  0.28950500  1
  P  P23  1  0.96423500  0.28228400  0.23239200  1
  O  O24  1  0.06037500  0.41082200  0.77083500  1
  O  O25  1  0.67349600  0.94455400  0.09749000  1
  O  O26  1  0.69062700  0.97614300  0.48973700  1
  O  O27  1  0.19911000  0.98030700  0.17843100  1
  O  O28  1  0.80089000  0.01969300  0.82156900  1
  O  O29  1  0.30937300  0.02385700  0.51026300  1
  O  O30  1  0.32650400  0.05544600  0.90251000  1
  O  O31  1  0.56037500  0.08917800  0.72916500  1
  O  O32  1  0.93313100  0.14624000  0.03562800  1
  O  O33  1  0.93568100  0.13786900  0.43203600  1
  O  O34  1  0.19815400  0.11497900  0.73081900  1
  O  O35  1  0.55207300  0.21124800  0.27479800  1
  O  O36  1  0.05207300  0.28875200  0.22520200  1
  O  O37  1  0.06686900  0.85376000  0.96437200  1
  O  O38  1  0.43313100  0.35376000  0.46437200  1
  O  O39  1  0.69815400  0.38502100  0.76918100  1
  O  O40  1  0.43568100  0.36213100  0.06796400  1
  O  O41  1  0.82650400  0.44455400  0.59749000  1
  O  O42  1  0.69911000  0.51969300  0.32156900  1
  O  O43  1  0.80937300  0.47614300  0.98973700  1
  O  O44  1  0.19062700  0.52385700  0.01026300  1
  O  O45  1  0.30089000  0.48030700  0.67843100  1
  O  O46  1  0.17349600  0.55544600  0.40251000  1
  O  O47  1  0.93962500  0.58917800  0.22916500  1
  O  O48  1  0.30184600  0.61497900  0.23081900  1
  O  O49  1  0.56686900  0.64624000  0.53562800  1
  O  O50  1  0.56431900  0.63786900  0.93203600  1
  O  O51  1  0.94792700  0.71124800  0.77479800  1
  O  O52  1  0.44792700  0.78875200  0.72520200  1
  O  O53  1  0.80184600  0.88502100  0.26918100  1
  O  O54  1  0.06431900  0.86213100  0.56796400  1
  O  O55  1  0.43962500  0.91082200  0.27083500  1
