# generated using pymatgen
data_Li3Sn2(PO4)3
_symmetry_space_group_name_H-M   'P 1'
_cell_length_a   9.33823800
_cell_length_b   8.73757400
_cell_length_c   15.51553405
_cell_angle_alpha   56.20797446
_cell_angle_beta   90.00000000
_cell_angle_gamma   90.00000000
_symmetry_Int_Tables_number   1
_chemical_formula_structural   Li3Sn2(PO4)3
_chemical_formula_sum   'Li12 Sn8 P12 O48'
_cell_volume   1052.09728440
_cell_formula_units_Z   4
loop_
 _symmetry_equiv_pos_site_id
 _symmetry_equiv_pos_as_xyz
  1  'x, y, z'
loop_
 _atom_site_type_symbol
 _atom_site_label
 _atom_site_symmetry_multiplicity
 _atom_site_fract_x
 _atom_site_fract_y
 _atom_site_fract_z
 _atom_site_occupancy
  Li  Li0  1  0.97349800  0.28054900  0.14197200  1
  Li  Li1  1  0.41795700  0.61692100  0.81213200  1
  Li  Li2  1  0.73411000  0.99267900  0.30301300  1
  Li  Li3  1  0.23411000  0.00732100  0.19698700  1
  Li  Li4  1  0.91795700  0.38307900  0.68786800  1
  Li  Li5  1  0.47349800  0.71945100  0.35802800  1
  Li  Li6  1  0.52650200  0.28054900  0.64197200  1
  Li  Li7  1  0.08204300  0.61692100  0.31213200  1
  Li  Li8  1  0.76589000  0.99267900  0.80301300  1
  Li  Li9  1  0.26589000  0.00732100  0.69698700  1
  Li  Li10  1  0.58204300  0.38307900  0.18786800  1
  Li  Li11  1  0.02650200  0.71945100  0.85802800  1
  Sn  Sn12  1  0.04737100  0.86954400  0.41022700  1
  Sn  Sn13  1  0.46470000  0.65065700  0.60263200  1
  Sn  Sn14  1  0.96470000  0.34934300  0.89736800  1
  Sn  Sn15  1  0.54737100  0.13045600  0.08977300  1
  Sn  Sn16  1  0.45262900  0.86954400  0.91022700  1
  Sn  Sn17  1  0.03530000  0.65065700  0.10263200  1
  Sn  Sn18  1  0.53530000  0.34934300  0.39736800  1
  Sn  Sn19  1  0.95262900  0.13045600  0.58977300  1
  P  P20  1  0.23821800  0.43514800  0.01237700  1
  P  P21  1  0.41014300  0.03883400  0.35565300  1
  P  P22  1  0.13487600  0.70233900  0.68003100  1
  P  P23  1  0.63487600  0.29766100  0.81996900  1
  P  P24  1  0.91014300  0.96116600  0.14434700  1
  P  P25  1  0.73821800  0.56485200  0.48762300  1
  P  P26  1  0.26178200  0.43514800  0.51237700  1
  P  P27  1  0.08985700  0.03883400  0.85565300  1
  P  P28  1  0.36512400  0.70233900  0.18003100  1
  P  P29  1  0.86512400  0.29766100  0.31996900  1
  P  P30  1  0.58985700  0.96116600  0.64434700  1
  P  P31  1  0.76178200  0.56485200  0.98762300  1
  O  O32  1  0.64420100  0.41942100  0.04902300  1
  O  O33  1  0.88491600  0.18089800  0.27460800  1
  O  O34  1  0.84095200  0.54650100  0.90374800  1
  O  O35  1  0.58848300  0.85495600  0.59035500  1
  O  O36  1  0.12441100  0.47647200  0.92682500  1
  O  O37  1  0.53405500  0.10254100  0.27675100  1
  O  O38  1  0.09397400  0.80864800  0.56564500  1
  O  O39  1  0.26348200  0.05085700  0.30828600  1
  O  O40  1  0.29967000  0.65213000  0.69185700  1
  O  O41  1  0.29216100  0.23720100  0.06810900  1
  O  O42  1  0.43493500  0.82524700  0.44235900  1
  O  O43  1  0.04233300  0.52162100  0.74096100  1
  O  O44  1  0.54233300  0.47837900  0.75903900  1
  O  O45  1  0.93493500  0.17475300  0.05764100  1
  O  O46  1  0.79216100  0.76279900  0.43189100  1
  O  O47  1  0.79967000  0.34787000  0.80814300  1
  O  O48  1  0.76348200  0.94914300  0.19171400  1
  O  O49  1  0.59397400  0.19135200  0.93435500  1
  O  O50  1  0.03405500  0.89745900  0.22324900  1
  O  O51  1  0.62441100  0.52352800  0.57317500  1
  O  O52  1  0.08848300  0.14504400  0.90964500  1
  O  O53  1  0.34095200  0.45349900  0.59625200  1
  O  O54  1  0.38491600  0.81910200  0.22539200  1
  O  O55  1  0.14420100  0.58057900  0.45097700  1
  O  O56  1  0.85579900  0.41942100  0.54902300  1
  O  O57  1  0.61508400  0.18089800  0.77460800  1
  O  O58  1  0.65904800  0.54650100  0.40374800  1
  O  O59  1  0.91151700  0.85495600  0.09035500  1
  O  O60  1  0.37558900  0.47647200  0.42682500  1
  O  O61  1  0.96594500  0.10254100  0.77675100  1
  O  O62  1  0.40602600  0.80864800  0.06564500  1
  O  O63  1  0.23651800  0.05085700  0.80828600  1
  O  O64  1  0.20033000  0.65213000  0.19185700  1
  O  O65  1  0.20783900  0.23720100  0.56810900  1
  O  O66  1  0.06506500  0.82524700  0.94235900  1
  O  O67  1  0.45766700  0.52162100  0.24096100  1
  O  O68  1  0.95766700  0.47837900  0.25903900  1
  O  O69  1  0.56506500  0.17475300  0.55764100  1
  O  O70  1  0.70783900  0.76279900  0.93189100  1
  O  O71  1  0.70033000  0.34787000  0.30814300  1
  O  O72  1  0.73651800  0.94914300  0.69171400  1
  O  O73  1  0.90602600  0.19135200  0.43435500  1
  O  O74  1  0.46594500  0.89745900  0.72324900  1
  O  O75  1  0.87558900  0.52352800  0.07317500  1
  O  O76  1  0.41151700  0.14504400  0.40964500  1
  O  O77  1  0.15904800  0.45349900  0.09625200  1
  O  O78  1  0.11508400  0.81910200  0.72539200  1
  O  O79  1  0.35579900  0.58057900  0.95097700  1
