# generated using pymatgen
data_Li4Ni(PO4)2
_symmetry_space_group_name_H-M   'P 1'
_cell_length_a   10.28175800
_cell_length_b   8.27525400
_cell_length_c   8.28991284
_cell_angle_alpha   73.78192645
_cell_angle_beta   90.00000000
_cell_angle_gamma   90.00000000
_symmetry_Int_Tables_number   1
_chemical_formula_structural   Li4Ni(PO4)2
_chemical_formula_sum   'Li16 Ni4 P8 O32'
_cell_volume   677.27169254
_cell_formula_units_Z   4
loop_
 _symmetry_equiv_pos_site_id
 _symmetry_equiv_pos_as_xyz
  1  'x, y, z'
loop_
 _atom_site_type_symbol
 _atom_site_label
 _atom_site_symmetry_multiplicity
 _atom_site_fract_x
 _atom_site_fract_y
 _atom_site_fract_z
 _atom_site_occupancy
  Li  Li0  1  0.66378000  0.09917500  0.39939400  1
  Li  Li1  1  0.65318100  0.85154800  0.14867000  1
  Li  Li2  1  0.16378000  0.40082500  0.60060600  1
  Li  Li3  1  0.66312500  0.34052600  0.65293500  1
  Li  Li4  1  0.57422700  0.77105900  0.47861700  1
  Li  Li5  1  0.16312500  0.15947400  0.34706500  1
  Li  Li6  1  0.84681900  0.35154800  0.14867000  1
  Li  Li7  1  0.83622000  0.59917500  0.39939400  1
  Li  Li8  1  0.33622000  0.90082500  0.60060600  1
  Li  Li9  1  0.92577300  0.27105900  0.47861700  1
  Li  Li10  1  0.07422700  0.72894100  0.52138300  1
  Li  Li11  1  0.42577300  0.22894100  0.52138300  1
  Li  Li12  1  0.15318100  0.64845200  0.85133000  1
  Li  Li13  1  0.34681900  0.14845200  0.85133000  1
  Li  Li14  1  0.33687500  0.65947400  0.34706500  1
  Li  Li15  1  0.83687500  0.84052600  0.65293500  1
  Ni  Ni16  1  0.15037900  0.90740800  0.09691200  1
  Ni  Ni17  1  0.65037900  0.59259200  0.90308800  1
  Ni  Ni18  1  0.34962100  0.40740800  0.09691200  1
  Ni  Ni19  1  0.84962100  0.09259200  0.90308800  1
  P  P20  1  0.90867600  0.97647800  0.29132700  1
  P  P21  1  0.09363600  0.53677600  0.23002100  1
  P  P22  1  0.59132400  0.47647800  0.29132700  1
  P  P23  1  0.59363600  0.96322400  0.76997900  1
  P  P24  1  0.40867600  0.52352200  0.70867300  1
  P  P25  1  0.40636400  0.03677600  0.23002100  1
  P  P26  1  0.90636400  0.46322400  0.76997900  1
  P  P27  1  0.09132400  0.02352200  0.70867300  1
  O  O28  1  0.39662900  0.68740300  0.56183500  1
  O  O29  1  0.33564100  0.55195400  0.86325900  1
  O  O30  1  0.16435900  0.05195400  0.86325900  1
  O  O31  1  0.89559300  0.31295600  0.93294300  1
  O  O32  1  0.54859900  0.97929900  0.27252900  1
  O  O33  1  0.89662900  0.81259700  0.43816500  1
  O  O34  1  0.60440700  0.81295600  0.93294300  1
  O  O35  1  0.65055500  0.62888100  0.33887500  1
  O  O36  1  0.84738400  0.40820200  0.62052300  1
  O  O37  1  0.10440700  0.68704400  0.06705700  1
  O  O38  1  0.84944500  0.12888100  0.33887500  1
  O  O39  1  0.95140100  0.47929900  0.27252900  1
  O  O40  1  0.66435900  0.44804600  0.13674100  1
  O  O41  1  0.34738400  0.09179800  0.37947700  1
  O  O42  1  0.65261600  0.90820200  0.62052300  1
  O  O43  1  0.15261600  0.59179800  0.37947700  1
  O  O44  1  0.34944500  0.37111900  0.66112500  1
  O  O45  1  0.44349700  0.50948200  0.25304700  1
  O  O46  1  0.15055500  0.87111900  0.66112500  1
  O  O47  1  0.67271300  0.11131000  0.80347200  1
  O  O48  1  0.55650300  0.49051800  0.74695300  1
  O  O49  1  0.39559300  0.18704400  0.06705700  1
  O  O50  1  0.45140100  0.02070100  0.72747100  1
  O  O51  1  0.94349700  0.99051800  0.74695300  1
  O  O52  1  0.82728700  0.61131000  0.80347200  1
  O  O53  1  0.60337100  0.31259700  0.43816500  1
  O  O54  1  0.32728700  0.88869000  0.19652800  1
  O  O55  1  0.17271300  0.38869000  0.19652800  1
  O  O56  1  0.04859900  0.52070100  0.72747100  1
  O  O57  1  0.10337100  0.18740300  0.56183500  1
  O  O58  1  0.05650300  0.00948200  0.25304700  1
  O  O59  1  0.83564100  0.94804600  0.13674100  1
