# generated using pymatgen
data_Li2Fe(PO3)4
_symmetry_space_group_name_H-M   'P 1'
_cell_length_a   9.39189800
_cell_length_b   9.49204600
_cell_length_c   10.13967100
_cell_angle_alpha   90.00000000
_cell_angle_beta   90.00000000
_cell_angle_gamma   90.00000000
_symmetry_Int_Tables_number   1
_chemical_formula_structural   Li2Fe(PO3)4
_chemical_formula_sum   'Li8 Fe4 P16 O48'
_cell_volume   903.93471453
_cell_formula_units_Z   4
loop_
 _symmetry_equiv_pos_site_id
 _symmetry_equiv_pos_as_xyz
  1  'x, y, z'
loop_
 _atom_site_type_symbol
 _atom_site_label
 _atom_site_symmetry_multiplicity
 _atom_site_fract_x
 _atom_site_fract_y
 _atom_site_fract_z
 _atom_site_occupancy
  Li  Li0  1  0.39712100  0.00333600  0.17027700  1
  Li  Li1  1  0.60287900  0.49666400  0.67027700  1
  Li  Li2  1  0.60287900  0.99666400  0.82972300  1
  Li  Li3  1  0.39712100  0.50333600  0.32972300  1
  Li  Li4  1  0.89712100  0.99666400  0.82972300  1
  Li  Li5  1  0.89712100  0.49666400  0.67027700  1
  Li  Li6  1  0.10287900  0.00333600  0.17027700  1
  Li  Li7  1  0.10287900  0.50333600  0.32972300  1
  Fe  Fe8  1  0.75000000  0.98742300  0.19719600  1
  Fe  Fe9  1  0.25000000  0.51257700  0.69719600  1
  Fe  Fe10  1  0.75000000  0.48742300  0.30280400  1
  Fe  Fe11  1  0.25000000  0.01257700  0.80280400  1
  P  P12  1  0.75000000  0.19462900  0.60325000  1
  P  P13  1  0.53570400  0.70660300  0.11375500  1
  P  P14  1  0.46429600  0.79339700  0.61375500  1
  P  P15  1  0.25000000  0.30537100  0.10325000  1
  P  P16  1  0.46429600  0.29339700  0.88624500  1
  P  P17  1  0.03570400  0.79339700  0.61375500  1
  P  P18  1  0.96429600  0.70660300  0.11375500  1
  P  P19  1  0.53570400  0.20660300  0.38624500  1
  P  P20  1  0.75000000  0.69462900  0.89675000  1
  P  P21  1  0.25000000  0.72651300  0.98010100  1
  P  P22  1  0.25000000  0.22651300  0.51989900  1
  P  P23  1  0.75000000  0.77348700  0.48010100  1
  P  P24  1  0.25000000  0.80537100  0.39675000  1
  P  P25  1  0.75000000  0.27348700  0.01989900  1
  P  P26  1  0.03570400  0.29339700  0.88624500  1
  P  P27  1  0.96429600  0.20660300  0.38624500  1
  O  O28  1  0.75000000  0.85164600  0.88044100  1
  O  O29  1  0.25000000  0.14835400  0.11955900  1
  O  O30  1  0.25000000  0.14378400  0.64416500  1
  O  O31  1  0.88305200  0.64556900  0.98631200  1
  O  O32  1  0.56629900  0.11250600  0.27018400  1
  O  O33  1  0.43370100  0.88749400  0.72981600  1
  O  O34  1  0.05722600  0.63629400  0.62478800  1
  O  O35  1  0.44277400  0.13629400  0.87521200  1
  O  O36  1  0.75000000  0.61424500  0.47355500  1
  O  O37  1  0.93370100  0.61250600  0.22981600  1
  O  O38  1  0.75000000  0.11424500  0.02644500  1
  O  O39  1  0.62463500  0.82794500  0.57433300  1
  O  O40  1  0.05722600  0.13629400  0.87521200  1
  O  O41  1  0.75000000  0.35621600  0.14416500  1
  O  O42  1  0.37536500  0.17205500  0.42566700  1
  O  O43  1  0.37536500  0.67205500  0.07433300  1
  O  O44  1  0.62463500  0.32794500  0.92566700  1
  O  O45  1  0.38305200  0.85443100  0.48631200  1
  O  O46  1  0.25000000  0.64378400  0.85583500  1
  O  O47  1  0.88305200  0.14556900  0.51368800  1
  O  O48  1  0.44277400  0.63629400  0.62478800  1
  O  O49  1  0.56629900  0.61250600  0.22981600  1
  O  O50  1  0.93370100  0.11250600  0.27018400  1
  O  O51  1  0.43370100  0.38749400  0.77018400  1
  O  O52  1  0.38305200  0.35443100  0.01368800  1
  O  O53  1  0.11694800  0.85443100  0.48631200  1
  O  O54  1  0.25000000  0.38575500  0.52644500  1
  O  O55  1  0.11694800  0.35443100  0.01368800  1
  O  O56  1  0.25000000  0.39930200  0.22145800  1
  O  O57  1  0.61694800  0.14556900  0.51368800  1
  O  O58  1  0.75000000  0.85621600  0.35583500  1
  O  O59  1  0.25000000  0.64835400  0.38044100  1
  O  O60  1  0.87536500  0.32794500  0.92566700  1
  O  O61  1  0.75000000  0.10069800  0.72145800  1
  O  O62  1  0.25000000  0.88575500  0.97355500  1
  O  O63  1  0.75000000  0.60069800  0.77854200  1
  O  O64  1  0.75000000  0.35164600  0.61955900  1
  O  O65  1  0.87536500  0.82794500  0.57433300  1
  O  O66  1  0.06629900  0.38749400  0.77018400  1
  O  O67  1  0.12463500  0.67205500  0.07433300  1
  O  O68  1  0.12463500  0.17205500  0.42566700  1
  O  O69  1  0.25000000  0.89930200  0.27854200  1
  O  O70  1  0.06629900  0.88749400  0.72981600  1
  O  O71  1  0.55722600  0.36370600  0.37521200  1
  O  O72  1  0.61694800  0.64556900  0.98631200  1
  O  O73  1  0.94277400  0.36370600  0.37521200  1
  O  O74  1  0.55722600  0.86370600  0.12478800  1
  O  O75  1  0.94277400  0.86370600  0.12478800  1
