# generated using pymatgen
data_Li3Cr3(PO4)4
_symmetry_space_group_name_H-M   'P 1'
_cell_length_a   7.95772600
_cell_length_b   7.57061500
_cell_length_c   10.12537269
_cell_angle_alpha   86.27121445
_cell_angle_beta   90.00000000
_cell_angle_gamma   90.00000000
_symmetry_Int_Tables_number   1
_chemical_formula_structural   Li3Cr3(PO4)4
_chemical_formula_sum   'Li6 Cr6 P8 O32'
_cell_volume   608.71053053
_cell_formula_units_Z   2
loop_
 _symmetry_equiv_pos_site_id
 _symmetry_equiv_pos_as_xyz
  1  'x, y, z'
loop_
 _atom_site_type_symbol
 _atom_site_label
 _atom_site_symmetry_multiplicity
 _atom_site_fract_x
 _atom_site_fract_y
 _atom_site_fract_z
 _atom_site_occupancy
  Li  Li0  1  0.35993200  0.14519400  0.92361600  1
  Li  Li1  1  0.63257100  0.33958000  0.32802700  1
  Li  Li2  1  0.13257100  0.66042000  0.67197300  1
  Li  Li3  1  0.86369700  0.84889200  0.57584500  1
  Li  Li4  1  0.85993200  0.85480600  0.07638400  1
  Li  Li5  1  0.36369700  0.15110800  0.42415500  1
  Cr  Cr6  1  0.64313600  0.35747600  0.82091600  1
  Cr  Cr7  1  0.14313600  0.64252400  0.17908400  1
  Cr  Cr8  1  0.51033900  0.75706900  0.12570200  1
  Cr  Cr9  1  0.49364400  0.76671700  0.62391300  1
  Cr  Cr10  1  0.99364400  0.23328300  0.37608700  1
  Cr  Cr11  1  0.01033900  0.24293100  0.87429800  1
  P  P12  1  0.20008400  0.04843700  0.14370000  1
  P  P13  1  0.70008400  0.95156300  0.85630000  1
  P  P14  1  0.68794000  0.94738600  0.35721900  1
  P  P15  1  0.30251700  0.55600900  0.89045300  1
  P  P16  1  0.31240600  0.55130700  0.39986200  1
  P  P17  1  0.80251700  0.44399100  0.10954700  1
  P  P18  1  0.18794000  0.05261400  0.64278100  1
  P  P19  1  0.81240600  0.44869300  0.60013800  1
  O  O20  1  0.69774300  0.85221400  0.22392800  1
  O  O21  1  0.80118300  0.35774600  0.97052400  1
  O  O22  1  0.43107100  0.39936600  0.40765700  1
  O  O23  1  0.80213400  0.34927100  0.47350200  1
  O  O24  1  0.85128500  0.30755900  0.72194600  1
  O  O25  1  0.85533000  0.30006700  0.21479900  1
  O  O26  1  0.14298400  0.18937500  0.03477000  1
  O  O27  1  0.13665200  0.19706300  0.53223300  1
  O  O28  1  0.19774300  0.14778600  0.77607200  1
  O  O29  1  0.58057400  0.11524200  0.85552800  1
  O  O30  1  0.18916600  0.13028000  0.27893500  1
  O  O31  1  0.56686900  0.09916400  0.34439100  1
  O  O32  1  0.87905700  0.01089600  0.89548200  1
  O  O33  1  0.37905700  0.98910400  0.10451800  1
  O  O34  1  0.37104600  0.99557000  0.60424300  1
  O  O35  1  0.87104600  0.00443000  0.39575700  1
  O  O36  1  0.12975700  0.49283000  0.34604500  1
  O  O37  1  0.68916600  0.86972000  0.72106500  1
  O  O38  1  0.08057400  0.88475800  0.14447200  1
  O  O39  1  0.64298400  0.81062500  0.96523000  1
  O  O40  1  0.06686900  0.90083600  0.65560900  1
  O  O41  1  0.63665200  0.80293700  0.46776700  1
  O  O42  1  0.35533000  0.69993300  0.78520100  1
  O  O43  1  0.30118300  0.64225400  0.02947600  1
  O  O44  1  0.35128500  0.69244100  0.27805400  1
  O  O45  1  0.93184500  0.59619800  0.09614900  1
  O  O46  1  0.30213400  0.65072900  0.52649800  1
  O  O47  1  0.93107100  0.60063400  0.59234300  1
  O  O48  1  0.62975700  0.50717000  0.65395500  1
  O  O49  1  0.12703800  0.48566000  0.85640700  1
  O  O50  1  0.62703800  0.51434000  0.14359300  1
  O  O51  1  0.43184500  0.40380200  0.90385100  1
