# generated using pymatgen
data_Li3FeP2O9
_symmetry_space_group_name_H-M   'P 1'
_cell_length_a   6.87954877
_cell_length_b   7.95272083
_cell_length_c   7.14403182
_cell_angle_alpha   89.79453130
_cell_angle_beta   87.69154957
_cell_angle_gamma   64.47678209
_symmetry_Int_Tables_number   1
_chemical_formula_structural   Li3FeP2O9
_chemical_formula_sum   'Li6 Fe2 P4 O18'
_cell_volume   352.38718216
_cell_formula_units_Z   2
loop_
 _symmetry_equiv_pos_site_id
 _symmetry_equiv_pos_as_xyz
  1  'x, y, z'
loop_
 _atom_site_type_symbol
 _atom_site_label
 _atom_site_symmetry_multiplicity
 _atom_site_fract_x
 _atom_site_fract_y
 _atom_site_fract_z
 _atom_site_occupancy
  Li  Li0  1  0.61922600  0.72860500  0.29926200  1
  Li  Li1  1  0.23620400  0.00041200  0.99649600  1
  Li  Li2  1  0.85745600  0.20610300  0.23746900  1
  Li  Li3  1  0.08663900  0.79452600  0.76773400  1
  Li  Li4  1  0.99835100  0.50503600  0.50001900  1
  Li  Li5  1  0.39872700  0.26922200  0.69706700  1
  Fe  Fe6  1  0.50365000  0.49757500  0.00218800  1
  Fe  Fe7  1  0.00045300  0.50406500  0.99757200  1
  P  P8  1  0.38093900  0.20298100  0.24348400  1
  P  P9  1  0.12294400  0.75398600  0.29096600  1
  P  P10  1  0.61277300  0.79634700  0.75506900  1
  P  P11  1  0.89308200  0.24579200  0.70893000  1
  O  O12  1  0.55031800  0.26138900  0.14612400  1
  O  O13  1  0.81889600  0.74724300  0.87236900  1
  O  O14  1  0.99240300  0.64065600  0.23151400  1
  O  O15  1  0.01073800  0.05849300  0.80251300  1
  O  O16  1  0.04510900  0.94170200  0.19532300  1
  O  O17  1  0.49223200  0.00923800  0.75563300  1
  O  O18  1  0.76392800  0.47330200  0.10063700  1
  O  O19  1  0.36902300  0.63798200  0.23524100  1
  O  O20  1  0.64866900  0.34059000  0.77667800  1
  O  O21  1  0.24263700  0.52694000  0.89867600  1
  O  O22  1  0.45153600  0.73703000  0.86997100  1
  O  O23  1  0.89447500  0.24402100  0.49581400  1
  O  O24  1  0.67825400  0.70128700  0.56354500  1
  O  O25  1  0.48513300  0.99010200  0.24618200  1
  O  O26  1  0.10205900  0.75394300  0.50389300  1
  O  O27  1  0.18276600  0.25673400  0.11427300  1
  O  O28  1  0.30801700  0.29812300  0.43591900  1
  O  O29  1  0.00442900  0.37657400  0.75943800  1
