# generated using pymatgen
data_LiMnP2O7
_symmetry_space_group_name_H-M   'P 1'
_cell_length_a   8.29733100
_cell_length_b   6.89908000
_cell_length_c   9.29260602
_cell_angle_alpha   69.77592710
_cell_angle_beta   90.00000000
_cell_angle_gamma   90.00000000
_symmetry_Int_Tables_number   1
_chemical_formula_structural   LiMnP2O7
_chemical_formula_sum   'Li4 Mn4 P8 O28'
_cell_volume   499.14990218
_cell_formula_units_Z   4
loop_
 _symmetry_equiv_pos_site_id
 _symmetry_equiv_pos_as_xyz
  1  'x, y, z'
loop_
 _atom_site_type_symbol
 _atom_site_label
 _atom_site_symmetry_multiplicity
 _atom_site_fract_x
 _atom_site_fract_y
 _atom_site_fract_z
 _atom_site_occupancy
  Li  Li0  1  0.43239700  0.20572800  0.91816000  1
  Li  Li1  1  0.93239700  0.79427200  0.58184000  1
  Li  Li2  1  0.06760300  0.20572800  0.41816000  1
  Li  Li3  1  0.56760300  0.79427200  0.08184000  1
  Mn  Mn4  1  0.06688600  0.29892300  0.82341200  1
  Mn  Mn5  1  0.56688600  0.70107700  0.67658800  1
  Mn  Mn6  1  0.43311400  0.29892300  0.32341200  1
  Mn  Mn7  1  0.93311400  0.70107700  0.17658800  1
  P  P8  1  0.72376300  0.45919800  0.47232400  1
  P  P9  1  0.22376300  0.54080200  0.02767600  1
  P  P10  1  0.73602200  0.06206700  0.75909000  1
  P  P11  1  0.23602200  0.93793300  0.74091000  1
  P  P12  1  0.27623700  0.54080200  0.52767600  1
  P  P13  1  0.77623700  0.45919800  0.97232400  1
  P  P14  1  0.26397800  0.93793300  0.24091000  1
  P  P15  1  0.76397800  0.06206700  0.25909000  1
  O  O16  1  0.58161500  0.48644200  0.35909800  1
  O  O17  1  0.88509100  0.46160500  0.39376000  1
  O  O18  1  0.77542200  0.62528400  0.04986100  1
  O  O19  1  0.27542200  0.37471600  0.45013900  1
  O  O20  1  0.41838500  0.51355800  0.64090200  1
  O  O21  1  0.11490900  0.53839500  0.60624000  1
  O  O22  1  0.22457800  0.37471600  0.95013900  1
  O  O23  1  0.72457800  0.62528400  0.54986100  1
  O  O24  1  0.61490900  0.46160500  0.89376000  1
  O  O25  1  0.91838500  0.48644200  0.85909800  1
  O  O26  1  0.31454300  0.75721300  0.39885400  1
  O  O27  1  0.75789000  0.86957700  0.20743000  1
  O  O28  1  0.09325000  0.88802000  0.19961900  1
  O  O29  1  0.38797200  0.95683300  0.11995100  1
  O  O30  1  0.18545700  0.75721300  0.89885400  1
  O  O31  1  0.74211000  0.86957700  0.70743000  1
  O  O32  1  0.88797200  0.04316700  0.38004900  1
  O  O33  1  0.40675000  0.88802000  0.69961900  1
  O  O34  1  0.59325000  0.11198000  0.30038100  1
  O  O35  1  0.11202800  0.95683300  0.61995100  1
  O  O36  1  0.25789000  0.13042300  0.29257000  1
  O  O37  1  0.81454300  0.24278700  0.10114600  1
  O  O38  1  0.61202800  0.04316700  0.88004900  1
  O  O39  1  0.90675000  0.11198000  0.80038100  1
  O  O40  1  0.24211000  0.13042300  0.79257000  1
  O  O41  1  0.68545700  0.24278700  0.60114600  1
  O  O42  1  0.08161500  0.51355800  0.14090200  1
  O  O43  1  0.38509100  0.53839500  0.10624000  1
