# generated using pymatgen
data_Li3V2(GeO5)2
_symmetry_space_group_name_H-M   'P 1'
_cell_length_a   6.56067951
_cell_length_b   6.56067951
_cell_length_c   9.28027800
_cell_angle_alpha   90.00000000
_cell_angle_beta   90.00000000
_cell_angle_gamma   90.28119923
_symmetry_Int_Tables_number   1
_chemical_formula_structural   Li3V2(GeO5)2
_chemical_formula_sum   'Li6 V4 Ge4 O20'
_cell_volume   399.44169966
_cell_formula_units_Z   2
loop_
 _symmetry_equiv_pos_site_id
 _symmetry_equiv_pos_as_xyz
  1  'x, y, z'
loop_
 _atom_site_type_symbol
 _atom_site_label
 _atom_site_symmetry_multiplicity
 _atom_site_fract_x
 _atom_site_fract_y
 _atom_site_fract_z
 _atom_site_occupancy
  Li  Li0  1  0.00000000  0.00000000  0.00000000  1
  Li  Li1  1  0.00000000  0.50000000  0.50000000  1
  Li  Li2  1  0.00000000  0.50000000  0.00000000  1
  Li  Li3  1  0.50000000  0.50000000  0.50000000  1
  Li  Li4  1  0.50000000  0.00000000  0.50000000  1
  Li  Li5  1  0.50000000  0.00000000  0.00000000  1
  V  V6  1  0.75827200  0.24172800  0.30280100  1
  V  V7  1  0.74172800  0.25827200  0.80280100  1
  V  V8  1  0.24172800  0.75827200  0.69719900  1
  V  V9  1  0.25827200  0.74172800  0.19719900  1
  Ge  Ge10  1  0.75091000  0.74909000  0.25000000  1
  Ge  Ge11  1  0.74909000  0.75091000  0.75000000  1
  Ge  Ge12  1  0.24909000  0.25091000  0.75000000  1
  Ge  Ge13  1  0.25091000  0.24909000  0.25000000  1
  O  O14  1  0.03346300  0.24772000  0.86445400  1
  O  O15  1  0.26848500  0.73151500  0.37557900  1
  O  O16  1  0.23151500  0.76848500  0.87557900  1
  O  O17  1  0.73882900  0.96564500  0.36385600  1
  O  O18  1  0.24772000  0.03346300  0.13554600  1
  O  O19  1  0.26117100  0.03435500  0.63614400  1
  O  O20  1  0.76848500  0.23151500  0.12442100  1
  O  O21  1  0.73151500  0.26848500  0.62442100  1
  O  O22  1  0.53346300  0.74772000  0.63554600  1
  O  O23  1  0.46653700  0.25228000  0.36445400  1
  O  O24  1  0.03435500  0.26117100  0.36385600  1
  O  O25  1  0.46564500  0.23882900  0.86385600  1
  O  O26  1  0.23882900  0.46564500  0.13614400  1
  O  O27  1  0.25228000  0.46653700  0.63554600  1
  O  O28  1  0.76117100  0.53435500  0.86385600  1
  O  O29  1  0.74772000  0.53346300  0.36445400  1
  O  O30  1  0.96653700  0.75228000  0.13554600  1
  O  O31  1  0.96564500  0.73882900  0.63614400  1
  O  O32  1  0.53435500  0.76117100  0.13614400  1
  O  O33  1  0.75228000  0.96653700  0.86445400  1
