# generated using pymatgen
data_LiNb(PO3)4
_symmetry_space_group_name_H-M   'P 1'
_cell_length_a   8.32177700
_cell_length_b   9.81912100
_cell_length_c   13.14801500
_cell_angle_alpha   90.00000000
_cell_angle_beta   90.00000000
_cell_angle_gamma   90.00000000
_symmetry_Int_Tables_number   1
_chemical_formula_structural   LiNb(PO3)4
_chemical_formula_sum   'Li4 Nb4 P16 O48'
_cell_volume   1074.35763979
_cell_formula_units_Z   4
loop_
 _symmetry_equiv_pos_site_id
 _symmetry_equiv_pos_as_xyz
  1  'x, y, z'
loop_
 _atom_site_type_symbol
 _atom_site_label
 _atom_site_symmetry_multiplicity
 _atom_site_fract_x
 _atom_site_fract_y
 _atom_site_fract_z
 _atom_site_occupancy
  Li  Li0  1  0.00209600  0.25000000  0.00000000  1
  Li  Li1  1  0.99790400  0.75000000  0.00000000  1
  Li  Li2  1  0.49790400  0.75000000  0.50000000  1
  Li  Li3  1  0.50209600  0.25000000  0.50000000  1
  Nb  Nb4  1  0.36944700  0.75000000  0.00000000  1
  Nb  Nb5  1  0.63055300  0.25000000  0.00000000  1
  Nb  Nb6  1  0.13055300  0.25000000  0.50000000  1
  Nb  Nb7  1  0.86944700  0.75000000  0.50000000  1
  P  P8  1  0.82772400  0.50015900  0.86392500  1
  P  P9  1  0.17227600  0.00015900  0.86392500  1
  P  P10  1  0.53178700  0.99311900  0.84500600  1
  P  P11  1  0.46821300  0.49311900  0.84500600  1
  P  P12  1  0.17227600  0.49984100  0.13607500  1
  P  P13  1  0.82772400  0.99984100  0.13607500  1
  P  P14  1  0.46821300  0.00688100  0.15499400  1
  P  P15  1  0.53178700  0.50688100  0.15499400  1
  P  P16  1  0.03178700  0.50688100  0.34500600  1
  P  P17  1  0.96821300  0.00688100  0.34500600  1
  P  P18  1  0.96821300  0.49311900  0.65499400  1
  P  P19  1  0.67227600  0.49984100  0.36392500  1
  P  P20  1  0.32772400  0.50015900  0.63607500  1
  P  P21  1  0.67227600  0.00015900  0.63607500  1
  P  P22  1  0.03178700  0.99311900  0.65499400  1
  P  P23  1  0.32772400  0.99984100  0.36392500  1
  O  O24  1  0.86856700  0.88414500  0.37286200  1
  O  O25  1  0.91039200  0.62442600  0.89968800  1
  O  O26  1  0.53676400  0.87646600  0.91933000  1
  O  O27  1  0.46323600  0.37646600  0.91933000  1
  O  O28  1  0.18309500  0.62384600  0.06695200  1
  O  O29  1  0.81690500  0.12384600  0.06695200  1
  O  O30  1  0.46323600  0.12353400  0.08067000  1
  O  O31  1  0.53676400  0.62353400  0.08067000  1
  O  O32  1  0.08960800  0.37557400  0.10031200  1
  O  O33  1  0.91039200  0.87557400  0.10031200  1
  O  O34  1  0.36856700  0.88414500  0.12713800  1
  O  O35  1  0.63143300  0.38414500  0.12713800  1
  O  O36  1  0.35019400  0.46073500  0.17681600  1
  O  O37  1  0.64980600  0.96073500  0.17681600  1
  O  O38  1  0.09076800  0.56304300  0.23780200  1
  O  O39  1  0.90923200  0.06304300  0.23780200  1
  O  O40  1  0.40923200  0.06304300  0.26219800  1
  O  O41  1  0.59076800  0.56304300  0.26219800  1
  O  O42  1  0.14980600  0.96073500  0.32318400  1
  O  O43  1  0.85019400  0.46073500  0.32318400  1
  O  O44  1  0.13143300  0.38414500  0.37286200  1
  O  O45  1  0.81690500  0.37615400  0.93304800  1
  O  O46  1  0.41039200  0.87557400  0.39968800  1
  O  O47  1  0.58960800  0.37557400  0.39968800  1
  O  O48  1  0.03676400  0.62353400  0.41933000  1
  O  O49  1  0.96323600  0.12353400  0.41933000  1
  O  O50  1  0.31690500  0.12384600  0.43304800  1
  O  O51  1  0.68309500  0.62384600  0.43304800  1
  O  O52  1  0.31690500  0.37615400  0.56695200  1
  O  O53  1  0.68309500  0.87615400  0.56695200  1
  O  O54  1  0.03676400  0.87646600  0.58067000  1
  O  O55  1  0.96323600  0.37646600  0.58067000  1
  O  O56  1  0.41039200  0.62442600  0.60031200  1
  O  O57  1  0.58960800  0.12442600  0.60031200  1
  O  O58  1  0.13143300  0.11585500  0.62713800  1
  O  O59  1  0.86856700  0.61585500  0.62713800  1
  O  O60  1  0.14980600  0.53926500  0.67681600  1
  O  O61  1  0.85019400  0.03926500  0.67681600  1
  O  O62  1  0.40923200  0.43695700  0.73780200  1
  O  O63  1  0.59076800  0.93695700  0.73780200  1
  O  O64  1  0.09076800  0.93695700  0.76219800  1
  O  O65  1  0.90923200  0.43695700  0.76219800  1
  O  O66  1  0.35019400  0.03926500  0.82318400  1
  O  O67  1  0.64980600  0.53926500  0.82318400  1
  O  O68  1  0.36856700  0.61585500  0.87286200  1
  O  O69  1  0.63143300  0.11585500  0.87286200  1
  O  O70  1  0.08960800  0.12442600  0.89968800  1
  O  O71  1  0.18309500  0.87615400  0.93304800  1
