# generated using pymatgen
data_Li8GeO6
_symmetry_space_group_name_H-M   'P 1'
_cell_length_a   5.56608524
_cell_length_b   5.56608524
_cell_length_c   10.85079100
_cell_angle_alpha   90.00000000
_cell_angle_beta   90.00000000
_cell_angle_gamma   119.99999099
_symmetry_Int_Tables_number   1
_chemical_formula_structural   Li8GeO6
_chemical_formula_sum   'Li16 Ge2 O12'
_cell_volume   291.13322799
_cell_formula_units_Z   2
loop_
 _symmetry_equiv_pos_site_id
 _symmetry_equiv_pos_as_xyz
  1  'x, y, z'
loop_
 _atom_site_type_symbol
 _atom_site_label
 _atom_site_symmetry_multiplicity
 _atom_site_fract_x
 _atom_site_fract_y
 _atom_site_fract_z
 _atom_site_occupancy
  Li  Li0  1  0.00000000  0.31131600  0.27013300  1
  Li  Li1  1  0.68868400  0.00000000  0.77013300  1
  Li  Li2  1  0.33333300  0.66666700  0.41061600  1
  Li  Li3  1  0.66666700  0.33333300  0.91061600  1
  Li  Li4  1  0.33333300  0.66666700  0.91061600  1
  Li  Li5  1  0.66666700  0.33333300  0.41061600  1
  Li  Li6  1  0.39783200  0.00000000  0.63024800  1
  Li  Li7  1  0.39783200  0.39783200  0.13024800  1
  Li  Li8  1  0.00000000  0.60216800  0.13024800  1
  Li  Li9  1  0.00000000  0.39783200  0.63024800  1
  Li  Li10  1  0.60216800  0.60216800  0.63024800  1
  Li  Li11  1  0.60216800  0.00000000  0.13024800  1
  Li  Li12  1  0.31131600  0.00000000  0.27013300  1
  Li  Li13  1  0.68868400  0.68868400  0.27013300  1
  Li  Li14  1  0.00000000  0.68868400  0.77013300  1
  Li  Li15  1  0.31131600  0.31131600  0.77013300  1
  Ge  Ge16  1  0.00000000  0.00000000  0.49964500  1
  Ge  Ge17  1  0.00000000  0.00000000  0.99964500  1
  O  O18  1  0.00000000  0.30495600  0.45255800  1
  O  O19  1  0.69504400  0.69504400  0.45255800  1
  O  O20  1  0.00000000  0.00000000  0.16712400  1
  O  O21  1  0.00000000  0.00000000  0.66712400  1
  O  O22  1  0.33333300  0.66666700  0.21904100  1
  O  O23  1  0.66666700  0.33333300  0.71904100  1
  O  O24  1  0.33333300  0.66666700  0.71904100  1
  O  O25  1  0.69504400  0.00000000  0.95255800  1
  O  O26  1  0.30495600  0.00000000  0.45255800  1
  O  O27  1  0.30495600  0.30495600  0.95255800  1
  O  O28  1  0.00000000  0.69504400  0.95255800  1
  O  O29  1  0.66666700  0.33333300  0.21904100  1
