# generated using pymatgen
data_Li7Cr4P9O32
_symmetry_space_group_name_H-M   'P 1'
_cell_length_a   13.80638400
_cell_length_b   13.80638400
_cell_length_c   6.35558000
_cell_angle_alpha   90.00000000
_cell_angle_beta   90.00000000
_cell_angle_gamma   90.00000000
_symmetry_Int_Tables_number   1
_chemical_formula_structural   Li7Cr4P9O32
_chemical_formula_sum   'Li14 Cr8 P18 O64'
_cell_volume   1211.47675725
_cell_formula_units_Z   2
loop_
 _symmetry_equiv_pos_site_id
 _symmetry_equiv_pos_as_xyz
  1  'x, y, z'
loop_
 _atom_site_type_symbol
 _atom_site_label
 _atom_site_symmetry_multiplicity
 _atom_site_fract_x
 _atom_site_fract_y
 _atom_site_fract_z
 _atom_site_occupancy
  Li  Li0  1  0.00000000  0.00000000  0.00000000  1
  Li  Li1  1  0.25513200  0.89574200  0.82477500  1
  Li  Li2  1  0.39574200  0.75513200  0.32477500  1
  Li  Li3  1  0.89574200  0.74486800  0.17522500  1
  Li  Li4  1  0.75513200  0.60425800  0.67522500  1
  Li  Li5  1  0.50000000  0.50000000  0.50000000  1
  Li  Li6  1  0.00000000  0.50000000  0.86032200  1
  Li  Li7  1  0.00000000  0.50000000  0.36032200  1
  Li  Li8  1  0.24486800  0.39574200  0.67522500  1
  Li  Li9  1  0.50000000  0.00000000  0.13967800  1
  Li  Li10  1  0.50000000  0.00000000  0.63967800  1
  Li  Li11  1  0.74486800  0.10425800  0.82477500  1
  Li  Li12  1  0.60425800  0.24486800  0.32477500  1
  Li  Li13  1  0.10425800  0.25513200  0.17522500  1
  Cr  Cr14  1  0.80345900  0.87876300  0.62029600  1
  Cr  Cr15  1  0.12123700  0.80345900  0.37970400  1
  Cr  Cr16  1  0.62123700  0.69654100  0.12029600  1
  Cr  Cr17  1  0.30345900  0.62123700  0.87970400  1
  Cr  Cr18  1  0.69654100  0.37876300  0.87970400  1
  Cr  Cr19  1  0.37876300  0.30345900  0.12029600  1
  Cr  Cr20  1  0.87876300  0.19654100  0.37970400  1
  Cr  Cr21  1  0.19654100  0.12123700  0.62029600  1
  P  P22  1  0.50000000  0.50000000  0.00000000  1
  P  P23  1  0.80602800  0.55967900  0.11426100  1
  P  P24  1  0.25229700  0.60836100  0.36894000  1
  P  P25  1  0.94032100  0.69397200  0.61426100  1
  P  P26  1  0.60836100  0.74770300  0.63106000  1
  P  P27  1  0.10836100  0.75229700  0.86894000  1
  P  P28  1  0.44032100  0.80602800  0.88573900  1
  P  P29  1  0.75229700  0.89163900  0.13106000  1
  P  P30  1  0.00000000  0.00000000  0.50000000  1
  P  P31  1  0.69397200  0.05967900  0.38573900  1
  P  P32  1  0.24770300  0.10836100  0.13106000  1
  P  P33  1  0.55967900  0.19397200  0.88573900  1
  P  P34  1  0.89163900  0.24770300  0.86894000  1
  P  P35  1  0.39163900  0.25229700  0.63106000  1
  P  P36  1  0.05967900  0.30602800  0.61426100  1
  P  P37  1  0.74770300  0.39163900  0.36894000  1
  P  P38  1  0.19397200  0.44032100  0.11426100  1
  P  P39  1  0.30602800  0.94032100  0.38573900  1
  O  O40  1  0.43676900  0.56249600  0.84923000  1
  O  O41  1  0.81263100  0.89256500  0.93116200  1
  O  O42  1  0.44178100  0.91555900  0.89267700  1
  O  O43  1  0.41555900  0.94178100  0.39267700  1
  O  O44  1  0.93676900  0.93750400  0.65077000  1
  O  O45  1  0.06249600  0.93676900  0.34923000  1
  O  O46  1  0.25478500  0.98701600  0.57584400  1
  O  O47  1  0.27239700  0.99504000  0.16980500  1
  O  O48  1  0.72760300  0.00496000  0.16980500  1
  O  O49  1  0.74521500  0.01298400  0.57584400  1
  O  O50  1  0.93750400  0.06323100  0.34923000  1
  O  O51  1  0.06323100  0.06249600  0.65077000  1
  O  O52  1  0.58444100  0.05821900  0.39267700  1
  O  O53  1  0.55821900  0.08444100  0.89267700  1
  O  O54  1  0.18736900  0.10743500  0.93116200  1
  O  O55  1  0.18059500  0.14121800  0.31033700  1
  O  O56  1  0.33828700  0.15634200  0.62013200  1
  O  O57  1  0.34365800  0.16171300  0.12013200  1
  O  O58  1  0.73288400  0.16345100  0.35242200  1
  O  O59  1  0.85878200  0.18059500  0.68966300  1
  O  O60  1  0.89256500  0.18736900  0.06883800  1
  O  O61  1  0.50496000  0.22760300  0.66980500  1
  O  O62  1  0.66345100  0.23288400  0.85242200  1
  O  O63  1  0.51298400  0.24521500  0.07584400  1
  O  O64  1  0.01298400  0.25478500  0.42415600  1
  O  O65  1  0.16345100  0.26711600  0.64757800  1
  O  O66  1  0.00496000  0.27239700  0.83019500  1
  O  O67  1  0.39256500  0.31263100  0.43116200  1
  O  O68  1  0.35878200  0.31940500  0.81033700  1
  O  O69  1  0.23288400  0.33654900  0.14757800  1
  O  O70  1  0.84365800  0.33828700  0.37986800  1
  O  O71  1  0.83828700  0.34365800  0.87986800  1
  O  O72  1  0.68059500  0.35878200  0.18966300  1
  O  O73  1  0.68736900  0.39256500  0.56883800  1
  O  O74  1  0.05821900  0.41555900  0.60732300  1
  O  O75  1  0.08444100  0.44178100  0.10732300  1
  O  O76  1  0.56323100  0.43750400  0.84923000  1
  O  O77  1  0.43750400  0.43676900  0.15077000  1
  O  O78  1  0.24521500  0.48701600  0.92415600  1
  O  O79  1  0.22760300  0.49504000  0.33019500  1
  O  O80  1  0.77239700  0.50496000  0.33019500  1
  O  O81  1  0.75478500  0.51298400  0.92415600  1
  O  O82  1  0.56249600  0.56323100  0.15077000  1
  O  O83  1  0.81940500  0.85878200  0.31033700  1
  O  O84  1  0.91555900  0.55821900  0.10732300  1
  O  O85  1  0.94178100  0.58444100  0.60732300  1
  O  O86  1  0.31263100  0.60743500  0.56883800  1
  O  O87  1  0.31940500  0.64121800  0.18966300  1
  O  O88  1  0.16171300  0.65634200  0.87986800  1
  O  O89  1  0.15634200  0.66171300  0.37986800  1
  O  O90  1  0.76711600  0.66345100  0.14757800  1
  O  O91  1  0.64121800  0.68059500  0.81033700  1
  O  O92  1  0.60743500  0.68736900  0.43116200  1
  O  O93  1  0.99504000  0.72760300  0.83019500  1
  O  O94  1  0.83654900  0.73288400  0.64757800  1
  O  O95  1  0.98701600  0.74521500  0.42415600  1
  O  O96  1  0.66171300  0.84365800  0.62013200  1
  O  O97  1  0.33654900  0.76711600  0.85242200  1
  O  O98  1  0.49504000  0.77239700  0.66980500  1
  O  O99  1  0.10743500  0.81263100  0.06883800  1
  O  O100  1  0.14121800  0.81940500  0.68966300  1
  O  O101  1  0.26711600  0.83654900  0.35242200  1
  O  O102  1  0.65634200  0.83828700  0.12013200  1
  O  O103  1  0.48701600  0.75478500  0.07584400  1
