# generated using pymatgen
data_Li3Mo2(PO4)3
_symmetry_space_group_name_H-M   'P 1'
_cell_length_a   8.94618800
_cell_length_b   8.96234800
_cell_length_c   15.40031597
_cell_angle_alpha   54.54295933
_cell_angle_beta   90.00000000
_cell_angle_gamma   90.00000000
_symmetry_Int_Tables_number   1
_chemical_formula_structural   Li3Mo2(PO4)3
_chemical_formula_sum   'Li12 Mo8 P12 O48'
_cell_volume   1005.79059647
_cell_formula_units_Z   4
loop_
 _symmetry_equiv_pos_site_id
 _symmetry_equiv_pos_as_xyz
  1  'x, y, z'
loop_
 _atom_site_type_symbol
 _atom_site_label
 _atom_site_symmetry_multiplicity
 _atom_site_fract_x
 _atom_site_fract_y
 _atom_site_fract_z
 _atom_site_occupancy
  Li  Li0  1  0.29622800  0.69119200  0.24378900  1
  Li  Li1  1  0.90221000  0.60680700  0.30677200  1
  Li  Li2  1  0.23119500  0.97347000  0.82201200  1
  Li  Li3  1  0.73119500  0.02653000  0.67798800  1
  Li  Li4  1  0.40221000  0.39319300  0.19322800  1
  Li  Li5  1  0.79622800  0.30880800  0.25621100  1
  Li  Li6  1  0.20377200  0.69119200  0.74378900  1
  Li  Li7  1  0.59779000  0.60680700  0.80677200  1
  Li  Li8  1  0.26880500  0.97347000  0.32201200  1
  Li  Li9  1  0.76880500  0.02653000  0.17798800  1
  Li  Li10  1  0.09779000  0.39319300  0.69322800  1
  Li  Li11  1  0.70377200  0.30880800  0.75621100  1
  Mo  Mo12  1  0.54677900  0.86256000  0.88852900  1
  Mo  Mo13  1  0.96024500  0.63627600  0.11178100  1
  Mo  Mo14  1  0.46024500  0.36372400  0.38821900  1
  Mo  Mo15  1  0.04677900  0.13744000  0.61147100  1
  Mo  Mo16  1  0.95322100  0.86256000  0.38852900  1
  Mo  Mo17  1  0.53975500  0.63627600  0.61178100  1
  Mo  Mo18  1  0.03975500  0.36372400  0.88821900  1
  Mo  Mo19  1  0.45322100  0.13744000  0.11147100  1
  P  P20  1  0.75195300  0.44927400  0.50881500  1
  P  P21  1  0.60876000  0.74640600  0.15140900  1
  P  P22  1  0.90342600  0.04881600  0.84893100  1
  P  P23  1  0.40342600  0.95118400  0.65106900  1
  P  P24  1  0.10876000  0.25359400  0.34859100  1
  P  P25  1  0.25195300  0.55072600  0.99118500  1
  P  P26  1  0.74804700  0.44927400  0.00881500  1
  P  P27  1  0.89124000  0.74640600  0.65140900  1
  P  P28  1  0.59657400  0.04881600  0.34893100  1
  P  P29  1  0.09657400  0.95118400  0.15106900  1
  P  P30  1  0.39124000  0.25359400  0.84859100  1
  P  P31  1  0.24804700  0.55072600  0.49118500  1
  O  O32  1  0.13608800  0.39522100  0.56717200  1
  O  O33  1  0.30578800  0.53151600  0.40292400  1
  O  O34  1  0.41041400  0.10230100  0.82963000  1
  O  O35  1  0.10954400  0.77141300  0.15726100  1
  O  O36  1  0.62906300  0.45918900  0.43723700  1
  O  O37  1  0.76902800  0.66637100  0.19081300  1
  O  O38  1  0.94133200  0.88094500  0.95808300  1
  O  O39  1  0.58941300  0.82053600  0.03506800  1
  O  O40  1  0.74787200  0.03314000  0.80796900  1
  O  O41  1  0.02941600  0.08502300  0.76824800  1
  O  O42  1  0.83026400  0.25964600  0.56759900  1
  O  O43  1  0.48543900  0.59563100  0.21911300  1
  O  O44  1  0.98543900  0.40436900  0.28088700  1
  O  O45  1  0.33026400  0.74035400  0.93240100  1
  O  O46  1  0.52941600  0.91497700  0.73175200  1
  O  O47  1  0.24787200  0.96686000  0.69203100  1
  O  O48  1  0.44133200  0.11905500  0.54191700  1
  O  O49  1  0.08941300  0.17946400  0.46493200  1
  O  O50  1  0.26902800  0.33362900  0.30918700  1
  O  O51  1  0.12906300  0.54081100  0.06276300  1
  O  O52  1  0.91041400  0.89769900  0.67037000  1
  O  O53  1  0.60954400  0.22858700  0.34273900  1
  O  O54  1  0.80578800  0.46848400  0.09707600  1
  O  O55  1  0.63608800  0.60477900  0.93282800  1
  O  O56  1  0.36391200  0.39522100  0.06717200  1
  O  O57  1  0.19421200  0.53151600  0.90292400  1
  O  O58  1  0.39045600  0.77141300  0.65726100  1
  O  O59  1  0.08958600  0.10230100  0.32963000  1
  O  O60  1  0.87093700  0.45918900  0.93723700  1
  O  O61  1  0.73097200  0.66637100  0.69081300  1
  O  O62  1  0.91058700  0.82053600  0.53506800  1
  O  O63  1  0.55866800  0.88094500  0.45808300  1
  O  O64  1  0.75212800  0.03314000  0.30796900  1
  O  O65  1  0.47058400  0.08502300  0.26824800  1
  O  O66  1  0.66973600  0.25964600  0.06759900  1
  O  O67  1  0.01456100  0.59563100  0.71911300  1
  O  O68  1  0.51456100  0.40436900  0.78088700  1
  O  O69  1  0.16973600  0.74035400  0.43240100  1
  O  O70  1  0.97058400  0.91497700  0.23175200  1
  O  O71  1  0.25212800  0.96686000  0.19203100  1
  O  O72  1  0.41058700  0.17946400  0.96493200  1
  O  O73  1  0.05866800  0.11905500  0.04191700  1
  O  O74  1  0.23097200  0.33362900  0.80918700  1
  O  O75  1  0.37093700  0.54081100  0.56276300  1
  O  O76  1  0.89045600  0.22858700  0.84273900  1
  O  O77  1  0.58958600  0.89769900  0.17037000  1
  O  O78  1  0.69421200  0.46848400  0.59707600  1
  O  O79  1  0.86391200  0.60477900  0.43282800  1
