# generated using pymatgen
data_LiCoPO4
_symmetry_space_group_name_H-M   'P 1'
_cell_length_a   10.19590300
_cell_length_b   5.06609600
_cell_length_c   8.45410709
_cell_angle_alpha   53.60196031
_cell_angle_beta   90.00000000
_cell_angle_gamma   90.00000000
_symmetry_Int_Tables_number   1
_chemical_formula_structural   LiCoPO4
_chemical_formula_sum   'Li4 Co4 P4 O16'
_cell_volume   351.49276519
_cell_formula_units_Z   4
loop_
 _symmetry_equiv_pos_site_id
 _symmetry_equiv_pos_as_xyz
  1  'x, y, z'
loop_
 _atom_site_type_symbol
 _atom_site_label
 _atom_site_symmetry_multiplicity
 _atom_site_fract_x
 _atom_site_fract_y
 _atom_site_fract_z
 _atom_site_occupancy
  Li  Li0  1  0.34495000  0.70545000  0.49261900  1
  Li  Li1  1  0.65505000  0.29455000  0.50738100  1
  Li  Li2  1  0.15505000  0.70545000  0.99261900  1
  Li  Li3  1  0.84495000  0.29455000  0.00738100  1
  Co  Co4  1  0.84391400  0.79478400  0.50897200  1
  Co  Co5  1  0.34391400  0.20521600  0.99102800  1
  Co  Co6  1  0.15608600  0.20521600  0.49102800  1
  Co  Co7  1  0.65608600  0.79478400  0.00897200  1
  P  P8  1  0.59543900  0.55098900  0.75490400  1
  P  P9  1  0.09543900  0.44901100  0.74509600  1
  P  P10  1  0.40456100  0.44901100  0.24509600  1
  P  P11  1  0.90456100  0.55098900  0.25490400  1
  O  O12  1  0.84322500  0.24194800  0.44445800  1
  O  O13  1  0.65677500  0.24194800  0.94445800  1
  O  O14  1  0.66153400  0.61704900  0.56884100  1
  O  O15  1  0.33846600  0.38295100  0.43115900  1
  O  O16  1  0.16153400  0.38295100  0.93115900  1
  O  O17  1  0.94611800  0.49935400  0.75399500  1
  O  O18  1  0.55388200  0.49935400  0.25399500  1
  O  O19  1  0.44611800  0.50064600  0.74600500  1
  O  O20  1  0.87826700  0.84977800  0.25880200  1
  O  O21  1  0.15677500  0.75805200  0.55554200  1
  O  O22  1  0.62173300  0.84977800  0.75880200  1
  O  O23  1  0.83846600  0.61704900  0.06884100  1
  O  O24  1  0.37826700  0.15022200  0.24119800  1
  O  O25  1  0.34322500  0.75805200  0.05554200  1
  O  O26  1  0.12173300  0.15022200  0.74119800  1
  O  O27  1  0.05388200  0.50064600  0.24600500  1
