# generated using pymatgen
data_LiMn2(PO4)3
_symmetry_space_group_name_H-M   'P 1'
_cell_length_a   8.49202800
_cell_length_b   8.22592200
_cell_length_c   11.70736746
_cell_angle_alpha   89.96285948
_cell_angle_beta   90.00000000
_cell_angle_gamma   90.00000000
_symmetry_Int_Tables_number   1
_chemical_formula_structural   LiMn2(PO4)3
_chemical_formula_sum   'Li4 Mn8 P12 O48'
_cell_volume   817.81517172
_cell_formula_units_Z   4
loop_
 _symmetry_equiv_pos_site_id
 _symmetry_equiv_pos_as_xyz
  1  'x, y, z'
loop_
 _atom_site_type_symbol
 _atom_site_label
 _atom_site_symmetry_multiplicity
 _atom_site_fract_x
 _atom_site_fract_y
 _atom_site_fract_z
 _atom_site_occupancy
  Li  Li0  1  0.96053900  0.31784000  0.67996100  1
  Li  Li1  1  0.64840100  0.42660500  0.19658400  1
  Li  Li2  1  0.03946100  0.81784000  0.17996100  1
  Li  Li3  1  0.35159900  0.92660500  0.69658400  1
  Mn  Mn4  1  0.22094000  0.25357500  0.11286800  1
  Mn  Mn5  1  0.72272900  0.24494900  0.39160900  1
  Mn  Mn6  1  0.28346000  0.25375900  0.61421600  1
  Mn  Mn7  1  0.77672600  0.24838100  0.88510600  1
  Mn  Mn8  1  0.71654000  0.75375900  0.11421600  1
  Mn  Mn9  1  0.22327400  0.74838100  0.38510600  1
  Mn  Mn10  1  0.77906000  0.75357500  0.61286800  1
  Mn  Mn11  1  0.27727100  0.74494900  0.89160900  1
  P  P12  1  0.50274000  0.96450700  0.48940300  1
  P  P13  1  0.63703400  0.89009000  0.85203500  1
  P  P14  1  0.36684500  0.89020800  0.14347900  1
  P  P15  1  0.13386200  0.61133200  0.64542300  1
  P  P16  1  0.86170900  0.61359900  0.35779200  1
  P  P17  1  0.99942700  0.53203600  0.00678200  1
  P  P18  1  0.49726000  0.46450700  0.98940300  1
  P  P19  1  0.63315500  0.39020800  0.64347900  1
  P  P20  1  0.00057300  0.03203600  0.50678200  1
  P  P21  1  0.86613800  0.11133200  0.14542300  1
  P  P22  1  0.36296600  0.39009000  0.35203500  1
  P  P23  1  0.13829100  0.11359900  0.85779200  1
  O  O24  1  0.69425600  0.27357300  0.54801000  1
  O  O25  1  0.92308100  0.93423500  0.60543700  1
  O  O26  1  0.12682900  0.93787800  0.44107400  1
  O  O27  1  0.83092900  0.93110000  0.17905000  1
  O  O28  1  0.61246000  0.90184500  0.58544000  1
  O  O29  1  0.53271300  0.83720200  0.18116400  1
  O  O30  1  0.67807300  0.85708200  0.97764500  1
  O  O31  1  0.24896200  0.86354800  0.24331100  1
  O  O32  1  0.36459400  0.06973400  0.10761700  1
  O  O33  1  0.57871300  0.06615200  0.39381800  1
  O  O34  1  0.37681900  0.05915700  0.56036900  1
  O  O35  1  0.67699100  0.06748900  0.82010600  1
  O  O36  1  0.88448600  0.09575900  0.41520600  1
  O  O37  1  0.04809400  0.11748500  0.15760100  1
  O  O38  1  0.81766500  0.14030500  0.02126300  1
  O  O39  1  0.25012800  0.12904100  0.75270800  1
  O  O40  1  0.97310900  0.17144900  0.81701100  1
  O  O41  1  0.07578300  0.18397400  0.56470800  1
  O  O42  1  0.77107900  0.22777900  0.22358900  1
  O  O43  1  0.19404400  0.22816700  0.95376300  1
  O  O44  1  0.26938100  0.27444200  0.27372300  1
  O  O45  1  0.13718300  0.93272000  0.89339600  1
  O  O46  1  0.57695700  0.31569000  0.93464900  1
  O  O47  1  0.46728700  0.33720200  0.68116400  1
  O  O48  1  0.32192700  0.35708200  0.47764500  1
  O  O49  1  0.54604200  0.37562900  0.33803500  1
  O  O50  1  0.75103800  0.36354800  0.74331100  1
  O  O51  1  0.38754000  0.40184500  0.08544000  1
  O  O52  1  0.07691900  0.43423500  0.10543700  1
  O  O53  1  0.86281700  0.43272000  0.39339600  1
  O  O54  1  0.16907100  0.43110000  0.67905000  1
  O  O55  1  0.87317100  0.43787800  0.94107400  1
  O  O56  1  0.62318100  0.55915700  0.06036900  1
  O  O57  1  0.32300900  0.56748900  0.32010600  1
  O  O58  1  0.63540600  0.56973400  0.60761700  1
  O  O59  1  0.42128700  0.56615200  0.89381800  1
  O  O60  1  0.11551400  0.59575900  0.91520600  1
  O  O61  1  0.74987200  0.62904100  0.25270800  1
  O  O62  1  0.95190600  0.61748500  0.65760100  1
  O  O63  1  0.18233500  0.64030500  0.52126300  1
  O  O64  1  0.02689100  0.67144900  0.31701100  1
  O  O65  1  0.92421700  0.68397400  0.06470800  1
  O  O66  1  0.80595600  0.72816700  0.45376300  1
  O  O67  1  0.22892100  0.72777900  0.72358900  1
  O  O68  1  0.30574400  0.77357300  0.04801000  1
  O  O69  1  0.73061900  0.77444200  0.77372300  1
  O  O70  1  0.42304300  0.81569000  0.43464900  1
  O  O71  1  0.45395800  0.87562900  0.83803500  1
