# generated using pymatgen
data_LiCr(PO3)4
_symmetry_space_group_name_H-M   'P 1'
_cell_length_a   6.94165880
_cell_length_b   6.94165880
_cell_length_c   9.54001153
_cell_angle_alpha   88.85870239
_cell_angle_beta   88.85870239
_cell_angle_gamma   109.26074893
_symmetry_Int_Tables_number   1
_chemical_formula_structural   LiCr(PO3)4
_chemical_formula_sum   'Li2 Cr2 P8 O24'
_cell_volume   433.71320881
_cell_formula_units_Z   2
loop_
 _symmetry_equiv_pos_site_id
 _symmetry_equiv_pos_as_xyz
  1  'x, y, z'
loop_
 _atom_site_type_symbol
 _atom_site_label
 _atom_site_symmetry_multiplicity
 _atom_site_fract_x
 _atom_site_fract_y
 _atom_site_fract_z
 _atom_site_occupancy
  Li  Li0  1  0.16662800  0.83337200  0.25000000  1
  Li  Li1  1  0.83337200  0.16662800  0.75000000  1
  Cr  Cr2  1  0.11320700  0.88679300  0.75000000  1
  Cr  Cr3  1  0.88679300  0.11320700  0.25000000  1
  P  P4  1  0.37676300  0.73105600  0.96355000  1
  P  P5  1  0.26894400  0.62323700  0.53645000  1
  P  P6  1  0.80235800  0.72250000  0.02609000  1
  P  P7  1  0.73105600  0.37676300  0.46355000  1
  P  P8  1  0.62323700  0.26894400  0.03645000  1
  P  P9  1  0.19764200  0.27750000  0.97391000  1
  P  P10  1  0.27750000  0.19764200  0.47391000  1
  P  P11  1  0.72250000  0.80235800  0.52609000  1
  O  O12  1  0.50055700  0.69477400  0.59589100  1
  O  O13  1  0.71038200  0.26760800  0.89495500  1
  O  O14  1  0.28961800  0.73239200  0.10504500  1
  O  O15  1  0.89857800  0.85953000  0.14615100  1
  O  O16  1  0.87343300  0.35322400  0.34747100  1
  O  O17  1  0.05872900  0.28665000  0.09487500  1
  O  O18  1  0.73239200  0.28961800  0.60504500  1
  O  O19  1  0.69477400  0.50055700  0.09589100  1
  O  O20  1  0.49944300  0.30522600  0.40410900  1
  O  O21  1  0.21337200  0.37778900  0.53854500  1
  O  O22  1  0.71335000  0.94127100  0.40512500  1
  O  O23  1  0.64677600  0.12656700  0.15252900  1
  O  O24  1  0.10142200  0.14047000  0.85384900  1
  O  O25  1  0.35322400  0.87343300  0.84747100  1
  O  O26  1  0.85953000  0.89857800  0.64615100  1
  O  O27  1  0.78662800  0.62221100  0.46145500  1
  O  O28  1  0.28665000  0.05872900  0.59487500  1
  O  O29  1  0.14047000  0.10142200  0.35384900  1
  O  O30  1  0.30522600  0.49944300  0.90410900  1
  O  O31  1  0.26760800  0.71038200  0.39495500  1
  O  O32  1  0.37778900  0.21337200  0.03854500  1
  O  O33  1  0.94127100  0.71335000  0.90512500  1
  O  O34  1  0.12656700  0.64677600  0.65252900  1
  O  O35  1  0.62221100  0.78662800  0.96145500  1
