# generated using pymatgen
data_LiMoPO5
_symmetry_space_group_name_H-M   'P 1'
_cell_length_a   6.65441800
_cell_length_b   7.48074000
_cell_length_c   7.53868200
_cell_angle_alpha   90.00000000
_cell_angle_beta   90.00000000
_cell_angle_gamma   90.00000000
_symmetry_Int_Tables_number   1
_chemical_formula_structural   LiMoPO5
_chemical_formula_sum   'Li4 Mo4 P4 O20'
_cell_volume   375.27537065
_cell_formula_units_Z   4
loop_
 _symmetry_equiv_pos_site_id
 _symmetry_equiv_pos_as_xyz
  1  'x, y, z'
loop_
 _atom_site_type_symbol
 _atom_site_label
 _atom_site_symmetry_multiplicity
 _atom_site_fract_x
 _atom_site_fract_y
 _atom_site_fract_z
 _atom_site_occupancy
  Li  Li0  1  0.50000000  0.00000000  0.00000000  1
  Li  Li1  1  0.00000000  0.00000000  0.00000000  1
  Li  Li2  1  0.00000000  0.50000000  0.50000000  1
  Li  Li3  1  0.50000000  0.50000000  0.50000000  1
  Mo  Mo4  1  0.75000000  0.35677500  0.22919900  1
  Mo  Mo5  1  0.25000000  0.14322500  0.72919900  1
  Mo  Mo6  1  0.25000000  0.64322500  0.77080100  1
  Mo  Mo7  1  0.75000000  0.85677500  0.27080100  1
  P  P8  1  0.75000000  0.12733100  0.63358500  1
  P  P9  1  0.75000000  0.62733100  0.86641500  1
  P  P10  1  0.25000000  0.37266900  0.13358500  1
  P  P11  1  0.25000000  0.87266900  0.36641500  1
  O  O12  1  0.56445700  0.63181600  0.74178700  1
  O  O13  1  0.25000000  0.20311900  0.01258200  1
  O  O14  1  0.25000000  0.89827900  0.82552800  1
  O  O15  1  0.93554300  0.13181600  0.75821300  1
  O  O16  1  0.43554300  0.86818400  0.24178700  1
  O  O17  1  0.75000000  0.60172100  0.32552800  1
  O  O18  1  0.25000000  0.54694700  0.02514800  1
  O  O19  1  0.25000000  0.70311900  0.48741800  1
  O  O20  1  0.93554300  0.63181600  0.74178700  1
  O  O21  1  0.75000000  0.29688100  0.51258200  1
  O  O22  1  0.06445700  0.86818400  0.24178700  1
  O  O23  1  0.56445700  0.13181600  0.75821300  1
  O  O24  1  0.43554300  0.36818400  0.25821300  1
  O  O25  1  0.25000000  0.04694700  0.47485200  1
  O  O26  1  0.75000000  0.10172100  0.17447200  1
  O  O27  1  0.75000000  0.45305300  0.97485200  1
  O  O28  1  0.75000000  0.95305300  0.52514800  1
  O  O29  1  0.75000000  0.79688100  0.98741800  1
  O  O30  1  0.25000000  0.39827900  0.67447200  1
  O  O31  1  0.06445700  0.36818400  0.25821300  1
