# generated using pymatgen
data_Li2CrPCO7
_symmetry_space_group_name_H-M   'P 1'
_cell_length_a   8.12669471
_cell_length_b   8.12668510
_cell_length_c   9.57588332
_cell_angle_alpha   73.17313545
_cell_angle_beta   73.17305854
_cell_angle_gamma   103.66166994
_symmetry_Int_Tables_number   1
_chemical_formula_structural   Li2CrPCO7
_chemical_formula_sum   'Li8 Cr4 P4 C4 O28'
_cell_volume   542.93675993
_cell_formula_units_Z   4
loop_
 _symmetry_equiv_pos_site_id
 _symmetry_equiv_pos_as_xyz
  1  'x, y, z'
loop_
 _atom_site_type_symbol
 _atom_site_label
 _atom_site_symmetry_multiplicity
 _atom_site_fract_x
 _atom_site_fract_y
 _atom_site_fract_z
 _atom_site_occupancy
  Li  Li0  1  0.72626400  0.72480800  0.77414700  1
  Li  Li1  1  0.22626500  0.22480800  0.77414700  1
  Li  Li2  1  0.77373500  0.77519100  0.22585400  1
  Li  Li3  1  0.27373400  0.27519100  0.22585400  1
  Li  Li4  1  0.52519200  0.02373500  0.22585300  1
  Li  Li5  1  0.02519100  0.52373400  0.22585400  1
  Li  Li6  1  0.97480700  0.47626300  0.77414800  1
  Li  Li7  1  0.47480900  0.97626500  0.77414600  1
  Cr  Cr8  1  0.30785000  0.55784900  0.34361000  1
  Cr  Cr9  1  0.19215000  0.94215000  0.65639100  1
  Cr  Cr10  1  0.80785400  0.05785600  0.34362400  1
  Cr  Cr11  1  0.69214300  0.44214200  0.65637700  1
  P  P12  1  0.05412300  0.80412300  0.41930000  1
  P  P13  1  0.55412300  0.30412400  0.41930000  1
  P  P14  1  0.44587700  0.69587800  0.58070000  1
  P  P15  1  0.94587700  0.19587700  0.58070000  1
  C  C16  1  0.48223700  0.73223700  0.05851500  1
  C  C17  1  0.98223700  0.23223700  0.05851500  1
  C  C18  1  0.01776400  0.76776400  0.94148500  1
  C  C19  1  0.51776400  0.26776400  0.94148500  1
  O  O20  1  0.33431200  0.58431200  0.11958800  1
  O  O21  1  0.83431300  0.08431500  0.11958400  1
  O  O22  1  0.16568800  0.91568900  0.88041200  1
  O  O23  1  0.66568800  0.41568600  0.88041600  1
  O  O24  1  0.97199200  0.72199200  0.83212700  1
  O  O25  1  0.47199100  0.22199100  0.83212900  1
  O  O26  1  0.52800800  0.77800800  0.16787200  1
  O  O27  1  0.02800900  0.27800900  0.16787100  1
  O  O28  1  0.58492600  0.83492600  0.41284700  1
  O  O29  1  0.08492800  0.33492900  0.41284600  1
  O  O30  1  0.91507400  0.66507400  0.58715300  1
  O  O31  1  0.41507200  0.16507200  0.58715400  1
  O  O32  1  0.19816500  0.94816300  0.44182800  1
  O  O33  1  0.69816400  0.44816300  0.44182700  1
  O  O34  1  0.30183500  0.55183800  0.55817200  1
  O  O35  1  0.80183600  0.05183800  0.55817300  1
  O  O36  1  0.07078200  0.32078200  0.91235400  1
  O  O37  1  0.57078300  0.82078300  0.91235300  1
  O  O38  1  0.42921900  0.17921900  0.08764600  1
  O  O39  1  0.92921800  0.67921800  0.08764700  1
  O  O40  1  0.54547300  0.60354000  0.67623600  1
  O  O41  1  0.04547400  0.10354000  0.67623500  1
  O  O42  1  0.35353900  0.79547400  0.67623500  1
  O  O43  1  0.85353900  0.29547200  0.67623700  1
  O  O44  1  0.14646200  0.70452600  0.32376500  1
  O  O45  1  0.64646200  0.20452800  0.32376300  1
  O  O46  1  0.95452700  0.89646200  0.32376400  1
  O  O47  1  0.45452600  0.39646100  0.32376500  1
