# generated using pymatgen
data_Li3Cr2(PO4)3
_symmetry_space_group_name_H-M   'P 1'
_cell_length_a   8.72764900
_cell_length_b   8.67199700
_cell_length_c   14.97904774
_cell_angle_alpha   54.57332446
_cell_angle_beta   90.00000000
_cell_angle_gamma   90.00000000
_symmetry_Int_Tables_number   1
_chemical_formula_structural   Li3Cr2(PO4)3
_chemical_formula_sum   'Li12 Cr8 P12 O48'
_cell_volume   923.80973312
_cell_formula_units_Z   4
loop_
 _symmetry_equiv_pos_site_id
 _symmetry_equiv_pos_as_xyz
  1  'x, y, z'
loop_
 _atom_site_type_symbol
 _atom_site_label
 _atom_site_symmetry_multiplicity
 _atom_site_fract_x
 _atom_site_fract_y
 _atom_site_fract_z
 _atom_site_occupancy
  Li  Li0  1  0.92853400  0.34171400  0.71277700  1
  Li  Li1  1  0.26868500  0.37884100  0.81426000  1
  Li  Li2  1  0.22788200  0.04468000  0.18094300  1
  Li  Li3  1  0.72788200  0.95532000  0.31905700  1
  Li  Li4  1  0.76868500  0.62115900  0.68574000  1
  Li  Li5  1  0.42853400  0.65828600  0.78722300  1
  Li  Li6  1  0.57146600  0.34171400  0.21277700  1
  Li  Li7  1  0.23131500  0.37884100  0.31426000  1
  Li  Li8  1  0.27211800  0.04468000  0.68094300  1
  Li  Li9  1  0.77211800  0.95532000  0.81905700  1
  Li  Li10  1  0.73131500  0.62115900  0.18574000  1
  Li  Li11  1  0.07146600  0.65828600  0.28722300  1
  Cr  Cr12  1  0.46263000  0.63197800  0.61110200  1
  Cr  Cr13  1  0.54088500  0.13396700  0.11307100  1
  Cr  Cr14  1  0.04088500  0.86603300  0.38692900  1
  Cr  Cr15  1  0.96263000  0.36802200  0.88889800  1
  Cr  Cr16  1  0.03737000  0.63197800  0.11110200  1
  Cr  Cr17  1  0.95911500  0.13396700  0.61307100  1
  Cr  Cr18  1  0.45911500  0.86603300  0.88692900  1
  Cr  Cr19  1  0.53737000  0.36802200  0.38889800  1
  P  P20  1  0.75169400  0.54124600  0.50186300  1
  P  P21  1  0.89983000  0.96320200  0.14560700  1
  P  P22  1  0.60757200  0.25162400  0.85344100  1
  P  P23  1  0.39983000  0.03679800  0.35439300  1
  P  P24  1  0.10757200  0.74837600  0.64655900  1
  P  P25  1  0.25169400  0.45875400  0.99813700  1
  P  P26  1  0.74830600  0.54124600  0.00186300  1
  P  P27  1  0.89242800  0.25162400  0.35344100  1
  P  P28  1  0.60017000  0.96320200  0.64560700  1
  P  P29  1  0.39242800  0.74837600  0.14655900  1
  P  P30  1  0.10017000  0.03679800  0.85439300  1
  P  P31  1  0.24830600  0.45875400  0.49813700  1
  O  O32  1  0.14079500  0.62824600  0.42130700  1
  O  O33  1  0.35424700  0.48569200  0.56896400  1
  O  O34  1  0.39936400  0.91085500  0.16117800  1
  O  O35  1  0.09126000  0.23222000  0.83807600  1
  O  O36  1  0.84316300  0.72574600  0.42127800  1
  O  O37  1  0.57543300  0.18406700  0.97031300  1
  O  O38  1  0.66646400  0.57284100  0.58147000  1
  O  O39  1  0.94468700  0.12648200  0.03139600  1
  O  O40  1  0.73724900  0.98111400  0.17913200  1
  O  O41  1  0.77198600  0.34121500  0.81606000  1
  O  O42  1  0.02231300  0.94003200  0.22936800  1
  O  O43  1  0.48614800  0.40868300  0.77787500  1
  O  O44  1  0.98614800  0.59131700  0.72212500  1
  O  O45  1  0.52231300  0.05996800  0.27063200  1
  O  O46  1  0.27198600  0.65878500  0.68394000  1
  O  O47  1  0.23724900  0.01888600  0.32086800  1
  O  O48  1  0.44468700  0.87351800  0.46860400  1
  O  O49  1  0.16646400  0.42715900  0.91853000  1
  O  O50  1  0.07543300  0.81593300  0.52968700  1
  O  O51  1  0.34316300  0.27425400  0.07872200  1
  O  O52  1  0.89936400  0.08914500  0.33882200  1
  O  O53  1  0.59126000  0.76778000  0.66192400  1
  O  O54  1  0.64079500  0.37175400  0.07869300  1
  O  O55  1  0.85424700  0.51430800  0.93103600  1
  O  O56  1  0.14575300  0.48569200  0.06896400  1
  O  O57  1  0.35920500  0.62824600  0.92130700  1
  O  O58  1  0.40874000  0.23222000  0.33807600  1
  O  O59  1  0.10063600  0.91085500  0.66117800  1
  O  O60  1  0.65683700  0.72574600  0.92127800  1
  O  O61  1  0.92456700  0.18406700  0.47031300  1
  O  O62  1  0.83353600  0.57284100  0.08147000  1
  O  O63  1  0.55531300  0.12648200  0.53139600  1
  O  O64  1  0.76275100  0.98111400  0.67913200  1
  O  O65  1  0.72801400  0.34121500  0.31606000  1
  O  O66  1  0.47768700  0.94003200  0.72936800  1
  O  O67  1  0.01385200  0.40868300  0.27787500  1
  O  O68  1  0.51385200  0.59131700  0.22212500  1
  O  O69  1  0.97768700  0.05996800  0.77063200  1
  O  O70  1  0.22801400  0.65878500  0.18394000  1
  O  O71  1  0.26275100  0.01888600  0.82086800  1
  O  O72  1  0.05531300  0.87351800  0.96860400  1
  O  O73  1  0.33353600  0.42715900  0.41853000  1
  O  O74  1  0.42456700  0.81593300  0.02968700  1
  O  O75  1  0.15683700  0.27425400  0.57872200  1
  O  O76  1  0.90874000  0.76778000  0.16192400  1
  O  O77  1  0.60063600  0.08914500  0.83882200  1
  O  O78  1  0.64575300  0.51430800  0.43103600  1
  O  O79  1  0.85920500  0.37175400  0.57869300  1
