# generated using pymatgen
data_Li2Sn(PO3)4
_symmetry_space_group_name_H-M   'P 1'
_cell_length_a   10.45630500
_cell_length_b   9.60680800
_cell_length_c   9.80413560
_cell_angle_alpha   89.14147811
_cell_angle_beta   90.00000000
_cell_angle_gamma   90.00000000
_symmetry_Int_Tables_number   1
_chemical_formula_structural   Li2Sn(PO3)4
_chemical_formula_sum   'Li8 Sn4 P16 O48'
_cell_volume   984.73167329
_cell_formula_units_Z   4
loop_
 _symmetry_equiv_pos_site_id
 _symmetry_equiv_pos_as_xyz
  1  'x, y, z'
loop_
 _atom_site_type_symbol
 _atom_site_label
 _atom_site_symmetry_multiplicity
 _atom_site_fract_x
 _atom_site_fract_y
 _atom_site_fract_z
 _atom_site_occupancy
  Li  Li0  1  0.17535800  0.11390900  0.00781800  1
  Li  Li1  1  0.18296500  0.38741800  0.00409900  1
  Li  Li2  1  0.32464200  0.11390900  0.50781800  1
  Li  Li3  1  0.68296500  0.61258200  0.49590100  1
  Li  Li4  1  0.31703500  0.38741800  0.50409900  1
  Li  Li5  1  0.67535800  0.88609100  0.49218200  1
  Li  Li6  1  0.81703500  0.61258200  0.99590100  1
  Li  Li7  1  0.82464200  0.88609100  0.99218200  1
  Sn  Sn8  1  0.20207900  0.74709000  0.02587200  1
  Sn  Sn9  1  0.70207900  0.25291000  0.47412800  1
  Sn  Sn10  1  0.29792100  0.74709000  0.52587200  1
  Sn  Sn11  1  0.79792100  0.25291000  0.97412800  1
  P  P12  1  0.61011400  0.03718300  0.19904500  1
  P  P13  1  0.40769700  0.26824500  0.19654300  1
  P  P14  1  0.60222600  0.49652200  0.19825100  1
  P  P15  1  0.47825500  0.76698500  0.24576400  1
  P  P16  1  0.97825500  0.23301500  0.25423600  1
  P  P17  1  0.10222600  0.50347800  0.30174900  1
  P  P18  1  0.90769700  0.73175500  0.30345700  1
  P  P19  1  0.11011400  0.96281700  0.30095500  1
  P  P20  1  0.88988600  0.03718300  0.69904500  1
  P  P21  1  0.09230300  0.26824500  0.69654300  1
  P  P22  1  0.89777400  0.49652200  0.69825100  1
  P  P23  1  0.02174500  0.76698500  0.74576400  1
  P  P24  1  0.52174500  0.23301500  0.75423600  1
  P  P25  1  0.39777400  0.50347800  0.80174900  1
  P  P26  1  0.59230300  0.73175500  0.80345700  1
  P  P27  1  0.38988600  0.96281700  0.80095500  1
  O  O28  1  0.29845700  0.24866500  0.10006000  1
  O  O29  1  0.72180800  0.03063300  0.10265100  1
  O  O30  1  0.70580500  0.46577200  0.09678700  1
  O  O31  1  0.01582700  0.22931500  0.10624700  1
  O  O32  1  0.52535100  0.16767400  0.14844200  1
  O  O33  1  0.12625300  0.52562700  0.15088600  1
  O  O34  1  0.47135400  0.41783200  0.15688600  1
  O  O35  1  0.13254000  0.95575000  0.14904600  1
  O  O36  1  0.88594500  0.74415000  0.15250700  1
  O  O37  1  0.56509600  0.65650200  0.16588800  1
  O  O38  1  0.51683100  0.90821400  0.16610700  1
  O  O39  1  0.34006100  0.73977900  0.21334800  1
  O  O40  1  0.84006100  0.26022100  0.28665200  1
  O  O41  1  0.01683100  0.09178600  0.33389300  1
  O  O42  1  0.06509600  0.34349800  0.33411200  1
  O  O43  1  0.38594500  0.25585000  0.34749300  1
  O  O44  1  0.63254000  0.04425000  0.35095400  1
  O  O45  1  0.97135400  0.58216800  0.34311400  1
  O  O46  1  0.62625300  0.47437300  0.34911400  1
  O  O47  1  0.02535100  0.83232600  0.35155800  1
  O  O48  1  0.51582700  0.77068500  0.39375300  1
  O  O49  1  0.20580500  0.53422800  0.40321300  1
  O  O50  1  0.22180800  0.96936700  0.39734900  1
  O  O51  1  0.79845700  0.75133500  0.39994000  1
  O  O52  1  0.20154300  0.24866500  0.60006000  1
  O  O53  1  0.77819200  0.03063300  0.60265100  1
  O  O54  1  0.79419500  0.46577200  0.59678700  1
  O  O55  1  0.48417300  0.22931500  0.60624700  1
  O  O56  1  0.97464900  0.16767400  0.64844200  1
  O  O57  1  0.37374700  0.52562700  0.65088600  1
  O  O58  1  0.02864600  0.41783200  0.65688600  1
  O  O59  1  0.36746000  0.95575000  0.64904600  1
  O  O60  1  0.61405500  0.74415000  0.65250700  1
  O  O61  1  0.93490400  0.65650200  0.66588800  1
  O  O62  1  0.98316900  0.90821400  0.66610700  1
  O  O63  1  0.15993900  0.73977900  0.71334800  1
  O  O64  1  0.65993900  0.26022100  0.78665200  1
  O  O65  1  0.48316900  0.09178600  0.83389300  1
  O  O66  1  0.43490400  0.34349800  0.83411200  1
  O  O67  1  0.11405500  0.25585000  0.84749300  1
  O  O68  1  0.86746000  0.04425000  0.85095400  1
  O  O69  1  0.52864600  0.58216800  0.84311400  1
  O  O70  1  0.87374700  0.47437300  0.84911400  1
  O  O71  1  0.47464900  0.83232600  0.85155800  1
  O  O72  1  0.98417300  0.77068500  0.89375300  1
  O  O73  1  0.29419500  0.53422800  0.90321300  1
  O  O74  1  0.27819200  0.96936700  0.89734900  1
  O  O75  1  0.70154300  0.75133500  0.89994000  1
