# generated using pymatgen
data_LiNiPO4
_symmetry_space_group_name_H-M   'P 1'
_cell_length_a   7.39177531
_cell_length_b   7.39177531
_cell_length_c   9.46528600
_cell_angle_alpha   90.00000000
_cell_angle_beta   90.00000000
_cell_angle_gamma   119.99999384
_symmetry_Int_Tables_number   1
_chemical_formula_structural   LiNiPO4
_chemical_formula_sum   'Li6 Ni6 P6 O24'
_cell_volume   447.88025201
_cell_formula_units_Z   6
loop_
 _symmetry_equiv_pos_site_id
 _symmetry_equiv_pos_as_xyz
  1  'x, y, z'
loop_
 _atom_site_type_symbol
 _atom_site_label
 _atom_site_symmetry_multiplicity
 _atom_site_fract_x
 _atom_site_fract_y
 _atom_site_fract_z
 _atom_site_occupancy
  Li  Li0  1  0.20875800  0.94993300  0.25113600  1
  Li  Li1  1  0.05006700  0.25882500  0.25113600  1
  Li  Li2  1  0.25882500  0.05006700  0.75113600  1
  Li  Li3  1  0.74117500  0.79124200  0.25113600  1
  Li  Li4  1  0.79124200  0.74117500  0.75113600  1
  Li  Li5  1  0.94993300  0.20875800  0.75113600  1
  Ni  Ni6  1  0.06248800  0.59230900  0.47554400  1
  Ni  Ni7  1  0.52982000  0.93751200  0.47554400  1
  Ni  Ni8  1  0.40769100  0.47018000  0.47554400  1
  Ni  Ni9  1  0.47018000  0.40769100  0.97554400  1
  Ni  Ni10  1  0.59230900  0.06248800  0.97554400  1
  Ni  Ni11  1  0.93751200  0.52982000  0.97554400  1
  P  P12  1  0.00000000  0.00000000  0.00077000  1
  P  P13  1  0.66666700  0.33333300  0.67177400  1
  P  P14  1  0.66666700  0.33333300  0.27632500  1
  P  P15  1  0.33333300  0.66666700  0.77632500  1
  P  P16  1  0.00000000  0.00000000  0.50077000  1
  P  P17  1  0.33333300  0.66666700  0.17177400  1
  O  O18  1  0.87480100  0.10193900  0.94153700  1
  O  O19  1  0.88880900  0.39404000  0.32467400  1
  O  O20  1  0.70780800  0.15807600  0.62320700  1
  O  O21  1  0.84192400  0.54973100  0.62320700  1
  O  O22  1  0.89806100  0.77286200  0.94153700  1
  O  O23  1  0.66666700  0.33333300  0.84248900  1
  O  O24  1  0.00000000  0.00000000  0.16323700  1
  O  O25  1  0.00000000  0.00000000  0.66323700  1
  O  O26  1  0.10193900  0.87480100  0.44153700  1
  O  O27  1  0.15807600  0.70780800  0.12320700  1
  O  O28  1  0.11119100  0.50523100  0.82467400  1
  O  O29  1  0.39404000  0.88880900  0.82467400  1
  O  O30  1  0.33333300  0.66666700  0.34248900  1
  O  O31  1  0.33333300  0.66666700  0.60701100  1
  O  O32  1  0.12519900  0.22713800  0.44153700  1
  O  O33  1  0.29219200  0.45026900  0.12320700  1
  O  O34  1  0.54973100  0.84192400  0.12320700  1
  O  O35  1  0.22713800  0.12519900  0.94153700  1
  O  O36  1  0.49476900  0.60596000  0.82467400  1
  O  O37  1  0.45026900  0.29219200  0.62320700  1
  O  O38  1  0.77286200  0.89806100  0.44153700  1
  O  O39  1  0.60596000  0.49476900  0.32467400  1
  O  O40  1  0.50523100  0.11119100  0.32467400  1
  O  O41  1  0.66666700  0.33333300  0.10701100  1
