# generated using pymatgen
data_LiFe(PO3)4
_symmetry_space_group_name_H-M   'P 1'
_cell_length_a   13.71821500
_cell_length_b   5.24260400
_cell_length_c   7.35350992
_cell_angle_alpha   81.84171430
_cell_angle_beta   90.00000000
_cell_angle_gamma   90.00000000
_symmetry_Int_Tables_number   1
_chemical_formula_structural   LiFe(PO3)4
_chemical_formula_sum   'Li2 Fe2 P8 O24'
_cell_volume   523.50617457
_cell_formula_units_Z   2
loop_
 _symmetry_equiv_pos_site_id
 _symmetry_equiv_pos_as_xyz
  1  'x, y, z'
loop_
 _atom_site_type_symbol
 _atom_site_label
 _atom_site_symmetry_multiplicity
 _atom_site_fract_x
 _atom_site_fract_y
 _atom_site_fract_z
 _atom_site_occupancy
  Li  Li0  1  0.50783900  0.36218100  0.11379200  1
  Li  Li1  1  0.00783900  0.63781900  0.88620800  1
  Fe  Fe2  1  0.23499500  0.50671600  0.49600900  1
  Fe  Fe3  1  0.73499500  0.49328400  0.50399100  1
  P  P4  1  0.17582200  0.85648100  0.10390100  1
  P  P5  1  0.59706600  0.97794200  0.55633200  1
  P  P6  1  0.87471300  0.00678300  0.44612400  1
  P  P7  1  0.09706600  0.02205800  0.44366800  1
  P  P8  1  0.67582200  0.14351900  0.89609900  1
  P  P9  1  0.37471300  0.99321700  0.55387600  1
  P  P10  1  0.81934200  0.78037300  0.11578500  1
  P  P11  1  0.31934200  0.21962700  0.88421500  1
  O  O12  1  0.21715900  0.62698100  0.22778000  1
  O  O13  1  0.36095800  0.99586900  0.76981000  1
  O  O14  1  0.86095800  0.00413100  0.23019000  1
  O  O15  1  0.26630700  0.04697900  0.05209700  1
  O  O16  1  0.10937800  0.02713900  0.22622500  1
  O  O17  1  0.48691800  0.07424600  0.51688700  1
  O  O18  1  0.61766300  0.18497700  0.05904400  1
  O  O19  1  0.65760900  0.19031100  0.45209600  1
  O  O20  1  0.31810900  0.20953100  0.44346600  1
  O  O21  1  0.86022900  0.27574200  0.48951000  1
  O  O22  1  0.10850100  0.29061800  0.48939800  1
  O  O23  1  0.71715900  0.37301900  0.77222000  1
  O  O24  1  0.24469700  0.37645900  0.76504400  1
  O  O25  1  0.40184900  0.35241600  0.96132900  1
  O  O26  1  0.60937800  0.97286100  0.77377500  1
  O  O27  1  0.74469700  0.62354100  0.23495600  1
  O  O28  1  0.90184900  0.64758400  0.03867100  1
  O  O29  1  0.60850100  0.70938200  0.51060200  1
  O  O30  1  0.36022900  0.72425800  0.51049000  1
  O  O31  1  0.81810900  0.79046900  0.55653400  1
  O  O32  1  0.15760900  0.80968900  0.54790400  1
  O  O33  1  0.11766300  0.81502300  0.94095600  1
  O  O34  1  0.98691800  0.92575400  0.48311300  1
  O  O35  1  0.76630700  0.95302100  0.94790300  1
