# generated using pymatgen
data_Li3Ni2(PO4)3
_symmetry_space_group_name_H-M   'P 1'
_cell_length_a   4.89819374
_cell_length_b   4.89819374
_cell_length_c   18.80911127
_cell_angle_alpha   89.89801273
_cell_angle_beta   89.89801273
_cell_angle_gamma   65.81006760
_symmetry_Int_Tables_number   1
_chemical_formula_structural   Li3Ni2(PO4)3
_chemical_formula_sum   'Li6 Ni4 P6 O24'
_cell_volume   411.64755368
_cell_formula_units_Z   2
loop_
 _symmetry_equiv_pos_site_id
 _symmetry_equiv_pos_as_xyz
  1  'x, y, z'
loop_
 _atom_site_type_symbol
 _atom_site_label
 _atom_site_symmetry_multiplicity
 _atom_site_fract_x
 _atom_site_fract_y
 _atom_site_fract_z
 _atom_site_occupancy
  Li  Li0  1  0.32769800  0.32769800  0.41631500  1
  Li  Li1  1  0.32886400  0.32886400  0.74816300  1
  Li  Li2  1  0.67230200  0.67230200  0.58368500  1
  Li  Li3  1  0.99965100  0.99965100  0.33359300  1
  Li  Li4  1  0.00034900  0.00034900  0.66640700  1
  Li  Li5  1  0.67113600  0.67113600  0.25183700  1
  Ni  Ni6  1  0.00060800  0.00060800  0.16576300  1
  Ni  Ni7  1  0.00000000  0.00000000  0.00000000  1
  Ni  Ni8  1  0.99939200  0.99939200  0.83423700  1
  Ni  Ni9  1  0.00000000  0.00000000  0.50000000  1
  P  P10  1  0.64382000  0.64382000  0.41888700  1
  P  P11  1  0.64530900  0.64530900  0.08359200  1
  P  P12  1  0.35469100  0.35469100  0.91640800  1
  P  P13  1  0.35618000  0.35618000  0.58111300  1
  P  P14  1  0.35478300  0.35478300  0.24790800  1
  P  P15  1  0.64521700  0.64521700  0.75209200  1
  O  O16  1  0.74885400  0.74885400  0.15279100  1
  O  O17  1  0.25638000  0.25638000  0.31813100  1
  O  O18  1  0.75389000  0.75389000  0.01631100  1
  O  O19  1  0.29666400  0.76747700  0.75355300  1
  O  O20  1  0.74538000  0.74538000  0.34970800  1
  O  O21  1  0.23524300  0.70477400  0.58011400  1
  O  O22  1  0.24528100  0.24528100  0.51498600  1
  O  O23  1  0.70477400  0.23524300  0.58011400  1
  O  O24  1  0.75471900  0.75471900  0.48501400  1
  O  O25  1  0.76747700  0.29666400  0.75355300  1
  O  O26  1  0.74362000  0.74362000  0.68186900  1
  O  O27  1  0.22406600  0.70335000  0.91704100  1
  O  O28  1  0.24611000  0.24611000  0.98368900  1
  O  O29  1  0.76475700  0.29522600  0.41988600  1
  O  O30  1  0.25462000  0.25462000  0.65029200  1
  O  O31  1  0.77593400  0.29665000  0.08295900  1
  O  O32  1  0.75772400  0.75772400  0.81730700  1
  O  O33  1  0.24227600  0.24227600  0.18269300  1
  O  O34  1  0.29665000  0.77593400  0.08295900  1
  O  O35  1  0.70335000  0.22406600  0.91704100  1
  O  O36  1  0.25114600  0.25114600  0.84720900  1
  O  O37  1  0.70333600  0.23252300  0.24644700  1
  O  O38  1  0.29522600  0.76475700  0.41988600  1
  O  O39  1  0.23252300  0.70333600  0.24644700  1
