# generated using pymatgen
data_Li(MoO3)3
_symmetry_space_group_name_H-M   'P 1'
_cell_length_a   7.58790600
_cell_length_b   13.38914785
_cell_length_c   16.01815194
_cell_angle_alpha   72.72581413
_cell_angle_beta   83.32738736
_cell_angle_gamma   74.09930358
_symmetry_Int_Tables_number   1
_chemical_formula_structural   Li(MoO3)3
_chemical_formula_sum   'Li8 Mo24 O72'
_cell_volume   1493.43645007
_cell_formula_units_Z   8
loop_
 _symmetry_equiv_pos_site_id
 _symmetry_equiv_pos_as_xyz
  1  'x, y, z'
loop_
 _atom_site_type_symbol
 _atom_site_label
 _atom_site_symmetry_multiplicity
 _atom_site_fract_x
 _atom_site_fract_y
 _atom_site_fract_z
 _atom_site_occupancy
  Li  Li0  1  0.21553300  0.02213200  0.59262100  1
  Li  Li1  1  0.78446700  0.97786800  0.40737900  1
  Li  Li2  1  0.30468100  0.55224300  0.13537500  1
  Li  Li3  1  0.69531900  0.44775700  0.86462500  1
  Li  Li4  1  0.32610500  0.14314000  0.86801200  1
  Li  Li5  1  0.67389500  0.85686000  0.13198800  1
  Li  Li6  1  0.84577600  0.76057700  0.59809800  1
  Li  Li7  1  0.15422400  0.23942300  0.40190200  1
  Mo  Mo8  1  0.18464300  0.42173500  0.89559600  1
  Mo  Mo9  1  0.81535700  0.57826500  0.10440400  1
  Mo  Mo10  1  0.33920200  0.64012000  0.88432100  1
  Mo  Mo11  1  0.66079800  0.35988000  0.11567900  1
  Mo  Mo12  1  0.83238300  0.14924400  0.89567000  1
  Mo  Mo13  1  0.16761700  0.85075600  0.10433000  1
  Mo  Mo14  1  0.67887100  0.94025800  0.88114800  1
  Mo  Mo15  1  0.32112900  0.05974200  0.11885200  1
  Mo  Mo16  1  0.80718700  0.05536300  0.16333100  1
  Mo  Mo17  1  0.19281300  0.94463700  0.83666900  1
  Mo  Mo18  1  0.16716000  0.33405400  0.16196200  1
  Mo  Mo19  1  0.83284000  0.66594600  0.83803800  1
  Mo  Mo20  1  0.35628900  0.23791800  0.60157200  1
  Mo  Mo21  1  0.64371100  0.76208200  0.39842800  1
  Mo  Mo22  1  0.70665600  0.03998000  0.59813600  1
  Mo  Mo23  1  0.29334400  0.96002000  0.40186400  1
  Mo  Mo24  1  0.86534600  0.24533700  0.59397300  1
  Mo  Mo25  1  0.13465400  0.75466300  0.40602700  1
  Mo  Mo26  1  0.70558900  0.53616400  0.60317800  1
  Mo  Mo27  1  0.29441100  0.46383600  0.39682200  1
  Mo  Mo28  1  0.35542500  0.73457900  0.59825400  1
  Mo  Mo29  1  0.64457500  0.26542100  0.40174600  1
  Mo  Mo30  1  0.19985800  0.53049400  0.59601400  1
  Mo  Mo31  1  0.80014200  0.46950600  0.40398600  1
  O  O32  1  0.61028300  0.61616100  0.85513500  1
  O  O33  1  0.38971700  0.38383900  0.14486500  1
  O  O34  1  0.94990000  0.49409500  0.85921300  1
  O  O35  1  0.05010000  0.50590500  0.14078700  1
  O  O36  1  0.71819500  0.79986300  0.85157800  1
  O  O37  1  0.28180500  0.20013700  0.14842200  1
  O  O38  1  0.82513900  0.60915900  0.98915900  1
  O  O39  1  0.17486100  0.39084100  0.01084100  1
  O  O40  1  0.19530100  0.48019600  0.70720700  1
  O  O41  1  0.80469900  0.51980400  0.29279300  1
  O  O42  1  0.37222100  0.49431600  0.85951100  1
  O  O43  1  0.62777900  0.50568400  0.14048900  1
  O  O44  1  0.34071500  0.70427500  0.71070700  1
  O  O45  1  0.65928500  0.29572500  0.28929300  1
  O  O46  1  0.30538000  0.80051500  0.85284800  1
  O  O47  1  0.69462000  0.19948500  0.14715200  1
  O  O48  1  0.82619800  0.10089600  0.01084800  1
  O  O49  1  0.17380200  0.89910400  0.98915200  1
  O  O50  1  0.84327500  0.22170100  0.70464300  1
  O  O51  1  0.15672500  0.77829900  0.29535700  1
  O  O52  1  0.58877100  0.01626100  0.14575700  1
  O  O53  1  0.41122900  0.98373900  0.85424300  1
  O  O54  1  0.05267600  0.06836400  0.14292300  1
  O  O55  1  0.94732400  0.93163600  0.85707700  1
  O  O56  1  0.80554700  0.01068500  0.27729400  1
  O  O57  1  0.19445300  0.98931500  0.72270600  1
  O  O58  1  0.92824300  0.89746500  0.14300900  1
  O  O59  1  0.07175700  0.10253500  0.85699100  1
  O  O60  1  0.77073100  0.28978600  0.86823300  1
  O  O61  1  0.22926900  0.71021400  0.13176700  1
  O  O62  1  0.35065800  0.89741600  0.14042200  1
  O  O63  1  0.64934200  0.10258400  0.85957800  1
  O  O64  1  0.70212300  0.99663000  0.71174300  1
  O  O65  1  0.29787700  0.00337000  0.28825700  1
  O  O66  1  0.33281200  0.10152800  0.00674400  1
  O  O67  1  0.66718800  0.89847200  0.99325600  1
  O  O68  1  0.85170600  0.69660200  0.72388400  1
  O  O69  1  0.14829400  0.30339800  0.27611600  1
  O  O70  1  0.92482300  0.33474300  0.14128100  1
  O  O71  1  0.07517700  0.66525700  0.85871900  1
  O  O72  1  0.74932000  0.70025800  0.13141200  1
  O  O73  1  0.25068000  0.29974200  0.86858800  1
  O  O74  1  0.33412400  0.60460200  0.99625200  1
  O  O75  1  0.66587600  0.39539800  0.00374800  1
  O  O76  1  0.04090200  0.44808000  0.42734300  1
  O  O77  1  0.95909800  0.55192000  0.57265700  1
  O  O78  1  0.56310100  0.42894800  0.41422800  1
  O  O79  1  0.43689900  0.57105200  0.58577200  1
  O  O80  1  0.22939800  0.59979000  0.44006300  1
  O  O81  1  0.77060200  0.40021000  0.55993700  1
  O  O82  1  0.29958900  0.40582400  0.55705700  1
  O  O83  1  0.70041100  0.59417600  0.44294300  1
  O  O84  1  0.86351700  0.29893800  0.42984700  1
  O  O85  1  0.13648300  0.70106200  0.57015300  1
  O  O86  1  0.44174600  0.09005200  0.58439500  1
  O  O87  1  0.55825400  0.90994800  0.41560500  1
  O  O88  1  0.62218200  0.70277600  0.57277600  1
  O  O89  1  0.37781800  0.29722400  0.42722400  1
  O  O90  1  0.62362300  0.22763800  0.56586500  1
  O  O91  1  0.37637700  0.77236200  0.43413500  1
  O  O92  1  0.29536400  0.87896700  0.55966300  1
  O  O93  1  0.70463600  0.12103300  0.44033700  1
  O  O94  1  0.33937800  0.21854100  0.71169700  1
  O  O95  1  0.66062200  0.78145900  0.28830300  1
  O  O96  1  0.11053100  0.24197900  0.56688100  1
  O  O97  1  0.88946900  0.75802100  0.43311900  1
  O  O98  1  0.92507500  0.09507400  0.58135400  1
  O  O99  1  0.07492500  0.90492600  0.41864600  1
  O  O100  1  0.77410600  0.92146200  0.56346600  1
  O  O101  1  0.22589400  0.07853800  0.43653400  1
  O  O102  1  0.28721800  0.51501700  0.28599000  1
  O  O103  1  0.71278200  0.48498300  0.71401000  1
