# generated using pymatgen
data_Li2V(PO4)2
_symmetry_space_group_name_H-M   'P 1'
_cell_length_a   4.83652802
_cell_length_b   15.01653717
_cell_length_c   7.96212220
_cell_angle_alpha   98.42447936
_cell_angle_beta   102.02641408
_cell_angle_gamma   85.98452107
_symmetry_Int_Tables_number   1
_chemical_formula_structural   Li2V(PO4)2
_chemical_formula_sum   'Li8 V4 P8 O32'
_cell_volume   559.01094193
_cell_formula_units_Z   4
loop_
 _symmetry_equiv_pos_site_id
 _symmetry_equiv_pos_as_xyz
  1  'x, y, z'
loop_
 _atom_site_type_symbol
 _atom_site_label
 _atom_site_symmetry_multiplicity
 _atom_site_fract_x
 _atom_site_fract_y
 _atom_site_fract_z
 _atom_site_occupancy
  Li  Li0  1  0.42058600  0.24088200  0.04381300  1
  Li  Li1  1  0.67088100  0.49081200  0.79393500  1
  Li  Li2  1  0.92064400  0.74086900  0.54382700  1
  Li  Li3  1  0.17086500  0.99080400  0.29391700  1
  Li  Li4  1  0.63669800  0.13178400  0.39095800  1
  Li  Li5  1  0.88687000  0.38182200  0.14107100  1
  Li  Li6  1  0.13689100  0.63177700  0.89106100  1
  Li  Li7  1  0.38686800  0.88180600  0.64110700  1
  V  V8  1  0.25513500  0.74914000  0.24229700  1
  V  V9  1  0.50510000  0.99921900  0.99254300  1
  V  V10  1  0.75505200  0.24914500  0.74224300  1
  V  V11  1  0.00491700  0.49928300  0.49229500  1
  P  P12  1  0.50938000  0.35552700  0.41254100  1
  P  P13  1  0.75948800  0.60549900  0.16259600  1
  P  P14  1  0.00954800  0.85552400  0.91253500  1
  P  P15  1  0.25955000  0.10548800  0.66256900  1
  P  P16  1  0.98606600  0.14305900  0.08639000  1
  P  P17  1  0.23608600  0.39300600  0.83634900  1
  P  P18  1  0.48600300  0.64303800  0.58634100  1
  P  P19  1  0.73609200  0.89306500  0.33640900  1
  O  O20  1  0.90090200  0.16507000  0.25787800  1
  O  O21  1  0.15114400  0.41499800  0.00792700  1
  O  O22  1  0.40094600  0.66502400  0.75793300  1
  O  O23  1  0.65081100  0.91506100  0.50793400  1
  O  O24  1  0.69680100  0.43181000  0.52911600  1
  O  O25  1  0.94682100  0.68180100  0.27911300  1
  O  O26  1  0.19693700  0.93179500  0.02911600  1
  O  O27  1  0.44686100  0.18178300  0.77912300  1
  O  O28  1  0.80243600  0.06747800  0.96771500  1
  O  O29  1  0.05241000  0.31748300  0.71760700  1
  O  O30  1  0.30236000  0.56746700  0.46764400  1
  O  O31  1  0.55242500  0.81747800  0.21767100  1
  O  O32  1  0.58102400  0.32963500  0.23626900  1
  O  O33  1  0.83100000  0.57961000  0.98629400  1
  O  O34  1  0.08110500  0.82965900  0.73629300  1
  O  O35  1  0.33107000  0.07966200  0.48630300  1
  O  O36  1  0.54874500  0.27145700  0.51386200  1
  O  O37  1  0.79870800  0.52143700  0.26387300  1
  O  O38  1  0.04879800  0.77143500  0.01382300  1
  O  O39  1  0.29874300  0.02146100  0.76379500  1
  O  O40  1  0.19169900  0.39087800  0.39478600  1
  O  O41  1  0.44159900  0.64083800  0.14463600  1
  O  O42  1  0.69192900  0.89087300  0.89497800  1
  O  O43  1  0.94178500  0.14085600  0.64489700  1
  O  O44  1  0.30762800  0.11039000  0.10416800  1
  O  O45  1  0.55771000  0.36035700  0.85411600  1
  O  O46  1  0.80764800  0.61036900  0.60414200  1
  O  O47  1  0.05767800  0.86035700  0.35413800  1
  O  O48  1  0.95641800  0.22801700  0.98613000  1
  O  O49  1  0.20641100  0.47803400  0.73617500  1
  O  O50  1  0.45642300  0.72801600  0.48616500  1
  O  O51  1  0.70629300  0.97802600  0.23623800  1
