# generated using pymatgen
data_RbLi7Ge8
_symmetry_space_group_name_H-M   'P 1'
_cell_length_a   9.75151996
_cell_length_b   9.75151996
_cell_length_c   16.60010800
_cell_angle_alpha   90.00000000
_cell_angle_beta   90.00000000
_cell_angle_gamma   119.99999973
_symmetry_Int_Tables_number   1
_chemical_formula_structural   RbLi7Ge8
_chemical_formula_sum   'Rb4 Li28 Ge32'
_cell_volume   1367.05558829
_cell_formula_units_Z   4
loop_
 _symmetry_equiv_pos_site_id
 _symmetry_equiv_pos_as_xyz
  1  'x, y, z'
loop_
 _atom_site_type_symbol
 _atom_site_label
 _atom_site_symmetry_multiplicity
 _atom_site_fract_x
 _atom_site_fract_y
 _atom_site_fract_z
 _atom_site_occupancy
  Rb  Rb0  1  0.66666700  0.33333300  0.15213900  1
  Rb  Rb1  1  0.33333300  0.66666700  0.65213900  1
  Rb  Rb2  1  0.66666700  0.33333300  0.71459200  1
  Rb  Rb3  1  0.33333300  0.66666700  0.21459200  1
  Li  Li4  1  0.55990700  0.44009300  0.94388600  1
  Li  Li5  1  0.11981300  0.55990700  0.44388600  1
  Li  Li6  1  0.44009300  0.88018700  0.44388600  1
  Li  Li7  1  0.55990700  0.11981300  0.94388600  1
  Li  Li8  1  0.88018700  0.44009300  0.94388600  1
  Li  Li9  1  0.44009300  0.55990700  0.44388600  1
  Li  Li10  1  0.52211300  0.47788700  0.31018900  1
  Li  Li11  1  0.04422700  0.52211300  0.81018900  1
  Li  Li12  1  0.47788700  0.95577300  0.81018900  1
  Li  Li13  1  0.52211300  0.04422700  0.31018900  1
  Li  Li14  1  0.95577300  0.47788700  0.31018900  1
  Li  Li15  1  0.47788700  0.52211300  0.81018900  1
  Li  Li16  1  0.16087100  0.83912900  0.08405500  1
  Li  Li17  1  0.32174300  0.16087100  0.58405500  1
  Li  Li18  1  0.83912900  0.67825700  0.58405500  1
  Li  Li19  1  0.16087100  0.32174300  0.08405500  1
  Li  Li20  1  0.67825700  0.83912900  0.08405500  1
  Li  Li21  1  0.83912900  0.16087100  0.58405500  1
  Li  Li22  1  0.83392600  0.16607400  0.40003200  1
  Li  Li23  1  0.66785300  0.83392600  0.90003200  1
  Li  Li24  1  0.16607400  0.33214700  0.90003200  1
  Li  Li25  1  0.83392600  0.66785300  0.40003200  1
  Li  Li26  1  0.33214700  0.16607400  0.40003200  1
  Li  Li27  1  0.16607400  0.83392600  0.90003200  1
  Li  Li28  1  0.00000000  0.00000000  0.65345700  1
  Li  Li29  1  0.00000000  0.00000000  0.15345700  1
  Li  Li30  1  0.00000000  0.00000000  0.83457200  1
  Li  Li31  1  0.00000000  0.00000000  0.33457200  1
  Ge  Ge32  1  0.66666700  0.33333300  0.37716600  1
  Ge  Ge33  1  0.33333300  0.66666700  0.87716600  1
  Ge  Ge34  1  0.57850100  0.42149900  0.50696600  1
  Ge  Ge35  1  0.15700200  0.57850100  0.00696600  1
  Ge  Ge36  1  0.42149900  0.84299800  0.00696600  1
  Ge  Ge37  1  0.57850100  0.15700200  0.50696600  1
  Ge  Ge38  1  0.84299800  0.42149900  0.50696600  1
  Ge  Ge39  1  0.42149900  0.57850100  0.00696600  1
  Ge  Ge40  1  0.34815200  0.17407600  0.86772400  1
  Ge  Ge41  1  0.17407600  0.34815200  0.36772400  1
  Ge  Ge42  1  0.17407600  0.82592400  0.36772400  1
  Ge  Ge43  1  0.82592400  0.17407600  0.86772400  1
  Ge  Ge44  1  0.82592400  0.65184800  0.86772400  1
  Ge  Ge45  1  0.65184800  0.82592400  0.36772400  1
  Ge  Ge46  1  0.26261200  0.26557700  0.73511900  1
  Ge  Ge47  1  0.73442300  0.99703500  0.73511900  1
  Ge  Ge48  1  0.00296500  0.73738800  0.73511900  1
  Ge  Ge49  1  0.99703500  0.26261200  0.23511900  1
  Ge  Ge50  1  0.73738800  0.73442300  0.23511900  1
  Ge  Ge51  1  0.26557700  0.00296500  0.23511900  1
  Ge  Ge52  1  0.26261200  0.99703500  0.73511900  1
  Ge  Ge53  1  0.26557700  0.26261200  0.23511900  1
  Ge  Ge54  1  0.99703500  0.73442300  0.23511900  1
  Ge  Ge55  1  0.00296500  0.26557700  0.73511900  1
  Ge  Ge56  1  0.73442300  0.73738800  0.73511900  1
  Ge  Ge57  1  0.73738800  0.00296500  0.23511900  1
  Ge  Ge58  1  0.18361500  0.09180800  0.99628300  1
  Ge  Ge59  1  0.09180800  0.18361500  0.49628300  1
  Ge  Ge60  1  0.09180800  0.90819200  0.49628300  1
  Ge  Ge61  1  0.90819200  0.09180800  0.99628300  1
  Ge  Ge62  1  0.90819200  0.81638500  0.99628300  1
  Ge  Ge63  1  0.81638500  0.90819200  0.49628300  1
