# generated using pymatgen
data_LiCrPO4
_symmetry_space_group_name_H-M   'P 1'
_cell_length_a   5.92482300
_cell_length_b   7.41674200
_cell_length_c   14.18034900
_cell_angle_alpha   90.00000000
_cell_angle_beta   90.00000000
_cell_angle_gamma   90.00000000
_symmetry_Int_Tables_number   1
_chemical_formula_structural   LiCrPO4
_chemical_formula_sum   'Li8 Cr8 P8 O32'
_cell_volume   623.12542533
_cell_formula_units_Z   8
loop_
 _symmetry_equiv_pos_site_id
 _symmetry_equiv_pos_as_xyz
  1  'x, y, z'
loop_
 _atom_site_type_symbol
 _atom_site_label
 _atom_site_symmetry_multiplicity
 _atom_site_fract_x
 _atom_site_fract_y
 _atom_site_fract_z
 _atom_site_occupancy
  Li  Li0  1  0.20154600  0.18494800  0.22110000  1
  Li  Li1  1  0.79845400  0.81505200  0.77890000  1
  Li  Li2  1  0.29845400  0.81505200  0.72110000  1
  Li  Li3  1  0.79845400  0.68494800  0.27890000  1
  Li  Li4  1  0.29845400  0.68494800  0.22110000  1
  Li  Li5  1  0.70154600  0.31505200  0.77890000  1
  Li  Li6  1  0.20154600  0.31505200  0.72110000  1
  Li  Li7  1  0.70154600  0.18494800  0.27890000  1
  Cr  Cr8  1  0.61677400  0.84011800  0.45197700  1
  Cr  Cr9  1  0.11677400  0.84011800  0.04802300  1
  Cr  Cr10  1  0.61677400  0.65988200  0.95197700  1
  Cr  Cr11  1  0.11677400  0.65988200  0.54802300  1
  Cr  Cr12  1  0.88322600  0.34011800  0.45197700  1
  Cr  Cr13  1  0.38322600  0.34011800  0.04802300  1
  Cr  Cr14  1  0.88322600  0.15988200  0.95197700  1
  Cr  Cr15  1  0.38322600  0.15988200  0.54802300  1
  P  P16  1  0.89281600  0.04282200  0.62684000  1
  P  P17  1  0.39281600  0.04282200  0.87316000  1
  P  P18  1  0.89281600  0.45717800  0.12684000  1
  P  P19  1  0.39281600  0.45717800  0.37316000  1
  P  P20  1  0.60718400  0.54282200  0.62684000  1
  P  P21  1  0.10718400  0.54282200  0.87316000  1
  P  P22  1  0.60718400  0.95717800  0.12684000  1
  P  P23  1  0.10718400  0.95717800  0.37316000  1
  O  O24  1  0.78705900  0.42122900  0.22256900  1
  O  O25  1  0.43949500  0.80294200  0.09775300  1
  O  O26  1  0.93949500  0.80294200  0.40224700  1
  O  O27  1  0.01720600  0.85847300  0.63286200  1
  O  O28  1  0.51720700  0.85847300  0.86713800  1
  O  O29  1  0.71294100  0.92122900  0.22256900  1
  O  O30  1  0.21294100  0.92122900  0.27743100  1
  O  O31  1  0.79364400  0.96315900  0.04592000  1
  O  O32  1  0.70635600  0.03684100  0.54592000  1
  O  O33  1  0.20635600  0.03684100  0.95408000  1
  O  O34  1  0.78705900  0.07877100  0.72256900  1
  O  O35  1  0.28705900  0.07877100  0.77743100  1
  O  O36  1  0.48279300  0.14152700  0.13286200  1
  O  O37  1  0.98279300  0.14152700  0.36713800  1
  O  O38  1  0.06050500  0.19705800  0.59775300  1
  O  O39  1  0.93949500  0.69705800  0.90224700  1
  O  O40  1  0.06050500  0.30294200  0.09775300  1
  O  O41  1  0.56050500  0.30294200  0.40224700  1
  O  O42  1  0.48279300  0.35847300  0.63286200  1
  O  O43  1  0.98279300  0.35847300  0.86713800  1
  O  O44  1  0.56050500  0.19705800  0.90224700  1
  O  O45  1  0.28705900  0.42122900  0.27743100  1
  O  O46  1  0.70635600  0.46315900  0.04592000  1
  O  O47  1  0.20635600  0.46315900  0.45408000  1
  O  O48  1  0.79364400  0.53684100  0.54592000  1
  O  O49  1  0.29364400  0.53684100  0.95408000  1
  O  O50  1  0.71294100  0.57877100  0.72256900  1
  O  O51  1  0.21294100  0.57877100  0.77743100  1
  O  O52  1  0.01720600  0.64152700  0.13286200  1
  O  O53  1  0.51720700  0.64152700  0.36713800  1
  O  O54  1  0.43949500  0.69705800  0.59775300  1
  O  O55  1  0.29364400  0.96315900  0.45408000  1
