# generated using pymatgen
data_LiFe2(PO4)3
_symmetry_space_group_name_H-M   'P 1'
_cell_length_a   8.63003000
_cell_length_b   8.36557800
_cell_length_c   11.87653915
_cell_angle_alpha   89.92507405
_cell_angle_beta   90.00000000
_cell_angle_gamma   90.00000000
_symmetry_Int_Tables_number   1
_chemical_formula_structural   LiFe2(PO4)3
_chemical_formula_sum   'Li4 Fe8 P12 O48'
_cell_volume   857.42825709
_cell_formula_units_Z   4
loop_
 _symmetry_equiv_pos_site_id
 _symmetry_equiv_pos_as_xyz
  1  'x, y, z'
loop_
 _atom_site_type_symbol
 _atom_site_label
 _atom_site_symmetry_multiplicity
 _atom_site_fract_x
 _atom_site_fract_y
 _atom_site_fract_z
 _atom_site_occupancy
  Li  Li0  1  0.22026700  0.19671200  0.80971600  1
  Li  Li1  1  0.77973300  0.80328800  0.19028400  1
  Li  Li2  1  0.27973300  0.69671200  0.30971600  1
  Li  Li3  1  0.72026700  0.30328800  0.69028400  1
  Fe  Fe4  1  0.03161200  0.74535600  0.88957800  1
  Fe  Fe5  1  0.53161200  0.75464400  0.61042200  1
  Fe  Fe6  1  0.96560800  0.74845000  0.39076300  1
  Fe  Fe7  1  0.46560800  0.75155000  0.10923700  1
  Fe  Fe8  1  0.53439200  0.24845000  0.89076300  1
  Fe  Fe9  1  0.03439200  0.25155000  0.60923700  1
  Fe  Fe10  1  0.46838800  0.24535600  0.38957800  1
  Fe  Fe11  1  0.96838800  0.25464400  0.11042200  1
  P  P12  1  0.39206900  0.39334000  0.64037200  1
  P  P13  1  0.24346200  0.46532700  0.99092100  1
  P  P14  1  0.11694600  0.38778500  0.34625800  1
  P  P15  1  0.75653800  0.53467300  0.00907900  1
  P  P16  1  0.60793100  0.60666000  0.35962800  1
  P  P17  1  0.88305400  0.61221500  0.65374200  1
  P  P18  1  0.10793100  0.89334000  0.14037200  1
  P  P19  1  0.38305400  0.88778500  0.84625800  1
  P  P20  1  0.74346200  0.03467300  0.50907900  1
  P  P21  1  0.61694600  0.11221500  0.15374200  1
  P  P22  1  0.89206900  0.10666000  0.85962800  1
  P  P23  1  0.25653800  0.96532700  0.49092100  1
  O  O24  1  0.43508600  0.27564700  0.54114900  1
  O  O25  1  0.37117300  0.89876000  0.58076600  1
  O  O26  1  0.44002600  0.84657300  0.96451800  1
  O  O27  1  0.98781300  0.85765400  0.23223000  1
  O  O28  1  0.20156500  0.86924700  0.83866000  1
  O  O29  1  0.66581900  0.93469000  0.60583800  1
  O  O30  1  0.85963600  0.94019300  0.43911800  1
  O  O31  1  0.89453800  0.93010100  0.89811800  1
  O  O32  1  0.10546200  0.06989900  0.10188200  1
  O  O33  1  0.14036400  0.05980700  0.56088200  1
  O  O34  1  0.33418100  0.06531000  0.39416200  1
  O  O35  1  0.40870000  0.06576700  0.81943000  1
  O  O36  1  0.62882700  0.10124000  0.41923400  1
  O  O37  1  0.79843500  0.13075300  0.16134000  1
  O  O38  1  0.55997400  0.15342700  0.03548200  1
  O  O39  1  0.01218700  0.14234600  0.76777000  1
  O  O40  1  0.72805200  0.15314100  0.82093100  1
  O  O41  1  0.81798500  0.17314500  0.57434800  1
  O  O42  1  0.93508600  0.22435300  0.95885100  1
  O  O43  1  0.52359700  0.22285200  0.23473100  1
  O  O44  1  0.02359700  0.27714800  0.26526900  1
  O  O45  1  0.59130000  0.93423300  0.18057000  1
  O  O46  1  0.31798500  0.32685500  0.92565200  1
  O  O47  1  0.22805200  0.34685900  0.67906900  1
  O  O48  1  0.05997400  0.34657300  0.46451800  1
  O  O49  1  0.51218700  0.35765400  0.73223000  1
  O  O50  1  0.29843500  0.36924700  0.33866000  1
  O  O51  1  0.12882700  0.39876000  0.08076600  1
  O  O52  1  0.83418100  0.43469000  0.10583800  1
  O  O53  1  0.60546200  0.43010100  0.39811800  1
  O  O54  1  0.90870000  0.43423300  0.68057000  1
  O  O55  1  0.64036400  0.44019300  0.93911800  1
  O  O56  1  0.35963600  0.55980700  0.06088200  1
  O  O57  1  0.09130000  0.56576700  0.31943000  1
  O  O58  1  0.39453800  0.56989900  0.60188200  1
  O  O59  1  0.16581900  0.56531000  0.89416200  1
  O  O60  1  0.87117300  0.60124000  0.91923400  1
  O  O61  1  0.70156500  0.63075300  0.66134000  1
  O  O62  1  0.48781300  0.64234600  0.26777000  1
  O  O63  1  0.94002600  0.65342700  0.53548200  1
  O  O64  1  0.77194800  0.65314100  0.32093100  1
  O  O65  1  0.68201500  0.67314500  0.07434800  1
  O  O66  1  0.27194800  0.84685900  0.17906900  1
  O  O67  1  0.97640300  0.72285200  0.73473100  1
  O  O68  1  0.47640300  0.77714800  0.76526900  1
  O  O69  1  0.06491400  0.77564700  0.04114900  1
  O  O70  1  0.18201500  0.82685500  0.42565200  1
  O  O71  1  0.56491400  0.72435300  0.45885100  1
