# generated using pymatgen
data_Li4FeP2O9
_symmetry_space_group_name_H-M   'P 1'
_cell_length_a   7.97283979
_cell_length_b   7.97283979
_cell_length_c   7.10971111
_cell_angle_alpha   89.31581031
_cell_angle_beta   89.31581031
_cell_angle_gamma   50.39102421
_symmetry_Int_Tables_number   1
_chemical_formula_structural   Li4FeP2O9
_chemical_formula_sum   'Li8 Fe2 P4 O18'
_cell_volume   348.14809506
_cell_formula_units_Z   2
loop_
 _symmetry_equiv_pos_site_id
 _symmetry_equiv_pos_as_xyz
  1  'x, y, z'
loop_
 _atom_site_type_symbol
 _atom_site_label
 _atom_site_symmetry_multiplicity
 _atom_site_fract_x
 _atom_site_fract_y
 _atom_site_fract_z
 _atom_site_occupancy
  Li  Li0  1  0.75406900  0.24593100  0.00000000  1
  Li  Li1  1  0.89609000  0.89609000  0.23563500  1
  Li  Li2  1  0.62923900  0.62923900  0.29599100  1
  Li  Li3  1  0.24593100  0.75406900  0.00000000  1
  Li  Li4  1  0.10391000  0.10391000  0.76436500  1
  Li  Li5  1  0.37076100  0.37076100  0.70400900  1
  Li  Li6  1  0.00000000  0.50000000  0.50000000  1
  Li  Li7  1  0.50000000  0.00000000  0.50000000  1
  Fe  Fe8  1  0.50000000  0.00000000  0.00000000  1
  Fe  Fe9  1  0.00000000  0.50000000  0.00000000  1
  P  P10  1  0.87637800  0.87637800  0.70621300  1
  P  P11  1  0.39824800  0.39824800  0.24582500  1
  P  P12  1  0.12362200  0.12362200  0.29378700  1
  P  P13  1  0.60175200  0.60175200  0.75417500  1
  O  O14  1  0.23657700  0.23657700  0.89715700  1
  O  O15  1  0.98833200  0.37143500  0.23669700  1
  O  O16  1  0.03092800  0.03092800  0.19083200  1
  O  O17  1  0.01166800  0.62856500  0.76330300  1
  O  O18  1  0.87294200  0.87294200  0.49228300  1
  O  O19  1  0.49597200  0.49597200  0.76172100  1
  O  O20  1  0.96907200  0.96907200  0.80916800  1
  O  O21  1  0.76342300  0.76342300  0.10284300  1
  O  O22  1  0.56083700  0.18107400  0.12954800  1
  O  O23  1  0.43916300  0.81892600  0.87045200  1
  O  O24  1  0.34711200  0.34711200  0.43632300  1
  O  O25  1  0.65288800  0.65288800  0.56367700  1
  O  O26  1  0.12705800  0.12705800  0.50771700  1
  O  O27  1  0.37143500  0.98833200  0.23669700  1
  O  O28  1  0.62856400  0.01166800  0.76330300  1
  O  O29  1  0.81892600  0.43916300  0.87045200  1
  O  O30  1  0.50402800  0.50402800  0.23827900  1
  O  O31  1  0.18107400  0.56083700  0.12954800  1
