# generated using pymatgen
data_Li2FePCO7
_symmetry_space_group_name_H-M   'P 1'
_cell_length_a   5.09404801
_cell_length_b   10.68373931
_cell_length_c   10.68358230
_cell_angle_alpha   73.62442870
_cell_angle_beta   87.02213151
_cell_angle_gamma   87.02298368
_symmetry_Int_Tables_number   1
_chemical_formula_structural   Li2FePCO7
_chemical_formula_sum   'Li8 Fe4 P4 C4 O28'
_cell_volume   556.67595461
_cell_formula_units_Z   4
loop_
 _symmetry_equiv_pos_site_id
 _symmetry_equiv_pos_as_xyz
  1  'x, y, z'
loop_
 _atom_site_type_symbol
 _atom_site_label
 _atom_site_symmetry_multiplicity
 _atom_site_fract_x
 _atom_site_fract_y
 _atom_site_fract_z
 _atom_site_occupancy
  Li  Li0  1  0.78514300  0.40023800  0.38766400  1
  Li  Li1  1  0.78514500  0.90023800  0.88766400  1
  Li  Li2  1  0.21485800  0.59976300  0.61233500  1
  Li  Li3  1  0.21485600  0.09976300  0.11233500  1
  Li  Li4  1  0.21485100  0.36233500  0.84976500  1
  Li  Li5  1  0.21484900  0.86233600  0.34976500  1
  Li  Li6  1  0.78515100  0.63766600  0.15023400  1
  Li  Li7  1  0.78515300  0.13766400  0.65023400  1
  Fe  Fe8  1  0.78607100  0.05164300  0.30152400  1
  Fe  Fe9  1  0.21393100  0.94835700  0.69847600  1
  Fe  Fe10  1  0.78625700  0.55174100  0.80141400  1
  Fe  Fe11  1  0.21370700  0.44826400  0.19860400  1
  P  P12  1  0.72736400  0.33715400  0.08711500  1
  P  P13  1  0.72738900  0.83714500  0.58712500  1
  P  P14  1  0.27263400  0.66284500  0.91288400  1
  P  P15  1  0.27261200  0.16285400  0.41287400  1
  C  C16  1  0.74287800  0.40489600  0.65489900  1
  C  C17  1  0.74289900  0.90489400  0.15489500  1
  C  C18  1  0.25712500  0.59510400  0.34510100  1
  C  C19  1  0.25710300  0.09510500  0.84510500  1
  O  O20  1  0.97386000  0.43491700  0.68492000  1
  O  O21  1  0.97385900  0.93491200  0.18491500  1
  O  O22  1  0.02614100  0.56508200  0.31507900  1
  O  O23  1  0.02614200  0.06508700  0.81508400  1
  O  O24  1  0.45788300  0.54197600  0.29197800  1
  O  O25  1  0.45790300  0.04197900  0.79198200  1
  O  O26  1  0.54211900  0.45802200  0.70802300  1
  O  O27  1  0.54209900  0.95802000  0.20801800  1
  O  O28  1  0.16907200  0.57901900  0.82901100  1
  O  O29  1  0.16907600  0.07902300  0.32901100  1
  O  O30  1  0.83093000  0.42098000  0.17098900  1
  O  O31  1  0.83092600  0.92097700  0.67098900  1
  O  O32  1  0.42062000  0.34732400  0.09734100  1
  O  O33  1  0.42062700  0.84730700  0.59733000  1
  O  O34  1  0.57938000  0.65267600  0.90265900  1
  O  O35  1  0.57937400  0.15269300  0.40266900  1
  O  O36  1  0.71388600  0.83203300  0.08203400  1
  O  O37  1  0.71389400  0.33203400  0.58203300  1
  O  O38  1  0.28611500  0.16796500  0.91796600  1
  O  O39  1  0.28610600  0.66796500  0.41796700  1
  O  O40  1  0.17198400  0.80598600  0.86302400  1
  O  O41  1  0.17199000  0.30598700  0.36302300  1
  O  O42  1  0.17188700  0.61304000  0.05598200  1
  O  O43  1  0.17189100  0.11305000  0.55597600  1
  O  O44  1  0.82811400  0.38696000  0.94401800  1
  O  O45  1  0.82810900  0.88695000  0.44402300  1
  O  O46  1  0.82801700  0.19401300  0.13697500  1
  O  O47  1  0.82801100  0.69401200  0.63697600  1
