# generated using pymatgen
data_Li5Br2N
_symmetry_space_group_name_H-M   'P 1'
_cell_length_a   6.94072649
_cell_length_b   6.94072649
_cell_length_c   6.94072649
_cell_angle_alpha   147.22436601
_cell_angle_beta   127.96113208
_cell_angle_gamma   62.87561968
_symmetry_Int_Tables_number   1
_chemical_formula_structural   Li5Br2N
_chemical_formula_sum   'Li5 Br2 N1'
_cell_volume   141.23219516
_cell_formula_units_Z   1
loop_
 _symmetry_equiv_pos_site_id
 _symmetry_equiv_pos_as_xyz
  1  'x, y, z'
loop_
 _atom_site_type_symbol
 _atom_site_label
 _atom_site_symmetry_multiplicity
 _atom_site_fract_x
 _atom_site_fract_y
 _atom_site_fract_z
 _atom_site_occupancy
  Li  Li0  1  0.90311300  0.12019400  0.78291900  1
  Li  Li1  1  0.09688700  0.87980600  0.21708100  1
  Li  Li2  1  0.66272500  0.87980600  0.78291900  1
  Li  Li3  1  0.00000000  0.50000000  0.50000000  1
  Li  Li4  1  0.33727500  0.12019400  0.21708100  1
  Br  Br5  1  0.32634200  0.32634200  0.00000000  1
  Br  Br6  1  0.67365800  0.67365800  0.00000000  1
  N  N7  1  0.00000000  0.00000000  0.00000000  1
