# generated using pymatgen
data_Li2CoP2O7
_symmetry_space_group_name_H-M   'P 1'
_cell_length_a   8.15887686
_cell_length_b   9.98408400
_cell_length_c   8.84278185
_cell_angle_alpha   89.99819667
_cell_angle_beta   66.46828390
_cell_angle_gamma   107.81042944
_symmetry_Int_Tables_number   1
_chemical_formula_structural   Li2CoP2O7
_chemical_formula_sum   'Li8 Co4 P8 O28'
_cell_volume   622.58231483
_cell_formula_units_Z   4
loop_
 _symmetry_equiv_pos_site_id
 _symmetry_equiv_pos_as_xyz
  1  'x, y, z'
loop_
 _atom_site_type_symbol
 _atom_site_label
 _atom_site_symmetry_multiplicity
 _atom_site_fract_x
 _atom_site_fract_y
 _atom_site_fract_z
 _atom_site_occupancy
  Li  Li0  1  0.12068100  0.33504400  0.05250200  1
  Li  Li1  1  0.12068600  0.83504600  0.05249500  1
  Li  Li2  1  0.87932300  0.02470800  0.44749900  1
  Li  Li3  1  0.87931700  0.52470200  0.44750500  1
  Li  Li4  1  0.87931300  0.16495500  0.94750500  1
  Li  Li5  1  0.87931800  0.66495600  0.94749900  1
  Li  Li6  1  0.12068200  0.47529800  0.55249600  1
  Li  Li7  1  0.12067700  0.97529300  0.55250100  1
  Co  Co8  1  0.50000000  0.50000000  0.50000000  1
  Co  Co9  1  0.50000000  0.00000000  0.00000000  1
  Co  Co10  1  0.50000100  0.00000000  0.50000000  1
  Co  Co11  1  0.50000000  0.50000000  0.00000000  1
  P  P12  1  0.70424800  0.36862500  0.18484900  1
  P  P13  1  0.70423800  0.86862300  0.18486400  1
  P  P14  1  0.70427300  0.23349900  0.68484300  1
  P  P15  1  0.70426500  0.73349500  0.68485800  1
  P  P16  1  0.29576000  0.13137600  0.81513700  1
  P  P17  1  0.29575000  0.63137500  0.81515200  1
  P  P18  1  0.29573500  0.26650500  0.31514200  1
  P  P19  1  0.29572700  0.76650100  0.31515700  1
  O  O20  1  0.49999700  0.23834300  0.24999500  1
  O  O21  1  0.49999300  0.73833700  0.25001400  1
  O  O22  1  0.50000900  0.26166300  0.74998500  1
  O  O23  1  0.50000400  0.76165800  0.75000600  1
  O  O24  1  0.29106100  0.33454900  0.16060600  1
  O  O25  1  0.29107200  0.83453700  0.16060700  1
  O  O26  1  0.70892100  0.43900000  0.33939800  1
  O  O27  1  0.70893400  0.93903600  0.33938400  1
  O  O28  1  0.29106600  0.06096500  0.66061600  1
  O  O29  1  0.29108000  0.56100000  0.66060300  1
  O  O30  1  0.70892800  0.16546200  0.83939200  1
  O  O31  1  0.70893800  0.66545100  0.83939300  1
  O  O32  1  0.70027500  0.12690000  0.55874100  1
  O  O33  1  0.70025600  0.62688300  0.55877900  1
  O  O34  1  0.29974300  0.37311700  0.44122200  1
  O  O35  1  0.29972600  0.87309900  0.44125900  1
  O  O36  1  0.29975200  0.02677600  0.94120000  1
  O  O37  1  0.29973200  0.52677500  0.94123500  1
  O  O38  1  0.70026700  0.47322300  0.05876700  1
  O  O39  1  0.70024700  0.97322500  0.05879900  1
  O  O40  1  0.85510000  0.30075500  0.11118200  1
  O  O41  1  0.85509900  0.80075000  0.11118900  1
  O  O42  1  0.14490200  0.19924900  0.88881000  1
  O  O43  1  0.14490000  0.69924400  0.88881800  1
  O  O44  1  0.85511300  0.37675900  0.61116200  1
  O  O45  1  0.85510900  0.87676100  0.61116900  1
  O  O46  1  0.14489400  0.12324100  0.38883000  1
  O  O47  1  0.14488600  0.62324100  0.38883700  1
