# generated using pymatgen
data_LiNi(PO3)3
_symmetry_space_group_name_H-M   'P 1'
_cell_length_a   5.08442000
_cell_length_b   11.99532600
_cell_length_c   13.01767300
_cell_angle_alpha   90.00000000
_cell_angle_beta   90.00000000
_cell_angle_gamma   90.00000000
_symmetry_Int_Tables_number   1
_chemical_formula_structural   LiNi(PO3)3
_chemical_formula_sum   'Li4 Ni4 P12 O36'
_cell_volume   793.93844394
_cell_formula_units_Z   4
loop_
 _symmetry_equiv_pos_site_id
 _symmetry_equiv_pos_as_xyz
  1  'x, y, z'
loop_
 _atom_site_type_symbol
 _atom_site_label
 _atom_site_symmetry_multiplicity
 _atom_site_fract_x
 _atom_site_fract_y
 _atom_site_fract_z
 _atom_site_occupancy
  Li  Li0  1  0.01705700  0.00036900  0.25000000  1
  Li  Li1  1  0.01705700  0.49963100  0.75000000  1
  Li  Li2  1  0.98294300  0.50036900  0.25000000  1
  Li  Li3  1  0.98294300  0.99963100  0.75000000  1
  Ni  Ni4  1  0.00000000  0.00000000  0.00000000  1
  Ni  Ni5  1  0.00000000  0.00000000  0.50000000  1
  Ni  Ni6  1  0.00000000  0.50000000  0.00000000  1
  Ni  Ni7  1  0.00000000  0.50000000  0.50000000  1
  P  P8  1  0.75789800  0.25000000  0.50000000  1
  P  P9  1  0.75789800  0.25000000  0.00000000  1
  P  P10  1  0.50133600  0.91564600  0.36478800  1
  P  P11  1  0.50133600  0.91564600  0.13521200  1
  P  P12  1  0.24210200  0.75000000  0.00000000  1
  P  P13  1  0.24210200  0.75000000  0.50000000  1
  P  P14  1  0.49866400  0.08435400  0.63521200  1
  P  P15  1  0.49866400  0.08435400  0.86478800  1
  P  P16  1  0.49866400  0.41564600  0.13521200  1
  P  P17  1  0.49866400  0.41564600  0.36478800  1
  P  P18  1  0.50133600  0.58435400  0.63521200  1
  P  P19  1  0.50133600  0.58435400  0.86478800  1
  O  O20  1  0.90422300  0.34374100  0.94996000  1
  O  O21  1  0.90422300  0.34374100  0.55004000  1
  O  O22  1  0.90422300  0.15625900  0.44996000  1
  O  O23  1  0.90422300  0.15625900  0.05004000  1
  O  O24  1  0.09577700  0.65625900  0.05004000  1
  O  O25  1  0.09577700  0.65625900  0.44996000  1
  O  O26  1  0.09577700  0.84374100  0.55004000  1
  O  O27  1  0.09577700  0.84374100  0.94996000  1
  O  O28  1  0.20948100  0.05597800  0.63361700  1
  O  O29  1  0.20948100  0.05597800  0.86638300  1
  O  O30  1  0.20948100  0.44402200  0.13361700  1
  O  O31  1  0.20948100  0.44402200  0.36638300  1
  O  O32  1  0.30576500  0.00374700  0.10367500  1
  O  O33  1  0.30576500  0.00374700  0.39632500  1
  O  O34  1  0.30576500  0.49625300  0.60367500  1
  O  O35  1  0.30576500  0.49625300  0.89632500  1
  O  O36  1  0.41964700  0.62154800  0.75000000  1
  O  O37  1  0.41964700  0.87845200  0.25000000  1
  O  O38  1  0.45619900  0.70087600  0.58042000  1
  O  O39  1  0.45619900  0.70087600  0.91958000  1
  O  O40  1  0.45619900  0.79912400  0.08042000  1
  O  O41  1  0.45619900  0.79912400  0.41958000  1
  O  O42  1  0.54380100  0.20087600  0.58042000  1
  O  O43  1  0.54380100  0.20087600  0.91958000  1
  O  O44  1  0.54380100  0.29912400  0.08042000  1
  O  O45  1  0.54380100  0.29912400  0.41958000  1
  O  O46  1  0.58035300  0.12154800  0.75000000  1
  O  O47  1  0.58035300  0.37845200  0.25000000  1
  O  O48  1  0.69423500  0.50374700  0.10367500  1
  O  O49  1  0.69423500  0.50374700  0.39632500  1
  O  O50  1  0.69423500  0.99625300  0.60367500  1
  O  O51  1  0.69423500  0.99625300  0.89632500  1
  O  O52  1  0.79051900  0.55597800  0.63361700  1
  O  O53  1  0.79051900  0.55597800  0.86638300  1
  O  O54  1  0.79051900  0.94402200  0.13361700  1
  O  O55  1  0.79051900  0.94402200  0.36638300  1
