# generated using pymatgen
data_LiMoP4O13
_symmetry_space_group_name_H-M   'P 1'
_cell_length_a   7.21012800
_cell_length_b   8.18116300
_cell_length_c   17.35183700
_cell_angle_alpha   90.00000000
_cell_angle_beta   90.00000000
_cell_angle_gamma   90.00000000
_symmetry_Int_Tables_number   1
_chemical_formula_structural   LiMoP4O13
_chemical_formula_sum   'Li4 Mo4 P16 O52'
_cell_volume   1023.53684201
_cell_formula_units_Z   4
loop_
 _symmetry_equiv_pos_site_id
 _symmetry_equiv_pos_as_xyz
  1  'x, y, z'
loop_
 _atom_site_type_symbol
 _atom_site_label
 _atom_site_symmetry_multiplicity
 _atom_site_fract_x
 _atom_site_fract_y
 _atom_site_fract_z
 _atom_site_occupancy
  Li  Li0  1  0.25004900  0.75228900  0.49822000  1
  Li  Li1  1  0.24995100  0.24771100  0.99822000  1
  Li  Li2  1  0.75004900  0.74771100  0.50178000  1
  Li  Li3  1  0.74995100  0.25228900  0.00178000  1
  Mo  Mo4  1  0.23326200  0.27342900  0.71361000  1
  Mo  Mo5  1  0.26673800  0.72657100  0.21361000  1
  Mo  Mo6  1  0.73326200  0.22657100  0.28639000  1
  Mo  Mo7  1  0.76673800  0.77342900  0.78639000  1
  P  P8  1  0.93025400  0.82929600  0.07489100  1
  P  P9  1  0.90904300  0.39714700  0.57649900  1
  P  P10  1  0.90317000  0.84828000  0.33132100  1
  P  P11  1  0.90041800  0.39106700  0.83808600  1
  P  P12  1  0.06974600  0.32929600  0.42510900  1
  P  P13  1  0.09095700  0.89714700  0.92350100  1
  P  P14  1  0.09683000  0.34828000  0.16867900  1
  P  P15  1  0.09958200  0.89106700  0.66191400  1
  P  P16  1  0.40041800  0.10893300  0.16191400  1
  P  P17  1  0.40317000  0.65172000  0.66867900  1
  P  P18  1  0.59958200  0.60893300  0.33808600  1
  P  P19  1  0.43025400  0.67070400  0.92510900  1
  P  P20  1  0.56974600  0.17070400  0.57489100  1
  P  P21  1  0.59095700  0.60285300  0.07649900  1
  P  P22  1  0.59683000  0.15172000  0.83132100  1
  P  P23  1  0.40904300  0.10285300  0.42350100  1
  O  O24  1  0.39400200  0.92809000  0.44374300  1
  O  O25  1  0.97905800  0.85605200  0.85087200  1
  O  O26  1  0.90758600  0.85343600  0.41648200  1
  O  O27  1  0.91521300  0.82553600  0.69496800  1
  O  O28  1  0.99717800  0.28247600  0.51085800  1
  O  O29  1  0.02094200  0.35605200  0.64912800  1
  O  O30  1  0.08367700  0.80547900  0.28927100  1
  O  O31  1  0.08478700  0.32553600  0.80503200  1
  O  O32  1  0.09241400  0.35343600  0.08351800  1
  O  O33  1  0.09775800  0.79036700  0.12614100  1
  O  O34  1  0.10599800  0.07191000  0.94374300  1
  O  O35  1  0.11551400  0.89497100  0.57723000  1
  O  O36  1  0.12970400  0.05968200  0.70362300  1
  O  O37  1  0.16254000  0.51313000  0.20760200  1
  O  O38  1  0.15768400  0.49153900  0.42071200  1
  O  O39  1  0.20678400  0.17806900  0.40882600  1
  O  O40  1  0.24317900  0.21922800  0.20349500  1
  O  O41  1  0.25682100  0.78077200  0.70349500  1
  O  O42  1  0.29321600  0.82193100  0.90882600  1
  O  O43  1  0.34231600  0.50846100  0.92071200  1
  O  O44  1  0.33746000  0.48687000  0.70760200  1
  O  O45  1  0.37029600  0.94031800  0.20362300  1
  O  O46  1  0.38448600  0.10502900  0.07723000  1
  O  O47  1  0.00282200  0.78247600  0.98914200  1
  O  O48  1  0.40224200  0.20963300  0.62614100  1
  O  O49  1  0.40758600  0.64656400  0.58351800  1
  O  O50  1  0.41521300  0.67446400  0.30503200  1
  O  O51  1  0.41632300  0.19452100  0.78927100  1
  O  O52  1  0.47905800  0.64394800  0.14912800  1
  O  O53  1  0.50282200  0.71752400  0.01085800  1
  O  O54  1  0.49717800  0.21752400  0.48914200  1
  O  O55  1  0.52094200  0.14394800  0.35087200  1
  O  O56  1  0.58367700  0.69452100  0.71072900  1
  O  O57  1  0.58478700  0.17446400  0.19496800  1
  O  O58  1  0.59241400  0.14656400  0.91648200  1
  O  O59  1  0.59775800  0.70963300  0.87385900  1
  O  O60  1  0.60599800  0.42809000  0.05625700  1
  O  O61  1  0.61551400  0.60502900  0.42277000  1
  O  O62  1  0.62970400  0.44031800  0.29637700  1
  O  O63  1  0.66254000  0.98687000  0.79239800  1
  O  O64  1  0.65768400  0.00846100  0.57928800  1
  O  O65  1  0.70678400  0.32193100  0.59117400  1
  O  O66  1  0.74317900  0.28077200  0.79650500  1
  O  O67  1  0.75682100  0.71922800  0.29650500  1
  O  O68  1  0.79321600  0.67806900  0.09117400  1
  O  O69  1  0.84231600  0.99153900  0.07928800  1
  O  O70  1  0.83746000  0.01313000  0.29239800  1
  O  O71  1  0.87029600  0.55968200  0.79637700  1
  O  O72  1  0.88448600  0.39497100  0.92277000  1
  O  O73  1  0.89400200  0.57191000  0.55625700  1
  O  O74  1  0.90224200  0.29036700  0.37385900  1
  O  O75  1  0.91632300  0.30547900  0.21072900  1
