# generated using pymatgen
data_Li7V4P9O32
_symmetry_space_group_name_H-M   'P 1'
_cell_length_a   13.91207600
_cell_length_b   13.91207600
_cell_length_c   6.41839500
_cell_angle_alpha   90.00000000
_cell_angle_beta   90.00000000
_cell_angle_gamma   90.00000000
_symmetry_Int_Tables_number   1
_chemical_formula_structural   Li7V4P9O32
_chemical_formula_sum   'Li14 V8 P18 O64'
_cell_volume   1242.25377130
_cell_formula_units_Z   2
loop_
 _symmetry_equiv_pos_site_id
 _symmetry_equiv_pos_as_xyz
  1  'x, y, z'
loop_
 _atom_site_type_symbol
 _atom_site_label
 _atom_site_symmetry_multiplicity
 _atom_site_fract_x
 _atom_site_fract_y
 _atom_site_fract_z
 _atom_site_occupancy
  Li  Li0  1  0.00000000  0.00000000  0.50000000  1
  Li  Li1  1  0.50000000  0.00000000  0.63579500  1
  Li  Li2  1  0.50000000  0.00000000  0.13579500  1
  Li  Li3  1  0.74307600  0.10748100  0.31060600  1
  Li  Li4  1  0.60748100  0.24307600  0.81060600  1
  Li  Li5  1  0.10748100  0.25692400  0.68939400  1
  Li  Li6  1  0.24307600  0.39251900  0.18939400  1
  Li  Li7  1  0.00000000  0.50000000  0.86420500  1
  Li  Li8  1  0.00000000  0.50000000  0.36420500  1
  Li  Li9  1  0.50000000  0.50000000  0.00000000  1
  Li  Li10  1  0.75692400  0.60748100  0.18939400  1
  Li  Li11  1  0.89251900  0.74307600  0.68939400  1
  Li  Li12  1  0.39251900  0.75692400  0.81060600  1
  Li  Li13  1  0.25692400  0.89251900  0.31060600  1
  V  V14  1  0.19559600  0.12145100  0.12176600  1
  V  V15  1  0.87854900  0.19559600  0.87823400  1
  V  V16  1  0.37854900  0.30440400  0.62176600  1
  V  V17  1  0.69559600  0.37854900  0.37823400  1
  V  V18  1  0.30440400  0.62145100  0.37823400  1
  V  V19  1  0.62145100  0.69559600  0.62176600  1
  V  V20  1  0.12145100  0.80440400  0.87823400  1
  V  V21  1  0.80440400  0.87854900  0.12176600  1
  P  P22  1  0.00000000  0.00000000  0.00000000  1
  P  P23  1  0.69207300  0.05904200  0.88395800  1
  P  P24  1  0.24708900  0.10794500  0.63343000  1
  P  P25  1  0.55904200  0.19207300  0.38395800  1
  P  P26  1  0.89205500  0.24708900  0.36657000  1
  P  P27  1  0.39205500  0.25291100  0.13343000  1
  P  P28  1  0.05904200  0.30792700  0.11604200  1
  P  P29  1  0.74708900  0.39205500  0.86657000  1
  P  P30  1  0.19207300  0.44095800  0.61604200  1
  P  P31  1  0.50000000  0.50000000  0.50000000  1
  P  P32  1  0.80792700  0.55904200  0.61604200  1
  P  P33  1  0.25291100  0.60794500  0.86657000  1
  P  P34  1  0.94095800  0.69207300  0.11604200  1
  P  P35  1  0.60794500  0.74708900  0.13343000  1
  P  P36  1  0.10794500  0.75291100  0.36657000  1
  P  P37  1  0.44095800  0.80792700  0.38395800  1
  P  P38  1  0.75291100  0.89205500  0.63343000  1
  P  P39  1  0.30792700  0.94095800  0.88395800  1
  O  O40  1  0.72761800  0.00387600  0.67232600  1
  O  O41  1  0.74254100  0.01344600  0.07323000  1
  O  O42  1  0.06340900  0.06168000  0.14858600  1
  O  O43  1  0.93832000  0.06340900  0.85141400  1
  O  O44  1  0.58342000  0.05593300  0.88802000  1
  O  O45  1  0.55593300  0.08342000  0.38802000  1
  O  O46  1  0.18804900  0.10697700  0.43430100  1
  O  O47  1  0.18075200  0.14137200  0.81166000  1
  O  O48  1  0.33690000  0.15888400  0.12229200  1
  O  O49  1  0.34111600  0.16310000  0.62229200  1
  O  O50  1  0.73016800  0.16215100  0.84945200  1
  O  O51  1  0.85862800  0.18075200  0.18834000  1
  O  O52  1  0.89302300  0.18804900  0.56569900  1
  O  O53  1  0.50387600  0.22761800  0.17232600  1
  O  O54  1  0.66215100  0.23016800  0.34945200  1
  O  O55  1  0.51344600  0.24254100  0.57323000  1
  O  O56  1  0.01344600  0.25745900  0.92677000  1
  O  O57  1  0.16215100  0.26983200  0.15054800  1
  O  O58  1  0.00387600  0.27238200  0.32767400  1
  O  O59  1  0.39302300  0.31195100  0.93430100  1
  O  O60  1  0.35862800  0.31924800  0.31166000  1
  O  O61  1  0.23016800  0.33784900  0.65054800  1
  O  O62  1  0.84111600  0.33690000  0.87770800  1
  O  O63  1  0.83690000  0.34111600  0.37770800  1
  O  O64  1  0.68075200  0.35862800  0.68834000  1
  O  O65  1  0.68804900  0.39302300  0.06569900  1
  O  O66  1  0.05593300  0.41658000  0.11198000  1
  O  O67  1  0.08342000  0.44406700  0.61198000  1
  O  O68  1  0.43832000  0.43659100  0.64858600  1
  O  O69  1  0.56340900  0.43832000  0.35141400  1
  O  O70  1  0.24254100  0.48655400  0.42677000  1
  O  O71  1  0.22761800  0.49612400  0.82767400  1
  O  O72  1  0.77238200  0.50387600  0.82767400  1
  O  O73  1  0.75745900  0.51344600  0.42677000  1
  O  O74  1  0.43659100  0.56168000  0.35141400  1
  O  O75  1  0.56168000  0.56340900  0.64858600  1
  O  O76  1  0.91658000  0.55593300  0.61198000  1
  O  O77  1  0.94406700  0.58342000  0.11198000  1
  O  O78  1  0.31195100  0.60697700  0.06569900  1
  O  O79  1  0.31924800  0.64137200  0.68834000  1
  O  O80  1  0.16310000  0.65888400  0.37770800  1
  O  O81  1  0.15888400  0.66310000  0.87770800  1
  O  O82  1  0.76983200  0.66215100  0.65054800  1
  O  O83  1  0.64137200  0.68075200  0.31166000  1
  O  O84  1  0.60697700  0.68804900  0.93430100  1
  O  O85  1  0.99612400  0.72761800  0.32767400  1
  O  O86  1  0.83784900  0.73016800  0.15054800  1
  O  O87  1  0.98655400  0.74254100  0.92677000  1
  O  O88  1  0.48655400  0.75745900  0.57323000  1
  O  O89  1  0.33784900  0.76983200  0.34945200  1
  O  O90  1  0.49612400  0.77238200  0.17232600  1
  O  O91  1  0.10697700  0.81195100  0.56569900  1
  O  O92  1  0.14137200  0.81924800  0.18834000  1
  O  O93  1  0.26983200  0.83784900  0.84945200  1
  O  O94  1  0.65888400  0.83690000  0.62229200  1
  O  O95  1  0.66310000  0.84111600  0.12229200  1
  O  O96  1  0.81924800  0.85862800  0.81166000  1
  O  O97  1  0.81195100  0.89302300  0.43430100  1
  O  O98  1  0.44406700  0.91658000  0.38802000  1
  O  O99  1  0.41658000  0.94406700  0.88802000  1
  O  O100  1  0.06168000  0.93659100  0.85141400  1
  O  O101  1  0.93659100  0.93832000  0.14858600  1
  O  O102  1  0.25745900  0.98655400  0.07323000  1
  O  O103  1  0.27238200  0.99612400  0.67232600  1
