# generated using pymatgen
data_Li6Mn9(PO4)8
_symmetry_space_group_name_H-M   'P 1'
_cell_length_a   9.28554700
_cell_length_b   8.92512972
_cell_length_c   9.10096956
_cell_angle_alpha   101.23924449
_cell_angle_beta   101.27050861
_cell_angle_gamma   111.52768428
_symmetry_Int_Tables_number   1
_chemical_formula_structural   Li6Mn9(PO4)8
_chemical_formula_sum   'Li6 Mn9 P8 O32'
_cell_volume   658.05247769
_cell_formula_units_Z   1
loop_
 _symmetry_equiv_pos_site_id
 _symmetry_equiv_pos_as_xyz
  1  'x, y, z'
loop_
 _atom_site_type_symbol
 _atom_site_label
 _atom_site_symmetry_multiplicity
 _atom_site_fract_x
 _atom_site_fract_y
 _atom_site_fract_z
 _atom_site_occupancy
  Li  Li0  1  0.02412200  0.12055300  0.36102800  1
  Li  Li1  1  0.26851400  0.76792300  0.03950400  1
  Li  Li2  1  0.35998200  0.31399800  0.31359500  1
  Li  Li3  1  0.64001800  0.68600200  0.68640500  1
  Li  Li4  1  0.73148600  0.23207700  0.96049600  1
  Li  Li5  1  0.97587800  0.87944700  0.63897200  1
  Mn  Mn6  1  0.00000000  0.50000000  0.50000000  1
  Mn  Mn7  1  0.04336500  0.30295100  0.79659600  1
  Mn  Mn8  1  0.42281800  0.86733600  0.71657900  1
  Mn  Mn9  1  0.00000000  0.00000000  0.00000000  1
  Mn  Mn10  1  0.46684300  0.71780100  0.31909100  1
  Mn  Mn11  1  0.50000000  0.50000000  0.00000000  1
  Mn  Mn12  1  0.53315700  0.28219900  0.68090900  1
  Mn  Mn13  1  0.57718200  0.13266400  0.28342100  1
  Mn  Mn14  1  0.95663500  0.69704900  0.20340400  1
  P  P15  1  0.71309800  0.02403000  0.60036700  1
  P  P16  1  0.90058900  0.60447100  0.83464000  1
  P  P17  1  0.71872500  0.53791300  0.34104000  1
  P  P18  1  0.66108700  0.88786600  0.04524000  1
  P  P19  1  0.33891300  0.11213400  0.95476000  1
  P  P20  1  0.28127500  0.46208700  0.65896000  1
  P  P21  1  0.09941100  0.39552900  0.16536000  1
  P  P22  1  0.28690200  0.97597000  0.39963300  1
  O  O23  1  0.88512500  0.04697400  0.68520900  1
  O  O24  1  0.97165100  0.31009900  0.99925100  1
  O  O25  1  0.96242400  0.49750100  0.72755900  1
  O  O26  1  0.66969400  0.06716900  0.09846000  1
  O  O27  1  0.71519100  0.07058400  0.44692600  1
  O  O28  1  0.88146800  0.69433100  0.43508200  1
  O  O29  1  0.74220200  0.38636500  0.38454100  1
  O  O30  1  0.65762300  0.12967100  0.71688200  1
  O  O31  1  0.83423800  0.89498500  0.10478900  1
  O  O32  1  0.11487500  0.95302600  0.31479100  1
  O  O33  1  0.02834900  0.68990100  0.00074900  1
  O  O34  1  0.03757600  0.50249900  0.27244100  1
  O  O35  1  0.33030600  0.93283100  0.90154000  1
  O  O36  1  0.28480900  0.92941600  0.55307400  1
  O  O37  1  0.11853200  0.30566900  0.56491800  1
  O  O38  1  0.25779800  0.61363500  0.61545900  1
  O  O39  1  0.34237700  0.87032900  0.28311800  1
  O  O40  1  0.16576200  0.10501500  0.89521100  1
  O  O41  1  0.11620300  0.25093800  0.22819100  1
  O  O42  1  0.29249900  0.47511900  0.83630400  1
  O  O43  1  0.26659600  0.51002100  0.15308600  1
  O  O44  1  0.59998700  0.81822300  0.86480400  1
  O  O45  1  0.43648000  0.45671100  0.62900600  1
  O  O46  1  0.58779000  0.83621700  0.56169200  1
  O  O47  1  0.45634300  0.23844000  0.88666500  1
  O  O48  1  0.54365700  0.76156000  0.11333500  1
  O  O49  1  0.41221000  0.16378300  0.43830800  1
  O  O50  1  0.56352000  0.54328900  0.37099400  1
  O  O51  1  0.40001300  0.18177700  0.13519600  1
  O  O52  1  0.73340400  0.48997900  0.84691400  1
  O  O53  1  0.70750100  0.52488100  0.16369600  1
  O  O54  1  0.88379700  0.74906200  0.77180900  1
