# generated using pymatgen
data_Li3Co3(PO4)4
_symmetry_space_group_name_H-M   'P 1'
_cell_length_a   4.93961600
_cell_length_b   8.07263000
_cell_length_c   15.24189591
_cell_angle_alpha   68.66232493
_cell_angle_beta   90.00000000
_cell_angle_gamma   90.00000000
_symmetry_Int_Tables_number   1
_chemical_formula_structural   Li3Co3(PO4)4
_chemical_formula_sum   'Li6 Co6 P8 O32'
_cell_volume   566.11907167
_cell_formula_units_Z   2
loop_
 _symmetry_equiv_pos_site_id
 _symmetry_equiv_pos_as_xyz
  1  'x, y, z'
loop_
 _atom_site_type_symbol
 _atom_site_label
 _atom_site_symmetry_multiplicity
 _atom_site_fract_x
 _atom_site_fract_y
 _atom_site_fract_z
 _atom_site_occupancy
  Li  Li0  1  0.48448200  0.70106100  0.12216900  1
  Li  Li1  1  0.01551800  0.70106100  0.62216900  1
  Li  Li2  1  0.50000000  0.00000000  0.50000000  1
  Li  Li3  1  0.51551800  0.29893900  0.87783100  1
  Li  Li4  1  0.98448200  0.29893900  0.37783100  1
  Li  Li5  1  0.00000000  0.00000000  0.00000000  1
  Co  Co6  1  0.00000000  0.50000000  0.50000000  1
  Co  Co7  1  0.56838300  0.81723000  0.70491500  1
  Co  Co8  1  0.93161700  0.81723000  0.20491500  1
  Co  Co9  1  0.06838300  0.18277000  0.79508500  1
  Co  Co10  1  0.43161700  0.18277000  0.29508500  1
  Co  Co11  1  0.50000000  0.50000000  0.00000000  1
  P  P12  1  0.51046700  0.52674900  0.35555100  1
  P  P13  1  0.98036000  0.91463200  0.39345800  1
  P  P14  1  0.48036000  0.08536800  0.10654200  1
  P  P15  1  0.51964000  0.91463200  0.89345800  1
  P  P16  1  0.48953300  0.47325100  0.64444900  1
  P  P17  1  0.01964000  0.08536800  0.60654200  1
  P  P18  1  0.98953300  0.52674900  0.85555100  1
  P  P19  1  0.01046700  0.47325100  0.14444900  1
  O  O20  1  0.19096800  0.01738900  0.10731900  1
  O  O21  1  0.18061900  0.43865500  0.06962300  1
  O  O22  1  0.31872200  0.06150700  0.89925800  1
  O  O23  1  0.31938100  0.43865500  0.56962300  1
  O  O24  1  0.45026400  0.74793100  0.98064600  1
  O  O25  1  0.69096800  0.98261100  0.39268100  1
  O  O26  1  0.95026400  0.25206900  0.51935400  1
  O  O27  1  0.54279200  0.11524500  0.19977800  1
  O  O28  1  0.80903200  0.98261100  0.89268100  1
  O  O29  1  0.45720800  0.88475500  0.80022200  1
  O  O30  1  0.79605800  0.48062300  0.62074600  1
  O  O31  1  0.18127800  0.06150700  0.39925800  1
  O  O32  1  0.58243000  0.67147600  0.25840400  1
  O  O33  1  0.20394200  0.51937700  0.37925400  1
  O  O34  1  0.54973600  0.25206900  0.01935400  1
  O  O35  1  0.08499000  0.66050300  0.15062000  1
  O  O36  1  0.58499000  0.33949700  0.34938000  1
  O  O37  1  0.91501000  0.33949700  0.84938000  1
  O  O38  1  0.29605800  0.51937700  0.87925400  1
  O  O39  1  0.08243000  0.32852400  0.24159600  1
  O  O40  1  0.41757000  0.32852400  0.74159600  1
  O  O41  1  0.81938100  0.56134500  0.93037700  1
  O  O42  1  0.41501000  0.66050300  0.65062000  1
  O  O43  1  0.30903200  0.01738900  0.60731900  1
  O  O44  1  0.04279200  0.88475500  0.30022200  1
  O  O45  1  0.04973600  0.74793100  0.48064600  1
  O  O46  1  0.91757000  0.67147600  0.75840400  1
  O  O47  1  0.70394200  0.48062300  0.12074600  1
  O  O48  1  0.68127800  0.93849300  0.10074200  1
  O  O49  1  0.81872200  0.93849300  0.60074200  1
  O  O50  1  0.95720800  0.11524500  0.69977800  1
  O  O51  1  0.68061900  0.56134500  0.43037700  1
