# generated using pymatgen
data_Li9V3P8O29
_symmetry_space_group_name_H-M   'P 1'
_cell_length_a   9.88202638
_cell_length_b   9.88202638
_cell_length_c   13.81282700
_cell_angle_alpha   90.00000000
_cell_angle_beta   90.00000000
_cell_angle_gamma   120.00000257
_symmetry_Int_Tables_number   1
_chemical_formula_structural   Li9V3P8O29
_chemical_formula_sum   'Li18 V6 P16 O58'
_cell_volume   1168.16774655
_cell_formula_units_Z   2
loop_
 _symmetry_equiv_pos_site_id
 _symmetry_equiv_pos_as_xyz
  1  'x, y, z'
loop_
 _atom_site_type_symbol
 _atom_site_label
 _atom_site_symmetry_multiplicity
 _atom_site_fract_x
 _atom_site_fract_y
 _atom_site_fract_z
 _atom_site_occupancy
  Li  Li0  1  0.00000000  0.00000000  0.00000000  1
  Li  Li1  1  0.00000000  0.00000000  0.50000000  1
  Li  Li2  1  0.66666700  0.33333300  0.88118900  1
  Li  Li3  1  0.66666700  0.33333300  0.38118900  1
  Li  Li4  1  0.33333300  0.66666700  0.11881100  1
  Li  Li5  1  0.33333300  0.66666700  0.61881100  1
  Li  Li6  1  0.23528500  0.89986100  0.93671400  1
  Li  Li7  1  0.66457600  0.76471500  0.93671400  1
  Li  Li8  1  0.10013900  0.33542400  0.93671400  1
  Li  Li9  1  0.23528500  0.33542400  0.43671400  1
  Li  Li10  1  0.10013900  0.76471500  0.43671400  1
  Li  Li11  1  0.66457600  0.89986100  0.43671400  1
  Li  Li12  1  0.76471500  0.10013900  0.06328600  1
  Li  Li13  1  0.33542400  0.23528500  0.06328600  1
  Li  Li14  1  0.89986100  0.66457600  0.06328600  1
  Li  Li15  1  0.76471500  0.66457600  0.56328600  1
  Li  Li16  1  0.89986100  0.23528500  0.56328600  1
  Li  Li17  1  0.33542400  0.10013900  0.56328600  1
  V  V18  1  0.56671400  0.56671400  0.75000000  1
  V  V19  1  0.00000000  0.43328600  0.75000000  1
  V  V20  1  0.43328600  0.00000000  0.75000000  1
  V  V21  1  0.56671400  0.00000000  0.25000000  1
  V  V22  1  0.43328600  0.43328600  0.25000000  1
  V  V23  1  0.00000000  0.56671400  0.25000000  1
  P  P24  1  0.33333300  0.66666700  0.87494200  1
  P  P25  1  0.33333300  0.66666700  0.37494200  1
  P  P26  1  0.66666700  0.33333300  0.12505800  1
  P  P27  1  0.66666700  0.33333300  0.62505800  1
  P  P28  1  0.91127200  0.68422700  0.84455900  1
  P  P29  1  0.77295500  0.08872800  0.84455900  1
  P  P30  1  0.31577300  0.22704500  0.84455900  1
  P  P31  1  0.91127200  0.22704500  0.34455900  1
  P  P32  1  0.31577300  0.08872800  0.34455900  1
  P  P33  1  0.77295500  0.68422700  0.34455900  1
  P  P34  1  0.08872800  0.31577300  0.15544100  1
  P  P35  1  0.22704500  0.91127200  0.15544100  1
  P  P36  1  0.68422700  0.77295500  0.15544100  1
  P  P37  1  0.08872800  0.77295500  0.65544100  1
  P  P38  1  0.68422700  0.91127200  0.65544100  1
  P  P39  1  0.22704500  0.31577300  0.65544100  1
  O  O40  1  0.33333300  0.66666700  0.98443700  1
  O  O41  1  0.33333300  0.66666700  0.48443700  1
  O  O42  1  0.66666700  0.33333300  0.01556300  1
  O  O43  1  0.66666700  0.33333300  0.51556300  1
  O  O44  1  0.00000000  0.78634100  0.75000000  1
  O  O45  1  0.78634100  0.00000000  0.75000000  1
  O  O46  1  0.21365900  0.21365900  0.75000000  1
  O  O47  1  0.00000000  0.21365900  0.25000000  1
  O  O48  1  0.21365900  0.00000000  0.25000000  1
  O  O49  1  0.78634100  0.78634100  0.25000000  1
  O  O50  1  0.32377000  0.81044400  0.83639000  1
  O  O51  1  0.48667400  0.67623000  0.83639000  1
  O  O52  1  0.18955600  0.51332600  0.83639000  1
  O  O53  1  0.32377000  0.51332600  0.33639000  1
  O  O54  1  0.18955600  0.67623000  0.33639000  1
  O  O55  1  0.48667400  0.81044400  0.33639000  1
  O  O56  1  0.67623000  0.18955600  0.16361000  1
  O  O57  1  0.51332600  0.32377000  0.16361000  1
  O  O58  1  0.81044400  0.48667400  0.16361000  1
  O  O59  1  0.67623000  0.48667400  0.66361000  1
  O  O60  1  0.81044400  0.32377000  0.66361000  1
  O  O61  1  0.51332600  0.18955600  0.66361000  1
  O  O62  1  0.89236400  0.52049300  0.83413900  1
  O  O63  1  0.62812900  0.10763600  0.83413900  1
  O  O64  1  0.47950700  0.37187100  0.83413900  1
  O  O65  1  0.89236400  0.37187100  0.33413900  1
  O  O66  1  0.47950700  0.10763600  0.33413900  1
  O  O67  1  0.62812900  0.52049300  0.33413900  1
  O  O68  1  0.10763600  0.47950700  0.16586100  1
  O  O69  1  0.37187100  0.89236400  0.16586100  1
  O  O70  1  0.52049300  0.62812900  0.16586100  1
  O  O71  1  0.10763600  0.62812900  0.66586100  1
  O  O72  1  0.52049300  0.89236400  0.66586100  1
  O  O73  1  0.37187100  0.47950700  0.66586100  1
  O  O74  1  0.74999700  0.67137100  0.84534700  1
  O  O75  1  0.92137400  0.25000300  0.84534700  1
  O  O76  1  0.32862900  0.07862600  0.84534700  1
  O  O77  1  0.74999700  0.07862600  0.34534700  1
  O  O78  1  0.32862900  0.25000300  0.34534700  1
  O  O79  1  0.92137400  0.67137100  0.34534700  1
  O  O80  1  0.25000300  0.32862900  0.15465300  1
  O  O81  1  0.07862600  0.74999700  0.15465300  1
  O  O82  1  0.67137100  0.92137400  0.15465300  1
  O  O83  1  0.25000300  0.92137400  0.65465300  1
  O  O84  1  0.67137100  0.74999700  0.65465300  1
  O  O85  1  0.07862600  0.32862900  0.65465300  1
  O  O86  1  0.00500900  0.77444200  0.93302300  1
  O  O87  1  0.76943300  0.99499100  0.93302300  1
  O  O88  1  0.22555800  0.23056700  0.93302300  1
  O  O89  1  0.00500900  0.23056700  0.43302300  1
  O  O90  1  0.22555800  0.99499100  0.43302300  1
  O  O91  1  0.76943300  0.77444200  0.43302300  1
  O  O92  1  0.99499100  0.22555800  0.06697700  1
  O  O93  1  0.23056700  0.00500900  0.06697700  1
  O  O94  1  0.77444200  0.76943300  0.06697700  1
  O  O95  1  0.99499100  0.76943300  0.56697700  1
  O  O96  1  0.77444200  0.00500900  0.56697700  1
  O  O97  1  0.23056700  0.22555800  0.56697700  1
