# generated using pymatgen
data_Li3Mn2P5O16
_symmetry_space_group_name_H-M   'P 1'
_cell_length_a   7.07192200
_cell_length_b   5.10189300
_cell_length_c   18.28807403
_cell_angle_alpha   87.02791447
_cell_angle_beta   90.00000000
_cell_angle_gamma   90.00000000
_symmetry_Int_Tables_number   1
_chemical_formula_structural   Li3Mn2P5O16
_chemical_formula_sum   'Li6 Mn4 P10 O32'
_cell_volume   658.94963616
_cell_formula_units_Z   2
loop_
 _symmetry_equiv_pos_site_id
 _symmetry_equiv_pos_as_xyz
  1  'x, y, z'
loop_
 _atom_site_type_symbol
 _atom_site_label
 _atom_site_symmetry_multiplicity
 _atom_site_fract_x
 _atom_site_fract_y
 _atom_site_fract_z
 _atom_site_occupancy
  Li  Li0  1  0.33746300  0.74404600  0.03589600  1
  Li  Li1  1  0.97797400  0.50000000  0.25000000  1
  Li  Li2  1  0.33746300  0.25595400  0.46410400  1
  Li  Li3  1  0.66253700  0.74404600  0.53589600  1
  Li  Li4  1  0.02202600  0.50000000  0.75000000  1
  Li  Li5  1  0.66253700  0.25595400  0.96410400  1
  Mn  Mn6  1  0.83346600  0.72890100  0.08722700  1
  Mn  Mn7  1  0.83346600  0.27109900  0.41277300  1
  Mn  Mn8  1  0.16653400  0.72890100  0.58722700  1
  Mn  Mn9  1  0.16653400  0.27109900  0.91277300  1
  P  P10  1  0.86745400  0.77013600  0.91059700  1
  P  P11  1  0.46981400  0.74051200  0.87536300  1
  P  P12  1  0.24420200  0.00000000  0.75000000  1
  P  P13  1  0.46981400  0.25948800  0.62463700  1
  P  P14  1  0.13254600  0.22986400  0.08940300  1
  P  P15  1  0.53018600  0.25948800  0.12463700  1
  P  P16  1  0.75579800  0.00000000  0.25000000  1
  P  P17  1  0.53018600  0.74051200  0.37536300  1
  P  P18  1  0.13254600  0.77013600  0.41059700  1
  P  P19  1  0.86745400  0.22986400  0.58940300  1
  O  O20  1  0.79469200  0.60654800  0.97794400  1
  O  O21  1  0.39130800  0.91909700  0.93170800  1
  O  O22  1  0.90959000  0.05385900  0.92848200  1
  O  O23  1  0.44806900  0.44897200  0.89273400  1
  O  O24  1  0.20530800  0.39345200  0.02205600  1
  O  O25  1  0.60869200  0.08090300  0.06829200  1
  O  O26  1  0.09041000  0.94614100  0.07151800  1
  O  O27  1  0.55193100  0.55102800  0.10726600  1
  O  O28  1  0.98431900  0.37278500  0.13321800  1
  O  O29  1  0.31488000  0.19829400  0.14553900  1
  O  O30  1  0.61548000  0.18996600  0.20438500  1
  O  O31  1  0.86410300  0.82171800  0.20209600  1
  O  O32  1  0.86410300  0.17828200  0.29790400  1
  O  O33  1  0.61548000  0.81003400  0.29561500  1
  O  O34  1  0.31488000  0.80170600  0.35446100  1
  O  O35  1  0.98431900  0.62721500  0.36678200  1
  O  O36  1  0.55193100  0.44897200  0.39273400  1
  O  O37  1  0.09041000  0.05385900  0.42848200  1
  O  O38  1  0.60869200  0.91909700  0.43170800  1
  O  O39  1  0.20530800  0.60654800  0.47794400  1
  O  O40  1  0.79469200  0.39345200  0.52205600  1
  O  O41  1  0.39130800  0.08090300  0.56829200  1
  O  O42  1  0.90959000  0.94614100  0.57151800  1
  O  O43  1  0.44806900  0.55102800  0.60726600  1
  O  O44  1  0.01568100  0.37278500  0.63321800  1
  O  O45  1  0.68512000  0.19829400  0.64553900  1
  O  O46  1  0.38452000  0.18996600  0.70438500  1
  O  O47  1  0.13589700  0.82171800  0.70209600  1
  O  O48  1  0.13589700  0.17828200  0.79790400  1
  O  O49  1  0.38452000  0.81003400  0.79561500  1
  O  O50  1  0.68512000  0.80170600  0.85446100  1
  O  O51  1  0.01568100  0.62721500  0.86678200  1
