# generated using pymatgen
data_Li3Fe2(PO4)3
_symmetry_space_group_name_H-M   'P 1'
_cell_length_a   4.89005056
_cell_length_b   4.89005056
_cell_length_c   18.88889830
_cell_angle_alpha   89.75417962
_cell_angle_beta   89.75417962
_cell_angle_gamma   67.10173661
_symmetry_Int_Tables_number   1
_chemical_formula_structural   Li3Fe2(PO4)3
_chemical_formula_sum   'Li6 Fe4 P6 O24'
_cell_volume   416.08320038
_cell_formula_units_Z   2
loop_
 _symmetry_equiv_pos_site_id
 _symmetry_equiv_pos_as_xyz
  1  'x, y, z'
loop_
 _atom_site_type_symbol
 _atom_site_label
 _atom_site_symmetry_multiplicity
 _atom_site_fract_x
 _atom_site_fract_y
 _atom_site_fract_z
 _atom_site_occupancy
  Li  Li0  1  0.67306000  0.67306000  0.58623900  1
  Li  Li1  1  0.67253400  0.67253400  0.25328300  1
  Li  Li2  1  0.00037000  0.00037000  0.33403500  1
  Li  Li3  1  0.32694000  0.32694000  0.41376100  1
  Li  Li4  1  0.99963000  0.99963000  0.66596500  1
  Li  Li5  1  0.32746600  0.32746600  0.74671700  1
  Fe  Fe6  1  0.00093800  0.00093800  0.16812300  1
  Fe  Fe7  1  0.00000000  0.00000000  0.00000000  1
  Fe  Fe8  1  0.99906200  0.99906200  0.83187700  1
  Fe  Fe9  1  0.00000000  0.00000000  0.50000000  1
  P  P10  1  0.35131300  0.35131300  0.58174800  1
  P  P11  1  0.65144700  0.65144700  0.75163100  1
  P  P12  1  0.64868700  0.64868700  0.41825200  1
  P  P13  1  0.34855300  0.34855300  0.24836900  1
  P  P14  1  0.65174700  0.65174700  0.08344400  1
  P  P15  1  0.34825300  0.34825300  0.91655600  1
  O  O16  1  0.29975000  0.76262400  0.42256800  1
  O  O17  1  0.30174400  0.76332500  0.75681200  1
  O  O18  1  0.23737600  0.70025000  0.57743200  1
  O  O19  1  0.76629500  0.76629500  0.81603600  1
  O  O20  1  0.23370500  0.23370500  0.18396400  1
  O  O21  1  0.69825600  0.23667500  0.24318800  1
  O  O22  1  0.23638800  0.23638800  0.98175100  1
  O  O23  1  0.75995200  0.75995200  0.48503100  1
  O  O24  1  0.75448600  0.75448600  0.15211100  1
  O  O25  1  0.70025000  0.23737600  0.57743200  1
  O  O26  1  0.23667500  0.69825600  0.24318800  1
  O  O27  1  0.70001100  0.22441700  0.91741800  1
  O  O28  1  0.29998900  0.77558300  0.08258200  1
  O  O29  1  0.74845200  0.74845200  0.35063900  1
  O  O30  1  0.24551400  0.24551400  0.84788900  1
  O  O31  1  0.77558300  0.29998900  0.08258200  1
  O  O32  1  0.76332500  0.30174400  0.75681200  1
  O  O33  1  0.24004800  0.24004800  0.51496900  1
  O  O34  1  0.22441700  0.70001100  0.91741800  1
  O  O35  1  0.76262400  0.29975000  0.42256800  1
  O  O36  1  0.74608800  0.74608800  0.68254800  1
  O  O37  1  0.25154800  0.25154800  0.64936100  1
  O  O38  1  0.76361200  0.76361200  0.01824900  1
  O  O39  1  0.25391200  0.25391200  0.31745200  1
