# generated using pymatgen
data_LiMnPO4
_symmetry_space_group_name_H-M   'P 1'
_cell_length_a   5.11492600
_cell_length_b   6.90449600
_cell_length_c   10.29321000
_cell_angle_alpha   90.00000000
_cell_angle_beta   90.00000000
_cell_angle_gamma   90.00000000
_symmetry_Int_Tables_number   1
_chemical_formula_structural   LiMnPO4
_chemical_formula_sum   'Li4 Mn4 P4 O16'
_cell_volume   363.51486136
_cell_formula_units_Z   4
loop_
 _symmetry_equiv_pos_site_id
 _symmetry_equiv_pos_as_xyz
  1  'x, y, z'
loop_
 _atom_site_type_symbol
 _atom_site_label
 _atom_site_symmetry_multiplicity
 _atom_site_fract_x
 _atom_site_fract_y
 _atom_site_fract_z
 _atom_site_occupancy
  Li  Li0  1  0.68752000  0.21329400  0.15238800  1
  Li  Li1  1  0.18752000  0.71329400  0.34761200  1
  Li  Li2  1  0.81248000  0.21329400  0.65238800  1
  Li  Li3  1  0.31248000  0.71329400  0.84761200  1
  Mn  Mn4  1  0.68850300  0.71291200  0.15320500  1
  Mn  Mn5  1  0.18850300  0.21291200  0.34679500  1
  Mn  Mn6  1  0.81149700  0.71291200  0.65320500  1
  Mn  Mn7  1  0.31149700  0.21291200  0.84679500  1
  P  P8  1  0.81428400  0.46324000  0.90451000  1
  P  P9  1  0.31428400  0.96324000  0.59549000  1
  P  P10  1  0.68571600  0.46324000  0.40451000  1
  P  P11  1  0.18571600  0.96324000  0.09549000  1
  O  O12  1  0.25574900  0.95969500  0.94862500  1
  O  O13  1  0.11579800  0.46733800  0.88318500  1
  O  O14  1  0.69308700  0.64765700  0.84144000  1
  O  O15  1  0.70446900  0.27768800  0.83761800  1
  O  O16  1  0.74425100  0.45969500  0.05137500  1
  O  O17  1  0.88420200  0.96733800  0.11681500  1
  O  O18  1  0.30691300  0.14765700  0.15856000  1
  O  O19  1  0.29553100  0.77768800  0.16238200  1
  O  O20  1  0.79553100  0.27768800  0.33761800  1
  O  O21  1  0.80691300  0.64765700  0.34144000  1
  O  O22  1  0.38420200  0.46733800  0.38318500  1
  O  O23  1  0.24425100  0.95969500  0.44862500  1
  O  O24  1  0.75574900  0.45969500  0.55137500  1
  O  O25  1  0.61579800  0.96733800  0.61681500  1
  O  O26  1  0.19308700  0.14765700  0.65856000  1
  O  O27  1  0.20446900  0.77768800  0.66238200  1
