# generated using pymatgen
data_LiCr2P5O16
_symmetry_space_group_name_H-M   'P 1'
_cell_length_a   6.71667100
_cell_length_b   5.00446300
_cell_length_c   18.70409966
_cell_angle_alpha   89.63206458
_cell_angle_beta   90.00000000
_cell_angle_gamma   90.00000000
_symmetry_Int_Tables_number   1
_chemical_formula_structural   LiCr2P5O16
_chemical_formula_sum   'Li2 Cr4 P10 O32'
_cell_volume   628.69413901
_cell_formula_units_Z   2
loop_
 _symmetry_equiv_pos_site_id
 _symmetry_equiv_pos_as_xyz
  1  'x, y, z'
loop_
 _atom_site_type_symbol
 _atom_site_label
 _atom_site_symmetry_multiplicity
 _atom_site_fract_x
 _atom_site_fract_y
 _atom_site_fract_z
 _atom_site_occupancy
  Li  Li0  1  0.36720100  0.27237100  0.52575400  1
  Li  Li1  1  0.63279900  0.27237100  0.02575400  1
  Cr  Cr2  1  0.18184000  0.25505500  0.09222500  1
  Cr  Cr3  1  0.18018700  0.74666000  0.40740800  1
  Cr  Cr4  1  0.81816000  0.25505500  0.59222500  1
  Cr  Cr5  1  0.81981300  0.74666000  0.90740800  1
  P  P6  1  0.87368800  0.23325300  0.42378000  1
  P  P7  1  0.46534600  0.25978200  0.36909100  1
  P  P8  1  0.25310000  0.99375600  0.25018300  1
  P  P9  1  0.46737200  0.74070000  0.13100500  1
  P  P10  1  0.12631200  0.23325300  0.92378000  1
  P  P11  1  0.53465400  0.25978200  0.86909100  1
  P  P12  1  0.74690000  0.99375600  0.75018300  1
  P  P13  1  0.87571000  0.76599700  0.07865400  1
  P  P14  1  0.12429000  0.76599700  0.57865400  1
  P  P15  1  0.53262800  0.74070000  0.63100500  1
  O  O16  1  0.92724400  0.06308400  0.06958100  1
  O  O17  1  0.38060900  0.95168000  0.08182700  1
  O  O18  1  0.36367500  0.07278000  0.42261500  1
  O  O19  1  0.77462000  0.64459700  0.01214300  1
  O  O20  1  0.22919300  0.33802600  0.99134800  1
  O  O21  1  0.05507500  0.94626300  0.93219300  1
  O  O22  1  0.63632500  0.07278000  0.92261500  1
  O  O23  1  0.97404900  0.42109700  0.89061500  1
  O  O24  1  0.57132500  0.55239800  0.88249400  1
  O  O25  1  0.30320400  0.21190000  0.86395300  1
  O  O26  1  0.86591400  0.84678400  0.80545900  1
  O  O27  1  0.59007900  0.18847000  0.78808100  1
  O  O28  1  0.60228700  0.77930800  0.71189200  1
  O  O29  1  0.85721400  0.15244700  0.69471500  1
  O  O30  1  0.29923200  0.77610000  0.63990700  1
  O  O31  1  0.96227000  0.59255700  0.61085300  1
  O  O32  1  0.56213900  0.45048600  0.61004400  1
  O  O33  1  0.61939100  0.95168000  0.58182700  1
  O  O34  1  0.07275600  0.06308400  0.56958100  1
  O  O35  1  0.03773000  0.59255700  0.11085300  1
  O  O36  1  0.77080700  0.33802600  0.49134800  1
  O  O37  1  0.94492500  0.94626300  0.43219300  1
  O  O38  1  0.22538000  0.64459700  0.51214300  1
  O  O39  1  0.02595100  0.42109700  0.39061500  1
  O  O40  1  0.42867500  0.55239800  0.38249400  1
  O  O41  1  0.69679600  0.21190000  0.36395300  1
  O  O42  1  0.13408600  0.84678400  0.30545900  1
  O  O43  1  0.40992100  0.18847000  0.28808100  1
  O  O44  1  0.39771300  0.77930800  0.21189200  1
  O  O45  1  0.14278600  0.15244700  0.19471500  1
  O  O46  1  0.70076800  0.77610000  0.13990700  1
  O  O47  1  0.43786100  0.45048600  0.11004400  1
