# generated using pymatgen
data_LiMnPO4
_symmetry_space_group_name_H-M   'P 1'
_cell_length_a   5.63059200
_cell_length_b   8.49935600
_cell_length_c   6.32475800
_cell_angle_alpha   89.99865320
_cell_angle_beta   90.00012335
_cell_angle_gamma   89.99991885
_symmetry_Int_Tables_number   1
_chemical_formula_structural   LiMnPO4
_chemical_formula_sum   'Li4 Mn4 P4 O16'
_cell_volume   302.68018602
_cell_formula_units_Z   4
loop_
 _symmetry_equiv_pos_site_id
 _symmetry_equiv_pos_as_xyz
  1  'x, y, z'
loop_
 _atom_site_type_symbol
 _atom_site_label
 _atom_site_symmetry_multiplicity
 _atom_site_fract_x
 _atom_site_fract_y
 _atom_site_fract_z
 _atom_site_occupancy
  Li  Li0  1  0.24999700  0.91437400  0.25305900  1
  Li  Li1  1  0.75000600  0.41434600  0.24696000  1
  Li  Li2  1  0.24999700  0.58563300  0.75304200  1
  Li  Li3  1  0.75000800  0.08561000  0.74694500  1
  Mn  Mn4  1  0.25004800  0.24994500  0.49790400  1
  Mn  Mn5  1  0.75000800  0.75009900  0.50243000  1
  Mn  Mn6  1  0.74997500  0.75000200  0.00192800  1
  Mn  Mn7  1  0.25000600  0.25023900  0.99772900  1
  P  P8  1  0.24999700  0.60289300  0.25266200  1
  P  P9  1  0.75000100  0.10289100  0.24731500  1
  P  P10  1  0.24999300  0.89709900  0.75269700  1
  P  P11  1  0.75000400  0.39709500  0.74734700  1
  O  O12  1  0.25000200  0.50100400  0.05166300  1
  O  O13  1  0.74999100  0.00103000  0.44826700  1
  O  O14  1  0.24999100  0.99895300  0.55174600  1
  O  O15  1  0.74999900  0.49896900  0.94833800  1
  O  O16  1  0.74999600  0.00174000  0.04591100  1
  O  O17  1  0.24999800  0.50170900  0.45414400  1
  O  O18  1  0.74999700  0.49827200  0.54587700  1
  O  O19  1  0.24999700  0.99824700  0.95408900  1
  O  O20  1  0.97178100  0.21673800  0.24777100  1
  O  O21  1  0.52821800  0.21674100  0.24776500  1
  O  O22  1  0.02815700  0.71677700  0.25219200  1
  O  O23  1  0.47183800  0.71677600  0.25219600  1
  O  O24  1  0.52818700  0.28318700  0.74778800  1
  O  O25  1  0.97182000  0.28319100  0.74778600  1
  O  O26  1  0.02821900  0.78321900  0.75222500  1
  O  O27  1  0.47177200  0.78322000  0.75222200  1
