# generated using pymatgen
data_LiH6ClO7
_symmetry_space_group_name_H-M   'P 1'
_cell_length_a   7.72899474
_cell_length_b   7.72899474
_cell_length_c   5.60790800
_cell_angle_alpha   90.00000000
_cell_angle_beta   90.00000000
_cell_angle_gamma   120.00000630
_symmetry_Int_Tables_number   1
_chemical_formula_structural   LiH6ClO7
_chemical_formula_sum   'Li2 H12 Cl2 O14'
_cell_volume   290.11989220
_cell_formula_units_Z   2
loop_
 _symmetry_equiv_pos_site_id
 _symmetry_equiv_pos_as_xyz
  1  'x, y, z'
loop_
 _atom_site_type_symbol
 _atom_site_label
 _atom_site_symmetry_multiplicity
 _atom_site_fract_x
 _atom_site_fract_y
 _atom_site_fract_z
 _atom_site_occupancy
  Li  Li0  1  0.00000000  0.00000000  0.77805100  1
  Li  Li1  1  0.00000000  0.00000000  0.27805100  1
  H  H2  1  0.06442500  0.33111200  0.03508800  1
  H  H3  1  0.93557500  0.26668700  0.53508800  1
  H  H4  1  0.66888800  0.73331300  0.03508800  1
  H  H5  1  0.26668700  0.93557500  0.03508800  1
  H  H6  1  0.73331300  0.06442500  0.53508800  1
  H  H7  1  0.93557500  0.66888800  0.53508800  1
  H  H8  1  0.33111200  0.26668700  0.53508800  1
  H  H9  1  0.06442500  0.73331300  0.03508800  1
  H  H10  1  0.33111200  0.06442500  0.53508800  1
  H  H11  1  0.73331300  0.66888800  0.53508800  1
  H  H12  1  0.26668700  0.33111200  0.03508800  1
  H  H13  1  0.66888800  0.93557500  0.03508800  1
  Cl  Cl14  1  0.66666700  0.33333300  0.99702300  1
  Cl  Cl15  1  0.33333300  0.66666700  0.49702300  1
  O  O16  1  0.12154700  0.24309400  0.02814600  1
  O  O17  1  0.43634100  0.87268300  0.58688700  1
  O  O18  1  0.24309400  0.12154700  0.52814600  1
  O  O19  1  0.12154700  0.87845300  0.02814600  1
  O  O20  1  0.87845300  0.12154700  0.52814600  1
  O  O21  1  0.43634100  0.56365900  0.58688700  1
  O  O22  1  0.87268300  0.43634100  0.08688700  1
  O  O23  1  0.56365900  0.12731700  0.08688700  1
  O  O24  1  0.87845300  0.75690600  0.52814600  1
  O  O25  1  0.12731700  0.56365900  0.58688700  1
  O  O26  1  0.56365900  0.43634100  0.08688700  1
  O  O27  1  0.33333300  0.66666700  0.23770100  1
  O  O28  1  0.66666700  0.33333300  0.73770100  1
  O  O29  1  0.75690600  0.87845300  0.02814600  1
