# generated using pymatgen
data_LiCoP2O7
_symmetry_space_group_name_H-M   'P 1'
_cell_length_a   6.16002891
_cell_length_b   6.16002891
_cell_length_c   13.03495677
_cell_angle_alpha   74.75815936
_cell_angle_beta   74.75815936
_cell_angle_gamma   80.48119999
_symmetry_Int_Tables_number   1
_chemical_formula_structural   LiCoP2O7
_chemical_formula_sum   'Li4 Co4 P8 O28'
_cell_volume   457.97063385
_cell_formula_units_Z   4
loop_
 _symmetry_equiv_pos_site_id
 _symmetry_equiv_pos_as_xyz
  1  'x, y, z'
loop_
 _atom_site_type_symbol
 _atom_site_label
 _atom_site_symmetry_multiplicity
 _atom_site_fract_x
 _atom_site_fract_y
 _atom_site_fract_z
 _atom_site_occupancy
  Li  Li0  1  0.76483200  0.00047000  0.14454900  1
  Li  Li1  1  0.99953000  0.23516800  0.35545100  1
  Li  Li2  1  0.23516800  0.99953000  0.85545100  1
  Li  Li3  1  0.00047000  0.76483200  0.64454900  1
  Co  Co4  1  0.87713600  0.40610800  0.86049700  1
  Co  Co5  1  0.12286400  0.59389200  0.13950300  1
  Co  Co6  1  0.59389200  0.12286400  0.63950300  1
  Co  Co7  1  0.40610800  0.87713600  0.36049700  1
  P  P8  1  0.57877300  0.66471300  0.57265400  1
  P  P9  1  0.42122700  0.33528800  0.42734600  1
  P  P10  1  0.66471300  0.57877300  0.07265400  1
  P  P11  1  0.24855400  0.08802100  0.13767000  1
  P  P12  1  0.75144600  0.91197900  0.86233000  1
  P  P13  1  0.33528700  0.42122700  0.92734600  1
  P  P14  1  0.08802100  0.24855400  0.63767000  1
  P  P15  1  0.91197900  0.75144600  0.36233000  1
  O  O16  1  0.20358900  0.39373500  0.52105000  1
  O  O17  1  0.18987300  0.33845600  0.86861200  1
  O  O18  1  0.10909800  0.92213800  0.11858500  1
  O  O19  1  0.66154400  0.81012700  0.63138800  1
  O  O20  1  0.27539800  0.08039600  0.68231700  1
  O  O21  1  0.42937300  0.97772200  0.20174500  1
  O  O22  1  0.07786300  0.89090200  0.38141500  1
  O  O23  1  0.60626500  0.79641100  0.97895000  1
  O  O24  1  0.81012700  0.66154400  0.13138800  1
  O  O25  1  0.97772200  0.42937300  0.70174500  1
  O  O26  1  0.72460200  0.91960400  0.31768300  1
  O  O27  1  0.38561300  0.78915900  0.51689600  1
  O  O28  1  0.08039600  0.27539800  0.18231700  1
  O  O29  1  0.79641100  0.60626500  0.47895000  1
  O  O30  1  0.43614600  0.52542300  0.14776000  1
  O  O31  1  0.21084100  0.61438700  0.98310400  1
  O  O32  1  0.33845600  0.18987300  0.36861200  1
  O  O33  1  0.92213800  0.10909800  0.61858500  1
  O  O34  1  0.52542300  0.43614600  0.64776000  1
  O  O35  1  0.61438700  0.21084100  0.48310400  1
  O  O36  1  0.47457700  0.56385400  0.35224000  1
  O  O37  1  0.39373500  0.20358900  0.02105000  1
  O  O38  1  0.02227800  0.57062700  0.29825500  1
  O  O39  1  0.57062700  0.02227800  0.79825500  1
  O  O40  1  0.56385400  0.47457700  0.85224000  1
  O  O41  1  0.78915900  0.38561300  0.01689600  1
  O  O42  1  0.89090200  0.07786200  0.88141500  1
  O  O43  1  0.91960400  0.72460200  0.81768300  1
