# generated using pymatgen
data_LiVPO4
_symmetry_space_group_name_H-M   'P 1'
_cell_length_a   4.76669615
_cell_length_b   6.11325149
_cell_length_c   10.53061771
_cell_angle_alpha   90.00000000
_cell_angle_beta   90.00000000
_cell_angle_gamma   90.00000000
_symmetry_Int_Tables_number   1
_chemical_formula_structural   LiVPO4
_chemical_formula_sum   'Li4 V4 P4 O16'
_cell_volume   306.86233003
_cell_formula_units_Z   4
loop_
 _symmetry_equiv_pos_site_id
 _symmetry_equiv_pos_as_xyz
  1  'x, y, z'
loop_
 _atom_site_type_symbol
 _atom_site_label
 _atom_site_symmetry_multiplicity
 _atom_site_fract_x
 _atom_site_fract_y
 _atom_site_fract_z
 _atom_site_occupancy
  Li  Li0  1  0.00000000  0.00000000  0.00000000  1
  Li  Li1  1  0.50000101  0.00000000  0.50000011  1
  Li  Li2  1  0.00000000  0.49999918  0.00000000  1
  Li  Li3  1  0.50000101  0.49999918  0.50000011  1
  O  O4  1  0.77738877  0.54766799  0.33953803  1
  O  O5  1  0.22261115  0.45233202  0.66046218  1
  O  O6  1  0.72261217  0.54766799  0.83953813  1
  O  O7  1  0.77738877  0.95233120  0.33953803  1
  O  O8  1  0.27738986  0.04766881  0.16046208  1
  O  O9  1  0.73578744  0.24999959  0.09592240  1
  O  O10  1  0.27738986  0.45233202  0.16046208  1
  O  O11  1  0.22261115  0.04766881  0.66046218  1
  O  O12  1  0.26421248  0.75000042  0.90407781  1
  O  O13  1  0.76421350  0.24999959  0.59592154  1
  O  O14  1  0.79261885  0.75000042  0.54594241  1
  O  O15  1  0.23578853  0.75000042  0.40407771  1
  O  O16  1  0.70738209  0.75000042  0.04594230  1
  O  O17  1  0.29261783  0.24999959  0.95405695  1
  O  O18  1  0.20738107  0.24999959  0.45405684  1
  O  O19  1  0.72261217  0.95233120  0.83953813  1
  P  P20  1  0.58645480  0.75000042  0.90900989  1
  P  P21  1  0.91354403  0.75000042  0.40900979  1
  P  P22  1  0.41354723  0.24999959  0.09098936  1
  P  P23  1  0.08645378  0.24999959  0.59099042  1
  V  V24  1  0.01666555  0.75000042  0.72513010  1
  V  V25  1  0.48333336  0.75000042  0.22512999  1
  V  V26  1  0.98333437  0.24999959  0.27486915  1
  V  V27  1  0.51666656  0.24999959  0.77487022  1
