# generated using pymatgen
data_Li3Cr2(PO4)3
_symmetry_space_group_name_H-M   'P 1'
_cell_length_a   8.70288200
_cell_length_b   8.42861600
_cell_length_c   12.21249113
_cell_angle_alpha   87.78714390
_cell_angle_beta   90.00000000
_cell_angle_gamma   90.00000000
_symmetry_Int_Tables_number   1
_chemical_formula_structural   Li3Cr2(PO4)3
_chemical_formula_sum   'Li12 Cr8 P12 O48'
_cell_volume   895.15788315
_cell_formula_units_Z   4
loop_
 _symmetry_equiv_pos_site_id
 _symmetry_equiv_pos_as_xyz
  1  'x, y, z'
loop_
 _atom_site_type_symbol
 _atom_site_label
 _atom_site_symmetry_multiplicity
 _atom_site_fract_x
 _atom_site_fract_y
 _atom_site_fract_z
 _atom_site_occupancy
  Li  Li0  1  0.80907100  0.71346000  0.94830700  1
  Li  Li1  1  0.19092900  0.28654000  0.05169300  1
  Li  Li2  1  0.50000000  0.50000000  0.00000000  1
  Li  Li3  1  0.00000000  0.00000000  0.00000000  1
  Li  Li4  1  0.89520100  0.00000000  0.25000000  1
  Li  Li5  1  0.59901900  0.50000000  0.25000000  1
  Li  Li6  1  0.10479900  0.00000000  0.75000000  1
  Li  Li7  1  0.19092900  0.71346000  0.44830700  1
  Li  Li8  1  0.50000000  0.50000000  0.50000000  1
  Li  Li9  1  0.40098100  0.50000000  0.75000000  1
  Li  Li10  1  0.80907100  0.28654000  0.55169300  1
  Li  Li11  1  0.00000000  0.00000000  0.50000000  1
  Cr  Cr12  1  0.99923200  0.71854900  0.14193800  1
  Cr  Cr13  1  0.99923200  0.28145100  0.35806200  1
  Cr  Cr14  1  0.49744300  0.21763200  0.14377400  1
  Cr  Cr15  1  0.49744300  0.78236800  0.35622600  1
  Cr  Cr16  1  0.50255700  0.21763200  0.64377400  1
  Cr  Cr17  1  0.50255700  0.78236800  0.85622600  1
  Cr  Cr18  1  0.00076800  0.71854900  0.64193800  1
  Cr  Cr19  1  0.00076800  0.28145100  0.85806200  1
  P  P20  1  0.36022800  0.15406600  0.89303500  1
  P  P21  1  0.79758500  0.00000000  0.75000000  1
  P  P22  1  0.85311000  0.64997700  0.39730100  1
  P  P23  1  0.14689000  0.35002300  0.60269900  1
  P  P24  1  0.63977200  0.84593400  0.10696500  1
  P  P25  1  0.63977200  0.15406600  0.39303500  1
  P  P26  1  0.85311000  0.35002300  0.10269900  1
  P  P27  1  0.28745200  0.50000000  0.25000000  1
  P  P28  1  0.71254800  0.50000000  0.75000000  1
  P  P29  1  0.14689000  0.64997700  0.89730100  1
  P  P30  1  0.36022800  0.84593400  0.60696500  1
  P  P31  1  0.20241500  0.00000000  0.25000000  1
  O  O32  1  0.41181400  0.25258200  0.99207100  1
  O  O33  1  0.19046900  0.37808300  0.31386600  1
  O  O34  1  0.67592900  0.34570300  0.08708400  1
  O  O35  1  0.19046900  0.62191700  0.18613400  1
  O  O36  1  0.39703800  0.42945100  0.16181200  1
  O  O37  1  0.09112300  0.06790300  0.33781900  1
  O  O38  1  0.58154800  0.01483300  0.10893200  1
  O  O39  1  0.29553700  0.12851400  0.18751800  1
  O  O40  1  0.70446300  0.87148600  0.81248200  1
  O  O41  1  0.41845200  0.98516700  0.89106800  1
  O  O42  1  0.90887700  0.93209700  0.66218100  1
  O  O43  1  0.60296200  0.57054900  0.83818800  1
  O  O44  1  0.80953100  0.37808300  0.81386600  1
  O  O45  1  0.32407100  0.65429700  0.91291600  1
  O  O46  1  0.80953100  0.62191700  0.68613400  1
  O  O47  1  0.05719800  0.74741100  0.98330600  1
  O  O48  1  0.90887700  0.06790300  0.83781900  1
  O  O49  1  0.94280200  0.25258900  0.01669400  1
  O  O50  1  0.94280200  0.74741100  0.48330600  1
  O  O51  1  0.40835900  0.74699700  0.71049700  1
  O  O52  1  0.10843400  0.47149600  0.90691600  1
  O  O53  1  0.09568000  0.73121100  0.78788500  1
  O  O54  1  0.60296200  0.42945100  0.66181200  1
  O  O55  1  0.58154800  0.98516700  0.39106800  1
  O  O56  1  0.40835900  0.25300300  0.78950300  1
  O  O57  1  0.18028500  0.85846900  0.59384700  1
  O  O58  1  0.70446300  0.12851400  0.68751800  1
  O  O59  1  0.90432000  0.73121100  0.28788500  1
  O  O60  1  0.89156600  0.47149600  0.40691600  1
  O  O61  1  0.41181400  0.74741800  0.50792900  1
  O  O62  1  0.67592900  0.65429700  0.41291600  1
  O  O63  1  0.18028500  0.14153100  0.90615300  1
  O  O64  1  0.81971500  0.85846900  0.09384700  1
  O  O65  1  0.32407100  0.34570300  0.58708400  1
  O  O66  1  0.58818600  0.25258200  0.49207100  1
  O  O67  1  0.10843400  0.52850400  0.59308400  1
  O  O68  1  0.09568000  0.26878900  0.71211500  1
  O  O69  1  0.29553700  0.87148600  0.31248200  1
  O  O70  1  0.81971500  0.14153100  0.40615300  1
  O  O71  1  0.59164100  0.74699700  0.21049700  1
  O  O72  1  0.09112300  0.93209700  0.16218100  1
  O  O73  1  0.39703800  0.57054900  0.33818800  1
  O  O74  1  0.90432000  0.26878900  0.21211500  1
  O  O75  1  0.89156600  0.52850400  0.09308400  1
  O  O76  1  0.59164100  0.25300300  0.28950300  1
  O  O77  1  0.05719800  0.25258900  0.51669400  1
  O  O78  1  0.58818600  0.74741800  0.00792900  1
  O  O79  1  0.41845200  0.01483300  0.60893200  1
