# generated using pymatgen
data_Li3Cr2P5O18
_symmetry_space_group_name_H-M   'P 1'
_cell_length_a   6.46733900
_cell_length_b   9.44628886
_cell_length_c   10.51350284
_cell_angle_alpha   95.97492093
_cell_angle_beta   92.64365498
_cell_angle_gamma   91.48763436
_symmetry_Int_Tables_number   1
_chemical_formula_structural   Li3Cr2P5O18
_chemical_formula_sum   'Li6 Cr4 P10 O36'
_cell_volume   637.81955011
_cell_formula_units_Z   2
loop_
 _symmetry_equiv_pos_site_id
 _symmetry_equiv_pos_as_xyz
  1  'x, y, z'
loop_
 _atom_site_type_symbol
 _atom_site_label
 _atom_site_symmetry_multiplicity
 _atom_site_fract_x
 _atom_site_fract_y
 _atom_site_fract_z
 _atom_site_occupancy
  Li  Li0  1  0.00594000  0.05842500  0.86839400  1
  Li  Li1  1  0.99406000  0.94157500  0.13160600  1
  Li  Li2  1  0.86785700  0.78053700  0.33585500  1
  Li  Li3  1  0.45427000  0.72573000  0.39905100  1
  Li  Li4  1  0.54573000  0.27427000  0.60094900  1
  Li  Li5  1  0.13214300  0.21946300  0.66414500  1
  Cr  Cr6  1  0.32425600  0.77711900  0.95074600  1
  Cr  Cr7  1  0.76755300  0.64048100  0.59363800  1
  Cr  Cr8  1  0.23244700  0.35951900  0.40636200  1
  Cr  Cr9  1  0.67574400  0.22288100  0.04925400  1
  P  P10  1  0.27262400  0.59141400  0.64530600  1
  P  P11  1  0.18169500  0.58017500  0.17388800  1
  P  P12  1  0.83002600  0.72765000  0.89730500  1
  P  P13  1  0.76632700  0.97572800  0.60070700  1
  P  P14  1  0.47864200  0.04517800  0.79946200  1
  P  P15  1  0.23367300  0.02427200  0.39929300  1
  P  P16  1  0.16997400  0.27235000  0.10269500  1
  P  P17  1  0.81830500  0.41982500  0.82611200  1
  P  P18  1  0.72737600  0.40858600  0.35469400  1
  P  P19  1  0.52135800  0.95482200  0.20053800  1
  O  O20  1  0.36868400  0.23783800  0.03777300  1
  O  O21  1  0.57548200  0.94341300  0.68707000  1
  O  O22  1  0.33603700  0.92150600  0.10224400  1
  O  O23  1  0.03778400  0.97800000  0.31700400  1
  O  O24  1  0.96221600  0.02200000  0.68299600  1
  O  O25  1  0.66396300  0.07849400  0.89775600  1
  O  O26  1  0.42451800  0.05658700  0.31293000  1
  O  O27  1  0.68966200  0.04993400  0.15007700  1
  O  O28  1  0.71280800  0.10239900  0.52835800  1
  O  O29  1  0.39633300  0.17306500  0.74161700  1
  O  O30  1  0.21885700  0.16866800  0.48201200  1
  O  O31  1  0.98662300  0.18035100  0.03761900  1
  O  O32  1  0.18919800  0.25137800  0.24481100  1
  O  O33  1  0.99602900  0.32176900  0.80317500  1
  O  O34  1  0.90099800  0.56878100  0.90561700  1
  O  O35  1  0.66729700  0.36463200  0.91930600  1
  O  O36  1  0.93066900  0.36005800  0.41928600  1
  O  O37  1  0.53854300  0.34522800  0.42047600  1
  O  O38  1  0.27188500  0.42736300  0.60108400  1
  O  O39  1  0.28719200  0.89760100  0.47164200  1
  O  O40  1  0.71993700  0.45999400  0.69673700  1
  O  O41  1  0.09900200  0.43121900  0.09438300  1
  O  O42  1  0.31033800  0.95006600  0.84992300  1
  O  O43  1  0.28006300  0.54000600  0.30326300  1
  O  O44  1  0.28978700  0.63282400  0.78990600  1
  O  O45  1  0.72811500  0.57263700  0.39891600  1
  O  O46  1  0.46145700  0.65477200  0.57952400  1
  O  O47  1  0.06933100  0.63994200  0.58071400  1
  O  O48  1  0.33270300  0.63536800  0.08069400  1
  O  O49  1  0.63131600  0.76216200  0.96222700  1
  O  O50  1  0.00397100  0.67823100  0.19682500  1
  O  O51  1  0.81080200  0.74862200  0.75518900  1
  O  O52  1  0.01337700  0.81964900  0.96238100  1
  O  O53  1  0.78114300  0.83133200  0.51798800  1
  O  O54  1  0.60366700  0.82693500  0.25838300  1
  O  O55  1  0.71021300  0.36717600  0.21009400  1
