# generated using pymatgen
data_LiNiPO4
_symmetry_space_group_name_H-M   'P 1'
_cell_length_a   4.95115424
_cell_length_b   9.93418945
_cell_length_c   6.96686425
_cell_angle_alpha   90.02073858
_cell_angle_beta   91.03655351
_cell_angle_gamma   90.02276526
_symmetry_Int_Tables_number   1
_chemical_formula_structural   LiNiPO4
_chemical_formula_sum   'Li4 Ni4 P4 O16'
_cell_volume   342.61399858
_cell_formula_units_Z   4
loop_
 _symmetry_equiv_pos_site_id
 _symmetry_equiv_pos_as_xyz
  1  'x, y, z'
loop_
 _atom_site_type_symbol
 _atom_site_label
 _atom_site_symmetry_multiplicity
 _atom_site_fract_x
 _atom_site_fract_y
 _atom_site_fract_z
 _atom_site_occupancy
  Li  Li0  1  0.80190900  0.84128000  0.49287600  1
  Li  Li1  1  0.69785300  0.34140400  0.00701900  1
  Li  Li2  1  0.19799700  0.15875600  0.50720900  1
  Li  Li3  1  0.30215600  0.65852800  0.99282900  1
  Ni  Ni4  1  0.71286100  0.35791600  0.50719900  1
  Ni  Ni5  1  0.28703700  0.64212300  0.49289400  1
  Ni  Ni6  1  0.78618900  0.85771000  0.99256200  1
  Ni  Ni7  1  0.21421900  0.14214600  0.00777000  1
  P  P8  1  0.69689100  0.09614600  0.74822900  1
  P  P9  1  0.80381000  0.59576200  0.75152600  1
  P  P10  1  0.19602700  0.40423800  0.24842400  1
  P  P11  1  0.30318500  0.90390000  0.25177500  1
  O  O12  1  0.82095800  0.14970200  0.94213000  1
  O  O13  1  0.68062400  0.64877100  0.55720700  1
  O  O14  1  0.17939100  0.85049500  0.05768300  1
  O  O15  1  0.31921500  0.35121600  0.44275800  1
  O  O16  1  0.61318700  0.87884200  0.24605200  1
  O  O17  1  0.88600600  0.37922200  0.25378000  1
  O  O18  1  0.11383000  0.62077500  0.74616000  1
  O  O19  1  0.38686700  0.12116500  0.75398800  1
  O  O20  1  0.68740200  0.66978200  0.92719900  1
  O  O21  1  0.31254100  0.33019200  0.07274500  1
  O  O22  1  0.18717400  0.83029000  0.42800200  1
  O  O23  1  0.81277400  0.16966300  0.57188300  1
  O  O24  1  0.23840200  0.05658300  0.26647500  1
  O  O25  1  0.73840500  0.44319300  0.76644300  1
  O  O26  1  0.26154400  0.55679100  0.23351600  1
  O  O27  1  0.76154800  0.94341100  0.73366800  1
