# generated using pymatgen
data_Li3VPCO7
_symmetry_space_group_name_H-M   'P 1'
_cell_length_a   6.60990300
_cell_length_b   8.53227940
_cell_length_c   10.00798149
_cell_angle_alpha   83.43836432
_cell_angle_beta   90.00000000
_cell_angle_gamma   90.00000000
_symmetry_Int_Tables_number   1
_chemical_formula_structural   Li3VPCO7
_chemical_formula_sum   'Li12 V4 P4 C4 O28'
_cell_volume   560.72826087
_cell_formula_units_Z   4
loop_
 _symmetry_equiv_pos_site_id
 _symmetry_equiv_pos_as_xyz
  1  'x, y, z'
loop_
 _atom_site_type_symbol
 _atom_site_label
 _atom_site_symmetry_multiplicity
 _atom_site_fract_x
 _atom_site_fract_y
 _atom_site_fract_z
 _atom_site_occupancy
  Li  Li0  1  0.25000000  0.10513000  0.39793900  1
  Li  Li1  1  0.25000000  0.10513000  0.89793900  1
  Li  Li2  1  0.75000000  0.89487000  0.10206100  1
  Li  Li3  1  0.75000000  0.89487000  0.60206100  1
  Li  Li4  1  0.97807600  0.72061300  0.36639900  1
  Li  Li5  1  0.97807600  0.72061300  0.86639900  1
  Li  Li6  1  0.02192400  0.27938700  0.13360100  1
  Li  Li7  1  0.02192400  0.27938700  0.63360100  1
  Li  Li8  1  0.47807600  0.27938700  0.13360100  1
  Li  Li9  1  0.47807600  0.27938700  0.63360100  1
  Li  Li10  1  0.52192400  0.72061300  0.36639900  1
  Li  Li11  1  0.52192400  0.72061300  0.86639900  1
  V  V12  1  0.75000000  0.32569800  0.89574500  1
  V  V13  1  0.25000000  0.67430200  0.60425500  1
  V  V14  1  0.75000000  0.32569800  0.39574500  1
  V  V15  1  0.25000000  0.67430200  0.10425500  1
  P  P16  1  0.25000000  0.40996900  0.36566000  1
  P  P17  1  0.25000000  0.40996900  0.86566000  1
  P  P18  1  0.75000000  0.59003100  0.13434000  1
  P  P19  1  0.75000000  0.59003100  0.63434000  1
  C  C20  1  0.75000000  0.03623600  0.33565100  1
  C  C21  1  0.75000000  0.03623600  0.83565100  1
  C  C22  1  0.25000000  0.96376400  0.16434900  1
  C  C23  1  0.25000000  0.96376400  0.66434900  1
  O  O24  1  0.25000000  0.84201400  0.25661900  1
  O  O25  1  0.25000000  0.84201400  0.75661900  1
  O  O26  1  0.75000000  0.15798600  0.24338100  1
  O  O27  1  0.75000000  0.15798600  0.74338100  1
  O  O28  1  0.75000000  0.06612600  0.45999400  1
  O  O29  1  0.75000000  0.06612600  0.95999400  1
  O  O30  1  0.25000000  0.93387400  0.04000600  1
  O  O31  1  0.25000000  0.93387400  0.54000600  1
  O  O32  1  0.75000000  0.42601900  0.08396200  1
  O  O33  1  0.75000000  0.42601900  0.58396200  1
  O  O34  1  0.25000000  0.57398100  0.41603800  1
  O  O35  1  0.25000000  0.57398100  0.91603800  1
  O  O36  1  0.25000000  0.43250100  0.20840800  1
  O  O37  1  0.25000000  0.43250100  0.70840900  1
  O  O38  1  0.75000000  0.56749900  0.29159200  1
  O  O39  1  0.75000000  0.56749900  0.79159200  1
  O  O40  1  0.75000000  0.89368300  0.30335400  1
  O  O41  1  0.75000000  0.89368300  0.80335400  1
  O  O42  1  0.25000000  0.10631700  0.19664600  1
  O  O43  1  0.25000000  0.10631700  0.69664600  1
  O  O44  1  0.56722000  0.69418400  0.08099400  1
  O  O45  1  0.56722000  0.69418400  0.58099400  1
  O  O46  1  0.93278000  0.69418400  0.08099400  1
  O  O47  1  0.93278000  0.69418400  0.58099400  1
  O  O48  1  0.43278000  0.30581600  0.41900600  1
  O  O49  1  0.43278000  0.30581600  0.91900600  1
  O  O50  1  0.06722000  0.30581600  0.41900600  1
  O  O51  1  0.06722000  0.30581600  0.91900600  1
