# generated using pymatgen
data_LiMn4(PO4)3
_symmetry_space_group_name_H-M   'P 1'
_cell_length_a   6.44910600
_cell_length_b   9.94313000
_cell_length_c   16.95837600
_cell_angle_alpha   90.00000000
_cell_angle_beta   90.00000000
_cell_angle_gamma   90.00000000
_symmetry_Int_Tables_number   1
_chemical_formula_structural   LiMn4(PO4)3
_chemical_formula_sum   'Li4 Mn16 P12 O48'
_cell_volume   1087.44397897
_cell_formula_units_Z   4
loop_
 _symmetry_equiv_pos_site_id
 _symmetry_equiv_pos_as_xyz
  1  'x, y, z'
loop_
 _atom_site_type_symbol
 _atom_site_label
 _atom_site_symmetry_multiplicity
 _atom_site_fract_x
 _atom_site_fract_y
 _atom_site_fract_z
 _atom_site_occupancy
  Li  Li0  1  0.00000000  0.77931200  0.40236300  1
  Li  Li1  1  0.00000000  0.22068800  0.59763700  1
  Li  Li2  1  0.50000000  0.27931200  0.09763700  1
  Li  Li3  1  0.50000000  0.72068800  0.90236300  1
  Mn  Mn4  1  0.00000000  0.48184200  0.13407000  1
  Mn  Mn5  1  0.00000000  0.51815800  0.86593000  1
  Mn  Mn6  1  0.00000000  0.94445700  0.90551700  1
  Mn  Mn7  1  0.00000000  0.05554300  0.09448300  1
  Mn  Mn8  1  0.75225200  0.25306900  0.30447700  1
  Mn  Mn9  1  0.75225200  0.74693100  0.69552300  1
  Mn  Mn10  1  0.74774800  0.75306900  0.19552300  1
  Mn  Mn11  1  0.74774800  0.24693100  0.80447700  1
  Mn  Mn12  1  0.50000000  0.98184200  0.36593000  1
  Mn  Mn13  1  0.50000000  0.55554300  0.40551700  1
  Mn  Mn14  1  0.50000000  0.44445700  0.59448300  1
  Mn  Mn15  1  0.50000000  0.01815800  0.63407000  1
  Mn  Mn16  1  0.25225200  0.75306900  0.19552300  1
  Mn  Mn17  1  0.25225200  0.24693100  0.80447700  1
  Mn  Mn18  1  0.24774800  0.25306900  0.30447700  1
  Mn  Mn19  1  0.24774800  0.74693100  0.69552300  1
  P  P20  1  0.50000000  0.94771400  0.82942100  1
  P  P21  1  0.50000000  0.53897800  0.78476200  1
  P  P22  1  0.50000000  0.78146400  0.53471600  1
  P  P23  1  0.50000000  0.21853600  0.46528400  1
  P  P24  1  0.50000000  0.46102200  0.21523800  1
  P  P25  1  0.50000000  0.05228600  0.17057900  1
  P  P26  1  0.00000000  0.28146400  0.96528400  1
  P  P27  1  0.00000000  0.03897800  0.71523800  1
  P  P28  1  0.00000000  0.44771400  0.67057900  1
  P  P29  1  0.00000000  0.55228600  0.32942100  1
  P  P30  1  0.00000000  0.96102200  0.28476200  1
  P  P31  1  0.00000000  0.71853600  0.03471600  1
  O  O32  1  0.00000000  0.39602900  0.32038200  1
  O  O33  1  0.19189200  0.60591000  0.37316100  1
  O  O34  1  0.19116100  0.33204700  0.91654200  1
  O  O35  1  0.19116100  0.66795300  0.08345800  1
  O  O36  1  0.19430800  0.09650800  0.67406200  1
  O  O37  1  0.19430800  0.90349200  0.32593800  1
  O  O38  1  0.30569200  0.59650800  0.82593800  1
  O  O39  1  0.50000000  0.16337200  0.54936800  1
  O  O40  1  0.30883900  0.83204700  0.58345800  1
  O  O41  1  0.30883900  0.16795300  0.41654200  1
  O  O42  1  0.30810800  0.89409000  0.87316100  1
  O  O43  1  0.30810800  0.10591000  0.12683900  1
  O  O44  1  0.50000000  0.10397100  0.82038200  1
  O  O45  1  0.50000000  0.38297800  0.77874400  1
  O  O46  1  0.50000000  0.88510400  0.74251400  1
  O  O47  1  0.50000000  0.59642800  0.69732300  1
  O  O48  1  0.00000000  0.87434400  0.02702600  1
  O  O49  1  0.00000000  0.33662800  0.04936800  1
  O  O50  1  0.00000000  0.90357200  0.19732300  1
  O  O51  1  0.00000000  0.61489600  0.24251400  1
  O  O52  1  0.00000000  0.11702200  0.27874400  1
  O  O53  1  0.19189200  0.39409000  0.62683900  1
  O  O54  1  0.00000000  0.60397100  0.67961800  1
  O  O55  1  0.00000000  0.88297800  0.72125600  1
  O  O56  1  0.00000000  0.38510400  0.75748600  1
  O  O57  1  0.00000000  0.09642800  0.80267700  1
  O  O58  1  0.00000000  0.66337200  0.95063200  1
  O  O59  1  0.00000000  0.12565600  0.97297400  1
  O  O60  1  0.80810800  0.60591000  0.37316100  1
  O  O61  1  0.80810800  0.39409000  0.62683900  1
  O  O62  1  0.80883900  0.66795300  0.08345800  1
  O  O63  1  0.80883900  0.33204700  0.91654200  1
  O  O64  1  0.80569200  0.90349200  0.32593800  1
  O  O65  1  0.80569200  0.09650800  0.67406200  1
  O  O66  1  0.69430800  0.40349200  0.17406200  1
  O  O67  1  0.69430800  0.59650800  0.82593800  1
  O  O68  1  0.69116100  0.16795300  0.41654200  1
  O  O69  1  0.69116100  0.83204700  0.58345800  1
  O  O70  1  0.69189200  0.10591000  0.12683900  1
  O  O71  1  0.69189200  0.89409000  0.87316100  1
  O  O72  1  0.50000000  0.89602900  0.17961800  1
  O  O73  1  0.50000000  0.61702200  0.22125600  1
  O  O74  1  0.50000000  0.11489600  0.25748600  1
  O  O75  1  0.50000000  0.40357200  0.30267700  1
  O  O76  1  0.50000000  0.83662800  0.45063200  1
  O  O77  1  0.50000000  0.37434400  0.47297400  1
  O  O78  1  0.50000000  0.62565600  0.52702600  1
  O  O79  1  0.30569200  0.40349200  0.17406200  1
