# generated using pymatgen
data_LiMn2P5O16
_symmetry_space_group_name_H-M   'P 1'
_cell_length_a   6.82419100
_cell_length_b   5.10453200
_cell_length_c   18.30522270
_cell_angle_alpha   89.14865546
_cell_angle_beta   90.00000000
_cell_angle_gamma   90.00000000
_symmetry_Int_Tables_number   1
_chemical_formula_structural   LiMn2P5O16
_chemical_formula_sum   'Li2 Mn4 P10 O32'
_cell_volume   637.57925384
_cell_formula_units_Z   2
loop_
 _symmetry_equiv_pos_site_id
 _symmetry_equiv_pos_as_xyz
  1  'x, y, z'
loop_
 _atom_site_type_symbol
 _atom_site_label
 _atom_site_symmetry_multiplicity
 _atom_site_fract_x
 _atom_site_fract_y
 _atom_site_fract_z
 _atom_site_occupancy
  Li  Li0  1  0.35833900  0.74157700  0.53352100  1
  Li  Li1  1  0.64166100  0.74157700  0.03352100  1
  Mn  Mn2  1  0.17353700  0.26344700  0.40658300  1
  Mn  Mn3  1  0.82687400  0.74419800  0.59144000  1
  Mn  Mn4  1  0.82646300  0.26344700  0.90658300  1
  Mn  Mn5  1  0.17312600  0.74419800  0.09144000  1
  P  P6  1  0.25327500  0.00260200  0.24923400  1
  P  P7  1  0.46974400  0.25476600  0.12735800  1
  P  P8  1  0.87766000  0.22609300  0.08237900  1
  P  P9  1  0.12070700  0.78368100  0.91872400  1
  P  P10  1  0.87929300  0.78368100  0.41872400  1
  P  P11  1  0.53025600  0.25476600  0.62735800  1
  P  P12  1  0.53854000  0.73698200  0.87327400  1
  P  P13  1  0.46146000  0.73698200  0.37327400  1
  P  P14  1  0.12234000  0.22609300  0.58237900  1
  P  P15  1  0.74672500  0.00260200  0.74923400  1
  O  O16  1  0.60434500  0.04638800  0.57736100  1
  O  O17  1  0.93692900  0.07286200  0.42846300  1
  O  O18  1  0.13336500  0.15131800  0.30304800  1
  O  O19  1  0.79851900  0.66428700  0.49079400  1
  O  O20  1  0.40121200  0.80959600  0.29066000  1
  O  O21  1  0.59878800  0.80959600  0.79066000  1
  O  O22  1  0.39565500  0.04638800  0.07736100  1
  O  O23  1  0.85503700  0.84172000  0.69366600  1
  O  O24  1  0.97063700  0.61739100  0.88130600  1
  O  O25  1  0.68963500  0.78656100  0.36449100  1
  O  O26  1  0.57583100  0.44492600  0.88494200  1
  O  O27  1  0.95837300  0.37566700  0.61746200  1
  O  O28  1  0.42416900  0.44492600  0.38494200  1
  O  O29  1  0.06307100  0.07286200  0.92846300  1
  O  O30  1  0.60405700  0.20862800  0.70977600  1
  O  O31  1  0.36985800  0.91353200  0.42901600  1
  O  O32  1  0.31036500  0.78656100  0.86449100  1
  O  O33  1  0.69896400  0.22290900  0.14181200  1
  O  O34  1  0.79002900  0.36114000  0.01337400  1
  O  O35  1  0.91600500  0.93089500  0.07046600  1
  O  O36  1  0.14496300  0.84172000  0.19366600  1
  O  O37  1  0.43725000  0.54147200  0.10679200  1
  O  O38  1  0.20997100  0.36114000  0.51337400  1
  O  O39  1  0.02936300  0.61739100  0.38130600  1
  O  O40  1  0.86663500  0.15131800  0.80304800  1
  O  O41  1  0.56275000  0.54147200  0.60679200  1
  O  O42  1  0.20148100  0.66428700  0.99079400  1
  O  O43  1  0.39594300  0.20862800  0.20977600  1
  O  O44  1  0.30103600  0.22290900  0.64181200  1
  O  O45  1  0.08399500  0.93089500  0.57046600  1
  O  O46  1  0.04162700  0.37566700  0.11746200  1
  O  O47  1  0.63014200  0.91353200  0.92901600  1
