# generated using pymatgen
data_Li3Bi5(PO4)6
_symmetry_space_group_name_H-M   'P 1'
_cell_length_a   8.74772800
_cell_length_b   8.84558178
_cell_length_c   8.85348118
_cell_angle_alpha   108.70041409
_cell_angle_beta   109.74956472
_cell_angle_gamma   109.27278973
_symmetry_Int_Tables_number   1
_chemical_formula_structural   Li3Bi5(PO4)6
_chemical_formula_sum   'Li3 Bi5 P6 O24'
_cell_volume   531.78358300
_cell_formula_units_Z   1
loop_
 _symmetry_equiv_pos_site_id
 _symmetry_equiv_pos_as_xyz
  1  'x, y, z'
loop_
 _atom_site_type_symbol
 _atom_site_label
 _atom_site_symmetry_multiplicity
 _atom_site_fract_x
 _atom_site_fract_y
 _atom_site_fract_z
 _atom_site_occupancy
  Li  Li0  1  0.50511900  0.97369200  0.77464700  1
  Li  Li1  1  0.99665200  0.28015600  0.49173900  1
  Li  Li2  1  0.70064800  0.73115800  0.71844300  1
  Bi  Bi3  1  0.83377100  0.49081000  0.98934800  1
  Bi  Bi4  1  0.51365600  0.01244100  0.35292700  1
  Bi  Bi5  1  0.34298300  0.50112300  0.98747400  1
  Bi  Bi6  1  0.14401900  0.16130800  0.16319700  1
  Bi  Bi7  1  0.00193500  0.84030000  0.51277700  1
  P  P8  1  0.74841000  0.87615000  0.12050000  1
  P  P9  1  0.25294000  0.62268700  0.37379700  1
  P  P10  1  0.12125800  0.75256300  0.88125000  1
  P  P11  1  0.62506400  0.37888500  0.25318700  1
  P  P12  1  0.36865000  0.24404100  0.62657700  1
  P  P13  1  0.87417600  0.12777500  0.74687100  1
  O  O14  1  0.92336500  0.06667900  0.26537700  1
  O  O15  1  0.92117200  0.68915800  0.84830400  1
  O  O16  1  0.33654300  0.18694500  0.42478800  1
  O  O17  1  0.84118000  0.16141200  0.58007800  1
  O  O18  1  0.74176500  0.15881600  0.81646100  1
  O  O19  1  0.25771000  0.91829400  0.08222800  1
  O  O20  1  0.08678700  0.66557600  0.34329100  1
  O  O21  1  0.30289900  0.64626600  0.22447900  1
  O  O22  1  0.58800300  0.84786400  0.17236600  1
  O  O23  1  0.16491600  0.41798000  0.32951400  1
  O  O24  1  0.15977600  0.82282400  0.75100100  1
  O  O25  1  0.80025200  0.72801400  0.14634500  1
  O  O26  1  0.42263500  0.74958700  0.56223700  1
  O  O27  1  0.57096200  0.40773100  0.75604400  1
  O  O28  1  0.65504800  0.35173800  0.08612800  1
  O  O29  1  0.15896400  0.58851600  0.85066000  1
  O  O30  1  0.41933700  0.34221000  0.18486800  1
  O  O31  1  0.23502200  0.31180300  0.65866300  1
  O  O32  1  0.75540300  0.57509100  0.41811200  1
  O  O33  1  0.85473200  0.93581900  0.69535400  1
  O  O34  1  0.65715500  0.24199500  0.31640600  1
  O  O35  1  0.07900200  0.26969000  0.91480300  1
  O  O36  1  0.67634800  0.84853200  0.92776700  1
  O  O37  1  0.33959400  0.07437200  0.65199000  1
