# generated using pymatgen
data_Li2Mn15O32
_symmetry_space_group_name_H-M   'P 1'
_cell_length_a   5.83149181
_cell_length_b   5.83149266
_cell_length_c   23.36485417
_cell_angle_alpha   60.05504126
_cell_angle_beta   60.05503687
_cell_angle_gamma   60.00000084
_symmetry_Int_Tables_number   1
_chemical_formula_structural   Li2Mn15O32
_chemical_formula_sum   'Li2 Mn15 O32'
_cell_volume   562.30025340
_cell_formula_units_Z   1
loop_
 _symmetry_equiv_pos_site_id
 _symmetry_equiv_pos_as_xyz
  1  'x, y, z'
loop_
 _atom_site_type_symbol
 _atom_site_label
 _atom_site_symmetry_multiplicity
 _atom_site_fract_x
 _atom_site_fract_y
 _atom_site_fract_z
 _atom_site_occupancy
  Li  Li0  1  0.12424200  0.12424200  0.03181800  1
  Li  Li1  1  0.87800900  0.87800900  0.96649300  1
  Mn  Mn2  1  0.00832600  0.49964400  0.12309600  1
  Mn  Mn3  1  0.49964400  0.49964400  0.12309600  1
  Mn  Mn4  1  0.00724400  0.49689000  0.37474400  1
  Mn  Mn5  1  0.49964400  0.00832600  0.12309600  1
  Mn  Mn6  1  0.49689000  0.49689000  0.37474400  1
  Mn  Mn7  1  0.99982400  0.50019000  0.62494900  1
  Mn  Mn8  1  0.50126800  0.50126800  0.49904900  1
  Mn  Mn9  1  0.88086500  0.88086500  0.21435100  1
  Mn  Mn10  1  0.49689000  0.00724400  0.37474400  1
  Mn  Mn11  1  0.50019000  0.50019000  0.62494900  1
  Mn  Mn12  1  0.99380400  0.50068300  0.87620800  1
  Mn  Mn13  1  0.50019000  0.99982400  0.62494900  1
  Mn  Mn14  1  0.49833200  0.49833200  0.75125100  1
  Mn  Mn15  1  0.50068300  0.50068300  0.87620800  1
  Mn  Mn16  1  0.50068300  0.99380400  0.87620800  1
  O  O17  1  0.24585300  0.24585300  0.07318900  1
  O  O18  1  0.26454400  0.26454400  0.17659200  1
  O  O19  1  0.24585300  0.71554000  0.07318900  1
  O  O20  1  0.71554000  0.24585300  0.07318900  1
  O  O21  1  0.24390700  0.24390700  0.32488200  1
  O  O22  1  0.28463500  0.74748700  0.18009800  1
  O  O23  1  0.26300900  0.26300900  0.42774300  1
  O  O24  1  0.24390700  0.71265600  0.32488200  1
  O  O25  1  0.73716700  0.73716700  0.07212500  1
  O  O26  1  0.74748700  0.28463500  0.18009800  1
  O  O27  1  0.71265600  0.24390700  0.32488200  1
  O  O28  1  0.74748700  0.74748700  0.18009800  1
  O  O29  1  0.26534100  0.26534100  0.56603200  1
  O  O30  1  0.29767400  0.73470100  0.43323100  1
  O  O31  1  0.26526800  0.26526800  0.67604900  1
  O  O32  1  0.26534100  0.70519000  0.56603200  1
  O  O33  1  0.74000500  0.74000500  0.31999600  1
  O  O34  1  0.73470100  0.29767400  0.43323100  1
  O  O35  1  0.70519000  0.26534100  0.56603200  1
  O  O36  1  0.73470100  0.73470100  0.43323100  1
  O  O37  1  0.26554900  0.26554900  0.81670100  1
  O  O38  1  0.29523400  0.73523600  0.68357300  1
  O  O39  1  0.26168100  0.26168100  0.92873900  1
  O  O40  1  0.73505900  0.73505900  0.57370600  1
  O  O41  1  0.26554900  0.70209800  0.81670100  1
  O  O42  1  0.73523600  0.29523400  0.68357300  1
  O  O43  1  0.70209800  0.26554900  0.81670100  1
  O  O44  1  0.73523600  0.73523600  0.68357300  1
  O  O45  1  0.28244500  0.75738000  0.92569900  1
  O  O46  1  0.73515800  0.73515800  0.82363100  1
  O  O47  1  0.75738000  0.28244500  0.92569900  1
  O  O48  1  0.75738000  0.75738000  0.92569900  1
