# generated using pymatgen
data_Li2CoCl4
_symmetry_space_group_name_H-M   'P 1'
_cell_length_a   7.22294900
_cell_length_b   7.30610098
_cell_length_c   17.77156529
_cell_angle_alpha   89.25810798
_cell_angle_beta   89.32393432
_cell_angle_gamma   61.76177107
_symmetry_Int_Tables_number   1
_chemical_formula_structural   Li2CoCl4
_chemical_formula_sum   'Li12 Co6 Cl24'
_cell_volume   826.13392941
_cell_formula_units_Z   6
loop_
 _symmetry_equiv_pos_site_id
 _symmetry_equiv_pos_as_xyz
  1  'x, y, z'
loop_
 _atom_site_type_symbol
 _atom_site_label
 _atom_site_symmetry_multiplicity
 _atom_site_fract_x
 _atom_site_fract_y
 _atom_site_fract_z
 _atom_site_occupancy
  Li  Li0  1  0.44661500  0.78169400  0.81847800  1
  Li  Li1  1  0.50288400  0.99007100  0.00203500  1
  Li  Li2  1  0.33050200  0.33169500  0.83161900  1
  Li  Li3  1  0.11212500  0.44841900  0.48565800  1
  Li  Li4  1  0.99553300  0.00405100  0.49972200  1
  Li  Li5  1  0.16162500  0.17168100  0.66682200  1
  Li  Li6  1  0.77543200  0.10594100  0.15293800  1
  Li  Li7  1  0.88526500  0.23557000  0.84741200  1
  Li  Li8  1  0.82912800  0.83737400  0.33337600  1
  Li  Li9  1  0.66091800  0.67578100  0.16769400  1
  Li  Li10  1  0.55134700  0.89019700  0.51501600  1
  Li  Li11  1  0.21281300  0.57083500  0.17879500  1
  Co  Co12  1  0.01141000  0.49514300  0.99801400  1
  Co  Co13  1  0.49757700  0.50266500  0.99998400  1
  Co  Co14  1  0.68098400  0.16314000  0.66412700  1
  Co  Co15  1  0.34747500  0.82762400  0.33089700  1
  Co  Co16  1  0.17156200  0.65449700  0.66860900  1
  Co  Co17  1  0.83673100  0.32014700  0.33547600  1
  Cl  Cl18  1  0.67789100  0.64966500  0.92257200  1
  Cl  Cl19  1  0.49603100  0.02620700  0.74526600  1
  Cl  Cl20  1  0.64004900  0.19970400  0.92272600  1
  Cl  Cl21  1  0.34401500  0.33496200  0.59063200  1
  Cl  Cl22  1  0.49219100  0.49207600  0.74294100  1
  Cl  Cl23  1  0.16923000  0.18273900  0.92097500  1
  Cl  Cl24  1  0.16117000  0.69333200  0.41083600  1
  Cl  Cl25  1  0.30640900  0.83732500  0.58889200  1
  Cl  Cl26  1  0.02544900  0.49657100  0.74573800  1
  Cl  Cl27  1  0.18667900  0.64450300  0.92507400  1
  Cl  Cl28  1  0.16221000  0.15631000  0.41039400  1
  Cl  Cl29  1  0.01066000  0.00263600  0.25668400  1
  Cl  Cl30  1  0.84294300  0.83783500  0.58965200  1
  Cl  Cl31  1  0.99310800  0.99393200  0.74307000  1
  Cl  Cl32  1  0.81641000  0.35399400  0.07433500  1
  Cl  Cl33  1  0.97375600  0.50175000  0.25505100  1
  Cl  Cl34  1  0.69132300  0.16120100  0.41224300  1
  Cl  Cl35  1  0.84114700  0.30762500  0.58833700  1
  Cl  Cl36  1  0.84275100  0.80596200  0.08073700  1
  Cl  Cl37  1  0.51034800  0.50447700  0.25724100  1
  Cl  Cl38  1  0.66025000  0.66079900  0.40944700  1
  Cl  Cl39  1  0.35488100  0.79171500  0.08062100  1
  Cl  Cl40  1  0.50656900  0.97514700  0.25388200  1
  Cl  Cl41  1  0.33060300  0.33700800  0.07598500  1
