# generated using pymatgen
data_Li31Zr2Sb13
_symmetry_space_group_name_H-M   'P 1'
_cell_length_a   4.62508682
_cell_length_b   4.62508705
_cell_length_c   60.69451757
_cell_angle_alpha   60.25494343
_cell_angle_beta   60.25494317
_cell_angle_gamma   60.09273208
_symmetry_Int_Tables_number   1
_chemical_formula_structural   Li31Zr2Sb13
_chemical_formula_sum   'Li31 Zr2 Sb13'
_cell_volume   922.23768901
_cell_formula_units_Z   1
loop_
 _symmetry_equiv_pos_site_id
 _symmetry_equiv_pos_as_xyz
  1  'x, y, z'
loop_
 _atom_site_type_symbol
 _atom_site_label
 _atom_site_symmetry_multiplicity
 _atom_site_fract_x
 _atom_site_fract_y
 _atom_site_fract_z
 _atom_site_occupancy
  Li  Li0  1  0.74693137  0.74693137  0.05840932  1
  Li  Li1  1  0.25894403  0.25894403  0.17100105  1
  Li  Li2  1  0.25071133  0.25071133  0.24981488  1
  Li  Li3  1  0.49031260  0.49031260  0.19452555  1
  Li  Li4  1  0.74385203  0.74385203  0.13596795  1
  Li  Li5  1  0.25297286  0.25297286  0.32622550  1
  Li  Li6  1  0.74650153  0.74650153  0.21232365  1
  Li  Li7  1  0.49308600  0.49308600  0.27085340  1
  Li  Li8  1  0.48783987  0.48783987  0.34898147  1
  Li  Li9  1  0.75074321  0.75074321  0.28828487  1
  Li  Li10  1  0.24213899  0.24213899  0.40568413  1
  Li  Li11  1  0.24797797  0.24797797  0.48125616  1
  Li  Li12  1  0.74252639  0.74252639  0.36696770  1
  Li  Li13  1  0.24754560  0.24754560  0.55820982  1
  Li  Li14  1  0.75874636  0.75874636  0.44032059  1
  Li  Li15  1  0.75175500  0.75175500  0.51885066  1
  Li  Li16  1  0.24166557  0.24166557  0.63650287  1
  Li  Li17  1  0.75115590  0.75115590  0.59585683  1
  Li  Li18  1  0.25754465  0.25754465  0.70993091  1
  Li  Li19  1  0.75817448  0.75817448  0.67116159  1
  Li  Li20  1  0.51286945  0.51286945  0.72777715  1
  Li  Li21  1  0.24982253  0.24982253  0.78849936  1
  Li  Li22  1  0.74722002  0.74722002  0.75065738  1
  Li  Li23  1  0.50732116  0.50732116  0.80596490  1
  Li  Li24  1  0.25073152  0.25073152  0.86522870  1
  Li  Li25  1  0.74982533  0.74982533  0.82698418  1
  Li  Li26  1  0.51146673  0.51146673  0.88196587  1
  Li  Li27  1  0.26088787  0.26088787  0.93980453  1
  Li  Li28  1  0.51703590  0.51703590  0.95761688  1
  Li  Li29  1  0.75346117  0.75346117  0.90306692  1
  Li  Li30  1  0.74662058  0.74662058  0.98157717  1
  Sb  Sb31  1  0.00617638  0.00617638  0.99861056  1
  Sb  Sb32  1  0.99255525  0.99255525  0.07864667  1
  Sb  Sb33  1  0.99317054  0.99317054  0.15535734  1
  Sb  Sb34  1  0.01071588  0.01071588  0.38206317  1
  Sb  Sb35  1  0.00656592  0.00656592  0.22921389  1
  Sb  Sb36  1  0.00649912  0.00649912  0.30616903  1
  Sb  Sb37  1  0.99991909  0.99991909  0.53846683  1
  Sb  Sb38  1  0.99626063  0.99626063  0.46235920  1
  Sb  Sb39  1  0.99326831  0.99326831  0.77080394  1
  Sb  Sb40  1  0.00357591  0.00357591  0.61459436  1
  Sb  Sb41  1  0.98914994  0.98914994  0.69488137  1
  Sb  Sb42  1  0.99520169  0.99520169  0.84730606  1
  Sb  Sb43  1  0.99664758  0.99664758  0.92388494  1
  Zr  Zr44  1  0.24129596  0.24129596  0.02129373  1
  Zr  Zr45  1  0.24060980  0.24060980  0.09838396  1
