# generated using pymatgen
data_Li2Mn(PO3)4
_symmetry_space_group_name_H-M   'P 1'
_cell_length_a   9.54242800
_cell_length_b   7.61311100
_cell_length_c   8.75133901
_cell_angle_alpha   56.60854430
_cell_angle_beta   90.00000000
_cell_angle_gamma   90.00000000
_symmetry_Int_Tables_number   1
_chemical_formula_structural   Li2Mn(PO3)4
_chemical_formula_sum   'Li4 Mn2 P8 O24'
_cell_volume   530.81794838
_cell_formula_units_Z   2
loop_
 _symmetry_equiv_pos_site_id
 _symmetry_equiv_pos_as_xyz
  1  'x, y, z'
loop_
 _atom_site_type_symbol
 _atom_site_label
 _atom_site_symmetry_multiplicity
 _atom_site_fract_x
 _atom_site_fract_y
 _atom_site_fract_z
 _atom_site_occupancy
  Li  Li0  1  0.65292300  0.78246000  0.33487400  1
  Li  Li1  1  0.15292300  0.21754000  0.16512600  1
  Li  Li2  1  0.34707700  0.21754000  0.66512600  1
  Li  Li3  1  0.84707700  0.78246000  0.83487400  1
  Mn  Mn4  1  0.50000000  0.00000000  0.50000000  1
  Mn  Mn5  1  0.00000000  0.00000000  0.00000000  1
  P  P6  1  0.39796800  0.54639300  0.27141700  1
  P  P7  1  0.78828900  0.21413300  0.61673700  1
  P  P8  1  0.28828900  0.78586700  0.88326300  1
  P  P9  1  0.10203200  0.54639300  0.77141700  1
  P  P10  1  0.21171100  0.78586700  0.38326300  1
  P  P11  1  0.89796800  0.45360700  0.22858300  1
  P  P12  1  0.71171100  0.21413300  0.11673700  1
  P  P13  1  0.60203200  0.45360700  0.72858300  1
  O  O14  1  0.32508300  0.89673500  0.41591400  1
  O  O15  1  0.35895300  0.60004000  0.07041300  1
  O  O16  1  0.96911300  0.65287800  0.76383800  1
  O  O17  1  0.76430800  0.35488200  0.18884300  1
  O  O18  1  0.88394600  0.68903200  0.10004300  1
  O  O19  1  0.26430800  0.64511800  0.31115700  1
  O  O20  1  0.17491700  0.89673500  0.91591400  1
  O  O21  1  0.59987900  0.07101200  0.24877600  1
  O  O22  1  0.53088700  0.65287800  0.26383800  1
  O  O23  1  0.09987900  0.92898800  0.25122400  1
  O  O24  1  0.90012100  0.07101200  0.74877600  1
  O  O25  1  0.14104700  0.60004000  0.57041300  1
  O  O26  1  0.82508300  0.10326500  0.08408600  1
  O  O27  1  0.40012100  0.92898800  0.75122400  1
  O  O28  1  0.23569200  0.64511800  0.81115700  1
  O  O29  1  0.46911300  0.34712200  0.73616200  1
  O  O30  1  0.73569200  0.35488200  0.68884300  1
  O  O31  1  0.67491700  0.10326500  0.58408600  1
  O  O32  1  0.85895300  0.39996000  0.42958700  1
  O  O33  1  0.64104700  0.39996000  0.92958700  1
  O  O34  1  0.03088700  0.34712200  0.23616200  1
  O  O35  1  0.11605400  0.31096800  0.89995700  1
  O  O36  1  0.38394600  0.31096800  0.39995700  1
  O  O37  1  0.61605400  0.68903200  0.60004300  1
