# generated using pymatgen
data_LiCo6P7O24
_symmetry_space_group_name_H-M   'P 1'
_cell_length_a   26.54368700
_cell_length_b   5.27323800
_cell_length_c   6.51752790
_cell_angle_alpha   72.86688579
_cell_angle_beta   90.00000000
_cell_angle_gamma   90.00000000
_symmetry_Int_Tables_number   1
_chemical_formula_structural   LiCo6P7O24
_chemical_formula_sum   'Li2 Co12 P14 O48'
_cell_volume   871.78235387
_cell_formula_units_Z   2
loop_
 _symmetry_equiv_pos_site_id
 _symmetry_equiv_pos_as_xyz
  1  'x, y, z'
loop_
 _atom_site_type_symbol
 _atom_site_label
 _atom_site_symmetry_multiplicity
 _atom_site_fract_x
 _atom_site_fract_y
 _atom_site_fract_z
 _atom_site_occupancy
  Li  Li0  1  0.75000000  0.86797900  0.45886800  1
  Li  Li1  1  0.25000000  0.13202100  0.54113200  1
  Co  Co2  1  0.18231500  0.87747500  0.27994900  1
  Co  Co3  1  0.31768500  0.87747500  0.27994900  1
  Co  Co4  1  0.04535900  0.81558400  0.69151500  1
  Co  Co5  1  0.81768500  0.12252500  0.72005100  1
  Co  Co6  1  0.40241300  0.20140700  0.90901000  1
  Co  Co7  1  0.90241300  0.79859300  0.09099000  1
  Co  Co8  1  0.59758700  0.79859300  0.09099000  1
  Co  Co9  1  0.68231500  0.12252500  0.72005100  1
  Co  Co10  1  0.95464100  0.18441600  0.30848500  1
  Co  Co11  1  0.54535900  0.18441600  0.30848500  1
  Co  Co12  1  0.09758700  0.20140700  0.90901000  1
  Co  Co13  1  0.45464100  0.81558400  0.69151500  1
  P  P14  1  0.88970500  0.68305500  0.61740200  1
  P  P15  1  0.38970500  0.31694500  0.38259800  1
  P  P16  1  0.75000000  0.53103700  0.90446600  1
  P  P17  1  0.25000000  0.46896300  0.09553400  1
  P  P18  1  0.11029500  0.31694500  0.38259800  1
  P  P19  1  0.02347000  0.71210300  0.20658800  1
  P  P20  1  0.66679500  0.24517200  0.19154700  1
  P  P21  1  0.16679500  0.75482800  0.80845300  1
  P  P22  1  0.47653000  0.71210300  0.20658800  1
  P  P23  1  0.33320500  0.75482800  0.80845300  1
  P  P24  1  0.83320500  0.24517200  0.19154700  1
  P  P25  1  0.52347000  0.28789700  0.79341200  1
  P  P26  1  0.97653000  0.28789700  0.79341200  1
  P  P27  1  0.61029500  0.68305500  0.61740200  1
  O  O28  1  0.65018400  0.48318300  0.61211100  1
  O  O29  1  0.87705400  0.85186800  0.76872500  1
  O  O30  1  0.02033000  0.86704100  0.37142000  1
  O  O31  1  0.45234600  0.87724700  0.99433900  1
  O  O32  1  0.75000000  0.33067900  0.77639400  1
  O  O33  1  0.25000000  0.66932100  0.22360600  1
  O  O34  1  0.47302300  0.41707700  0.82606000  1
  O  O35  1  0.33660800  0.94253400  0.94983300  1
  O  O36  1  0.52033000  0.13295900  0.62858000  1
  O  O37  1  0.70312100  0.49303200  0.05965000  1
  O  O38  1  0.75000000  0.82195900  0.77006900  1
  O  O39  1  0.38173900  0.60623100  0.79138000  1
  O  O40  1  0.88173900  0.39376900  0.20862000  1
  O  O41  1  0.69380500  0.11261400  0.40291500  1
  O  O42  1  0.47967000  0.86704100  0.37142000  1
  O  O43  1  0.55795000  0.54420300  0.70660500  1
  O  O44  1  0.20312100  0.50696800  0.94035000  1
  O  O45  1  0.97302300  0.58292300  0.17394000  1
  O  O46  1  0.44205000  0.45579700  0.29339500  1
  O  O47  1  0.30619500  0.88738600  0.59708500  1
  O  O48  1  0.90446100  0.86279300  0.39246000  1
  O  O49  1  0.34981600  0.51681700  0.38788900  1
  O  O50  1  0.37705400  0.14813200  0.23127500  1
  O  O51  1  0.66339200  0.05746600  0.05016700  1
  O  O52  1  0.84981600  0.48318300  0.61211100  1
  O  O53  1  0.04765400  0.87724700  0.99433900  1
  O  O54  1  0.52697700  0.58292300  0.17394000  1
  O  O55  1  0.62294600  0.85186800  0.76872500  1
  O  O56  1  0.05795000  0.45579700  0.29339500  1
  O  O57  1  0.97967000  0.13295900  0.62858000  1
  O  O58  1  0.11826100  0.60623100  0.79138000  1
  O  O59  1  0.15018400  0.51681700  0.38788900  1
  O  O60  1  0.25000000  0.17804100  0.22993100  1
  O  O61  1  0.94205000  0.54420300  0.70660500  1
  O  O62  1  0.54765400  0.12275300  0.00566100  1
  O  O63  1  0.19380500  0.88738600  0.59708500  1
  O  O64  1  0.83660800  0.05746600  0.05016700  1
  O  O65  1  0.40446100  0.13720700  0.60754000  1
  O  O66  1  0.79687900  0.49303200  0.05965000  1
  O  O67  1  0.61826100  0.39376900  0.20862000  1
  O  O68  1  0.12294600  0.14813200  0.23127500  1
  O  O69  1  0.95234600  0.12275300  0.00566100  1
  O  O70  1  0.02697700  0.41707700  0.82606000  1
  O  O71  1  0.80619500  0.11261400  0.40291500  1
  O  O72  1  0.09553900  0.13720700  0.60754000  1
  O  O73  1  0.59553900  0.86279300  0.39246000  1
  O  O74  1  0.29687900  0.50696800  0.94035000  1
  O  O75  1  0.16339200  0.94253400  0.94983300  1
