# generated using pymatgen
data_Li3Mn2(PO4)3
_symmetry_space_group_name_H-M   'P 1'
_cell_length_a   8.72346400
_cell_length_b   8.50426500
_cell_length_c   14.49407949
_cell_angle_alpha   57.25532512
_cell_angle_beta   90.00000000
_cell_angle_gamma   90.00000000
_symmetry_Int_Tables_number   1
_chemical_formula_structural   Li3Mn2(PO4)3
_chemical_formula_sum   'Li12 Mn8 P12 O48'
_cell_volume   904.39572043
_cell_formula_units_Z   4
loop_
 _symmetry_equiv_pos_site_id
 _symmetry_equiv_pos_as_xyz
  1  'x, y, z'
loop_
 _atom_site_type_symbol
 _atom_site_label
 _atom_site_symmetry_multiplicity
 _atom_site_fract_x
 _atom_site_fract_y
 _atom_site_fract_z
 _atom_site_occupancy
  Li  Li0  1  0.01298300  0.71775300  0.84320100  1
  Li  Li1  1  0.21533900  0.00167600  0.17574600  1
  Li  Li2  1  0.98701700  0.28224700  0.15679900  1
  Li  Li3  1  0.28466100  0.00167600  0.67574600  1
  Li  Li4  1  0.08440100  0.60451600  0.31198600  1
  Li  Li5  1  0.58440100  0.39548400  0.18801400  1
  Li  Li6  1  0.48701700  0.71775300  0.34320100  1
  Li  Li7  1  0.71533900  0.99832400  0.32425400  1
  Li  Li8  1  0.51298300  0.28224700  0.65679900  1
  Li  Li9  1  0.78466100  0.99832400  0.82425400  1
  Li  Li10  1  0.91559900  0.39548400  0.68801400  1
  Li  Li11  1  0.41559900  0.60451600  0.81198600  1
  Mn  Mn12  1  0.96394100  0.13887700  0.60790400  1
  Mn  Mn13  1  0.96811200  0.34818000  0.89696000  1
  Mn  Mn14  1  0.53188800  0.34818000  0.39696000  1
  Mn  Mn15  1  0.03605900  0.86112300  0.39209600  1
  Mn  Mn16  1  0.46811200  0.65182000  0.60304000  1
  Mn  Mn17  1  0.03188800  0.65182000  0.10304000  1
  Mn  Mn18  1  0.46394100  0.86112300  0.89209600  1
  Mn  Mn19  1  0.53605900  0.13887700  0.10790400  1
  P  P20  1  0.61053500  0.96237500  0.65234500  1
  P  P21  1  0.87901800  0.26310300  0.35200400  1
  P  P22  1  0.24995800  0.44305000  0.00979300  1
  P  P23  1  0.11053500  0.03762500  0.84765500  1
  P  P24  1  0.25004200  0.44305000  0.50979300  1
  P  P25  1  0.88946500  0.96237500  0.15234500  1
  P  P26  1  0.62098200  0.26310300  0.85200400  1
  P  P27  1  0.38946500  0.03762500  0.34765500  1
  P  P28  1  0.75004200  0.55695000  0.99020700  1
  P  P29  1  0.74995800  0.55695000  0.49020700  1
  P  P30  1  0.37901800  0.73689700  0.14799600  1
  P  P31  1  0.12098200  0.73689700  0.64799600  1
  O  O32  1  0.31968700  0.24432200  0.06255500  1
  O  O33  1  0.19942600  0.71006800  0.16774600  1
  O  O34  1  0.27239600  0.01812000  0.81007000  1
  O  O35  1  0.10859200  0.16159900  0.89444200  1
  O  O36  1  0.18031300  0.24432200  0.56255500  1
  O  O37  1  0.13433000  0.47589800  0.91823400  1
  O  O38  1  0.16640200  0.45476700  0.10061400  1
  O  O39  1  0.99869300  0.13368900  0.74438000  1
  O  O40  1  0.59359200  0.15655700  0.97671300  1
  O  O41  1  0.49869300  0.86631100  0.75562000  1
  O  O42  1  0.50130700  0.13368900  0.24438000  1
  O  O43  1  0.63116200  0.40331500  0.05402400  1
  O  O44  1  0.77239600  0.98188000  0.68993000  1
  O  O45  1  0.66640200  0.54523300  0.39938600  1
  O  O46  1  0.69942600  0.28993200  0.33225400  1
  O  O47  1  0.08479200  0.86764800  0.68984800  1
  O  O48  1  0.46871900  0.55505200  0.21342000  1
  O  O49  1  0.04181800  0.84051000  0.92561000  1
  O  O50  1  0.45818200  0.84051000  0.42561000  1
  O  O51  1  0.58479200  0.13235200  0.81015200  1
  O  O52  1  0.96871900  0.44494800  0.28658000  1
  O  O53  1  0.33359800  0.45476700  0.60061400  1
  O  O54  1  0.83359800  0.54523300  0.89938600  1
  O  O55  1  0.13116200  0.59668500  0.44597600  1
  O  O56  1  0.39140800  0.16159900  0.39444200  1
  O  O57  1  0.68031300  0.75567800  0.93744500  1
  O  O58  1  0.72760400  0.98188000  0.18993000  1
  O  O59  1  0.90640800  0.15655700  0.47671300  1
  O  O60  1  0.00130700  0.86631100  0.25562000  1
  O  O61  1  0.86567000  0.52410200  0.08176600  1
  O  O62  1  0.03128100  0.55505200  0.71342000  1
  O  O63  1  0.54181800  0.15949000  0.57439000  1
  O  O64  1  0.41520800  0.86764800  0.18984800  1
  O  O65  1  0.30057400  0.71006800  0.66774600  1
  O  O66  1  0.36883800  0.59668500  0.94597600  1
  O  O67  1  0.63433000  0.52410200  0.58176600  1
  O  O68  1  0.89140800  0.83840100  0.10555800  1
  O  O69  1  0.86883800  0.40331500  0.55402400  1
  O  O70  1  0.22760400  0.01812000  0.31007000  1
  O  O71  1  0.09359200  0.84344300  0.52328700  1
  O  O72  1  0.53128100  0.44494800  0.78658000  1
  O  O73  1  0.81968700  0.75567800  0.43744500  1
  O  O74  1  0.95818200  0.15949000  0.07439000  1
  O  O75  1  0.60859200  0.83840100  0.60555800  1
  O  O76  1  0.91520800  0.13235200  0.31015200  1
  O  O77  1  0.80057400  0.28993200  0.83225400  1
  O  O78  1  0.36567000  0.47589800  0.41823400  1
  O  O79  1  0.40640800  0.84344300  0.02328700  1
