# generated using pymatgen
data_Li31Zr2As13
_symmetry_space_group_name_H-M   'P 1'
_cell_length_a   4.32347362
_cell_length_b   4.32347357
_cell_length_c   56.89392500
_cell_angle_alpha   60.36725671
_cell_angle_beta   60.36725695
_cell_angle_gamma   60.05530493
_symmetry_Int_Tables_number   1
_chemical_formula_structural   Li31Zr2As13
_chemical_formula_sum   'Li31 Zr2 As13'
_cell_volume   756.46411710
_cell_formula_units_Z   1
loop_
 _symmetry_equiv_pos_site_id
 _symmetry_equiv_pos_as_xyz
  1  'x, y, z'
loop_
 _atom_site_type_symbol
 _atom_site_label
 _atom_site_symmetry_multiplicity
 _atom_site_fract_x
 _atom_site_fract_y
 _atom_site_fract_z
 _atom_site_occupancy
  As  As0  1  0.00421897  0.00421897  0.99898259  1
  As  As1  1  0.99086816  0.99086816  0.07901219  1
  As  As2  1  0.99427587  0.99427587  0.15515312  1
  As  As3  1  0.00943736  0.00943736  0.22857008  1
  As  As4  1  0.00939369  0.00939369  0.30555186  1
  As  As5  1  0.01374447  0.01374447  0.38138846  1
  As  As6  1  0.99630231  0.99630231  0.46230224  1
  As  As7  1  -0.00021362  -0.00021362  0.53848022  1
  As  As8  1  0.00351512  0.00351512  0.61461055  1
  As  As9  1  0.98607756  0.98607756  0.69555927  1
  As  As10  1  0.99016949  0.99016949  0.77155830  1
  As  As11  1  0.99494754  0.99494754  0.92419127  1
  As  As12  1  0.99239996  0.99239996  0.84788577  1
  Li  Li13  1  0.26429252  0.26429252  0.16978456  1
  Li  Li14  1  0.74434563  0.74434563  0.05901554  1
  Li  Li15  1  0.73985480  0.73985480  0.13693014  1
  Li  Li16  1  0.48811077  0.48811077  0.19504817  1
  Li  Li17  1  0.25106375  0.25106375  0.24975395  1
  Li  Li18  1  0.25332704  0.25332704  0.32615543  1
  Li  Li19  1  0.74687859  0.74687859  0.21225925  1
  Li  Li20  1  0.49309180  0.49309180  0.27086080  1
  Li  Li21  1  0.48833682  0.48833682  0.34887224  1
  Li  Li22  1  0.74980420  0.74980420  0.28852187  1
  Li  Li23  1  0.24061491  0.24061491  0.40604876  1
  Li  Li24  1  0.24880329  0.24880329  0.48103749  1
  Li  Li25  1  0.73508407  0.73508407  0.36870524  1
  Li  Li26  1  0.75838463  0.75838463  0.44040713  1
  Li  Li27  1  0.24649275  0.24649275  0.55844131  1
  Li  Li28  1  0.75286982  0.75286982  0.51862544  1
  Li  Li29  1  0.24203175  0.24203175  0.63642827  1
  Li  Li30  1  0.26537437  0.26537437  0.70811262  1
  Li  Li31  1  0.75050347  0.75050347  0.59603406  1
  Li  Li32  1  0.75984686  0.75984686  0.67078357  1
  Li  Li33  1  0.51254153  0.51254153  0.72785935  1
  Li  Li34  1  0.25114288  0.25114288  0.78821937  1
  Li  Li35  1  0.25223732  0.25223732  0.86487045  1
  Li  Li36  1  0.74704620  0.74704620  0.75071392  1
  Li  Li37  1  0.50848068  0.50848068  0.80573501  1
  Li  Li38  1  0.74940458  0.74940458  0.82706683  1
  Li  Li39  1  0.51142863  0.51142863  0.88198596  1
  Li  Li40  1  0.25941059  0.25941059  0.94011857  1
  Li  Li41  1  0.75541869  0.75541869  0.90259721  1
  Li  Li42  1  0.52282811  0.52282811  0.95627333  1
  Li  Li43  1  0.74779703  0.74779703  0.98127093  1
  Zr  Zr44  1  0.23780230  0.23780230  0.02205564  1
  Zr  Zr45  1  0.24021274  0.24021274  0.09846870  1
