# generated using pymatgen
data_LiMo2P3O13
_symmetry_space_group_name_H-M   'P 1'
_cell_length_a   6.47136000
_cell_length_b   19.36405736
_cell_length_c   9.74584523
_cell_angle_alpha   90.00000000
_cell_angle_beta   105.68270043
_cell_angle_gamma   90.00000000
_symmetry_Int_Tables_number   1
_chemical_formula_structural   LiMo2P3O13
_chemical_formula_sum   'Li4 Mo8 P12 O52'
_cell_volume   1175.80558009
_cell_formula_units_Z   4
loop_
 _symmetry_equiv_pos_site_id
 _symmetry_equiv_pos_as_xyz
  1  'x, y, z'
loop_
 _atom_site_type_symbol
 _atom_site_label
 _atom_site_symmetry_multiplicity
 _atom_site_fract_x
 _atom_site_fract_y
 _atom_site_fract_z
 _atom_site_occupancy
  Li  Li0  1  0.04014368  0.90805876  0.64360646  1
  Li  Li1  1  0.21831114  0.10325386  0.05259308  1
  Li  Li2  1  0.78168924  0.60325371  0.94740769  1
  Li  Li3  1  0.95985672  0.40805892  0.35639329  1
  O  O4  1  0.14371401  0.45010405  0.23491139  1
  O  O5  1  0.92959418  0.30559847  0.03839949  1
  O  O6  1  0.93950580  0.91520137  0.05684281  1
  O  O7  1  0.94433566  0.80250639  0.18380525  1
  O  O8  1  0.97251260  0.15319277  0.28960721  1
  O  O9  1  0.79514012  0.51403509  0.06784237  1
  O  O10  1  0.83853260  0.25344290  0.39884075  1
  O  O11  1  0.95731500  0.36883734  0.54295626  1
  O  O12  1  0.00409768  0.55648248  0.87339308  1
  O  O13  1  0.07040621  0.80559832  0.96160127  1
  O  O14  1  0.06049461  0.41520153  0.94315694  1
  O  O15  1  0.05566475  0.30250602  0.81619449  1
  O  O16  1  0.02748781  0.65319262  0.71039253  1
  O  O17  1  0.20485864  0.01403524  0.93215809  1
  O  O18  1  0.12179988  0.53212139  0.64296522  1
  O  O19  1  0.04268541  0.86883771  0.45704349  1
  O  O20  1  0.16146778  0.75344275  0.60116001  1
  O  O21  1  0.28444468  0.86971585  0.79085675  1
  O  O22  1  0.09155113  0.67862567  0.34633331  1
  O  O23  1  0.34202220  0.72409069  0.85576184  1
  O  O24  1  0.25561284  0.25738028  0.61068083  1
  O  O25  1  0.14666093  0.59643918  0.15917127  1
  O  O26  1  0.25738530  0.06506235  0.37445742  1
  O  O27  1  0.99590272  0.05648263  0.12660667  1
  O  O28  1  0.39678096  0.64532683  0.66530869  1
  O  O29  1  0.52608132  0.27334560  0.85459102  1
  O  O30  1  0.58475443  0.00390891  0.93826398  1
  O  O31  1  0.32724858  0.56977232  0.41369457  1
  O  O32  1  0.57337080  0.41135882  0.93021433  1
  O  O33  1  0.53259769  0.53629087  0.84326794  1
  O  O34  1  0.44193809  0.45197505  0.58676237  1
  O  O35  1  0.36367243  0.78905812  0.37684781  1
  O  O36  1  0.54195669  0.17023414  0.70214446  1
  O  O37  1  0.68616045  0.81664845  0.94268845  1
  O  O38  1  0.31383996  0.31664861  0.05731129  1
  O  O39  1  0.45804372  0.67023450  0.29785529  1
  O  O40  1  0.63632795  0.28905827  0.62315295  1
  O  O41  1  0.55806067  0.95197489  0.41323808  1
  O  O42  1  0.46740272  0.03629051  0.15673180  1
  O  O43  1  0.42662958  0.91135867  0.06978643  1
  O  O44  1  0.67275183  0.06977248  0.58630518  1
  O  O45  1  0.41524595  0.50390876  0.06173679  1
  O  O46  1  0.47391745  0.77334597  0.14540944  1
  O  O47  1  0.60321945  0.14532698  0.33469105  1
  O  O48  1  0.85628640  0.95010389  0.76508836  1
  O  O49  1  0.74261508  0.56506272  0.62554334  1
  O  O50  1  0.85333945  0.09643934  0.84082949  1
  O  O51  1  0.74438757  0.75738065  0.38931892  1
  O  O52  1  0.65797660  0.22409085  0.14423760  1
  O  O53  1  0.90844767  0.17862583  0.65366613  1
  O  O54  1  0.71555573  0.36971601  0.20914300  1
  O  O55  1  0.87820051  0.03212155  0.35703554  1
  P  P56  1  0.91087952  0.83585394  0.03694824  1
  P  P57  1  0.97597909  0.57183183  0.71447367  1
  P  P58  1  0.75790511  0.19524498  0.29428558  1
  P  P59  1  0.75276048  0.12822226  0.69209403  1
  P  P60  1  0.42514939  0.98703063  0.02632569  1
  P  P61  1  0.51059670  0.75224946  0.30069105  1
  P  P62  1  0.48940371  0.25224961  0.69930869  1
  P  P63  1  0.57485099  0.48703078  0.97367507  1
  P  P64  1  0.08911928  0.33585409  0.96305120  1
  P  P65  1  0.02401970  0.07183199  0.28552576  1
  P  P66  1  0.24723990  0.62822262  0.30790674  1
  P  P67  1  0.24209527  0.69524483  0.70571518  1
  Mo  Mo68  1  0.05189813  0.78591131  0.39251832  1
  Mo  Mo69  1  0.37403971  0.82095833  0.94485760  1
  Mo  Mo70  1  0.11589077  0.49626322  0.07986169  1
  Mo  Mo71  1  0.43433433  0.53779496  0.62269234  1
  Mo  Mo72  1  0.56566608  0.03779511  0.37730741  1
  Mo  Mo73  1  0.88410964  0.99626307  0.92013806  1
  Mo  Mo74  1  0.62595909  0.32095796  0.05514184  1
  Mo  Mo75  1  0.94810225  0.28591146  0.60748245  1
