# generated using pymatgen
data_LiMgN
_symmetry_space_group_name_H-M   'P 1'
_cell_length_a   3.51740500
_cell_length_b   5.03510200
_cell_length_c   7.20303400
_cell_angle_alpha   90.00000000
_cell_angle_beta   90.00000000
_cell_angle_gamma   90.00000000
_symmetry_Int_Tables_number   1
_chemical_formula_structural   LiMgN
_chemical_formula_sum   'Li4 Mg4 N4'
_cell_volume   127.56928288
_cell_formula_units_Z   4
loop_
 _symmetry_equiv_pos_site_id
 _symmetry_equiv_pos_as_xyz
  1  'x, y, z'
loop_
 _atom_site_type_symbol
 _atom_site_label
 _atom_site_symmetry_multiplicity
 _atom_site_fract_x
 _atom_site_fract_y
 _atom_site_fract_z
 _atom_site_occupancy
  Li  Li0  1  0.25000000  0.52815000  0.09606900  1
  Li  Li1  1  0.75000000  0.47185000  0.90393100  1
  Li  Li2  1  0.75000000  0.02815000  0.40393100  1
  Li  Li3  1  0.25000000  0.97185000  0.59606900  1
  Mg  Mg4  1  0.25000000  0.47959700  0.64406800  1
  Mg  Mg5  1  0.75000000  0.97959700  0.85593200  1
  Mg  Mg6  1  0.25000000  0.02040300  0.14406800  1
  Mg  Mg7  1  0.75000000  0.52040300  0.35593200  1
  N  N8  1  0.75000000  0.76954000  0.12017000  1
  N  N9  1  0.75000000  0.73046000  0.62017000  1
  N  N10  1  0.25000000  0.23046000  0.87983000  1
  N  N11  1  0.25000000  0.26954000  0.37983000  1
