# generated using pymatgen
data_Li3Mn(PO4)2
_symmetry_space_group_name_H-M   'P 1'
_cell_length_a   18.35132600
_cell_length_b   4.83705000
_cell_length_c   7.86184329
_cell_angle_alpha   55.17917299
_cell_angle_beta   90.00000000
_cell_angle_gamma   90.00000000
_symmetry_Int_Tables_number   1
_chemical_formula_structural   Li3Mn(PO4)2
_chemical_formula_sum   'Li12 Mn4 P8 O32'
_cell_volume   572.90778846
_cell_formula_units_Z   4
loop_
 _symmetry_equiv_pos_site_id
 _symmetry_equiv_pos_as_xyz
  1  'x, y, z'
loop_
 _atom_site_type_symbol
 _atom_site_label
 _atom_site_symmetry_multiplicity
 _atom_site_fract_x
 _atom_site_fract_y
 _atom_site_fract_z
 _atom_site_occupancy
  Li  Li0  1  0.12161500  0.28343900  0.49722500  1
  Li  Li1  1  0.05289000  0.97725300  0.28926500  1
  Li  Li2  1  0.19811800  0.63381000  0.67703300  1
  Li  Li3  1  0.30188200  0.63381000  0.17703300  1
  Li  Li4  1  0.80188200  0.36619000  0.32296700  1
  Li  Li5  1  0.62161500  0.71656100  0.00277500  1
  Li  Li6  1  0.37838500  0.28343900  0.99722500  1
  Li  Li7  1  0.69811800  0.36619000  0.82296700  1
  Li  Li8  1  0.44711000  0.97725300  0.78926500  1
  Li  Li9  1  0.87838500  0.71656100  0.50277500  1
  Li  Li10  1  0.55289000  0.02274700  0.21073500  1
  Li  Li11  1  0.94711000  0.02274700  0.71073500  1
  Mn  Mn12  1  0.12691000  0.81699100  0.98307600  1
  Mn  Mn13  1  0.37309000  0.81699100  0.48307600  1
  Mn  Mn14  1  0.62691000  0.18300900  0.51692400  1
  Mn  Mn15  1  0.87309000  0.18300900  0.01692400  1
  P  P16  1  0.28712200  0.12483900  0.70045900  1
  P  P17  1  0.78712200  0.87516100  0.79954100  1
  P  P18  1  0.71287800  0.87516100  0.29954100  1
  P  P19  1  0.53848500  0.49246700  0.73043400  1
  P  P20  1  0.03848500  0.50753300  0.76956600  1
  P  P21  1  0.46151500  0.50753300  0.26956600  1
  P  P22  1  0.96151500  0.49246700  0.23043400  1
  P  P23  1  0.21287800  0.12483900  0.20045900  1
  O  O24  1  0.70381500  0.83538200  0.78512000  1
  O  O25  1  0.20381500  0.16461800  0.71488000  1
  O  O26  1  0.80266100  0.16592400  0.82997100  1
  O  O27  1  0.93064200  0.44475100  0.42461500  1
  O  O28  1  0.30266100  0.83407600  0.67002900  1
  O  O29  1  0.43352800  0.16898000  0.46762000  1
  O  O30  1  0.95384800  0.52917700  0.76430700  1
  O  O31  1  0.79618500  0.83538200  0.28512000  1
  O  O32  1  0.68666700  0.53289700  0.49969300  1
  O  O33  1  0.93536900  0.18792000  0.22125400  1
  O  O34  1  0.43064200  0.55524900  0.07538500  1
  O  O35  1  0.43536900  0.81208000  0.27874600  1
  O  O36  1  0.06463100  0.81208000  0.77874600  1
  O  O37  1  0.18666700  0.46710300  0.00030700  1
  O  O38  1  0.93352800  0.83102000  0.03238000  1
  O  O39  1  0.81333300  0.53289700  0.99969300  1
  O  O40  1  0.04615200  0.47082300  0.23569300  1
  O  O41  1  0.56463100  0.18792000  0.72125400  1
  O  O42  1  0.32829500  0.04654500  0.89136600  1
  O  O43  1  0.29618500  0.16461800  0.21488000  1
  O  O44  1  0.31333300  0.46710300  0.50030700  1
  O  O45  1  0.56935800  0.44475100  0.92461500  1
  O  O46  1  0.82829500  0.95345500  0.60863400  1
  O  O47  1  0.19733900  0.83407600  0.17002900  1
  O  O48  1  0.06935800  0.55524900  0.57538500  1
  O  O49  1  0.54615200  0.52917700  0.26430700  1
  O  O50  1  0.67170500  0.95345500  0.10863400  1
  O  O51  1  0.06647200  0.16898000  0.96762000  1
  O  O52  1  0.45384800  0.47082300  0.73569300  1
  O  O53  1  0.17170500  0.04654500  0.39136600  1
  O  O54  1  0.69733900  0.16592400  0.32997100  1
  O  O55  1  0.56647200  0.83102000  0.53238000  1
