# generated using pymatgen
data_Li3Fe2P5O16
_symmetry_space_group_name_H-M   'P 1'
_cell_length_a   6.98597000
_cell_length_b   5.07543800
_cell_length_c   18.25207318
_cell_angle_alpha   88.01159097
_cell_angle_beta   90.00000000
_cell_angle_gamma   90.00000000
_symmetry_Int_Tables_number   1
_chemical_formula_structural   Li3Fe2P5O16
_chemical_formula_sum   'Li6 Fe4 P10 O32'
_cell_volume   646.77148249
_cell_formula_units_Z   2
loop_
 _symmetry_equiv_pos_site_id
 _symmetry_equiv_pos_as_xyz
  1  'x, y, z'
loop_
 _atom_site_type_symbol
 _atom_site_label
 _atom_site_symmetry_multiplicity
 _atom_site_fract_x
 _atom_site_fract_y
 _atom_site_fract_z
 _atom_site_occupancy
  Li  Li0  1  0.02219600  0.50000000  0.25000000  1
  Li  Li1  1  0.34281100  0.74139900  0.53538600  1
  Li  Li2  1  0.65718900  0.25860100  0.46461400  1
  Li  Li3  1  0.34281100  0.25860100  0.96461400  1
  Li  Li4  1  0.65718900  0.74139900  0.03538600  1
  Li  Li5  1  0.97780400  0.50000000  0.75000000  1
  Fe  Fe6  1  0.82887300  0.27289300  0.91163100  1
  Fe  Fe7  1  0.17112700  0.27289300  0.41163100  1
  Fe  Fe8  1  0.82887300  0.72710700  0.58836900  1
  Fe  Fe9  1  0.17112700  0.72710700  0.08836900  1
  P  P10  1  0.12933500  0.22373500  0.58725700  1
  P  P11  1  0.87066500  0.22373500  0.08725700  1
  P  P12  1  0.47230600  0.25358000  0.12509800  1
  P  P13  1  0.24427900  0.00000000  0.25000000  1
  P  P14  1  0.52769400  0.25358000  0.62509800  1
  P  P15  1  0.12933500  0.77626500  0.91274300  1
  P  P16  1  0.47230600  0.74642000  0.37490200  1
  P  P17  1  0.87066500  0.77626500  0.41274300  1
  P  P18  1  0.75572100  0.00000000  0.75000000  1
  P  P19  1  0.52769400  0.74642000  0.87490200  1
  O  O20  1  0.30939800  0.19945500  0.64619000  1
  O  O21  1  0.21113700  0.61938600  0.97928400  1
  O  O22  1  0.13347200  0.17956900  0.29845300  1
  O  O23  1  0.38635600  0.18914800  0.20505900  1
  O  O24  1  0.08845400  0.06436100  0.92941000  1
  O  O25  1  0.78886300  0.61938600  0.47928400  1
  O  O26  1  0.08845400  0.93563900  0.57059000  1
  O  O27  1  0.44718300  0.45464500  0.39265900  1
  O  O28  1  0.86652800  0.17956900  0.79845300  1
  O  O29  1  0.30939800  0.80054500  0.85381000  1
  O  O30  1  0.55281700  0.45464500  0.89265900  1
  O  O31  1  0.69060200  0.19945500  0.14619000  1
  O  O32  1  0.97673500  0.62853000  0.87089700  1
  O  O33  1  0.39517900  0.93106700  0.43124500  1
  O  O34  1  0.38635600  0.81085200  0.29494100  1
  O  O35  1  0.44718300  0.54535500  0.10734100  1
  O  O36  1  0.61364400  0.18914800  0.70505900  1
  O  O37  1  0.13347200  0.82043100  0.20154700  1
  O  O38  1  0.61364400  0.81085200  0.79494100  1
  O  O39  1  0.69060200  0.80054500  0.35381000  1
  O  O40  1  0.97673500  0.37147000  0.62910300  1
  O  O41  1  0.55281700  0.54535500  0.60734100  1
  O  O42  1  0.21113700  0.38061400  0.52071600  1
  O  O43  1  0.60482100  0.06893300  0.56875500  1
  O  O44  1  0.39517900  0.06893300  0.06875500  1
  O  O45  1  0.91154600  0.93563900  0.07059000  1
  O  O46  1  0.02326500  0.37147000  0.12910300  1
  O  O47  1  0.60482100  0.93106700  0.93124500  1
  O  O48  1  0.78886300  0.38061400  0.02071600  1
  O  O49  1  0.91154600  0.06436100  0.42941000  1
  O  O50  1  0.86652800  0.82043100  0.70154700  1
  O  O51  1  0.02326500  0.62853000  0.37089700  1
