# generated using pymatgen
data_Li2CoP2O7
_symmetry_space_group_name_H-M   'P 1'
_cell_length_a   5.05138900
_cell_length_b   8.51815700
_cell_length_c   13.88728892
_cell_angle_alpha   65.26288685
_cell_angle_beta   90.00000000
_cell_angle_gamma   90.00000000
_symmetry_Int_Tables_number   1
_chemical_formula_structural   Li2CoP2O7
_chemical_formula_sum   'Li8 Co4 P8 O28'
_cell_volume   542.71680109
_cell_formula_units_Z   4
loop_
 _symmetry_equiv_pos_site_id
 _symmetry_equiv_pos_as_xyz
  1  'x, y, z'
loop_
 _atom_site_type_symbol
 _atom_site_label
 _atom_site_symmetry_multiplicity
 _atom_site_fract_x
 _atom_site_fract_y
 _atom_site_fract_z
 _atom_site_occupancy
  Li  Li0  1  0.21902000  0.50769400  0.57673700  1
  Li  Li1  1  0.23791200  0.04572000  0.82668100  1
  Li  Li2  1  0.71902000  0.49230600  0.92326300  1
  Li  Li3  1  0.73791200  0.95428000  0.67331900  1
  Li  Li4  1  0.78098000  0.49230600  0.42326300  1
  Li  Li5  1  0.76208800  0.95428000  0.17331900  1
  Li  Li6  1  0.26208800  0.04572000  0.32668100  1
  Li  Li7  1  0.28098000  0.50769400  0.07673700  1
  Co  Co8  1  0.74021000  0.77609900  0.47796600  1
  Co  Co9  1  0.75979000  0.77609900  0.97796600  1
  Co  Co10  1  0.25979000  0.22390100  0.52203400  1
  Co  Co11  1  0.24021000  0.22390100  0.02203400  1
  P  P12  1  0.26733100  0.67328200  0.35317100  1
  P  P13  1  0.73561600  0.18895800  0.88035300  1
  P  P14  1  0.26438400  0.81104200  0.11964700  1
  P  P15  1  0.76733100  0.32671800  0.14682900  1
  P  P16  1  0.23266900  0.67328200  0.85317100  1
  P  P17  1  0.73266900  0.32671800  0.64682900  1
  P  P18  1  0.76438400  0.18895800  0.38035300  1
  P  P19  1  0.23561600  0.81104200  0.61964700  1
  O  O20  1  0.09259300  0.81698500  0.35856500  1
  O  O21  1  0.06616600  0.29692500  0.13937600  1
  O  O22  1  0.82443200  0.50644300  0.56748600  1
  O  O23  1  0.93383400  0.70307500  0.86062400  1
  O  O24  1  0.56616600  0.70307500  0.36062400  1
  O  O25  1  0.67556800  0.50644300  0.06748600  1
  O  O26  1  0.62351100  0.27160700  0.44471800  1
  O  O27  1  0.56337800  0.83208300  0.09751800  1
  O  O28  1  0.93662200  0.83208300  0.59751800  1
  O  O29  1  0.43383400  0.29692500  0.63937600  1
  O  O30  1  0.17556800  0.49355700  0.43251400  1
  O  O31  1  0.06337800  0.16791700  0.40248200  1
  O  O32  1  0.22046500  0.66509200  0.24016800  1
  O  O33  1  0.12351100  0.72839300  0.05528200  1
  O  O34  1  0.59259300  0.18301500  0.14143500  1
  O  O35  1  0.86813900  0.02481000  0.88342500  1
  O  O36  1  0.32443200  0.49355700  0.93251400  1
  O  O37  1  0.77953500  0.33490800  0.75983200  1
  O  O38  1  0.13186100  0.97519000  0.11657500  1
  O  O39  1  0.87648900  0.27160700  0.94471800  1
  O  O40  1  0.43662200  0.16791700  0.90248200  1
  O  O41  1  0.72046500  0.33490800  0.25983200  1
  O  O42  1  0.27953500  0.66509200  0.74016800  1
  O  O43  1  0.90740700  0.18301500  0.64143500  1
  O  O44  1  0.37648900  0.72839300  0.55528200  1
  O  O45  1  0.36813900  0.97519000  0.61657500  1
  O  O46  1  0.63186100  0.02481000  0.38342500  1
  O  O47  1  0.40740700  0.81698500  0.85856500  1
