# generated using pymatgen
data_LiFe5O8
_symmetry_space_group_name_H-M   'P 1'
_cell_length_a   5.82895407
_cell_length_b   5.82895407
_cell_length_c   5.82895349
_cell_angle_alpha   60.11303998
_cell_angle_beta   60.11303998
_cell_angle_gamma   60.11303343
_symmetry_Int_Tables_number   1
_chemical_formula_structural   LiFe5O8
_chemical_formula_sum   'Li1 Fe5 O8'
_cell_volume   140.40018266
_cell_formula_units_Z   1
loop_
 _symmetry_equiv_pos_site_id
 _symmetry_equiv_pos_as_xyz
  1  'x, y, z'
loop_
 _atom_site_type_symbol
 _atom_site_label
 _atom_site_symmetry_multiplicity
 _atom_site_fract_x
 _atom_site_fract_y
 _atom_site_fract_z
 _atom_site_occupancy
  Li  Li0  1  0.00000000  0.00000000  0.00000000  1
  Fe  Fe1  1  0.62014100  0.62014100  0.62014100  1
  Fe  Fe2  1  0.37985900  0.37985900  0.37985900  1
  Fe  Fe3  1  0.50000000  0.00000000  0.00000000  1
  Fe  Fe4  1  0.00000000  0.00000000  0.50000000  1
  Fe  Fe5  1  0.00000000  0.50000000  0.00000000  1
  O  O6  1  0.24875600  0.77932300  0.24875600  1
  O  O7  1  0.77932300  0.24875600  0.24875600  1
  O  O8  1  0.24875600  0.24875600  0.77932300  1
  O  O9  1  0.24359400  0.24359400  0.24359400  1
  O  O10  1  0.75640600  0.75640600  0.75640600  1
  O  O11  1  0.22067700  0.75124400  0.75124400  1
  O  O12  1  0.75124400  0.75124400  0.22067700  1
  O  O13  1  0.75124400  0.22067700  0.75124400  1
