# generated using pymatgen
data_LiNdSe2
_symmetry_space_group_name_H-M   'P 1'
_cell_length_a   7.22504512
_cell_length_b   7.22504512
_cell_length_c   7.22504512
_cell_angle_alpha   131.99257963
_cell_angle_beta   131.99257963
_cell_angle_gamma   70.24074681
_symmetry_Int_Tables_number   1
_chemical_formula_structural   LiNdSe2
_chemical_formula_sum   'Li2 Nd2 Se4'
_cell_volume   204.20144449
_cell_formula_units_Z   2
loop_
 _symmetry_equiv_pos_site_id
 _symmetry_equiv_pos_as_xyz
  1  'x, y, z'
loop_
 _atom_site_type_symbol
 _atom_site_label
 _atom_site_symmetry_multiplicity
 _atom_site_fract_x
 _atom_site_fract_y
 _atom_site_fract_z
 _atom_site_occupancy
  Li  Li0  1  0.50000000  0.50000000  0.00000000  1
  Li  Li1  1  0.25000000  0.75000000  0.50000000  1
  Nd  Nd2  1  0.00000000  0.00000000  0.00000000  1
  Nd  Nd3  1  0.75000000  0.25000000  0.50000000  1
  Se  Se4  1  0.75003700  0.75003700  0.00000000  1
  Se  Se5  1  0.50003700  0.00003700  0.50000000  1
  Se  Se6  1  0.24996300  0.24996300  0.00000000  1
  Se  Se7  1  0.99996300  0.49996300  0.50000000  1
