# generated using pymatgen
data_Li3MnP2
_symmetry_space_group_name_H-M   'P 1'
_cell_length_a   5.77873100
_cell_length_b   11.53727600
_cell_length_c   11.59473200
_cell_angle_alpha   90.00000000
_cell_angle_beta   90.00000000
_cell_angle_gamma   90.00000000
_symmetry_Int_Tables_number   1
_chemical_formula_structural   Li3MnP2
_chemical_formula_sum   'Li24 Mn8 P16'
_cell_volume   773.03022608
_cell_formula_units_Z   8
loop_
 _symmetry_equiv_pos_site_id
 _symmetry_equiv_pos_as_xyz
  1  'x, y, z'
loop_
 _atom_site_type_symbol
 _atom_site_label
 _atom_site_symmetry_multiplicity
 _atom_site_fract_x
 _atom_site_fract_y
 _atom_site_fract_z
 _atom_site_occupancy
  Li  Li0  1  0.00204600  0.62500300  0.75257400  1
  Li  Li1  1  0.00176200  0.87507800  0.74915300  1
  Li  Li2  1  0.99823800  0.87507800  0.25084700  1
  Li  Li3  1  0.99518300  0.37572200  0.74527900  1
  Li  Li4  1  0.00481700  0.37572200  0.25472100  1
  Li  Li5  1  0.50000000  0.36965100  0.00000000  1
  Li  Li6  1  0.50495800  0.87586500  0.74840700  1
  Li  Li7  1  0.50481700  0.62427800  0.74527900  1
  Li  Li8  1  0.49504200  0.87586500  0.25159300  1
  Li  Li9  1  0.50000000  0.13054300  0.00000000  1
  Li  Li10  1  0.49795400  0.37499700  0.75257400  1
  Li  Li11  1  0.50176200  0.12492200  0.25084700  1
  Li  Li12  1  0.49823800  0.12492200  0.74915300  1
  Li  Li13  1  0.50000000  0.12451400  0.50000000  1
  Li  Li14  1  0.50204600  0.37499700  0.24742600  1
  Li  Li15  1  0.50000000  0.62525600  0.50000000  1
  Li  Li16  1  0.49518300  0.62427800  0.25472100  1
  Li  Li17  1  0.00000000  0.86945700  0.00000000  1
  Li  Li18  1  0.00495800  0.12413500  0.25159300  1
  Li  Li19  1  0.99504200  0.12413500  0.74840700  1
  Li  Li20  1  0.00000000  0.87548600  0.50000000  1
  Li  Li21  1  0.00000000  0.63034900  0.00000000  1
  Li  Li22  1  0.99795400  0.62500300  0.24742600  1
  Li  Li23  1  0.00000000  0.37474400  0.50000000  1
  Mn  Mn24  1  0.50000000  0.88074100  0.00000000  1
  Mn  Mn25  1  0.50000000  0.87504700  0.50000000  1
  Mn  Mn26  1  0.50000000  0.37501300  0.50000000  1
  Mn  Mn27  1  0.50000000  0.61894700  0.00000000  1
  Mn  Mn28  1  0.00000000  0.11925900  0.00000000  1
  Mn  Mn29  1  0.00000000  0.12495300  0.50000000  1
  Mn  Mn30  1  0.00000000  0.38105300  0.00000000  1
  Mn  Mn31  1  0.00000000  0.62498700  0.50000000  1
  P  P32  1  0.28351100  0.74999300  0.88663800  1
  P  P33  1  0.24630100  0.74946100  0.38604100  1
  P  P34  1  0.21648900  0.25000700  0.88663800  1
  P  P35  1  0.25369900  0.25053900  0.38604100  1
  P  P36  1  0.25000000  0.00000000  0.11278400  1
  P  P37  1  0.25000000  0.00000000  0.61455700  1
  P  P38  1  0.25000000  0.50000000  0.11317100  1
  P  P39  1  0.25000000  0.50000000  0.61389200  1
  P  P40  1  0.71648900  0.74999300  0.11336200  1
  P  P41  1  0.75000000  0.00000000  0.88721600  1
  P  P42  1  0.75369900  0.74946100  0.61395900  1
  P  P43  1  0.75000000  0.00000000  0.38544300  1
  P  P44  1  0.78351100  0.25000700  0.11336200  1
  P  P45  1  0.75000000  0.50000000  0.88682900  1
  P  P46  1  0.74630100  0.25053900  0.61395900  1
  P  P47  1  0.75000000  0.50000000  0.38610800  1
