# generated using pymatgen
data_Li3Mn3(PO4)4
_symmetry_space_group_name_H-M   'P 1'
_cell_length_a   11.70186200
_cell_length_b   6.15130000
_cell_length_c   8.42085950
_cell_angle_alpha   80.05765670
_cell_angle_beta   90.00000000
_cell_angle_gamma   90.00000000
_symmetry_Int_Tables_number   1
_chemical_formula_structural   Li3Mn3(PO4)4
_chemical_formula_sum   'Li6 Mn6 P8 O32'
_cell_volume   597.04435166
_cell_formula_units_Z   2
loop_
 _symmetry_equiv_pos_site_id
 _symmetry_equiv_pos_as_xyz
  1  'x, y, z'
loop_
 _atom_site_type_symbol
 _atom_site_label
 _atom_site_symmetry_multiplicity
 _atom_site_fract_x
 _atom_site_fract_y
 _atom_site_fract_z
 _atom_site_occupancy
  Li  Li0  1  0.62294000  0.62871200  0.06986800  1
  Li  Li1  1  0.91794500  0.14913600  0.04333300  1
  Li  Li2  1  0.15070100  0.20271700  0.30638000  1
  Li  Li3  1  0.65070100  0.79728300  0.69362000  1
  Li  Li4  1  0.12294000  0.37128800  0.93013200  1
  Li  Li5  1  0.41794500  0.85086400  0.95666700  1
  Mn  Mn6  1  0.90863700  0.59836600  0.28146100  1
  Mn  Mn7  1  0.57835100  0.06149300  0.28898700  1
  Mn  Mn8  1  0.30760400  0.62194700  0.33685800  1
  Mn  Mn9  1  0.80760400  0.37805300  0.66314200  1
  Mn  Mn10  1  0.40863700  0.40163400  0.71853900  1
  Mn  Mn11  1  0.07835100  0.93850700  0.71101300  1
  P  P12  1  0.63820600  0.12803000  0.91742400  1
  P  P13  1  0.88028600  0.64491500  0.91702600  1
  P  P14  1  0.40269100  0.92105000  0.58887400  1
  P  P15  1  0.08179200  0.46205600  0.58899600  1
  P  P16  1  0.90269100  0.07895000  0.41112600  1
  P  P17  1  0.58179200  0.53794400  0.41100400  1
  P  P18  1  0.38028600  0.35508500  0.08297400  1
  P  P19  1  0.13820600  0.87197000  0.08257600  1
  O  O20  1  0.43846300  0.13061700  0.13557600  1
  O  O21  1  0.16872300  0.86391800  0.90287900  1
  O  O22  1  0.95641200  0.44284700  0.92746000  1
  O  O23  1  0.31531200  0.35251400  0.91818500  1
  O  O24  1  0.93846300  0.86938300  0.86442400  1
  O  O25  1  0.76007100  0.16224500  0.83882700  1
  O  O26  1  0.45641200  0.55715300  0.07254000  1
  O  O27  1  0.81531200  0.64748600  0.08181500  1
  O  O28  1  0.09287600  0.10038800  0.10221700  1
  O  O29  1  0.05993400  0.68475400  0.16273200  1
  O  O30  1  0.66872300  0.13608200  0.09712100  1
  O  O31  1  0.28680000  0.38010000  0.21477400  1
  O  O32  1  0.59287600  0.89961200  0.89778300  1
  O  O33  1  0.91490600  0.28201200  0.27125900  1
  O  O34  1  0.26007100  0.83775500  0.16117300  1
  O  O35  1  0.61912400  0.35395900  0.32130800  1
  O  O36  1  0.58147700  0.74910900  0.27961500  1
  O  O37  1  0.85863800  0.88762600  0.32968600  1
  O  O38  1  0.16488900  0.44061200  0.45300000  1
  O  O39  1  0.45426100  0.49342600  0.47932700  1
  O  O40  1  0.55993400  0.31524600  0.83726800  1
  O  O41  1  0.95426100  0.50657400  0.52067300  1
  O  O42  1  0.66488900  0.55938800  0.54700000  1
  O  O43  1  0.02373500  0.02199700  0.48576600  1
  O  O44  1  0.52373500  0.97800300  0.51423400  1
  O  O45  1  0.81522900  0.13036800  0.53759200  1
  O  O46  1  0.11912400  0.64604100  0.67869200  1
  O  O47  1  0.41490600  0.71798800  0.72874100  1
  O  O48  1  0.35863800  0.11237400  0.67031400  1
  O  O49  1  0.78680000  0.61990000  0.78522600  1
  O  O50  1  0.08147700  0.25089100  0.72038500  1
  O  O51  1  0.31522900  0.86963200  0.46240800  1
