# generated using pymatgen
data_LiMnPO4
_symmetry_space_group_name_H-M   'P 1'
_cell_length_a   7.58901544
_cell_length_b   7.58901544
_cell_length_c   9.69966200
_cell_angle_alpha   90.00000000
_cell_angle_beta   90.00000000
_cell_angle_gamma   119.99999512
_symmetry_Int_Tables_number   1
_chemical_formula_structural   LiMnPO4
_chemical_formula_sum   'Li6 Mn6 P6 O24'
_cell_volume   483.79138087
_cell_formula_units_Z   6
loop_
 _symmetry_equiv_pos_site_id
 _symmetry_equiv_pos_as_xyz
  1  'x, y, z'
loop_
 _atom_site_type_symbol
 _atom_site_label
 _atom_site_symmetry_multiplicity
 _atom_site_fract_x
 _atom_site_fract_y
 _atom_site_fract_z
 _atom_site_occupancy
  Li  Li0  1  0.20521700  0.95543900  0.25983000  1
  Li  Li1  1  0.04456100  0.24977800  0.25983000  1
  Li  Li2  1  0.24977800  0.04456100  0.75983000  1
  Li  Li3  1  0.75022200  0.79478300  0.25983000  1
  Li  Li4  1  0.79478300  0.75022200  0.75983000  1
  Li  Li5  1  0.95543900  0.20521700  0.75983000  1
  Mn  Mn6  1  0.04223000  0.58091900  0.48567700  1
  Mn  Mn7  1  0.53869000  0.95777000  0.48567700  1
  Mn  Mn8  1  0.41908100  0.46131000  0.48567700  1
  Mn  Mn9  1  0.46131000  0.41908100  0.98567700  1
  Mn  Mn10  1  0.58091900  0.04223000  0.98567700  1
  Mn  Mn11  1  0.95777000  0.53869000  0.98567700  1
  P  P12  1  0.33333300  0.66666700  0.77506900  1
  P  P13  1  0.00000000  0.00000000  0.00545800  1
  P  P14  1  0.33333300  0.66666700  0.18968700  1
  P  P15  1  0.66666700  0.33333300  0.68968700  1
  P  P16  1  0.66666700  0.33333300  0.27506900  1
  P  P17  1  0.00000000  0.00000000  0.50545800  1
  O  O18  1  0.09763700  0.87612000  0.44851100  1
  O  O19  1  0.17901300  0.72883300  0.13767700  1
  O  O20  1  0.12283100  0.49607000  0.82441300  1
  O  O21  1  0.37323900  0.87716900  0.82441300  1
  O  O22  1  0.33333300  0.66666700  0.61126600  1
  O  O23  1  0.33333300  0.66666700  0.35225700  1
  O  O24  1  0.00000000  0.00000000  0.16501500  1
  O  O25  1  0.12388000  0.22151600  0.44851100  1
  O  O26  1  0.27116700  0.45018000  0.13767700  1
  O  O27  1  0.54982000  0.82098700  0.13767700  1
  O  O28  1  0.22151600  0.12388000  0.94851100  1
  O  O29  1  0.50393000  0.62676100  0.82441300  1
  O  O30  1  0.45018000  0.27116700  0.63767700  1
  O  O31  1  0.77848400  0.90236300  0.44851100  1
  O  O32  1  0.62676100  0.50393000  0.32441300  1
  O  O33  1  0.49607000  0.12283100  0.32441300  1
  O  O34  1  0.00000000  0.00000000  0.66501500  1
  O  O35  1  0.66666700  0.33333300  0.85225700  1
  O  O36  1  0.66666700  0.33333300  0.11126600  1
  O  O37  1  0.90236300  0.77848400  0.94851100  1
  O  O38  1  0.82098700  0.54982000  0.63767700  1
  O  O39  1  0.72883300  0.17901300  0.63767700  1
  O  O40  1  0.87716900  0.37323900  0.32441300  1
  O  O41  1  0.87612000  0.09763700  0.94851100  1
