# generated using pymatgen
data_Li4Fe(PO4)2
_symmetry_space_group_name_H-M   'P 1'
_cell_length_a   10.47948100
_cell_length_b   8.22064700
_cell_length_c   8.27894788
_cell_angle_alpha   75.71621130
_cell_angle_beta   90.00000000
_cell_angle_gamma   90.00000000
_symmetry_Int_Tables_number   1
_chemical_formula_structural   Li4Fe(PO4)2
_chemical_formula_sum   'Li16 Fe4 P8 O32'
_cell_volume   691.16709431
_cell_formula_units_Z   4
loop_
 _symmetry_equiv_pos_site_id
 _symmetry_equiv_pos_as_xyz
  1  'x, y, z'
loop_
 _atom_site_type_symbol
 _atom_site_label
 _atom_site_symmetry_multiplicity
 _atom_site_fract_x
 _atom_site_fract_y
 _atom_site_fract_z
 _atom_site_occupancy
  Li  Li0  1  0.07304500  0.72584600  0.52412700  1
  Li  Li1  1  0.33769200  0.89821600  0.60211600  1
  Li  Li2  1  0.34736900  0.15013400  0.84919700  1
  Li  Li3  1  0.83746700  0.84643500  0.65074300  1
  Li  Li4  1  0.92695500  0.27415400  0.47587300  1
  Li  Li5  1  0.66230800  0.10178400  0.39788400  1
  Li  Li6  1  0.83769200  0.60178400  0.39788400  1
  Li  Li7  1  0.42695500  0.22584600  0.52412700  1
  Li  Li8  1  0.66253300  0.34643500  0.65074300  1
  Li  Li9  1  0.16230800  0.39821600  0.60211600  1
  Li  Li10  1  0.16253300  0.15356500  0.34925700  1
  Li  Li11  1  0.84736900  0.34986600  0.15080300  1
  Li  Li12  1  0.57304500  0.77415400  0.47587300  1
  Li  Li13  1  0.33746700  0.65356500  0.34925700  1
  Li  Li14  1  0.15263100  0.65013400  0.84919700  1
  Li  Li15  1  0.65263100  0.84986600  0.15080300  1
  Fe  Fe16  1  0.34318700  0.40933000  0.09284700  1
  Fe  Fe17  1  0.84318700  0.09067000  0.90715300  1
  Fe  Fe18  1  0.15681300  0.90933000  0.09284700  1
  Fe  Fe19  1  0.65681300  0.59067000  0.90715300  1
  P  P20  1  0.90795700  0.97483700  0.29083000  1
  P  P21  1  0.09204300  0.02516300  0.70917000  1
  P  P22  1  0.40632200  0.03001500  0.23431500  1
  P  P23  1  0.09367800  0.53001500  0.23431500  1
  P  P24  1  0.59367800  0.96998500  0.76568500  1
  P  P25  1  0.90632200  0.46998500  0.76568500  1
  P  P26  1  0.59204300  0.47483700  0.29083000  1
  P  P27  1  0.40795700  0.52516300  0.70917000  1
  O  O28  1  0.33139500  0.87713700  0.20267700  1
  O  O29  1  0.90215700  0.81566900  0.43813100  1
  O  O30  1  0.83139500  0.62286300  0.79732300  1
  O  O31  1  0.39085000  0.17615300  0.07366800  1
  O  O32  1  0.54722100  0.97916700  0.27366800  1
  O  O33  1  0.44937500  0.51509600  0.24301400  1
  O  O34  1  0.40215700  0.68433100  0.56186900  1
  O  O35  1  0.34689700  0.37158100  0.66071300  1
  O  O36  1  0.59784300  0.31566900  0.43813100  1
  O  O37  1  0.65409300  0.91382900  0.61587400  1
  O  O38  1  0.66606300  0.43750800  0.14024600  1
  O  O39  1  0.84689700  0.12841900  0.33928700  1
  O  O40  1  0.45277900  0.02083300  0.72633200  1
  O  O41  1  0.33393700  0.56249200  0.85975400  1
  O  O42  1  0.10915000  0.67615300  0.07366800  1
  O  O43  1  0.65310300  0.62841900  0.33928700  1
  O  O44  1  0.09784300  0.18433100  0.56186900  1
  O  O45  1  0.94937500  0.98490400  0.75698600  1
  O  O46  1  0.16860500  0.37713700  0.20267700  1
  O  O47  1  0.60915000  0.82384700  0.92633200  1
  O  O48  1  0.84590700  0.41382900  0.61587400  1
  O  O49  1  0.55062500  0.48490400  0.75698600  1
  O  O50  1  0.16606300  0.06249200  0.85975400  1
  O  O51  1  0.15310300  0.87158100  0.66071300  1
  O  O52  1  0.15409300  0.58617100  0.38412600  1
  O  O53  1  0.34590700  0.08617100  0.38412600  1
  O  O54  1  0.83393700  0.93750800  0.14024600  1
  O  O55  1  0.66860500  0.12286300  0.79732300  1
  O  O56  1  0.04722100  0.52083300  0.72633200  1
  O  O57  1  0.95277900  0.47916700  0.27366800  1
  O  O58  1  0.05062500  0.01509600  0.24301400  1
  O  O59  1  0.89085000  0.32384700  0.92633200  1
