# generated using pymatgen
data_LiHoSe2
_symmetry_space_group_name_H-M   'P 1'
_cell_length_a   7.02747364
_cell_length_b   7.02747364
_cell_length_c   7.02747364
_cell_angle_alpha   132.40142451
_cell_angle_beta   132.40142451
_cell_angle_gamma   69.59575467
_symmetry_Int_Tables_number   1
_chemical_formula_structural   LiHoSe2
_chemical_formula_sum   'Li2 Ho2 Se4'
_cell_volume   185.63122247
_cell_formula_units_Z   2
loop_
 _symmetry_equiv_pos_site_id
 _symmetry_equiv_pos_as_xyz
  1  'x, y, z'
loop_
 _atom_site_type_symbol
 _atom_site_label
 _atom_site_symmetry_multiplicity
 _atom_site_fract_x
 _atom_site_fract_y
 _atom_site_fract_z
 _atom_site_occupancy
  Li  Li0  1  0.00000000  0.00000000  0.00000000  1
  Li  Li1  1  0.75000000  0.25000000  0.50000000  1
  Ho  Ho2  1  0.25000000  0.75000000  0.50000000  1
  Ho  Ho3  1  0.50000000  0.50000000  0.00000000  1
  Se  Se4  1  0.74641400  0.74641400  0.00000000  1
  Se  Se5  1  0.25358600  0.25358600  0.00000000  1
  Se  Se6  1  0.00358600  0.50358600  0.50000000  1
  Se  Se7  1  0.49641400  0.99641400  0.50000000  1
