# generated using pymatgen
data_LiMn4(PO4)3
_symmetry_space_group_name_H-M   'P 1'
_cell_length_a   9.78624748
_cell_length_b   9.78624748
_cell_length_c   9.78624690
_cell_angle_alpha   52.51857427
_cell_angle_beta   52.51857427
_cell_angle_gamma   52.51857168
_symmetry_Int_Tables_number   1
_chemical_formula_structural   LiMn4(PO4)3
_chemical_formula_sum   'Li2 Mn8 P6 O24'
_cell_volume   546.33536900
_cell_formula_units_Z   2
loop_
 _symmetry_equiv_pos_site_id
 _symmetry_equiv_pos_as_xyz
  1  'x, y, z'
loop_
 _atom_site_type_symbol
 _atom_site_label
 _atom_site_symmetry_multiplicity
 _atom_site_fract_x
 _atom_site_fract_y
 _atom_site_fract_z
 _atom_site_occupancy
  Li  Li0  1  0.04244500  0.04244500  0.04244500  1
  Li  Li1  1  0.54244500  0.54244500  0.54244500  1
  Mn  Mn2  1  0.03419500  0.66955200  0.25504000  1
  Mn  Mn3  1  0.66955200  0.25504000  0.03419500  1
  Mn  Mn4  1  0.21182100  0.21182100  0.21182100  1
  Mn  Mn5  1  0.53419500  0.75504000  0.16955200  1
  Mn  Mn6  1  0.25504000  0.03419500  0.66955200  1
  Mn  Mn7  1  0.16955200  0.53419500  0.75504000  1
  Mn  Mn8  1  0.75504000  0.16955200  0.53419500  1
  Mn  Mn9  1  0.71182100  0.71182100  0.71182100  1
  P  P10  1  0.60975000  0.91657600  0.32305600  1
  P  P11  1  0.10975000  0.82305600  0.41657600  1
  P  P12  1  0.82305600  0.41657600  0.10975000  1
  P  P13  1  0.91657600  0.32305600  0.60975000  1
  P  P14  1  0.32305600  0.60975000  0.91657600  1
  P  P15  1  0.41657600  0.10975000  0.82305600  1
  O  O16  1  0.22147700  0.48300200  0.11034200  1
  O  O17  1  0.02530100  0.39587700  0.04036200  1
  O  O18  1  0.39587700  0.04036200  0.02530100  1
  O  O19  1  0.48300200  0.11034200  0.22147700  1
  O  O20  1  0.11034200  0.22147700  0.48300200  1
  O  O21  1  0.80715800  0.92179000  0.20537600  1
  O  O22  1  0.04036200  0.02530100  0.39587700  1
  O  O23  1  0.72147700  0.61034200  0.98300200  1
  O  O24  1  0.11025400  0.82739700  0.25672300  1
  O  O25  1  0.61025400  0.75672300  0.32739700  1
  O  O26  1  0.54036200  0.89587700  0.52530100  1
  O  O27  1  0.30715800  0.70537600  0.42179000  1
  O  O28  1  0.82739700  0.25672300  0.11025400  1
  O  O29  1  0.70537600  0.42179000  0.30715800  1
  O  O30  1  0.89587700  0.52530100  0.54036200  1
  O  O31  1  0.20537600  0.80715800  0.92179000  1
  O  O32  1  0.32739700  0.61025400  0.75672300  1
  O  O33  1  0.75672300  0.32739700  0.61025400  1
  O  O34  1  0.52530100  0.54036200  0.89587700  1
  O  O35  1  0.42179000  0.30715800  0.70537600  1
  O  O36  1  0.92179000  0.20537600  0.80715800  1
  O  O37  1  0.25672300  0.11025400  0.82739700  1
  O  O38  1  0.61034200  0.98300200  0.72147700  1
  O  O39  1  0.98300200  0.72147700  0.61034200  1
