# generated using pymatgen
data_LiMo2PO8
_symmetry_space_group_name_H-M   'P 1'
_cell_length_a   6.72749744
_cell_length_b   5.24858789
_cell_length_c   17.72715080
_cell_angle_alpha   90.00000000
_cell_angle_beta   89.98820845
_cell_angle_gamma   90.00000000
_symmetry_Int_Tables_number   1
_chemical_formula_structural   LiMo2PO8
_chemical_formula_sum   'Li4 Mo8 P4 O32'
_cell_volume   625.94322778
_cell_formula_units_Z   4
loop_
 _symmetry_equiv_pos_site_id
 _symmetry_equiv_pos_as_xyz
  1  'x, y, z'
loop_
 _atom_site_type_symbol
 _atom_site_label
 _atom_site_symmetry_multiplicity
 _atom_site_fract_x
 _atom_site_fract_y
 _atom_site_fract_z
 _atom_site_occupancy
  Li  Li0  1  0.23969335  0.24106853  0.79099497  1
  Li  Li1  1  0.26502363  0.29226475  0.29118974  1
  Li  Li2  1  0.73497719  0.79226396  0.70880975  1
  Li  Li3  1  0.76030596  0.74106964  0.20900507  1
  O  O4  1  0.15788483  0.25728457  0.04338550  1
  O  O5  1  0.95931102  0.47208948  0.51017450  1
  O  O6  1  0.84163899  0.35353043  0.22770365  1
  O  O7  1  0.84818649  0.96716319  0.11671142  1
  O  O8  1  0.86231330  0.11207206  0.84265516  1
  O  O9  1  0.84211598  0.75728379  0.95661455  1
  O  O10  1  0.78743243  0.47593302  0.08249356  1
  O  O11  1  0.78747420  0.56468413  0.80240577  1
  O  O12  1  0.99380846  0.25582405  0.35163973  1
  O  O13  1  0.04068979  0.97208837  0.48982555  1
  O  O14  1  0.15836032  0.85352964  0.77229639  1
  O  O15  1  0.15181283  0.46716208  0.88328862  1
  O  O16  1  0.13768602  0.61207318  0.15734488  1
  O  O17  1  0.00619237  0.75582327  0.64835975  1
  O  O18  1  0.21256838  0.97593413  0.91750649  1
  O  O19  1  0.21252661  0.06468491  0.19759427  1
  O  O20  1  0.36165309  0.92341120  0.65629448  1
  O  O21  1  0.28773081  0.47120055  0.69729669  1
  O  O22  1  0.28679641  0.56141626  0.41744302  1
  O  O23  1  0.34846907  0.06968994  0.38357343  1
  O  O24  1  0.63834772  0.42341232  0.34370557  1
  O  O25  1  0.34415270  0.68279495  0.27240846  1
  O  O26  1  0.45991468  0.56483474  0.98954759  1
  O  O27  1  0.50701422  0.27961864  0.85200666  1
  O  O28  1  0.49298510  0.77961786  0.14799338  1
  O  O29  1  0.54008614  0.06483362  0.01045245  1
  O  O30  1  0.65584662  0.18279383  0.72759158  1
  O  O31  1  0.65769905  0.78102267  0.45703504  1
  O  O32  1  0.65153025  0.56968916  0.61642661  1
  O  O33  1  0.71320440  0.06141515  0.58255702  1
  O  O34  1  0.71227000  0.97120134  0.30270336  1
  O  O35  1  0.34230026  0.28102156  0.54296500  1
  P  P36  1  0.79400242  0.25101317  0.30790504  1
  P  P37  1  0.70582374  0.28489228  0.80764502  1
  P  P38  1  0.29417707  0.78489150  0.19235503  1
  P  P39  1  0.20599690  0.75101239  0.69209500  1
  Mo  Mo40  1  0.15609711  0.26129823  0.45152898  1
  Mo  Mo41  1  0.34354936  0.27537922  0.95175103  1
  Mo  Mo42  1  0.49919673  0.26906937  0.62486522  1
  Mo  Mo43  1  0.00052526  0.26724697  0.12530204  1
  Mo  Mo44  1  0.50080408  0.76906859  0.37513482  1
  Mo  Mo45  1  0.65645145  0.77538033  0.04824901  1
  Mo  Mo46  1  0.84390221  0.76129934  0.54847106  1
  Mo  Mo47  1  0.99947406  0.76724808  0.87469800  1
