# generated using pymatgen
data_Li2MnCl4
_symmetry_space_group_name_H-M   'P 1'
_cell_length_a   7.45027730
_cell_length_b   7.45027730
_cell_length_c   7.45027730
_cell_angle_alpha   119.44026890
_cell_angle_beta   119.28685868
_cell_angle_gamma   91.10597092
_symmetry_Int_Tables_number   1
_chemical_formula_structural   Li2MnCl4
_chemical_formula_sum   'Li4 Mn2 Cl8'
_cell_volume   295.16959811
_cell_formula_units_Z   2
loop_
 _symmetry_equiv_pos_site_id
 _symmetry_equiv_pos_as_xyz
  1  'x, y, z'
loop_
 _atom_site_type_symbol
 _atom_site_label
 _atom_site_symmetry_multiplicity
 _atom_site_fract_x
 _atom_site_fract_y
 _atom_site_fract_z
 _atom_site_occupancy
  Li  Li0  1  0.11920700  0.36920700  0.75000000  1
  Li  Li1  1  0.50000000  0.00000000  0.00000000  1
  Li  Li2  1  0.50000000  0.50000000  0.50000000  1
  Li  Li3  1  0.88079300  0.63079300  0.25000000  1
  Mn  Mn4  1  0.50000000  0.00000000  0.50000000  1
  Mn  Mn5  1  0.00000000  0.00000000  0.00000000  1
  Cl  Cl6  1  0.25481400  0.77009300  0.01527900  1
  Cl  Cl7  1  0.25481400  0.23953500  0.48472100  1
  Cl  Cl8  1  0.25180600  0.23950700  0.01229900  1
  Cl  Cl9  1  0.72720900  0.23950700  0.48770100  1
  Cl  Cl10  1  0.27279100  0.76049300  0.51229900  1
  Cl  Cl11  1  0.74819400  0.76049300  0.98770100  1
  Cl  Cl12  1  0.74518600  0.76046500  0.51527900  1
  Cl  Cl13  1  0.74518600  0.22990700  0.98472100  1
