# generated using pymatgen
data_LiGa3Te5
_symmetry_space_group_name_H-M   'P 1'
_cell_length_a   10.38486780
_cell_length_b   10.38486780
_cell_length_c   10.38486801
_cell_angle_alpha   90.03979480
_cell_angle_beta   90.03979480
_cell_angle_gamma   90.03979301
_symmetry_Int_Tables_number   1
_chemical_formula_structural   LiGa3Te5
_chemical_formula_sum   'Li4 Ga12 Te20'
_cell_volume   1119.96025669
_cell_formula_units_Z   4
loop_
 _symmetry_equiv_pos_site_id
 _symmetry_equiv_pos_as_xyz
  1  'x, y, z'
loop_
 _atom_site_type_symbol
 _atom_site_label
 _atom_site_symmetry_multiplicity
 _atom_site_fract_x
 _atom_site_fract_y
 _atom_site_fract_z
 _atom_site_occupancy
  Li  Li0  1  0.26710000  0.73502500  0.99607900  1
  Li  Li1  1  0.44559600  0.44559600  0.44559600  1
  Li  Li2  1  0.99607900  0.26710000  0.73502500  1
  Li  Li3  1  0.73502500  0.99607900  0.26710000  1
  Ga  Ga4  1  0.57030800  0.87285200  0.84152400  1
  Ga  Ga5  1  0.87285200  0.84152400  0.57030800  1
  Ga  Ga6  1  0.24983100  0.83277000  0.66270500  1
  Ga  Ga7  1  0.16670200  0.75189100  0.34034200  1
  Ga  Ga8  1  0.83277000  0.66270500  0.24983100  1
  Ga  Ga9  1  0.84152400  0.57030800  0.87285200  1
  Ga  Ga10  1  0.12462000  0.42826000  0.15767800  1
  Ga  Ga11  1  0.75189100  0.34034200  0.16670200  1
  Ga  Ga12  1  0.66270500  0.24983100  0.83277000  1
  Ga  Ga13  1  0.34034200  0.16670200  0.75189100  1
  Ga  Ga14  1  0.42826000  0.15767800  0.12462000  1
  Ga  Ga15  1  0.15767800  0.12462000  0.42826000  1
  Te  Te16  1  0.16623800  0.00206800  0.83177500  1
  Te  Te17  1  0.32859000  0.93230300  0.43371400  1
  Te  Te18  1  0.50018500  0.91568200  0.08472100  1
  Te  Te19  1  0.00206800  0.83177500  0.16623800  1
  Te  Te20  1  0.82767600  0.82767600  0.82767600  1
  Te  Te21  1  0.67958400  0.75987000  0.42562300  1
  Te  Te22  1  0.42562300  0.67958400  0.75987000  1
  Te  Te23  1  0.06780800  0.67254100  0.56763100  1
  Te  Te24  1  0.31948600  0.57508400  0.23806000  1
  Te  Te25  1  0.67254100  0.56763100  0.06780800  1
  Te  Te26  1  0.08472100  0.50018500  0.91568200  1
  Te  Te27  1  0.93230300  0.43371400  0.32859000  1
  Te  Te28  1  0.75987000  0.42562300  0.67958400  1
  Te  Te29  1  0.43371400  0.32859000  0.93230300  1
  Te  Te30  1  0.23806000  0.31948600  0.57508400  1
  Te  Te31  1  0.57508400  0.23806000  0.31948600  1
  Te  Te32  1  0.17194100  0.17194100  0.17194100  1
  Te  Te33  1  0.83177500  0.16623800  0.00206800  1
  Te  Te34  1  0.91568200  0.08472100  0.50018500  1
  Te  Te35  1  0.56763100  0.06780800  0.67254100  1
