# generated using pymatgen
data_LiDyS2
_symmetry_space_group_name_H-M   'P 1'
_cell_length_a   6.77020674
_cell_length_b   6.77020674
_cell_length_c   6.77020674
_cell_angle_alpha   132.62466772
_cell_angle_beta   132.62466772
_cell_angle_gamma   69.24420351
_symmetry_Int_Tables_number   1
_chemical_formula_structural   LiDyS2
_chemical_formula_sum   'Li2 Dy2 S4'
_cell_volume   164.86753557
_cell_formula_units_Z   2
loop_
 _symmetry_equiv_pos_site_id
 _symmetry_equiv_pos_as_xyz
  1  'x, y, z'
loop_
 _atom_site_type_symbol
 _atom_site_label
 _atom_site_symmetry_multiplicity
 _atom_site_fract_x
 _atom_site_fract_y
 _atom_site_fract_z
 _atom_site_occupancy
  Li  Li0  1  0.00000000  0.00000000  0.00000000  1
  Li  Li1  1  0.75000000  0.25000000  0.50000000  1
  Dy  Dy2  1  0.25000000  0.75000000  0.50000000  1
  Dy  Dy3  1  0.50000000  0.50000000  0.00000000  1
  S  S4  1  0.49497900  0.99497900  0.50000000  1
  S  S5  1  0.00502100  0.50502100  0.50000000  1
  S  S6  1  0.74497900  0.74497900  0.00000000  1
  S  S7  1  0.25502100  0.25502100  0.00000000  1
