# generated using pymatgen
data_LiTbSe2
_symmetry_space_group_name_H-M   'P 1'
_cell_length_a   7.05847875
_cell_length_b   7.05847875
_cell_length_c   7.05847875
_cell_angle_alpha   132.20769374
_cell_angle_beta   132.20769374
_cell_angle_gamma   69.90119436
_symmetry_Int_Tables_number   1
_chemical_formula_structural   LiTbSe2
_chemical_formula_sum   'Li2 Tb2 Se4'
_cell_volume   189.19159818
_cell_formula_units_Z   2
loop_
 _symmetry_equiv_pos_site_id
 _symmetry_equiv_pos_as_xyz
  1  'x, y, z'
loop_
 _atom_site_type_symbol
 _atom_site_label
 _atom_site_symmetry_multiplicity
 _atom_site_fract_x
 _atom_site_fract_y
 _atom_site_fract_z
 _atom_site_occupancy
  Li  Li0  1  0.50000000  0.50000000  0.00000000  1
  Li  Li1  1  0.25000000  0.75000000  0.50000000  1
  Tb  Tb2  1  0.00000000  0.00000000  0.00000000  1
  Tb  Tb3  1  0.75000000  0.25000000  0.50000000  1
  Se  Se4  1  0.75192700  0.75192700  0.00000000  1
  Se  Se5  1  0.50192700  0.00192700  0.50000000  1
  Se  Se6  1  0.24807300  0.24807300  0.00000000  1
  Se  Se7  1  0.99807300  0.49807300  0.50000000  1
