# generated using pymatgen
data_LiMn4O8
_symmetry_space_group_name_H-M   'P 1'
_cell_length_a   5.90739422
_cell_length_b   5.90743594
_cell_length_c   5.90737583
_cell_angle_alpha   60.00688567
_cell_angle_beta   60.00663624
_cell_angle_gamma   60.00695693
_symmetry_Int_Tables_number   1
_chemical_formula_structural   LiMn4O8
_chemical_formula_sum   'Li1 Mn4 O8'
_cell_volume   145.79471647
_cell_formula_units_Z   1
loop_
 _symmetry_equiv_pos_site_id
 _symmetry_equiv_pos_as_xyz
  1  'x, y, z'
loop_
 _atom_site_type_symbol
 _atom_site_label
 _atom_site_symmetry_multiplicity
 _atom_site_fract_x
 _atom_site_fract_y
 _atom_site_fract_z
 _atom_site_occupancy
  Li  Li0  1  0.99999200  0.00000400  0.00000300  1
  Mn  Mn1  1  0.37587200  0.37587100  0.37587000  1
  Mn  Mn2  1  0.37586900  0.37586800  0.87239200  1
  Mn  Mn3  1  0.37586800  0.87239100  0.37586800  1
  Mn  Mn4  1  0.87241500  0.37586000  0.37586100  1
  O  O5  1  0.60959600  0.60961000  0.60960900  1
  O  O6  1  0.60960200  0.60961600  0.17117700  1
  O  O7  1  0.60960200  0.17117700  0.60961500  1
  O  O8  1  0.17111900  0.60963200  0.60963000  1
  O  O9  1  0.58364300  0.13878200  0.13878300  1
  O  O10  1  0.13880500  0.13878700  0.58361000  1
  O  O11  1  0.13880500  0.58361000  0.13878800  1
  O  O12  1  0.13881000  0.13879200  0.13879300  1
