# generated using pymatgen
data_LiNiP2O7
_symmetry_space_group_name_H-M   'P 1'
_cell_length_a   7.12301602
_cell_length_b   8.30546742
_cell_length_c   9.78598882
_cell_angle_alpha   90.00000000
_cell_angle_beta   110.13181105
_cell_angle_gamma   90.00000000
_symmetry_Int_Tables_number   1
_chemical_formula_structural   LiNiP2O7
_chemical_formula_sum   'Li4 Ni4 P8 O28'
_cell_volume   543.56762655
_cell_formula_units_Z   4
loop_
 _symmetry_equiv_pos_site_id
 _symmetry_equiv_pos_as_xyz
  1  'x, y, z'
loop_
 _atom_site_type_symbol
 _atom_site_label
 _atom_site_symmetry_multiplicity
 _atom_site_fract_x
 _atom_site_fract_y
 _atom_site_fract_z
 _atom_site_occupancy
  Li  Li0  1  0.17758707  0.62595297  0.74384579  1
  Li  Li1  1  0.17758769  0.87404726  0.24384516  1
  Li  Li2  1  0.82241259  0.12595289  0.75615430  1
  Li  Li3  1  0.82241321  0.37404719  0.25615474  1
  O  O4  1  0.27484358  0.81278672  0.62667122  1
  O  O5  1  0.88228215  0.85404746  0.12475473  1
  O  O6  1  0.92377776  0.94859294  0.65871076  1
  O  O7  1  0.80675199  0.82752348  0.40449004  1
  O  O8  1  0.07622342  0.44859286  0.84128974  1
  O  O9  1  0.11771661  0.14595270  0.87524433  1
  O  O10  1  0.07622253  0.05140722  0.34128977  1
  O  O11  1  0.19324828  0.17247668  0.59550943  1
  O  O12  1  0.27995640  0.80349083  0.89435726  1
  O  O13  1  0.11771724  0.35404738  0.37524477  1
  O  O14  1  0.41481456  0.33779780  0.93766558  1
  O  O15  1  0.92377685  0.55140729  0.15870973  1
  O  O16  1  0.19324739  0.32752340  0.09550946  1
  O  O17  1  0.51976934  0.06689777  0.85726005  1
  O  O18  1  0.27995551  0.69650941  0.39435730  1
  O  O19  1  0.48023033  0.56689784  0.64274005  1
  O  O20  1  0.41481517  0.16220228  0.43766494  1
  O  O21  1  0.27484420  0.68721352  0.12667166  1
  O  O22  1  0.72004387  0.19650933  0.10564220  1
  O  O23  1  0.58518510  0.83779788  0.56233452  1
  O  O24  1  0.51976996  0.43310106  0.35726049  1
  O  O25  1  0.72004325  0.30349075  0.60564176  1
  O  O26  1  0.48023095  0.93310114  0.14274049  1
  O  O27  1  0.80675290  0.67247676  0.90449107  1
  O  O28  1  0.72515518  0.18721344  0.37332784  1
  O  O29  1  0.58518421  0.66220236  0.06233456  1
  O  O30  1  0.88228304  0.64595278  0.62475470  1
  O  O31  1  0.72515609  0.31278664  0.87332888  1
  P  P32  1  0.80918752  0.68858292  0.05917197  1
  P  P33  1  0.80918843  0.81141607  0.55917300  1
  P  P34  1  0.40259309  0.78002354  0.05546011  1
  P  P35  1  0.59740630  0.28002346  0.44454046  1
  P  P36  1  0.19081276  0.31141724  0.94082750  1
  P  P37  1  0.19081186  0.18858284  0.44082753  1
  P  P38  1  0.40259399  0.71997669  0.55546008  1
  P  P39  1  0.59740720  0.21997661  0.94454042  1
  Ni  Ni40  1  0.22744334  0.99897147  0.75023504  1
  Ni  Ni41  1  0.22744244  0.50102877  0.25023507  1
  Ni  Ni42  1  0.77255783  0.49897139  0.74976440  1
  Ni  Ni43  1  0.77255694  0.00102869  0.24976443  1
