# generated using pymatgen
data_Li3Cr2(PO4)3
_symmetry_space_group_name_H-M   'P 1'
_cell_length_a   8.62698393
_cell_length_b   8.62698393
_cell_length_c   8.57196842
_cell_angle_alpha   61.27196647
_cell_angle_beta   61.27196647
_cell_angle_gamma   60.43595114
_symmetry_Int_Tables_number   1
_chemical_formula_structural   Li3Cr2(PO4)3
_chemical_formula_sum   'Li6 Cr4 P6 O24'
_cell_volume   461.14147875
_cell_formula_units_Z   2
loop_
 _symmetry_equiv_pos_site_id
 _symmetry_equiv_pos_as_xyz
  1  'x, y, z'
loop_
 _atom_site_type_symbol
 _atom_site_label
 _atom_site_symmetry_multiplicity
 _atom_site_fract_x
 _atom_site_fract_y
 _atom_site_fract_z
 _atom_site_occupancy
  Li  Li0  1  0.68287000  0.94215600  0.80907500  1
  Li  Li1  1  0.30893800  0.05990800  0.21145400  1
  Li  Li2  1  0.05990800  0.30893800  0.71145400  1
  Li  Li3  1  0.63526000  0.37528800  0.74980500  1
  Li  Li4  1  0.37528800  0.63526000  0.24980500  1
  Li  Li5  1  0.94215600  0.68287000  0.30907400  1
  Cr  Cr6  1  0.64144500  0.14603100  0.14399700  1
  Cr  Cr7  1  0.14603100  0.64144500  0.64399700  1
  Cr  Cr8  1  0.85238900  0.35608500  0.36885400  1
  Cr  Cr9  1  0.35608500  0.85238900  0.86885400  1
  P  P10  1  0.04356100  0.95426100  0.25653500  1
  P  P11  1  0.52416200  0.75222800  0.46402700  1
  P  P12  1  0.47421200  0.24553100  0.54945100  1
  P  P13  1  0.95426100  0.04356100  0.75653500  1
  P  P14  1  0.75222800  0.52416200  0.96402700  1
  P  P15  1  0.24553100  0.47421200  0.04945100  1
  O  O16  1  0.70695100  0.37707500  0.95154200  1
  O  O17  1  0.05830700  0.46730500  0.21046200  1
  O  O18  1  0.01466500  0.11138000  0.31590400  1
  O  O19  1  0.11138000  0.01466500  0.81590400  1
  O  O20  1  0.88693500  0.98352600  0.19657200  1
  O  O21  1  0.98352600  0.88693500  0.69657200  1
  O  O22  1  0.93902200  0.53134300  0.80306100  1
  O  O23  1  0.59766100  0.72277200  0.93201300  1
  O  O24  1  0.52632500  0.24152300  0.35438900  1
  O  O25  1  0.24156800  0.93515800  0.10002800  1
  O  O26  1  0.75522900  0.47211000  0.15958500  1
  O  O27  1  0.29103800  0.62153300  0.06124300  1
  O  O28  1  0.72277200  0.59766100  0.43201300  1
  O  O29  1  0.37707500  0.70695100  0.45154200  1
  O  O30  1  0.39852900  0.27514500  0.08415300  1
  O  O31  1  0.93515800  0.24156800  0.60002800  1
  O  O32  1  0.06270800  0.75684300  0.41339900  1
  O  O33  1  0.47211000  0.75522900  0.65958500  1
  O  O34  1  0.62153300  0.29103800  0.56124300  1
  O  O35  1  0.27514500  0.39852900  0.58415300  1
  O  O36  1  0.46730500  0.05830700  0.71046200  1
  O  O37  1  0.24152300  0.52632500  0.85438900  1
  O  O38  1  0.75684300  0.06270800  0.91339900  1
  O  O39  1  0.53134300  0.93902200  0.30306100  1
