# generated using pymatgen
data_LiMnO2
_symmetry_space_group_name_H-M   'P 1'
_cell_length_a   4.22276082
_cell_length_b   5.15533750
_cell_length_c   4.22548646
_cell_angle_alpha   65.80480247
_cell_angle_beta   89.99754584
_cell_angle_gamma   65.82045910
_symmetry_Int_Tables_number   1
_chemical_formula_structural   LiMnO2
_chemical_formula_sum   'Li2 Mn2 O4'
_cell_volume   74.97261973
_cell_formula_units_Z   2
loop_
 _symmetry_equiv_pos_site_id
 _symmetry_equiv_pos_as_xyz
  1  'x, y, z'
loop_
 _atom_site_type_symbol
 _atom_site_label
 _atom_site_symmetry_multiplicity
 _atom_site_fract_x
 _atom_site_fract_y
 _atom_site_fract_z
 _atom_site_occupancy
  Li  Li0  1  0.74965400  0.49921300  0.24854100  1
  Li  Li1  1  0.49878500  0.99968500  0.49840600  1
  Mn  Mn2  1  0.24947100  0.49900500  0.74869600  1
  Mn  Mn3  1  0.99945000  0.99884100  0.99880000  1
  O  O4  1  0.23059700  0.53685500  0.22975600  1
  O  O5  1  0.76855600  0.46086300  0.76774800  1
  O  O6  1  0.01836500  0.96087200  0.51779000  1
  O  O7  1  0.48036800  0.03695500  0.97973300  1
