# generated using pymatgen
data_Li3Ni(PO4)2
_symmetry_space_group_name_H-M   'P 1'
_cell_length_a   4.95176066
_cell_length_b   17.98263760
_cell_length_c   6.31448519
_cell_angle_alpha   90.00000000
_cell_angle_beta   92.42977972
_cell_angle_gamma   90.00000000
_symmetry_Int_Tables_number   1
_chemical_formula_structural   Li3Ni(PO4)2
_chemical_formula_sum   'Li12 Ni4 P8 O32'
_cell_volume   561.77233647
_cell_formula_units_Z   4
loop_
 _symmetry_equiv_pos_site_id
 _symmetry_equiv_pos_as_xyz
  1  'x, y, z'
loop_
 _atom_site_type_symbol
 _atom_site_label
 _atom_site_symmetry_multiplicity
 _atom_site_fract_x
 _atom_site_fract_y
 _atom_site_fract_z
 _atom_site_occupancy
  Li  Li0  1  0.18605198  0.70071013  0.81121109  1
  Li  Li1  1  0.22573364  0.88490622  0.49988705  1
  Li  Li2  1  0.27426659  0.38490652  1.00011318  1
  Li  Li3  1  0.21477137  0.55800855  0.23329262  1
  Li  Li4  1  0.28522892  0.05800829  0.26670775  1
  Li  Li5  1  0.31394823  0.20071043  0.68878757  1
  Li  Li6  1  0.68605234  0.79928953  0.31121160  1
  Li  Li7  1  0.71477167  0.94199167  0.73329299  1
  Li  Li8  1  0.78522922  0.44199197  0.76670812  1
  Li  Li9  1  0.72573400  0.61509344  -0.00011244  1
  Li  Li10  1  0.77426694  0.11509374  0.50011212  1
  Li  Li11  1  0.81394859  0.29928983  0.18878808  1
  O  O12  1  0.13746183  0.05800701  0.55600414  1
  O  O13  1  0.96244546  0.31030256  0.49793066  1
  O  O14  1  0.92922536  0.32761664  0.89564421  1
  O  O15  1  0.91462699  0.56063375  0.74422213  1
  O  O16  1  0.01257900  0.20160153  0.17473122  1
  O  O17  1  0.03755511  0.68969740  0.50206852  1
  O  O18  1  0.07077313  0.67238332  0.10435645  1
  O  O19  1  0.08537149  0.43936621  0.25577696  1
  O  O20  1  0.14688575  0.06588520  0.95836674  1
  O  O21  1  0.98742158  0.79839843  0.82526795  1
  O  O22  1  0.10891049  0.80097014  0.27954309  1
  O  O23  1  0.20442251  0.44675246  0.72454652  1
  O  O24  1  0.29557772  0.94675216  0.77545372  1
  O  O25  1  0.36253840  0.55800672  0.94399609  1
  O  O26  1  0.35311446  0.56588490  0.54163193  1
  O  O27  1  0.39108980  0.30096989  0.22045728  1
  O  O28  1  0.85311483  0.93411476  0.04163244  1
  O  O29  1  0.42922507  0.17238306  0.39564384  1
  O  O30  1  0.46244519  0.18969770  0.99793185  1
  O  O31  1  0.51257865  0.29839873  0.67473228  1
  O  O32  1  0.48741984  0.70160123  0.32526838  1
  O  O33  1  0.53755541  0.81030226  0.00206889  1
  O  O34  1  0.57077343  0.82761690  0.60435682  1
  O  O35  1  0.58537178  0.06063350  0.75577733  1
  O  O36  1  0.60891079  0.69903007  0.77954346  1
  O  O37  1  0.64688401  0.43411506  0.45836717  1
  O  O38  1  0.63746219  0.44199324  0.05600465  1
  O  O39  1  0.70442285  0.05324780  0.22454546  1
  O  O40  1  0.79557808  0.55324806  0.27545422  1
  O  O41  1  0.89109010  0.19902982  0.72045765  1
  O  O42  1  0.86253874  0.94199295  0.44399503  1
  O  O43  1  0.41462881  0.93936646  0.24422341  1
  P  P44  1  0.82213796  0.28384023  0.70023632  1
  P  P45  1  0.78644445  0.46675567  0.26524606  1
  P  P46  1  0.71355438  0.96675538  0.23475354  1
  P  P47  1  0.67786081  0.78383993  0.79976314  1
  P  P48  1  0.17786054  0.71615973  0.29976434  1
  P  P49  1  0.21355404  0.53324429  0.73475460  1
  P  P50  1  0.32213766  0.21616003  0.20023595  1
  P  P51  1  0.28644619  0.03324458  0.76524563  1
  Ni  Ni52  1  0.19747300  0.87267428  0.02557897  1
  Ni  Ni53  1  0.30252729  0.37267458  0.47442140  1
  Ni  Ni54  1  0.69747330  0.62732538  0.52557934  1
  Ni  Ni55  1  0.80252759  0.12732568  0.97442177  1
