# generated using pymatgen
data_Li2CrP4O13
_symmetry_space_group_name_H-M   'P 1'
_cell_length_a   5.05861300
_cell_length_b   7.95872970
_cell_length_c   13.33154505
_cell_angle_alpha   78.40176298
_cell_angle_beta   87.43009225
_cell_angle_gamma   81.95986178
_symmetry_Int_Tables_number   1
_chemical_formula_structural   Li2CrP4O13
_chemical_formula_sum   'Li4 Cr2 P8 O26'
_cell_volume   520.52504196
_cell_formula_units_Z   2
loop_
 _symmetry_equiv_pos_site_id
 _symmetry_equiv_pos_as_xyz
  1  'x, y, z'
loop_
 _atom_site_type_symbol
 _atom_site_label
 _atom_site_symmetry_multiplicity
 _atom_site_fract_x
 _atom_site_fract_y
 _atom_site_fract_z
 _atom_site_occupancy
  Li  Li0  1  0.59379900  0.69589900  0.01580100  1
  Li  Li1  1  0.07276200  0.32392100  0.51811300  1
  Li  Li2  1  0.40620100  0.30410100  0.98419900  1
  Li  Li3  1  0.92723800  0.67607900  0.48188700  1
  Cr  Cr4  1  0.45019500  0.04822200  0.75685700  1
  Cr  Cr5  1  0.54980500  0.95177800  0.24314300  1
  P  P6  1  0.99356200  0.89448100  0.65017600  1
  P  P7  1  0.32115900  0.65714900  0.80415700  1
  P  P8  1  0.64811500  0.42621700  0.67677800  1
  P  P9  1  0.00643800  0.10551900  0.34982400  1
  P  P10  1  0.90424800  0.19896500  0.86064800  1
  P  P11  1  0.67884100  0.34285100  0.19584300  1
  P  P12  1  0.35188500  0.57378300  0.32322200  1
  P  P13  1  0.09575200  0.80103500  0.13935200  1
  O  O14  1  0.74548300  0.05608400  0.83916000  1
  O  O15  1  0.04219200  0.73765600  0.75116600  1
  O  O16  1  0.28519200  0.51060800  0.88940000  1
  O  O17  1  0.87259100  0.35655000  0.76150200  1
  O  O18  1  0.30106200  0.03094800  0.34511900  1
  O  O19  1  0.79517300  0.86637800  0.13605900  1
  O  O20  1  0.49681700  0.59819800  0.70905900  1
  O  O21  1  0.06966200  0.82140200  0.55685000  1
  O  O22  1  0.20482700  0.13362200  0.86394100  1
  O  O23  1  0.20891100  0.73858100  0.04584000  1
  O  O24  1  0.79108900  0.26141900  0.95416000  1
  O  O25  1  0.50318300  0.40180200  0.29094100  1
  O  O26  1  0.54958900  0.19611000  0.16780000  1
  O  O27  1  0.83620700  0.96436700  0.33225900  1
  O  O28  1  0.45427900  0.29448800  0.68262200  1
  O  O29  1  0.21199700  0.52051300  0.42359900  1
  O  O30  1  0.93033800  0.17859800  0.44315000  1
  O  O31  1  0.69893800  0.96905200  0.65488100  1
  O  O32  1  0.78800300  0.47948700  0.57640100  1
  O  O33  1  0.54572100  0.70551200  0.31737800  1
  O  O34  1  0.12740900  0.64345000  0.23849800  1
  O  O35  1  0.16379300  0.03563300  0.66774100  1
  O  O36  1  0.45041100  0.80389000  0.83220000  1
  O  O37  1  0.25451700  0.94391600  0.16084000  1
  O  O38  1  0.95780800  0.26234400  0.24883400  1
  O  O39  1  0.71480800  0.48939200  0.11060000  1
