# generated using pymatgen
data_Li2CdCl4
_symmetry_space_group_name_H-M   'P 1'
_cell_length_a   7.58454973
_cell_length_b   7.58454973
_cell_length_c   7.58454973
_cell_angle_alpha   120.01097075
_cell_angle_beta   118.41147796
_cell_angle_gamma   91.37716610
_symmetry_Int_Tables_number   1
_chemical_formula_structural   Li2CdCl4
_chemical_formula_sum   'Li4 Cd2 Cl8'
_cell_volume   312.02049112
_cell_formula_units_Z   2
loop_
 _symmetry_equiv_pos_site_id
 _symmetry_equiv_pos_as_xyz
  1  'x, y, z'
loop_
 _atom_site_type_symbol
 _atom_site_label
 _atom_site_symmetry_multiplicity
 _atom_site_fract_x
 _atom_site_fract_y
 _atom_site_fract_z
 _atom_site_occupancy
  Li  Li0  1  0.38682000  0.13682000  0.25000000  1
  Li  Li1  1  0.00000000  0.00000000  0.50000000  1
  Li  Li2  1  0.00000000  0.50000000  0.00000000  1
  Li  Li3  1  0.61318000  0.86318000  0.75000000  1
  Cd  Cd4  1  0.00000000  0.50000000  0.50000000  1
  Cd  Cd5  1  0.50000000  0.50000000  0.00000000  1
  Cl  Cl6  1  0.77056000  0.25398200  0.51657800  1
  Cl  Cl7  1  0.24383700  0.24853600  0.50469900  1
  Cl  Cl8  1  0.23740400  0.25398200  0.98342200  1
  Cl  Cl9  1  0.24383700  0.73913900  0.99530100  1
  Cl  Cl10  1  0.75616300  0.26086100  0.00469900  1
  Cl  Cl11  1  0.76259600  0.74601800  0.01657800  1
  Cl  Cl12  1  0.75616300  0.75146400  0.49530100  1
  Cl  Cl13  1  0.22944000  0.74601800  0.48342200  1
