# generated using pymatgen
data_Li3Mn2(PO4)3
_symmetry_space_group_name_H-M   'P 1'
_cell_length_a   8.68141550
_cell_length_b   8.68141550
_cell_length_c   8.87412164
_cell_angle_alpha   60.29657719
_cell_angle_beta   60.29657719
_cell_angle_gamma   60.61466281
_symmetry_Int_Tables_number   1
_chemical_formula_structural   Li3Mn2(PO4)3
_chemical_formula_sum   'Li6 Mn4 P6 O24'
_cell_volume   477.22020419
_cell_formula_units_Z   2
loop_
 _symmetry_equiv_pos_site_id
 _symmetry_equiv_pos_as_xyz
  1  'x, y, z'
loop_
 _atom_site_type_symbol
 _atom_site_label
 _atom_site_symmetry_multiplicity
 _atom_site_fract_x
 _atom_site_fract_y
 _atom_site_fract_z
 _atom_site_occupancy
  Li  Li0  1  0.89012100  0.74625400  0.69739700  1
  Li  Li1  1  0.37293300  0.62831800  0.74466100  1
  Li  Li2  1  0.03536700  0.36149900  0.16944600  1
  Li  Li3  1  0.36149900  0.03536700  0.66944600  1
  Li  Li4  1  0.62831800  0.37293300  0.24466100  1
  Li  Li5  1  0.74625400  0.89012100  0.19739700  1
  Mn  Mn6  1  0.35993000  0.84940800  0.35292900  1
  Mn  Mn7  1  0.65244800  0.14861500  0.64237100  1
  Mn  Mn8  1  0.84940800  0.35993000  0.85292900  1
  Mn  Mn9  1  0.14861500  0.65244800  0.14237100  1
  P  P10  1  0.95104800  0.04821600  0.26730100  1
  P  P11  1  0.53347800  0.74428100  0.95348500  1
  P  P12  1  0.47554600  0.24274600  0.03256500  1
  P  P13  1  0.74428100  0.53347800  0.45348500  1
  P  P14  1  0.24274600  0.47554600  0.53256500  1
  P  P15  1  0.04821600  0.95104800  0.76730100  1
  O  O16  1  0.04352000  0.48719800  0.67582000  1
  O  O17  1  0.04414100  0.77168300  0.94563500  1
  O  O18  1  0.90151000  0.96885200  0.70639000  1
  O  O19  1  0.38616700  0.27891800  0.57579300  1
  O  O20  1  0.59111100  0.72965700  0.41122500  1
  O  O21  1  0.62366900  0.28841500  0.04266800  1
  O  O22  1  0.27891800  0.38616700  0.07579300  1
  O  O23  1  0.52785000  0.25188100  0.83541600  1
  O  O24  1  0.55126900  0.92977000  0.79242800  1
  O  O25  1  0.28841500  0.62366900  0.54266800  1
  O  O26  1  0.38169700  0.70593300  0.94362300  1
  O  O27  1  0.49183700  0.73931100  0.14195400  1
  O  O28  1  0.25188100  0.52785000  0.33541600  1
  O  O29  1  0.12367800  0.00772800  0.30829000  1
  O  O30  1  0.96885200  0.90151000  0.20639000  1
  O  O31  1  0.72965700  0.59111100  0.91122500  1
  O  O32  1  0.00772800  0.12367800  0.80829000  1
  O  O33  1  0.24895300  0.91604600  0.62505900  1
  O  O34  1  0.91604600  0.24895300  0.12505900  1
  O  O35  1  0.92977000  0.55126900  0.29242800  1
  O  O36  1  0.70593300  0.38169700  0.44362300  1
  O  O37  1  0.73931100  0.49183700  0.64195400  1
  O  O38  1  0.77168300  0.04414100  0.44563500  1
  O  O39  1  0.48719800  0.04352000  0.17582000  1
