# generated using pymatgen
data_Li2Fe(PO4)2
_symmetry_space_group_name_H-M   'P 1'
_cell_length_a   8.41278255
_cell_length_b   10.35988300
_cell_length_c   8.55587875
_cell_angle_alpha   90.00000000
_cell_angle_beta   105.73247243
_cell_angle_gamma   90.00000000
_symmetry_Int_Tables_number   1
_chemical_formula_structural   Li2Fe(PO4)2
_chemical_formula_sum   'Li8 Fe4 P8 O32'
_cell_volume   717.75648148
_cell_formula_units_Z   4
loop_
 _symmetry_equiv_pos_site_id
 _symmetry_equiv_pos_as_xyz
  1  'x, y, z'
loop_
 _atom_site_type_symbol
 _atom_site_label
 _atom_site_symmetry_multiplicity
 _atom_site_fract_x
 _atom_site_fract_y
 _atom_site_fract_z
 _atom_site_occupancy
  Li  Li0  1  0.41188800  0.16816100  0.39547600  1
  Li  Li1  1  0.16182400  0.14680200  0.63325900  1
  Li  Li2  1  0.83817600  0.85319800  0.36674100  1
  Li  Li3  1  0.91188800  0.33183900  0.39547600  1
  Li  Li4  1  0.08811200  0.66816100  0.60452400  1
  Li  Li5  1  0.66182400  0.35319800  0.63325900  1
  Li  Li6  1  0.58811200  0.83183900  0.60452400  1
  Li  Li7  1  0.33817600  0.64680200  0.36674100  1
  Fe  Fe8  1  0.41234600  0.33587100  0.90456700  1
  Fe  Fe9  1  0.58765400  0.66412900  0.09543300  1
  Fe  Fe10  1  0.08765400  0.83587100  0.09543300  1
  Fe  Fe11  1  0.91234600  0.16412900  0.90456700  1
  P  P12  1  0.95863700  0.59792700  0.23763600  1
  P  P13  1  0.96522500  0.91545800  0.72143900  1
  P  P14  1  0.45863700  0.90207300  0.23763600  1
  P  P15  1  0.46522500  0.58454200  0.72143900  1
  P  P16  1  0.53477500  0.41545800  0.27856100  1
  P  P17  1  0.54136300  0.09792700  0.76236400  1
  P  P18  1  0.03477500  0.08454200  0.27856100  1
  P  P19  1  0.04136300  0.40207300  0.76236400  1
  O  O20  1  0.89653900  0.14574800  0.33949000  1
  O  O21  1  0.89331700  0.33408800  0.81310400  1
  O  O22  1  0.06854100  0.32750700  0.61674500  1
  O  O23  1  0.39331700  0.16591200  0.81310400  1
  O  O24  1  0.49814100  0.04391200  0.27199300  1
  O  O25  1  0.60346100  0.64574800  0.66051000  1
  O  O26  1  0.30508200  0.60356600  0.58584900  1
  O  O27  1  0.19866400  0.38418300  0.91063600  1
  O  O28  1  0.69866400  0.11581700  0.91063600  1
  O  O29  1  0.99814100  0.45608800  0.27199300  1
  O  O30  1  0.80508200  0.89643400  0.58584900  1
  O  O31  1  0.50253500  0.43595400  0.75711100  1
  O  O32  1  0.80133600  0.61581700  0.08936400  1
  O  O33  1  0.30133600  0.88418300  0.08936400  1
  O  O34  1  0.05079500  0.14384500  0.11561500  1
  O  O35  1  0.00185900  0.54391200  0.72800700  1
  O  O36  1  0.00253500  0.06404600  0.75711100  1
  O  O37  1  0.39653900  0.35425200  0.33949000  1
  O  O38  1  0.55079500  0.35615500  0.11561500  1
  O  O39  1  0.94920500  0.85615500  0.88438500  1
  O  O40  1  0.99746500  0.93595400  0.24288900  1
  O  O41  1  0.60668300  0.83408800  0.18689600  1
  O  O42  1  0.10668300  0.66591200  0.18689600  1
  O  O43  1  0.69491800  0.39643400  0.41415100  1
  O  O44  1  0.93145900  0.67249300  0.38325500  1
  O  O45  1  0.19491800  0.10356600  0.41415100  1
  O  O46  1  0.44920500  0.64384500  0.88438500  1
  O  O47  1  0.50185900  0.95608800  0.72800700  1
  O  O48  1  0.10346100  0.85425200  0.66051000  1
  O  O49  1  0.49746500  0.56404600  0.24288900  1
  O  O50  1  0.56854100  0.17249300  0.61674500  1
  O  O51  1  0.43145900  0.82750700  0.38325500  1
