# generated using pymatgen
data_Li3Cr(PO4)2
_symmetry_space_group_name_H-M   'P 1'
_cell_length_a   17.74591000
_cell_length_b   4.93182100
_cell_length_c   7.85267605
_cell_angle_alpha   54.28913758
_cell_angle_beta   90.00000000
_cell_angle_gamma   90.00000000
_symmetry_Int_Tables_number   1
_chemical_formula_structural   Li3Cr(PO4)2
_chemical_formula_sum   'Li12 Cr4 P8 O32'
_cell_volume   558.03930176
_cell_formula_units_Z   4
loop_
 _symmetry_equiv_pos_site_id
 _symmetry_equiv_pos_as_xyz
  1  'x, y, z'
loop_
 _atom_site_type_symbol
 _atom_site_label
 _atom_site_symmetry_multiplicity
 _atom_site_fract_x
 _atom_site_fract_y
 _atom_site_fract_z
 _atom_site_occupancy
  Li  Li0  1  0.44424500  0.98835300  0.78582400  1
  Li  Li1  1  0.19852800  0.62343000  0.68882600  1
  Li  Li2  1  0.30147200  0.62343000  0.18882600  1
  Li  Li3  1  0.55575500  0.01164700  0.21417600  1
  Li  Li4  1  0.05575500  0.98835300  0.28582400  1
  Li  Li5  1  0.80147200  0.37657000  0.31117400  1
  Li  Li6  1  0.61689300  0.72166900  0.99799100  1
  Li  Li7  1  0.11689300  0.27833100  0.50200900  1
  Li  Li8  1  0.94424500  0.01164700  0.71417600  1
  Li  Li9  1  0.38310700  0.27833100  0.00200900  1
  Li  Li10  1  0.69852800  0.37657000  0.81117400  1
  Li  Li11  1  0.88310700  0.72166900  0.49799100  1
  Cr  Cr12  1  0.62761400  0.18392500  0.51528700  1
  Cr  Cr13  1  0.37238600  0.81607500  0.48471300  1
  Cr  Cr14  1  0.87238600  0.18392500  0.01528700  1
  Cr  Cr15  1  0.12761400  0.81607500  0.98471300  1
  P  P16  1  0.46451700  0.50450600  0.27387700  1
  P  P17  1  0.53548300  0.49549400  0.72612300  1
  P  P18  1  0.28488500  0.11322600  0.71183100  1
  P  P19  1  0.78488500  0.88677400  0.78816900  1
  P  P20  1  0.21511500  0.11322600  0.21183100  1
  P  P21  1  0.96451700  0.49549400  0.22612300  1
  P  P22  1  0.03548300  0.50450600  0.77387700  1
  P  P23  1  0.71511500  0.88677400  0.28816900  1
  O  O24  1  0.30254200  0.14071800  0.23750300  1
  O  O25  1  0.43287400  0.17464100  0.46998000  1
  O  O26  1  0.43598600  0.56087500  0.07357500  1
  O  O27  1  0.06712600  0.17464100  0.96998000  1
  O  O28  1  0.69276100  0.53901200  0.48967800  1
  O  O29  1  0.17184700  0.03793000  0.40205100  1
  O  O30  1  0.80077400  0.16633900  0.82053000  1
  O  O31  1  0.82815300  0.96207000  0.59794900  1
  O  O32  1  0.93996000  0.18977700  0.22351800  1
  O  O33  1  0.56401400  0.43912500  0.92642500  1
  O  O34  1  0.30723900  0.46098800  0.51032200  1
  O  O35  1  0.93287400  0.82535900  0.03002000  1
  O  O36  1  0.06004000  0.81022300  0.77648200  1
  O  O37  1  0.44667900  0.49395800  0.72168600  1
  O  O38  1  0.80254200  0.85928200  0.26249700  1
  O  O39  1  0.69745800  0.85928200  0.76249700  1
  O  O40  1  0.94667900  0.50604200  0.77831400  1
  O  O41  1  0.69922600  0.16633900  0.32053000  1
  O  O42  1  0.43996000  0.81022300  0.27648200  1
  O  O43  1  0.56004000  0.18977700  0.72351800  1
  O  O44  1  0.32815300  0.03793000  0.90205100  1
  O  O45  1  0.80723900  0.53901200  0.98967800  1
  O  O46  1  0.06401400  0.56087500  0.57357500  1
  O  O47  1  0.55332100  0.50604200  0.27831400  1
  O  O48  1  0.19745800  0.14071800  0.73750300  1
  O  O49  1  0.19276100  0.46098800  0.01032200  1
  O  O50  1  0.56712600  0.82535900  0.53002000  1
  O  O51  1  0.05332100  0.49395800  0.22168600  1
  O  O52  1  0.67184700  0.96207000  0.09794900  1
  O  O53  1  0.30077400  0.83366100  0.67947000  1
  O  O54  1  0.93598600  0.43912500  0.42642500  1
  O  O55  1  0.19922600  0.83366100  0.17947000  1
