# generated using pymatgen
data_Li3V2(PO4)3
_symmetry_space_group_name_H-M   'P 1'
_cell_length_a   8.82951500
_cell_length_b   8.60256000
_cell_length_c   12.36853832
_cell_angle_alpha   88.04351362
_cell_angle_beta   90.00000000
_cell_angle_gamma   90.00000000
_symmetry_Int_Tables_number   1
_chemical_formula_structural   Li3V2(PO4)3
_chemical_formula_sum   'Li12 V8 P12 O48'
_cell_volume   938.92237656
_cell_formula_units_Z   4
loop_
 _symmetry_equiv_pos_site_id
 _symmetry_equiv_pos_as_xyz
  1  'x, y, z'
loop_
 _atom_site_type_symbol
 _atom_site_label
 _atom_site_symmetry_multiplicity
 _atom_site_fract_x
 _atom_site_fract_y
 _atom_site_fract_z
 _atom_site_occupancy
  Li  Li0  1  0.19578800  0.70324500  0.94986100  1
  Li  Li1  1  0.59987800  0.50000000  0.75000000  1
  Li  Li2  1  0.89908300  0.00000000  0.75000000  1
  Li  Li3  1  0.50000000  0.50000000  0.00000000  1
  Li  Li4  1  0.80421200  0.70324500  0.44986100  1
  Li  Li5  1  0.80421200  0.29675500  0.05013900  1
  Li  Li6  1  0.40012200  0.50000000  0.25000000  1
  Li  Li7  1  0.10091700  0.00000000  0.25000000  1
  Li  Li8  1  0.00000000  0.00000000  0.50000000  1
  Li  Li9  1  0.19578800  0.29675500  0.55013900  1
  Li  Li10  1  0.50000000  0.50000000  0.50000000  1
  Li  Li11  1  0.00000000  0.00000000  0.00000000  1
  V  V12  1  0.49988900  0.78745200  0.85492300  1
  V  V13  1  0.00371900  0.71542400  0.64138300  1
  V  V14  1  0.99628100  0.28457600  0.35861700  1
  V  V15  1  0.50011100  0.21254800  0.14507700  1
  V  V16  1  0.49988900  0.21254800  0.64507700  1
  V  V17  1  0.00371900  0.28457600  0.85861700  1
  V  V18  1  0.99628100  0.71542400  0.14138300  1
  V  V19  1  0.50011100  0.78745200  0.35492300  1
  P  P20  1  0.70796800  0.50000000  0.25000000  1
  P  P21  1  0.14733400  0.64721700  0.39591500  1
  P  P22  1  0.35436800  0.15200700  0.39617400  1
  P  P23  1  0.29203200  0.50000000  0.75000000  1
  P  P24  1  0.14733400  0.35278300  0.10408500  1
  P  P25  1  0.64563200  0.84799300  0.60382600  1
  P  P26  1  0.85266600  0.64721700  0.89591500  1
  P  P27  1  0.85266600  0.35278300  0.60408500  1
  P  P28  1  0.64563200  0.15200700  0.89617400  1
  P  P29  1  0.35436800  0.84799300  0.10382600  1
  P  P30  1  0.20267000  0.00000000  0.75000000  1
  P  P31  1  0.79733000  0.00000000  0.25000000  1
  O  O32  1  0.40591700  0.01606600  0.10424200  1
  O  O33  1  0.59412300  0.75612800  0.70679300  1
  O  O34  1  0.29659700  0.12514000  0.68918900  1
  O  O35  1  0.09291200  0.06882700  0.83580900  1
  O  O36  1  0.19524500  0.38595300  0.81634300  1
  O  O37  1  0.10884300  0.47231200  0.40800600  1
  O  O38  1  0.90580700  0.72265500  0.78725300  1
  O  O39  1  0.60044800  0.42549600  0.16509200  1
  O  O40  1  0.58997300  0.75105000  0.50685300  1
  O  O41  1  0.17732400  0.85437900  0.09056200  1
  O  O42  1  0.06323600  0.25561000  0.01830800  1
  O  O43  1  0.09291200  0.93117300  0.66419100  1
  O  O44  1  0.82267600  0.14562100  0.90943800  1
  O  O45  1  0.70340300  0.12514000  0.18918900  1
  O  O46  1  0.39955200  0.42549600  0.66509200  1
  O  O47  1  0.40591700  0.98393400  0.39575800  1
  O  O48  1  0.06323600  0.74439000  0.48169200  1
  O  O49  1  0.09419300  0.27734500  0.21274700  1
  O  O50  1  0.32298500  0.34929500  0.09277000  1
  O  O51  1  0.59412300  0.24387200  0.79320700  1
  O  O52  1  0.93676400  0.25561000  0.51830800  1
  O  O53  1  0.40587700  0.75612800  0.20679300  1
  O  O54  1  0.29659700  0.87486000  0.81081100  1
  O  O55  1  0.89115700  0.47231200  0.90800600  1
  O  O56  1  0.80475500  0.61404700  0.18365700  1
  O  O57  1  0.58997300  0.24895000  0.99314700  1
  O  O58  1  0.67701500  0.65070500  0.90723000  1
  O  O59  1  0.59408300  0.01606600  0.60424200  1
  O  O60  1  0.32298500  0.65070500  0.40723000  1
  O  O61  1  0.40587700  0.24387200  0.29320700  1
  O  O62  1  0.89115700  0.52768800  0.59199400  1
  O  O63  1  0.39955200  0.57450400  0.83490800  1
  O  O64  1  0.19524500  0.61404700  0.68365700  1
  O  O65  1  0.41002700  0.24895000  0.49314700  1
  O  O66  1  0.80475500  0.38595300  0.31634300  1
  O  O67  1  0.17732400  0.14562100  0.40943800  1
  O  O68  1  0.59408300  0.98393400  0.89575800  1
  O  O69  1  0.90708800  0.06882700  0.33580900  1
  O  O70  1  0.82267600  0.85437900  0.59056200  1
  O  O71  1  0.60044800  0.57450400  0.33490800  1
  O  O72  1  0.90580700  0.27734500  0.71274700  1
  O  O73  1  0.93676400  0.74439000  0.98169200  1
  O  O74  1  0.70340300  0.87486000  0.31081100  1
  O  O75  1  0.90708800  0.93117300  0.16419100  1
  O  O76  1  0.10884300  0.52768800  0.09199400  1
  O  O77  1  0.09419300  0.72265500  0.28725300  1
  O  O78  1  0.67701500  0.34929500  0.59277000  1
  O  O79  1  0.41002700  0.75105000  0.00685300  1
