# generated using pymatgen
data_Li7Mn11O24
_symmetry_space_group_name_H-M   'P 1'
_cell_length_a   5.81437300
_cell_length_b   8.53690310
_cell_length_c   10.03262149
_cell_angle_alpha   113.39103946
_cell_angle_beta   106.25226298
_cell_angle_gamma   90.10777400
_symmetry_Int_Tables_number   1
_chemical_formula_structural   Li7Mn11O24
_chemical_formula_sum   'Li7 Mn11 O24'
_cell_volume   435.17320653
_cell_formula_units_Z   1
loop_
 _symmetry_equiv_pos_site_id
 _symmetry_equiv_pos_as_xyz
  1  'x, y, z'
loop_
 _atom_site_type_symbol
 _atom_site_label
 _atom_site_symmetry_multiplicity
 _atom_site_fract_x
 _atom_site_fract_y
 _atom_site_fract_z
 _atom_site_occupancy
  Li  Li0  1  0.10091100  0.73563600  0.70211100  1
  Li  Li1  1  0.75220600  0.38268400  0.00554200  1
  Li  Li2  1  0.42400200  0.04318000  0.34097700  1
  Li  Li3  1  0.57599800  0.95682000  0.65902300  1
  Li  Li4  1  0.24779400  0.61731600  0.99445800  1
  Li  Li5  1  0.89908900  0.26436400  0.29788900  1
  Li  Li6  1  0.00000000  0.50000000  0.50000000  1
  Mn  Mn7  1  0.65983700  0.66044500  0.82696800  1
  Mn  Mn8  1  0.82638000  0.34211400  0.66351300  1
  Mn  Mn9  1  0.00000000  0.00000000  0.00000000  1
  Mn  Mn10  1  0.16542300  0.18064300  0.83700200  1
  Mn  Mn11  1  0.34016300  0.33955500  0.17303200  1
  Mn  Mn12  1  0.33530800  0.34165200  0.66375800  1
  Mn  Mn13  1  0.50000000  0.00000000  0.00000000  1
  Mn  Mn14  1  0.66469200  0.65834800  0.33624200  1
  Mn  Mn15  1  0.83457700  0.81935700  0.16299800  1
  Mn  Mn16  1  0.00000000  0.00000000  0.50000000  1
  Mn  Mn17  1  0.17362000  0.65788600  0.33648700  1
  O  O18  1  0.34498000  0.57151700  0.68640700  1
  O  O19  1  0.65568900  0.42313400  0.81526100  1
  O  O20  1  0.83516100  0.57133600  0.68312800  1
  O  O21  1  0.02931800  0.24825000  0.00365300  1
  O  O22  1  0.15329800  0.39316900  0.81555700  1
  O  O23  1  0.17164100  0.95806900  0.85376500  1
  O  O24  1  0.34582000  0.10575100  0.16036000  1
  O  O25  1  0.46591300  0.25519600  0.99713400  1
  O  O26  1  0.53408700  0.74480400  0.00286600  1
  O  O27  1  0.69565000  0.89255300  0.33228500  1
  O  O28  1  0.82835900  0.04193100  0.14623500  1
  O  O29  1  0.65418000  0.89424900  0.83964000  1
  O  O30  1  0.84670200  0.60683100  0.18444300  1
  O  O31  1  0.98975400  0.72412200  0.48212100  1
  O  O32  1  0.97068200  0.75175000  0.99634700  1
  O  O33  1  0.14026800  0.89236400  0.33120800  1
  O  O34  1  0.16483900  0.42866400  0.31687200  1
  O  O35  1  0.48569800  0.73844300  0.47283400  1
  O  O36  1  0.51430200  0.26155700  0.52716600  1
  O  O37  1  0.34431100  0.57686600  0.18473900  1
  O  O38  1  0.65502000  0.42848300  0.31359300  1
  O  O39  1  0.85973200  0.10763600  0.66879200  1
  O  O40  1  0.01024600  0.27587800  0.51787900  1
  O  O41  1  0.30435000  0.10744700  0.66771500  1
