# generated using pymatgen
data_Li11(NiO2)12
_symmetry_space_group_name_H-M   'P 1'
_cell_length_a   7.64183258
_cell_length_b   7.64183258
_cell_length_c   9.75054535
_cell_angle_alpha   58.90321132
_cell_angle_beta   58.90321132
_cell_angle_gamma   69.75806331
_symmetry_Int_Tables_number   1
_chemical_formula_structural   Li11(NiO2)12
_chemical_formula_sum   'Li11 Ni12 O24'
_cell_volume   415.07031712
_cell_formula_units_Z   1
loop_
 _symmetry_equiv_pos_site_id
 _symmetry_equiv_pos_as_xyz
  1  'x, y, z'
loop_
 _atom_site_type_symbol
 _atom_site_label
 _atom_site_symmetry_multiplicity
 _atom_site_fract_x
 _atom_site_fract_y
 _atom_site_fract_z
 _atom_site_occupancy
  Li  Li0  1  0.74918200  0.74918200  0.74972100  1
  Li  Li1  1  0.91850500  0.59212000  0.24610800  1
  Li  Li2  1  0.50000000  0.50000000  0.50000000  1
  Li  Li3  1  0.67426800  0.32573200  0.00000000  1
  Li  Li4  1  0.25081800  0.25081800  0.25027900  1
  Li  Li5  1  0.83045600  0.16954400  0.50000000  1
  Li  Li6  1  0.40788000  0.08149500  0.75389200  1
  Li  Li7  1  0.59212000  0.91850500  0.24610800  1
  Li  Li8  1  0.16954400  0.83045600  0.50000000  1
  Li  Li9  1  0.32573200  0.67426800  0.00000000  1
  Li  Li10  1  0.08149500  0.40788000  0.75389200  1
  Ni  Ni11  1  0.87528700  0.87528700  0.37641100  1
  Ni  Ni12  1  0.62343600  0.62343600  0.12791300  1
  Ni  Ni13  1  0.78932800  0.45801400  0.62452700  1
  Ni  Ni14  1  0.37656400  0.37656400  0.87208700  1
  Ni  Ni15  1  0.95945600  0.29252800  0.12360100  1
  Ni  Ni16  1  0.54198600  0.21067200  0.37547300  1
  Ni  Ni17  1  0.12471300  0.12471300  0.62358900  1
  Ni  Ni18  1  0.70747200  0.04054400  0.87639900  1
  Ni  Ni19  1  0.29252800  0.95945600  0.12360100  1
  Ni  Ni20  1  0.45801400  0.78932800  0.62452700  1
  Ni  Ni21  1  0.04054400  0.70747200  0.87639900  1
  Ni  Ni22  1  0.21067200  0.54198600  0.37547300  1
  O  O23  1  0.93020200  0.93020200  0.70807600  1
  O  O24  1  0.68193600  0.68193600  0.45945400  1
  O  O25  1  0.86024500  0.52329100  0.94951300  1
  O  O26  1  0.44669100  0.44669100  0.19025100  1
  O  O27  1  0.97303500  0.63110300  0.56328100  1
  O  O28  1  0.60953300  0.27913200  0.69160300  1
  O  O29  1  0.20320400  0.20320400  0.93365000  1
  O  O30  1  0.72086800  0.39046700  0.30839700  1
  O  O31  1  0.76357100  0.12215900  0.20268000  1
  O  O32  1  0.36889700  0.02696500  0.43671900  1
  O  O33  1  0.87784100  0.23642900  0.79732000  1
  O  O34  1  0.47670900  0.13975500  0.05048700  1
  O  O35  1  0.52329100  0.86024500  0.94951300  1
  O  O36  1  0.12215900  0.76357100  0.20268000  1
  O  O37  1  0.63110300  0.97303500  0.56328100  1
  O  O38  1  0.23642900  0.87784100  0.79732000  1
  O  O39  1  0.27913200  0.60953300  0.69160300  1
  O  O40  1  0.79679600  0.79679600  0.06635000  1
  O  O41  1  0.39046700  0.72086800  0.30839700  1
  O  O42  1  0.02696500  0.36889700  0.43671900  1
  O  O43  1  0.55330900  0.55330900  0.80974900  1
  O  O44  1  0.13975500  0.47670900  0.05048700  1
  O  O45  1  0.31806400  0.31806400  0.54054600  1
  O  O46  1  0.06979800  0.06979800  0.29192400  1
