# generated using pymatgen
data_Li4Ni7(PO4)6
_symmetry_space_group_name_H-M   'P 1'
_cell_length_a   8.68616593
_cell_length_b   8.68616593
_cell_length_c   6.50899516
_cell_angle_alpha   80.41945074
_cell_angle_beta   80.41945074
_cell_angle_gamma   107.44456221
_symmetry_Int_Tables_number   1
_chemical_formula_structural   Li4Ni7(PO4)6
_chemical_formula_sum   'Li4 Ni7 P6 O24'
_cell_volume   449.59729590
_cell_formula_units_Z   1
loop_
 _symmetry_equiv_pos_site_id
 _symmetry_equiv_pos_as_xyz
  1  'x, y, z'
loop_
 _atom_site_type_symbol
 _atom_site_label
 _atom_site_symmetry_multiplicity
 _atom_site_fract_x
 _atom_site_fract_y
 _atom_site_fract_z
 _atom_site_occupancy
  Li  Li0  1  0.67418300  0.45458800  0.51171600  1
  Li  Li1  1  0.99202900  0.99202900  0.50229400  1
  Li  Li2  1  0.45458800  0.67418300  0.51171600  1
  Li  Li3  1  0.35489100  0.35489100  0.41756000  1
  Ni  Ni4  1  0.36538800  0.00851400  0.18413300  1
  Ni  Ni5  1  0.64043400  0.00370500  0.81032000  1
  Ni  Ni6  1  0.00851400  0.36538800  0.18413300  1
  Ni  Ni7  1  0.00370500  0.64043400  0.81032000  1
  Ni  Ni8  1  0.00252700  0.00252700  0.00047500  1
  Ni  Ni9  1  0.68236700  0.32780300  0.99829800  1
  Ni  Ni10  1  0.32780300  0.68236700  0.99829800  1
  P  P11  1  0.33722000  0.33722000  0.91050100  1
  P  P12  1  0.09401600  0.72304900  0.30089800  1
  P  P13  1  0.28361800  0.92274700  0.69549100  1
  P  P14  1  0.92274700  0.28361800  0.69549100  1
  P  P15  1  0.67213300  0.67213300  0.07660800  1
  P  P16  1  0.72304900  0.09401600  0.30089800  1
  O  O17  1  0.20158600  0.20158600  0.86037300  1
  O  O18  1  0.73760600  0.28099600  0.29457000  1
  O  O19  1  0.28099600  0.73760600  0.29457000  1
  O  O20  1  0.45278300  0.45278300  0.70086700  1
  O  O21  1  0.57362200  0.75451600  0.93611900  1
  O  O22  1  0.10876400  0.91085700  0.23642300  1
  O  O23  1  0.43512900  0.25816300  0.05725200  1
  O  O24  1  0.89505100  0.09295400  0.76624000  1
  O  O25  1  0.64115200  0.96455300  0.51051200  1
  O  O26  1  0.05273900  0.35289500  0.48404500  1
  O  O27  1  0.73913700  0.28095300  0.69698700  1
  O  O28  1  0.75451600  0.57362200  0.93611900  1
  O  O29  1  0.96455300  0.64115200  0.51051200  1
  O  O30  1  0.91085700  0.10876400  0.23642300  1
  O  O31  1  0.05418600  0.62346600  0.12265700  1
  O  O32  1  0.96578600  0.38463900  0.87059700  1
  O  O33  1  0.62346600  0.05418600  0.12265700  1
  O  O34  1  0.25816300  0.43512900  0.05725200  1
  O  O35  1  0.80493400  0.80493400  0.13446300  1
  O  O36  1  0.38463900  0.96578600  0.87059700  1
  O  O37  1  0.55324500  0.55324500  0.28353700  1
  O  O38  1  0.09295400  0.89505100  0.76624000  1
  O  O39  1  0.28095300  0.73913700  0.69698700  1
  O  O40  1  0.35289500  0.05273900  0.48404500  1
