# generated using pymatgen
data_LiV(PO4)2
_symmetry_space_group_name_H-M   'P 1'
_cell_length_a   8.49109358
_cell_length_b   8.50015128
_cell_length_c   7.40740165
_cell_angle_alpha   91.11558557
_cell_angle_beta   89.94634283
_cell_angle_gamma   60.47697006
_symmetry_Int_Tables_number   1
_chemical_formula_structural   LiV(PO4)2
_chemical_formula_sum   'Li3 V3 P6 O24'
_cell_volume   465.09320969
_cell_formula_units_Z   3
loop_
 _symmetry_equiv_pos_site_id
 _symmetry_equiv_pos_as_xyz
  1  'x, y, z'
loop_
 _atom_site_type_symbol
 _atom_site_label
 _atom_site_symmetry_multiplicity
 _atom_site_fract_x
 _atom_site_fract_y
 _atom_site_fract_z
 _atom_site_occupancy
  Li  Li0  1  0.98868452  0.20136895  0.40603081  1
  Li  Li1  1  0.32071051  0.34660519  0.49418263  1
  Li  Li2  1  0.66778536  0.66015702  0.50942872  1
  V  V3  1  0.34004970  0.32484948  0.92341717  1
  V  V4  1  0.66223661  0.66613201  0.08065830  1
  V  V5  1  0.00236661  0.98862642  0.00018975  1
  P  P6  1  0.32011977  0.03520430  0.22013639  1
  P  P7  1  0.03975942  0.63575088  0.22339154  1
  P  P8  1  0.36289169  0.67161860  0.78127505  1
  P  P9  1  0.63768855  0.31775390  0.22443706  1
  P  P10  1  0.68073328  0.95128743  0.78291372  1
  P  P11  1  0.96517603  0.34875371  0.78181343  1
  O  O12  1  0.52793326  0.32092526  0.05185959  1
  O  O13  1  0.14672593  0.35159138  0.76575505  1
  O  O14  1  0.24342086  0.15217414  0.38779523  1
  O  O15  1  0.33808858  0.14615375  0.06373842  1
  O  O16  1  0.16209745  0.50525014  0.06534742  1
  O  O17  1  0.14045743  0.58785031  0.39573024  1
  O  O18  1  0.49826613  0.13145429  0.76308030  1
  O  O19  1  0.16479993  0.80940162  0.84352630  1
  O  O20  1  0.36476103  0.48734348  0.76332732  1
  O  O21  1  0.18792514  0.96962574  0.15252336  1
  O  O22  1  0.01748607  0.16248653  0.86417019  1
  O  O23  1  0.56269338  0.27951838  0.38895144  1
  O  O24  1  0.42710918  0.72058276  0.61632025  1
  O  O25  1  0.47839658  0.66577962  0.95016899  1
  O  O26  1  0.81437214  0.01487455  0.85440757  1
  O  O27  1  0.97971063  0.82780984  0.15077033  1
  O  O28  1  0.84134849  0.17922872  0.18321894  1
  O  O29  1  0.50450037  0.85993648  0.24712092  1
  O  O30  1  0.87460257  0.37717776  0.60133024  1
  O  O31  1  0.83759941  0.49011003  0.92567775  1
  O  O32  1  0.66253429  0.84604984  0.94709123  1
  O  O33  1  0.74005842  0.83538488  0.61663310  1
  O  O34  1  0.86003153  0.62689023  0.23448908  1
  O  O35  1  0.63707514  0.50338737  0.23883314  1
