# generated using pymatgen
data_Li2MgCl4
_symmetry_space_group_name_H-M   'P 1'
_cell_length_a   7.43162818
_cell_length_b   7.43162818
_cell_length_c   7.43162818
_cell_angle_alpha   120.17553321
_cell_angle_beta   119.49210813
_cell_angle_gamma   90.28908672
_symmetry_Int_Tables_number   1
_chemical_formula_structural   Li2MgCl4
_chemical_formula_sum   'Li4 Mg2 Cl8'
_cell_volume   290.93852784
_cell_formula_units_Z   2
loop_
 _symmetry_equiv_pos_site_id
 _symmetry_equiv_pos_as_xyz
  1  'x, y, z'
loop_
 _atom_site_type_symbol
 _atom_site_label
 _atom_site_symmetry_multiplicity
 _atom_site_fract_x
 _atom_site_fract_y
 _atom_site_fract_z
 _atom_site_occupancy
  Li  Li0  1  0.88438000  0.13438000  0.75000000  1
  Li  Li1  1  0.50000000  0.00000000  0.00000000  1
  Li  Li2  1  0.50000000  0.50000000  0.50000000  1
  Li  Li3  1  0.11562000  0.86562000  0.25000000  1
  Mg  Mg4  1  0.00000000  0.50000000  0.50000000  1
  Mg  Mg5  1  0.50000000  0.50000000  0.00000000  1
  Cl  Cl6  1  0.74662100  0.26290300  0.01628200  1
  Cl  Cl7  1  0.74662100  0.73033900  0.48371800  1
  Cl  Cl8  1  0.74960000  0.26219100  0.48740900  1
  Cl  Cl9  1  0.27478200  0.26219100  0.01259100  1
  Cl  Cl10  1  0.72521800  0.73780900  0.98740900  1
  Cl  Cl11  1  0.25040000  0.73780900  0.51259100  1
  Cl  Cl12  1  0.25337900  0.26966100  0.51628200  1
  Cl  Cl13  1  0.25337900  0.73709700  0.98371800  1
