# generated using pymatgen
data_LiCr2(PO4)3
_symmetry_space_group_name_H-M   'P 1'
_cell_length_a   8.35371920
_cell_length_b   8.39684358
_cell_length_c   8.75715816
_cell_angle_alpha   118.33982399
_cell_angle_beta   90.37468255
_cell_angle_gamma   120.04462852
_symmetry_Int_Tables_number   1
_chemical_formula_structural   LiCr2(PO4)3
_chemical_formula_sum   'Li2 Cr4 P6 O24'
_cell_volume   443.31119228
_cell_formula_units_Z   2
loop_
 _symmetry_equiv_pos_site_id
 _symmetry_equiv_pos_as_xyz
  1  'x, y, z'
loop_
 _atom_site_type_symbol
 _atom_site_label
 _atom_site_symmetry_multiplicity
 _atom_site_fract_x
 _atom_site_fract_y
 _atom_site_fract_z
 _atom_site_occupancy
  Li  Li0  1  0.22692469  0.75782701  0.57937033  1
  Li  Li1  1  0.77307478  0.24217267  0.42062925  1
  O  O2  1  0.45032687  0.75226709  0.27562906  1
  O  O3  1  0.81097969  0.29780657  0.91885836  1
  O  O4  1  0.52231438  0.47432073  0.30054317  1
  O  O5  1  0.89694116  0.13345921  0.24839062  1
  O  O6  1  0.10305951  0.86654047  0.75160896  1
  O  O7  1  0.24922225  0.89093973  0.43087541  1
  O  O8  1  0.18902098  0.70219311  0.08114122  1
  O  O9  1  0.09791071  0.50057895  0.24503479  1
  O  O10  1  0.26914703  0.67873372  0.76891978  1
  O  O11  1  0.02631973  0.14012478  0.94484526  1
  O  O12  1  0.75077722  0.10905996  0.56912417  1
  O  O13  1  0.47536188  0.76314561  0.59140119  1
  O  O14  1  0.18013621  0.17192030  0.70670238  1
  O  O15  1  0.73085244  0.32126596  0.23107980  1
  O  O16  1  0.63481188  0.92309169  0.92800288  1
  O  O17  1  0.47768593  0.52568061  0.69945717  1
  O  O18  1  0.90208875  0.49942073  0.75496480  1
  O  O19  1  0.36518879  0.07690799  0.07199670  1
  O  O20  1  0.82794827  0.84506183  0.61274852  1
  O  O21  1  0.81986326  0.82807939  0.29329720  1
  O  O22  1  0.52463879  0.23685407  0.40859839  1
  O  O23  1  0.54967260  0.24773259  0.72437052  1
  O  O24  1  0.97367974  0.85987490  0.05515432  1
  O  O25  1  0.17205240  0.15493785  0.38725106  1
  P  P26  1  0.03666670  0.00968193  0.75376631  1
  P  P27  1  0.46716154  0.71929989  0.74711580  1
  P  P28  1  0.53283793  0.28069979  0.25288379  1
  P  P29  1  0.96333277  0.99031775  0.24623442  1
  P  P30  1  0.24774719  0.71453013  0.25220317  1
  P  P31  1  0.75225228  0.28546955  0.74779641  1
  Cr  Cr32  1  0.86565022  0.21374416  0.07229859  1
  Cr  Cr33  1  0.35657096  0.21078000  0.56493197  1
  Cr  Cr34  1  0.64342850  0.78921968  0.43506761  1
  Cr  Cr35  1  0.13434924  0.78625552  0.92770100  1
