# generated using pymatgen
data_Li2S
_symmetry_space_group_name_H-M   'P 1'
_cell_length_a   3.99635662
_cell_length_b   3.99635640
_cell_length_c   44.66346408
_cell_angle_alpha   60.51829035
_cell_angle_beta   60.51828833
_cell_angle_gamma   59.99481120
_symmetry_Int_Tables_number   1
_chemical_formula_structural   Li2S
_chemical_formula_sum   'Li22 S11'
_cell_volume   508.28435462
_cell_formula_units_Z   11
loop_
 _symmetry_equiv_pos_site_id
 _symmetry_equiv_pos_as_xyz
  1  'x, y, z'
loop_
 _atom_site_type_symbol
 _atom_site_label
 _atom_site_symmetry_multiplicity
 _atom_site_fract_x
 _atom_site_fract_y
 _atom_site_fract_z
 _atom_site_occupancy
  Li  Li0  1  0.52620655  0.52620655  0.03835460  1
  Li  Li1  1  0.52215347  0.52215347  0.13034267  1
  Li  Li2  1  0.75192237  0.75192237  0.06765443  1
  Li  Li3  1  0.75520644  0.75520644  0.15767981  1
  Li  Li4  1  0.53319899  0.53319899  0.21822239  1
  Li  Li5  1  0.23772233  0.23772233  0.29880171  1
  Li  Li6  1  0.74219430  0.74219430  0.25212953  1
  Li  Li7  1  0.24617207  0.24617207  0.38741099  1
  Li  Li8  1  0.24812137  0.24812137  0.47779498  1
  Li  Li9  1  0.74652726  0.74652726  0.34185036  1
  Li  Li10  1  0.74815220  0.74815220  0.43232319  1
  Li  Li11  1  0.24846391  0.24846391  0.56859721  1
  Li  Li12  1  0.74965781  0.74965781  0.52281080  1
  Li  Li13  1  0.24853795  0.24853795  0.65949387  1
  Li  Li14  1  0.74990665  0.74990665  0.61365478  1
  Li  Li15  1  0.24838228  0.24838228  0.75043198  1
  Li  Li16  1  0.74989038  0.74989038  0.70456074  1
  Li  Li17  1  0.24761481  0.24761481  0.84155828  1
  Li  Li18  1  0.74970856  0.74970856  0.79551522  1
  Li  Li19  1  0.23938692  0.23938692  0.93471751  1
  Li  Li20  1  0.74772917  0.74772917  0.88698983  1
  Li  Li21  1  0.75473190  0.75473190  0.97602114  1
  S  S22  1  0.98684062  0.98684062  0.00354294  1
  S  S23  1  0.98673666  0.98673666  0.09450929  1
  S  S24  1  0.98613415  0.98613415  0.18560982  1
  S  S25  1  0.99714645  0.99714645  0.36440073  1
  S  S26  1  0.99576578  0.99576578  0.27388276  1
  S  S27  1  0.00057392  0.00057392  0.45439621  1
  S  S28  1  0.00166847  0.00166847  0.63591911  1
  S  S29  1  0.00157784  0.00157784  0.72682843  1
  S  S30  1  0.00149993  0.00149993  0.54504165  1
  S  S31  1  0.00107958  0.00107958  0.81787461  1
  S  S32  1  0.99938890  0.99938890  0.90926244  1
