# generated using pymatgen
data_Li31Zr2P13
_symmetry_space_group_name_H-M   'P 1'
_cell_length_a   4.18259979
_cell_length_b   4.18259988
_cell_length_c   55.10725440
_cell_angle_alpha   60.41270872
_cell_angle_beta   60.41270888
_cell_angle_gamma   60.04042132
_symmetry_Int_Tables_number   1
_chemical_formula_structural   Li31Zr2P13
_chemical_formula_sum   'Li31 Zr2 P13'
_cell_volume   686.12259027
_cell_formula_units_Z   1
loop_
 _symmetry_equiv_pos_site_id
 _symmetry_equiv_pos_as_xyz
  1  'x, y, z'
loop_
 _atom_site_type_symbol
 _atom_site_label
 _atom_site_symmetry_multiplicity
 _atom_site_fract_x
 _atom_site_fract_y
 _atom_site_fract_z
 _atom_site_occupancy
  Li  Li0  1  0.26583095  0.26583095  0.16941383  1
  Li  Li1  1  0.74154857  0.74154857  0.05965001  1
  Li  Li2  1  0.48577022  0.48577022  0.19558659  1
  Li  Li3  1  0.25081327  0.25081327  0.24981555  1
  Li  Li4  1  0.73723277  0.73723277  0.13752500  1
  Li  Li5  1  0.49268111  0.49268111  0.27095006  1
  Li  Li6  1  0.25349217  0.25349217  0.32611102  1
  Li  Li7  1  0.74705374  0.74705374  0.21223166  1
  Li  Li8  1  0.23918229  0.23918229  0.40640042  1
  Li  Li9  1  0.48718501  0.48718501  0.34912894  1
  Li  Li10  1  0.74950552  0.74950552  0.28858624  1
  Li  Li11  1  0.24827731  0.24827731  0.48114982  1
  Li  Li12  1  0.73150065  0.73150065  0.36955099  1
  Li  Li13  1  0.24693523  0.24693523  0.55835531  1
  Li  Li14  1  0.75756610  0.75756610  0.44058166  1
  Li  Li15  1  0.24158696  0.24158696  0.63652912  1
  Li  Li16  1  0.75334235  0.75334235  0.51851053  1
  Li  Li17  1  0.26928739  0.26928739  0.70720746  1
  Li  Li18  1  0.75228647  0.75228647  0.59566435  1
  Li  Li19  1  0.76091578  0.76091578  0.67050843  1
  Li  Li20  1  0.51386023  0.51386023  0.72755921  1
  Li  Li21  1  0.25147070  0.25147070  0.78810489  1
  Li  Li22  1  0.50965012  0.50965012  0.80544303  1
  Li  Li23  1  0.25321111  0.25321111  0.86464127  1
  Li  Li24  1  0.74698160  0.74698160  0.75070024  1
  Li  Li25  1  0.51325179  0.51325179  0.88155176  1
  Li  Li26  1  0.25945523  0.25945523  0.94010292  1
  Li  Li27  1  0.74978368  0.74978368  0.82698508  1
  Li  Li28  1  0.52558529  0.52558529  0.95562919  1
  Li  Li29  1  0.75637166  0.75637166  0.90236241  1
  Li  Li30  1  0.74931027  0.74931027  0.98092496  1
  P  P31  1  0.00174458  0.00174458  0.99953885  1
  P  P32  1  0.99008906  0.99008906  0.07919577  1
  P  P33  1  0.99468728  0.99468728  0.15507795  1
  P  P34  1  0.01029279  0.01029279  0.22839295  1
  P  P35  1  0.01459066  0.01459066  0.38119790  1
  P  P36  1  0.01085057  0.01085057  0.30520222  1
  P  P37  1  0.99675526  0.99675526  0.46220750  1
  P  P38  1  0.00023275  0.00023275  0.53841494  1
  P  P39  1  0.00329595  0.00329595  0.61470282  1
  P  P40  1  0.98825980  0.98825980  0.77192532  1
  P  P41  1  0.98527605  0.98527605  0.69577399  1
  P  P42  1  0.99179583  0.99179583  0.84805691  1
  P  P43  1  0.99484469  0.99484469  0.92423352  1
  Zr  Zr44  1  0.23626564  0.23626564  0.02241776  1
  Zr  Zr45  1  0.24009357  0.24009357  0.09850664  1
