# generated using pymatgen
data_Li3Mo2(PO4)3
_symmetry_space_group_name_H-M   'P 1'
_cell_length_a   8.78000176
_cell_length_b   8.78000176
_cell_length_c   8.83212790
_cell_angle_alpha   62.89761909
_cell_angle_beta   62.89761909
_cell_angle_gamma   61.37694924
_symmetry_Int_Tables_number   1
_chemical_formula_structural   Li3Mo2(PO4)3
_chemical_formula_sum   'Li6 Mo4 P6 O24'
_cell_volume   506.88828476
_cell_formula_units_Z   2
loop_
 _symmetry_equiv_pos_site_id
 _symmetry_equiv_pos_as_xyz
  1  'x, y, z'
loop_
 _atom_site_type_symbol
 _atom_site_label
 _atom_site_symmetry_multiplicity
 _atom_site_fract_x
 _atom_site_fract_y
 _atom_site_fract_z
 _atom_site_occupancy
  Li  Li0  1  0.69280000  0.94137400  0.79195200  1
  Li  Li1  1  0.94137400  0.69280000  0.29195200  1
  Li  Li2  1  0.36987000  0.63013000  0.25000000  1
  Li  Li3  1  0.63013000  0.36987000  0.75000000  1
  Li  Li4  1  0.05862600  0.30720000  0.70804800  1
  Li  Li5  1  0.30720000  0.05862600  0.20804800  1
  Mo  Mo6  1  0.35840100  0.85201100  0.86088000  1
  Mo  Mo7  1  0.85201100  0.35840100  0.36088000  1
  Mo  Mo8  1  0.14798900  0.64159900  0.63912000  1
  Mo  Mo9  1  0.64159900  0.14798900  0.13912000  1
  P  P10  1  0.24414000  0.47572600  0.04995900  1
  P  P11  1  0.94550100  0.05449900  0.75000000  1
  P  P12  1  0.47572600  0.24414000  0.54995900  1
  P  P13  1  0.52427400  0.75586000  0.45004100  1
  P  P14  1  0.75586000  0.52427400  0.95004100  1
  P  P15  1  0.05449900  0.94550100  0.25000000  1
  O  O16  1  0.69737200  0.39119500  0.93600900  1
  O  O17  1  0.02194300  0.09999200  0.31299300  1
  O  O18  1  0.05648300  0.48364200  0.19372600  1
  O  O19  1  0.37966800  0.27694800  0.09398000  1
  O  O20  1  0.90000800  0.97805700  0.18700700  1
  O  O21  1  0.97805700  0.90000800  0.68700700  1
  O  O22  1  0.94351700  0.51635800  0.80627400  1
  O  O23  1  0.62033200  0.72305200  0.90602000  1
  O  O24  1  0.09999200  0.02194300  0.81299300  1
  O  O25  1  0.24479600  0.92894000  0.10423800  1
  O  O26  1  0.75175200  0.47454900  0.14110500  1
  O  O27  1  0.51635800  0.94351700  0.30627400  1
  O  O28  1  0.72305200  0.62033200  0.40602000  1
  O  O29  1  0.39119500  0.69737200  0.43600900  1
  O  O30  1  0.30262800  0.60880500  0.06399100  1
  O  O31  1  0.07106000  0.75520400  0.39576200  1
  O  O32  1  0.92894000  0.24479600  0.60423800  1
  O  O33  1  0.47454900  0.75175200  0.64110500  1
  O  O34  1  0.60880500  0.30262800  0.56399100  1
  O  O35  1  0.27694800  0.37966800  0.59398000  1
  O  O36  1  0.48364200  0.05648300  0.69372600  1
  O  O37  1  0.24824800  0.52545100  0.85889500  1
  O  O38  1  0.75520400  0.07106000  0.89576200  1
  O  O39  1  0.52545100  0.24824800  0.35889500  1
