# generated using pymatgen
data_LiCrP2O7
_symmetry_space_group_name_H-M   'P 1'
_cell_length_a   7.95490837
_cell_length_b   7.95490837
_cell_length_c   10.48992003
_cell_angle_alpha   88.26967006
_cell_angle_beta   91.73032999
_cell_angle_gamma   65.44205243
_symmetry_Int_Tables_number   1
_chemical_formula_structural   LiCrP2O7
_chemical_formula_sum   'Li4 Cr4 P8 O28'
_cell_volume   602.81821191
_cell_formula_units_Z   4
loop_
 _symmetry_equiv_pos_site_id
 _symmetry_equiv_pos_as_xyz
  1  'x, y, z'
loop_
 _atom_site_type_symbol
 _atom_site_label
 _atom_site_symmetry_multiplicity
 _atom_site_fract_x
 _atom_site_fract_y
 _atom_site_fract_z
 _atom_site_occupancy
  Li  Li0  1  0.27811092  0.27854366  0.00068357  1
  Li  Li1  1  0.72188870  0.72145658  0.99931655  1
  Li  Li2  1  0.72145721  0.72188808  0.50068353  1
  Li  Li3  1  0.27854366  0.27811217  0.49931660  1
  O  O4  1  0.24661635  0.54926251  0.54101412  1
  O  O5  1  0.71275879  0.91183767  0.38159481  1
  O  O6  1  0.91664769  0.69713863  0.62066008  1
  O  O7  1  0.91183769  0.71275904  0.11840524  1
  O  O8  1  0.08816193  0.28724119  0.88159487  1
  O  O9  1  0.08335251  0.30286024  0.37933911  1
  O  O10  1  0.28724083  0.08816257  0.61840530  1
  O  O11  1  0.30286108  0.08335181  0.12066098  1
  O  O12  1  0.19788428  0.60232252  0.77711104  1
  O  O13  1  0.19223078  0.61026105  0.27676470  1
  O  O14  1  0.24150989  0.55416850  0.04074642  1
  O  O15  1  0.38973888  0.80776965  0.77676475  1
  O  O16  1  0.12200255  0.87306472  0.61871301  1
  O  O17  1  0.12693569  0.87799735  0.11871295  1
  O  O18  1  0.54926153  0.24661650  0.95898605  1
  O  O19  1  0.80211594  0.39767634  0.22288910  1
  O  O20  1  0.60232378  0.19788387  0.72288916  1
  O  O21  1  0.61026074  0.19223058  0.22323536  1
  O  O22  1  0.69713854  0.91664842  0.87933914  1
  O  O23  1  0.39767644  0.80211499  0.27711098  1
  O  O24  1  0.44583233  0.75848979  0.54074650  1
  O  O25  1  0.45073809  0.75338373  0.04101407  1
  O  O26  1  0.87306577  0.12200152  0.88128721  1
  O  O27  1  0.87799832  0.12693554  0.38128713  1
  O  O28  1  0.75338452  0.45073775  0.45898601  1
  O  O29  1  0.75848973  0.44583173  0.95925369  1
  O  O30  1  0.80776882  0.38973921  0.72323446  1
  O  O31  1  0.55416854  0.24151047  0.45925363  1
  P  P32  1  0.67279390  0.10987670  0.85794695  1
  P  P33  1  0.32720572  0.89012353  0.14205316  1
  P  P34  1  0.68165402  0.10687635  0.35890838  1
  P  P35  1  0.89312313  0.31834628  0.85890843  1
  P  P36  1  0.10987594  0.67279465  0.64205321  1
  P  P37  1  0.10687649  0.68165396  0.14109168  1
  P  P38  1  0.31834560  0.89312389  0.64109173  1
  P  P39  1  0.89012368  0.32720558  0.35794691  1
  Cr  Cr40  1  0.67314441  0.32639265  0.09304184  1
  Cr  Cr41  1  0.67360682  0.32685568  0.59304190  1
  Cr  Cr42  1  0.32639278  0.67314458  0.40695726  1
  Cr  Cr43  1  0.32685519  0.67360761  0.90695731  1
