# generated using pymatgen
data_Li2MnP2O7
_symmetry_space_group_name_H-M   'P 1'
_cell_length_a   6.66141500
_cell_length_b   9.36354971
_cell_length_c   10.51761105
_cell_angle_alpha   113.74564641
_cell_angle_beta   88.57729375
_cell_angle_gamma   106.75598714
_symmetry_Int_Tables_number   1
_chemical_formula_structural   Li2MnP2O7
_chemical_formula_sum   'Li8 Mn4 P8 O28'
_cell_volume   571.87080954
_cell_formula_units_Z   4
loop_
 _symmetry_equiv_pos_site_id
 _symmetry_equiv_pos_as_xyz
  1  'x, y, z'
loop_
 _atom_site_type_symbol
 _atom_site_label
 _atom_site_symmetry_multiplicity
 _atom_site_fract_x
 _atom_site_fract_y
 _atom_site_fract_z
 _atom_site_occupancy
  Li  Li0  1  0.60247800  0.51228100  0.97253400  1
  Li  Li1  1  0.16481500  0.48541400  0.03661000  1
  Li  Li2  1  0.04440600  0.19926500  0.51351000  1
  Li  Li3  1  0.93933600  0.82732600  0.49897400  1
  Li  Li4  1  0.16374700  0.10865500  0.13551800  1
  Li  Li5  1  0.35189100  0.92269900  0.37734600  1
  Li  Li6  1  0.63152800  0.07898400  0.62216500  1
  Li  Li7  1  0.86425800  0.89344700  0.88088700  1
  Mn  Mn8  1  0.35867800  0.50167200  0.73540500  1
  Mn  Mn9  1  0.28436800  0.89468000  0.78251400  1
  Mn  Mn10  1  0.62996500  0.49018500  0.25534900  1
  Mn  Mn11  1  0.72274900  0.09631700  0.21417800  1
  P  P12  1  0.30957900  0.79887000  0.05624100  1
  P  P13  1  0.92973000  0.80815200  0.19905300  1
  P  P14  1  0.07713200  0.17978400  0.79385100  1
  P  P15  1  0.70055300  0.19336300  0.94219200  1
  P  P16  1  0.44332500  0.71081200  0.53162500  1
  P  P17  1  0.55090800  0.28514800  0.46260200  1
  P  P18  1  0.86547100  0.54355900  0.69728900  1
  P  P19  1  0.12233600  0.44448200  0.30021200  1
  O  O20  1  0.09717900  0.05511800  0.84890700  1
  O  O21  1  0.63023200  0.33685500  0.03832500  1
  O  O22  1  0.93107300  0.28070500  0.90324600  1
  O  O23  1  0.37503700  0.65051900  0.96132700  1
  O  O24  1  0.28044800  0.31693800  0.81880500  1
  O  O25  1  0.44732000  0.90236500  0.19567900  1
  O  O26  1  0.53484700  0.27153900  0.31073600  1
  O  O27  1  0.56311800  0.09148700  0.80281600  1
  O  O28  1  0.02586200  0.45267000  0.68739600  1
  O  O29  1  0.73929700  0.08244700  0.00788200  1
  O  O30  1  0.95804400  0.09368200  0.64620900  1
  O  O31  1  0.91809600  0.93442000  0.14280200  1
  O  O32  1  0.72258100  0.67468100  0.17195600  1
  O  O33  1  0.95774200  0.52793200  0.30217200  1
  O  O34  1  0.62618000  0.14365800  0.46338200  1
  O  O35  1  0.08328700  0.70871200  0.09674400  1
  O  O36  1  0.36946700  0.85447600  0.53519900  1
  O  O37  1  0.27050100  0.90696900  0.98848100  1
  O  O38  1  0.64101700  0.69933200  0.45730700  1
  O  O39  1  0.35107700  0.29532100  0.53473600  1
  O  O40  1  0.73320200  0.45593700  0.54210600  1
  O  O41  1  0.69819300  0.52830200  0.79811000  1
  O  O42  1  0.25972500  0.54108500  0.45219000  1
  O  O43  1  0.04109100  0.89234200  0.34830000  1
  O  O44  1  0.96415400  0.72320200  0.71895100  1
  O  O45  1  0.03375500  0.26777900  0.28934800  1
  O  O46  1  0.28068100  0.45333300  0.19192400  1
  O  O47  1  0.45838800  0.71891400  0.68166300  1
