# generated using pymatgen
data_Li2V(PO4)2
_symmetry_space_group_name_H-M   'P 1'
_cell_length_a   12.62441900
_cell_length_b   6.27347400
_cell_length_c   7.55313949
_cell_angle_alpha   82.09833681
_cell_angle_beta   90.00000000
_cell_angle_gamma   90.00000000
_symmetry_Int_Tables_number   1
_chemical_formula_structural   Li2V(PO4)2
_chemical_formula_sum   'Li8 V4 P8 O32'
_cell_volume   592.52119115
_cell_formula_units_Z   4
loop_
 _symmetry_equiv_pos_site_id
 _symmetry_equiv_pos_as_xyz
  1  'x, y, z'
loop_
 _atom_site_type_symbol
 _atom_site_label
 _atom_site_symmetry_multiplicity
 _atom_site_fract_x
 _atom_site_fract_y
 _atom_site_fract_z
 _atom_site_occupancy
  Li  Li0  1  0.88491200  0.54329400  0.55536000  1
  Li  Li1  1  0.72767600  0.19603200  0.90744000  1
  Li  Li2  1  0.61508800  0.04329400  0.55536000  1
  Li  Li3  1  0.11508800  0.45670600  0.44464000  1
  Li  Li4  1  0.77232400  0.69603200  0.90744000  1
  Li  Li5  1  0.27232400  0.80396800  0.09256000  1
  Li  Li6  1  0.22767600  0.30396800  0.09256000  1
  Li  Li7  1  0.38491200  0.95670600  0.44464000  1
  V  V8  1  0.42014500  0.25171400  0.77418500  1
  V  V9  1  0.57985500  0.74828600  0.22581500  1
  V  V10  1  0.07985500  0.75171400  0.77418500  1
  V  V11  1  0.92014500  0.24828600  0.22581500  1
  P  P12  1  0.35769500  0.46199100  0.36076000  1
  P  P13  1  0.47459000  0.74011800  0.82805700  1
  P  P14  1  0.14230500  0.96199100  0.36076000  1
  P  P15  1  0.85769500  0.03800900  0.63924000  1
  P  P16  1  0.02541000  0.24011800  0.82805700  1
  P  P17  1  0.97459000  0.75988200  0.17194300  1
  P  P18  1  0.64230500  0.53800900  0.63924000  1
  P  P19  1  0.52541000  0.25988200  0.17194300  1
  O  O20  1  0.24693300  0.51142900  0.28595200  1
  O  O21  1  0.96198300  0.54555100  0.30008300  1
  O  O22  1  0.40638800  0.33782600  0.20124300  1
  O  O23  1  0.46570900  0.77127300  0.02436000  1
  O  O24  1  0.31768600  0.16925200  0.90302400  1
  O  O25  1  0.57395400  0.34001000  0.62654600  1
  O  O26  1  0.90056600  0.93141700  0.22576800  1
  O  O27  1  0.59361200  0.66217400  0.79875700  1
  O  O28  1  0.74693300  0.98857100  0.71404800  1
  O  O29  1  0.81768600  0.33074800  0.09697600  1
  O  O30  1  0.92604600  0.84001000  0.62654600  1
  O  O31  1  0.59943400  0.43141700  0.22576800  1
  O  O32  1  0.53801700  0.04555100  0.30008300  1
  O  O33  1  0.46198300  0.95444900  0.69991700  1
  O  O34  1  0.03801700  0.45444900  0.69991700  1
  O  O35  1  0.75306700  0.48857100  0.71404800  1
  O  O36  1  0.09361200  0.83782600  0.20124300  1
  O  O37  1  0.14160100  0.78975100  0.52699600  1
  O  O38  1  0.42604600  0.65999000  0.37345400  1
  O  O39  1  0.03429100  0.27127300  0.02436000  1
  O  O40  1  0.64160100  0.71024900  0.47300400  1
  O  O41  1  0.25306700  0.01142900  0.28595200  1
  O  O42  1  0.85839900  0.21024900  0.47300400  1
  O  O43  1  0.18231400  0.66925200  0.90302400  1
  O  O44  1  0.40056600  0.56858300  0.77423200  1
  O  O45  1  0.96570900  0.72872700  0.97564000  1
  O  O46  1  0.53429100  0.22872700  0.97564000  1
  O  O47  1  0.68231400  0.83074800  0.09697600  1
  O  O48  1  0.07395400  0.15999000  0.37345400  1
  O  O49  1  0.90638800  0.16217400  0.79875700  1
  O  O50  1  0.09943400  0.06858300  0.77423200  1
  O  O51  1  0.35839900  0.28975100  0.52699600  1
