# generated using pymatgen
data_LiMn(PO3)4
_symmetry_space_group_name_H-M   'P 1'
_cell_length_a   8.26424224
_cell_length_b   8.26424224
_cell_length_c   7.75565011
_cell_angle_alpha   84.92297116
_cell_angle_beta   84.92297116
_cell_angle_gamma   110.55462338
_symmetry_Int_Tables_number   1
_chemical_formula_structural   LiMn(PO3)4
_chemical_formula_sum   'Li2 Mn2 P8 O24'
_cell_volume   489.94940499
_cell_formula_units_Z   2
loop_
 _symmetry_equiv_pos_site_id
 _symmetry_equiv_pos_as_xyz
  1  'x, y, z'
loop_
 _atom_site_type_symbol
 _atom_site_label
 _atom_site_symmetry_multiplicity
 _atom_site_fract_x
 _atom_site_fract_y
 _atom_site_fract_z
 _atom_site_occupancy
  Li  Li0  1  0.20440700  0.50511200  0.71684300  1
  Li  Li1  1  0.50511200  0.20440700  0.21684300  1
  Mn  Mn2  1  0.86115500  0.13090400  0.75611500  1
  Mn  Mn3  1  0.13090400  0.86115500  0.25611500  1
  P  P4  1  0.75375400  0.43586800  0.86790000  1
  P  P5  1  0.05992300  0.20990300  0.33617800  1
  P  P6  1  0.20990300  0.05992300  0.83617800  1
  P  P7  1  0.94532100  0.79178400  0.67851300  1
  P  P8  1  0.79178400  0.94532100  0.17851300  1
  P  P9  1  0.23890300  0.56005000  0.11267900  1
  P  P10  1  0.43586800  0.75375400  0.36790000  1
  P  P11  1  0.56005000  0.23890300  0.61267900  1
  O  O12  1  0.16162800  0.35380700  0.17516200  1
  O  O13  1  0.35380700  0.16162800  0.67516200  1
  O  O14  1  0.98400800  0.71995600  0.51711400  1
  O  O15  1  0.91931000  0.85094300  0.16251200  1
  O  O16  1  0.36770300  0.89951200  0.31100300  1
  O  O17  1  0.12143600  0.87658700  0.76505900  1
  O  O18  1  0.66232500  0.37787500  0.04633100  1
  O  O19  1  0.85094300  0.91931000  0.66251200  1
  O  O20  1  0.89951200  0.36770300  0.81100300  1
  O  O21  1  0.10725800  0.63820600  0.18172800  1
  O  O22  1  0.83765200  0.64348900  0.83667600  1
  O  O23  1  0.08187400  0.15593900  0.84272000  1
  O  O24  1  0.58307100  0.29549900  0.42403200  1
  O  O25  1  0.64348900  0.83765200  0.33667600  1
  O  O26  1  0.71995600  0.98400800  0.01711400  1
  O  O27  1  0.87658700  0.12143600  0.26505900  1
  O  O28  1  0.37787500  0.66232500  0.54633100  1
  O  O29  1  0.40226900  0.62141300  0.22215300  1
  O  O30  1  0.15593900  0.08187400  0.34272000  1
  O  O31  1  0.63820600  0.10725800  0.68172800  1
  O  O32  1  0.62141300  0.40226900  0.72215300  1
  O  O33  1  0.03551700  0.28502000  0.49980400  1
  O  O34  1  0.29549900  0.58307100  0.92403200  1
  O  O35  1  0.28502000  0.03551700  0.99980400  1
