# generated using pymatgen
data_Li7SbO6
_symmetry_space_group_name_H-M   'P 1'
_cell_length_a   5.42292200
_cell_length_b   5.47258034
_cell_length_c   5.89679951
_cell_angle_alpha   63.57776409
_cell_angle_beta   64.33871241
_cell_angle_gamma   60.97611132
_symmetry_Int_Tables_number   1
_chemical_formula_structural   Li7SbO6
_chemical_formula_sum   'Li7 Sb1 O6'
_cell_volume   131.66465722
_cell_formula_units_Z   1
loop_
 _symmetry_equiv_pos_site_id
 _symmetry_equiv_pos_as_xyz
  1  'x, y, z'
loop_
 _atom_site_type_symbol
 _atom_site_label
 _atom_site_symmetry_multiplicity
 _atom_site_fract_x
 _atom_site_fract_y
 _atom_site_fract_z
 _atom_site_occupancy
  Li  Li0  1  0.10461300  0.73981000  0.62059200  1
  Li  Li1  1  0.47608600  0.14393200  0.61853800  1
  Li  Li2  1  0.34824700  0.34576300  0.99294600  1
  Li  Li3  1  0.62349000  0.64101600  0.05133900  1
  Li  Li4  1  0.49824500  0.90145000  0.36705000  1
  Li  Li5  1  0.91225900  0.23992100  0.35521800  1
  Li  Li6  1  0.79230100  0.49963700  0.62534400  1
  Sb  Sb7  1  0.00476400  0.98638300  0.00640600  1
  O  O8  1  0.08703600  0.36281700  0.79176000  1
  O  O9  1  0.23480100  0.91744900  0.23510200  1
  O  O10  1  0.63382500  0.21798100  0.23175300  1
  O  O11  1  0.38054600  0.76586900  0.76623500  1
  O  O12  1  0.78334500  0.09453100  0.74747500  1
  O  O13  1  0.89134300  0.63243900  0.23294200  1
