# generated using pymatgen
data_Li3ErBr6
_symmetry_space_group_name_H-M   'P 1'
_cell_length_a   6.88794101
_cell_length_b   6.88794101
_cell_length_c   13.25714275
_cell_angle_alpha   85.11313958
_cell_angle_beta   85.11313958
_cell_angle_gamma   119.58740522
_symmetry_Int_Tables_number   1
_chemical_formula_structural   Li3ErBr6
_chemical_formula_sum   'Li6 Er2 Br12'
_cell_volume   539.05546983
_cell_formula_units_Z   2
loop_
 _symmetry_equiv_pos_site_id
 _symmetry_equiv_pos_as_xyz
  1  'x, y, z'
loop_
 _atom_site_type_symbol
 _atom_site_label
 _atom_site_symmetry_multiplicity
 _atom_site_fract_x
 _atom_site_fract_y
 _atom_site_fract_z
 _atom_site_occupancy
  Li  Li0  1  0.66241400  0.82547700  0.00031000  1
  Li  Li1  1  0.59288600  0.40711400  0.25000000  1
  Li  Li2  1  0.17452300  0.33758600  0.49969000  1
  Li  Li3  1  0.82547700  0.66241400  0.50031000  1
  Li  Li4  1  0.40711400  0.59288600  0.75000000  1
  Li  Li5  1  0.33758600  0.17452300  0.99969000  1
  Er  Er6  1  0.00000000  0.50000000  0.00000000  1
  Er  Er7  1  0.50000000  0.00000000  0.50000000  1
  Br  Br8  1  0.62427800  0.13385700  0.11969800  1
  Br  Br9  1  0.94734000  0.78446800  0.12142000  1
  Br  Br10  1  0.29826600  0.46003800  0.11904700  1
  Br  Br11  1  0.53996200  0.70173400  0.38095300  1
  Br  Br12  1  0.21553200  0.05266000  0.37858000  1
  Br  Br13  1  0.86614300  0.37572200  0.38030200  1
  Br  Br14  1  0.13385700  0.62427800  0.61969800  1
  Br  Br15  1  0.46003800  0.29826600  0.61904700  1
  Br  Br16  1  0.78446800  0.94734000  0.62142000  1
  Br  Br17  1  0.70173400  0.53996200  0.88095300  1
  Br  Br18  1  0.05266000  0.21553200  0.87858000  1
  Br  Br19  1  0.37572200  0.86614300  0.88030200  1
