# generated using pymatgen
data_Li13Sn5
_symmetry_space_group_name_H-M   'P 1'
_cell_length_a   4.69252847
_cell_length_b   4.69252847
_cell_length_c   17.08969000
_cell_angle_alpha   90.00000000
_cell_angle_beta   90.00000000
_cell_angle_gamma   120.00000664
_symmetry_Int_Tables_number   1
_chemical_formula_structural   Li13Sn5
_chemical_formula_sum   'Li13 Sn5'
_cell_volume   325.89569240
_cell_formula_units_Z   1
loop_
 _symmetry_equiv_pos_site_id
 _symmetry_equiv_pos_as_xyz
  1  'x, y, z'
loop_
 _atom_site_type_symbol
 _atom_site_label
 _atom_site_symmetry_multiplicity
 _atom_site_fract_x
 _atom_site_fract_y
 _atom_site_fract_z
 _atom_site_occupancy
  Li  Li0  1  0.00000000  0.00000000  0.50000000  1
  Li  Li1  1  0.00000000  0.00000000  0.67164100  1
  Li  Li2  1  0.00000000  0.00000000  0.32835900  1
  Li  Li3  1  0.00000000  0.00000000  0.83647200  1
  Li  Li4  1  0.00000000  0.00000000  0.16352800  1
  Li  Li5  1  0.33333300  0.66666700  0.94669500  1
  Li  Li6  1  0.66666700  0.33333300  0.05330500  1
  Li  Li7  1  0.33333300  0.66666700  0.44622800  1
  Li  Li8  1  0.66666700  0.33333300  0.55377200  1
  Li  Li9  1  0.33333300  0.66666700  0.28371800  1
  Li  Li10  1  0.66666700  0.33333300  0.71628200  1
  Li  Li11  1  0.33333300  0.66666700  0.11203900  1
  Li  Li12  1  0.66666700  0.33333300  0.88796100  1
  Sn  Sn13  1  0.00000000  0.00000000  0.00000000  1
  Sn  Sn14  1  0.33333300  0.66666700  0.77827200  1
  Sn  Sn15  1  0.66666700  0.33333300  0.22172800  1
  Sn  Sn16  1  0.33333300  0.66666700  0.60803700  1
  Sn  Sn17  1  0.66666700  0.33333300  0.39196300  1
