# generated using pymatgen
data_Li2CuO2
_symmetry_space_group_name_H-M   'P 1'
_cell_length_a   5.19904645
_cell_length_b   5.19904645
_cell_length_c   5.19904645
_cell_angle_alpha   147.48510088
_cell_angle_beta   138.19422970
_cell_angle_gamma   53.93798448
_symmetry_Int_Tables_number   1
_chemical_formula_structural   Li2CuO2
_chemical_formula_sum   'Li2 Cu1 O2'
_cell_volume   50.04085306
_cell_formula_units_Z   1
loop_
 _symmetry_equiv_pos_site_id
 _symmetry_equiv_pos_as_xyz
  1  'x, y, z'
loop_
 _atom_site_type_symbol
 _atom_site_label
 _atom_site_symmetry_multiplicity
 _atom_site_fract_x
 _atom_site_fract_y
 _atom_site_fract_z
 _atom_site_occupancy
  Li  Li0  1  0.20964900  0.70964900  0.50000000  1
  Li  Li1  1  0.79035100  0.29035100  0.50000000  1
  Cu  Cu2  1  0.50000000  0.00000000  0.50000000  1
  O  O3  1  0.64437700  0.64437700  0.00000000  1
  O  O4  1  0.35562300  0.35562300  0.00000000  1
