# generated using pymatgen
data_LiCo2P4H3O14
_symmetry_space_group_name_H-M   'P 1'
_cell_length_a   8.59402705
_cell_length_b   8.59402705
_cell_length_c   8.97774803
_cell_angle_alpha   69.45051132
_cell_angle_beta   69.45051132
_cell_angle_gamma   99.65724508
_symmetry_Int_Tables_number   1
_chemical_formula_structural   LiCo2P4H3O14
_chemical_formula_sum   'Li2 Co4 P8 H6 O28'
_cell_volume   548.42731956
_cell_formula_units_Z   2
loop_
 _symmetry_equiv_pos_site_id
 _symmetry_equiv_pos_as_xyz
  1  'x, y, z'
loop_
 _atom_site_type_symbol
 _atom_site_label
 _atom_site_symmetry_multiplicity
 _atom_site_fract_x
 _atom_site_fract_y
 _atom_site_fract_z
 _atom_site_occupancy
  Li  Li0  1  0.14678500  0.86311600  0.24190600  1
  Li  Li1  1  0.86311600  0.14678500  0.74190600  1
  Co  Co2  1  0.09283100  0.90781000  0.75193200  1
  Co  Co3  1  0.00384800  0.50160700  0.00361500  1
  Co  Co4  1  0.50160700  0.00384800  0.50361500  1
  Co  Co5  1  0.90781000  0.09283100  0.25193200  1
  P  P6  1  0.35464100  0.78657400  0.93550900  1
  P  P7  1  0.72857300  0.82294600  0.68870900  1
  P  P8  1  0.21828300  0.64476300  0.57158200  1
  P  P9  1  0.82294600  0.72857300  0.18870900  1
  P  P10  1  0.17792900  0.27001000  0.81310300  1
  P  P11  1  0.78657400  0.35464100  0.43550900  1
  P  P12  1  0.27001000  0.17792900  0.31310300  1
  P  P13  1  0.64476300  0.21828300  0.07158200  1
  H  H14  1  0.56262500  0.76474000  0.29559500  1
  H  H15  1  0.76474000  0.56262500  0.79559500  1
  H  H16  1  0.02172900  0.52810700  0.49442200  1
  H  H17  1  0.23539300  0.44026900  0.20232700  1
  H  H18  1  0.44026900  0.23539300  0.70232700  1
  H  H19  1  0.52810700  0.02172900  0.99442200  1
  O  O20  1  0.32957500  0.89629700  0.77302700  1
  O  O21  1  0.87058100  0.93201700  0.70865900  1
  O  O22  1  0.71060500  0.92107200  0.51990000  1
  O  O23  1  0.54707500  0.76599300  0.85767300  1
  O  O24  1  0.10262700  0.66807400  0.73031800  1
  O  O25  1  0.40204200  0.77885800  0.46194700  1
  O  O26  1  0.36077500  0.87793400  0.05202400  1
  O  O27  1  0.93201700  0.87058100  0.20865900  1
  O  O28  1  0.12624900  0.64320500  0.44809000  1
  O  O29  1  0.75326800  0.64619200  0.69161000  1
  O  O30  1  0.64619200  0.75326800  0.19161000  1
  O  O31  1  0.23414100  0.45250500  0.64182200  1
  O  O32  1  0.07961600  0.28956600  0.98042200  1
  O  O33  1  0.77885700  0.40204200  0.96194700  1
  O  O34  1  0.22343100  0.59809800  0.03828200  1
  O  O35  1  0.92107200  0.71060500  0.01990000  1
  O  O36  1  0.76599300  0.54707500  0.35767300  1
  O  O37  1  0.35596600  0.24817000  0.80638800  1
  O  O38  1  0.24817000  0.35596600  0.30638800  1
  O  O39  1  0.87793400  0.36077500  0.55202400  1
  O  O40  1  0.06841500  0.13007300  0.79143700  1
  O  O41  1  0.64320500  0.12624900  0.94809000  1
  O  O42  1  0.59809800  0.22343100  0.53828200  1
  O  O43  1  0.89629700  0.32957500  0.27302700  1
  O  O44  1  0.45250500  0.23414100  0.14182200  1
  O  O45  1  0.28956600  0.07961600  0.48042200  1
  O  O46  1  0.13007300  0.06841500  0.29143700  1
  O  O47  1  0.66807400  0.10262700  0.23031800  1
