# generated using pymatgen
data_Li2TbF6
_symmetry_space_group_name_H-M   'P 1'
_cell_length_a   4.34393700
_cell_length_b   7.92517100
_cell_length_c   12.27483476
_cell_angle_alpha   75.46256983
_cell_angle_beta   90.00000000
_cell_angle_gamma   90.00000000
_symmetry_Int_Tables_number   1
_chemical_formula_structural   Li2TbF6
_chemical_formula_sum   'Li8 Tb4 F24'
_cell_volume   409.04956274
_cell_formula_units_Z   4
loop_
 _symmetry_equiv_pos_site_id
 _symmetry_equiv_pos_as_xyz
  1  'x, y, z'
loop_
 _atom_site_type_symbol
 _atom_site_label
 _atom_site_symmetry_multiplicity
 _atom_site_fract_x
 _atom_site_fract_y
 _atom_site_fract_z
 _atom_site_occupancy
  Li  Li0  1  0.55925700  0.37549700  0.69590000  1
  Li  Li1  1  0.05925700  0.62450300  0.80410000  1
  Li  Li2  1  0.44074300  0.62450300  0.30410000  1
  Li  Li3  1  0.94074300  0.37549700  0.19590000  1
  Li  Li4  1  0.02808800  0.05173200  0.82295700  1
  Li  Li5  1  0.52808800  0.94826800  0.67704300  1
  Li  Li6  1  0.97191200  0.94826800  0.17704300  1
  Li  Li7  1  0.47191200  0.05173200  0.32295700  1
  Tb  Tb8  1  0.53226900  0.24908300  0.00230900  1
  Tb  Tb9  1  0.96773100  0.24908300  0.50230900  1
  Tb  Tb10  1  0.46773100  0.75091700  0.99769100  1
  Tb  Tb11  1  0.03226900  0.75091700  0.49769100  1
  F  F12  1  0.56923000  0.46722800  0.10380800  1
  F  F13  1  0.28001300  0.24476400  0.83031600  1
  F  F14  1  0.78001300  0.75523600  0.66968400  1
  F  F15  1  0.71998700  0.75523600  0.16968400  1
  F  F16  1  0.93077000  0.46722800  0.60380800  1
  F  F17  1  0.43077000  0.53277200  0.89619200  1
  F  F18  1  0.06923000  0.53277200  0.39619200  1
  F  F19  1  0.34340700  0.88620700  0.81747200  1
  F  F20  1  0.65659300  0.11379300  0.18252800  1
  F  F21  1  0.15659300  0.88620700  0.31747200  1
  F  F22  1  0.23984200  0.97397900  0.55814100  1
  F  F23  1  0.84340700  0.11379300  0.68252800  1
  F  F24  1  0.76015800  0.02602100  0.44185900  1
  F  F25  1  0.26015800  0.97397900  0.05814100  1
  F  F26  1  0.04868100  0.29649600  0.05349000  1
  F  F27  1  0.73984200  0.02602100  0.94185900  1
  F  F28  1  0.66197800  0.39135300  0.33665400  1
  F  F29  1  0.16197800  0.60864700  0.16334600  1
  F  F30  1  0.33802200  0.60864700  0.66334600  1
  F  F31  1  0.83802200  0.39135300  0.83665400  1
  F  F32  1  0.45131900  0.29649600  0.55349000  1
  F  F33  1  0.95131900  0.70350400  0.94651000  1
  F  F34  1  0.54868100  0.70350400  0.44651000  1
  F  F35  1  0.21998700  0.24476400  0.33031600  1
