# generated using pymatgen
data_Li5GaO2
_symmetry_space_group_name_H-M   'P 1'
_cell_length_a   7.10895100
_cell_length_b   7.10895100
_cell_length_c   8.91705700
_cell_angle_alpha   90.00000000
_cell_angle_beta   90.00000000
_cell_angle_gamma   90.00000000
_symmetry_Int_Tables_number   1
_chemical_formula_structural   Li5GaO2
_chemical_formula_sum   'Li20 Ga4 O8'
_cell_volume   450.64295320
_cell_formula_units_Z   4
loop_
 _symmetry_equiv_pos_site_id
 _symmetry_equiv_pos_as_xyz
  1  'x, y, z'
loop_
 _atom_site_type_symbol
 _atom_site_label
 _atom_site_symmetry_multiplicity
 _atom_site_fract_x
 _atom_site_fract_y
 _atom_site_fract_z
 _atom_site_occupancy
  Li  Li0  1  0.14137500  0.73183600  0.78738100  1
  Li  Li1  1  0.91196500  0.00000000  0.75000000  1
  Li  Li2  1  0.85862500  0.73183600  0.21261900  1
  Li  Li3  1  0.26816400  0.85862500  0.46261900  1
  Li  Li4  1  0.35050100  0.00000000  0.75000000  1
  Li  Li5  1  0.50000000  0.81207200  0.00000000  1
  Li  Li6  1  0.08803500  0.00000000  0.25000000  1
  Li  Li7  1  0.18792800  0.50000000  0.25000000  1
  Li  Li8  1  0.26816400  0.14137500  0.03738100  1
  Li  Li9  1  0.64949900  0.00000000  0.25000000  1
  Li  Li10  1  0.14137500  0.26816400  0.71261900  1
  Li  Li11  1  0.00000000  0.35050100  0.00000000  1
  Li  Li12  1  0.00000000  0.91196500  0.00000000  1
  Li  Li13  1  0.50000000  0.18792800  0.50000000  1
  Li  Li14  1  0.85862500  0.26816400  0.28738100  1
  Li  Li15  1  0.00000000  0.08803500  0.50000000  1
  Li  Li16  1  0.00000000  0.64949900  0.50000000  1
  Li  Li17  1  0.73183600  0.14137500  0.96261900  1
  Li  Li18  1  0.81207200  0.50000000  0.75000000  1
  Li  Li19  1  0.73183600  0.85862500  0.53738100  1
  Ga  Ga20  1  0.42342600  0.50000000  0.75000000  1
  Ga  Ga21  1  0.50000000  0.57657400  0.50000000  1
  Ga  Ga22  1  0.57657400  0.50000000  0.25000000  1
  Ga  Ga23  1  0.50000000  0.42342600  0.00000000  1
  O  O24  1  0.08617900  0.24676800  0.17833000  1
  O  O25  1  0.91382100  0.75323200  0.67833000  1
  O  O26  1  0.08617900  0.75323200  0.32167000  1
  O  O27  1  0.75323200  0.91382100  0.07167000  1
  O  O28  1  0.91382100  0.24676800  0.82167000  1
  O  O29  1  0.24676800  0.08617900  0.57167000  1
  O  O30  1  0.75323200  0.08617900  0.42833000  1
  O  O31  1  0.24676800  0.91382100  0.92833000  1
