# generated using pymatgen
data_Li4TbF8
_symmetry_space_group_name_H-M   'P 1'
_cell_length_a   5.83209600
_cell_length_b   9.91203300
_cell_length_c   10.07472200
_cell_angle_alpha   90.00000000
_cell_angle_beta   90.00000000
_cell_angle_gamma   90.00000000
_symmetry_Int_Tables_number   1
_chemical_formula_structural   Li4TbF8
_chemical_formula_sum   'Li16 Tb4 F32'
_cell_volume   582.39880411
_cell_formula_units_Z   4
loop_
 _symmetry_equiv_pos_site_id
 _symmetry_equiv_pos_as_xyz
  1  'x, y, z'
loop_
 _atom_site_type_symbol
 _atom_site_label
 _atom_site_symmetry_multiplicity
 _atom_site_fract_x
 _atom_site_fract_y
 _atom_site_fract_z
 _atom_site_occupancy
  Li  Li0  1  0.88332900  0.93905900  0.36844600  1
  Li  Li1  1  0.38332900  0.06094100  0.13155400  1
  Li  Li2  1  0.61667100  0.56094100  0.86844600  1
  Li  Li3  1  0.11667100  0.43905900  0.63155400  1
  Li  Li4  1  0.11667100  0.06094100  0.63155400  1
  Li  Li5  1  0.61667100  0.93905900  0.86844600  1
  Li  Li6  1  0.38332900  0.43905900  0.13155400  1
  Li  Li7  1  0.88332900  0.56094100  0.36844600  1
  Li  Li8  1  0.37177700  0.92144700  0.39805200  1
  Li  Li9  1  0.87177700  0.07855300  0.10194800  1
  Li  Li10  1  0.12822300  0.57855300  0.89805200  1
  Li  Li11  1  0.62822300  0.42144700  0.60194800  1
  Li  Li12  1  0.62822300  0.07855300  0.60194800  1
  Li  Li13  1  0.12822300  0.92144700  0.89805200  1
  Li  Li14  1  0.87177700  0.42144700  0.10194800  1
  Li  Li15  1  0.37177700  0.57855300  0.39805200  1
  Tb  Tb16  1  0.63418200  0.75000000  0.13529200  1
  Tb  Tb17  1  0.13418200  0.25000000  0.36470800  1
  Tb  Tb18  1  0.86581800  0.75000000  0.63529200  1
  Tb  Tb19  1  0.36581800  0.25000000  0.86470800  1
  F  F20  1  0.85954500  0.88919500  0.01252900  1
  F  F21  1  0.35954500  0.11080500  0.48747100  1
  F  F22  1  0.64045500  0.61080500  0.51252900  1
  F  F23  1  0.14045500  0.38919500  0.98747100  1
  F  F24  1  0.14045500  0.11080500  0.98747100  1
  F  F25  1  0.64045500  0.88919500  0.51252900  1
  F  F26  1  0.35954500  0.38919500  0.48747100  1
  F  F27  1  0.85954500  0.61080500  0.01252900  1
  F  F28  1  0.38821300  0.88471900  0.01854100  1
  F  F29  1  0.88821300  0.11528100  0.48145900  1
  F  F30  1  0.11178700  0.61528100  0.51854100  1
  F  F31  1  0.61178700  0.38471900  0.98145900  1
  F  F32  1  0.61178700  0.11528100  0.98145900  1
  F  F33  1  0.11178700  0.88471900  0.51854100  1
  F  F34  1  0.88821300  0.38471900  0.48145900  1
  F  F35  1  0.38821300  0.61528100  0.01854100  1
  F  F36  1  0.63368200  0.53141800  0.23338200  1
  F  F37  1  0.13368200  0.46858200  0.26661800  1
  F  F38  1  0.86631800  0.96858200  0.73338200  1
  F  F39  1  0.36631800  0.03141800  0.76661800  1
  F  F40  1  0.36631800  0.46858200  0.76661800  1
  F  F41  1  0.86631800  0.53141800  0.73338200  1
  F  F42  1  0.13368200  0.03141800  0.26661800  1
  F  F43  1  0.63368200  0.96858200  0.23338200  1
  F  F44  1  0.88953300  0.75000000  0.30134900  1
  F  F45  1  0.38953300  0.25000000  0.19865100  1
  F  F46  1  0.61046700  0.75000000  0.80134900  1
  F  F47  1  0.11046700  0.25000000  0.69865100  1
  F  F48  1  0.37567600  0.75000000  0.30127000  1
  F  F49  1  0.87567600  0.25000000  0.19873000  1
  F  F50  1  0.12432400  0.75000000  0.80127000  1
  F  F51  1  0.62432400  0.25000000  0.69873000  1
