# generated using pymatgen
data_Li4Ni3P4O15
_symmetry_space_group_name_H-M   'P 1'
_cell_length_a   6.43708600
_cell_length_b   10.32644400
_cell_length_c   17.49305800
_cell_angle_alpha   90.00000000
_cell_angle_beta   90.00000000
_cell_angle_gamma   90.00000000
_symmetry_Int_Tables_number   1
_chemical_formula_structural   Li4Ni3P4O15
_chemical_formula_sum   'Li16 Ni12 P16 O60'
_cell_volume   1162.80219172
_cell_formula_units_Z   4
loop_
 _symmetry_equiv_pos_site_id
 _symmetry_equiv_pos_as_xyz
  1  'x, y, z'
loop_
 _atom_site_type_symbol
 _atom_site_label
 _atom_site_symmetry_multiplicity
 _atom_site_fract_x
 _atom_site_fract_y
 _atom_site_fract_z
 _atom_site_occupancy
  Li  Li0  1  0.23485600  0.51936600  0.00147100  1
  Li  Li1  1  0.11771600  0.95330000  0.03174400  1
  Li  Li2  1  0.84016900  0.17708700  0.09789600  1
  Li  Li3  1  0.29299300  0.76764800  0.20908200  1
  Li  Li4  1  0.79299300  0.26764800  0.29091800  1
  Li  Li5  1  0.34016900  0.67708700  0.40210400  1
  Li  Li6  1  0.61771600  0.45330000  0.46825600  1
  Li  Li7  1  0.73485600  0.01936600  0.49852900  1
  Li  Li8  1  0.23485600  0.98063400  0.50147100  1
  Li  Li9  1  0.11771600  0.54670000  0.53174400  1
  Li  Li10  1  0.84016900  0.32291300  0.59789600  1
  Li  Li11  1  0.29299300  0.73235200  0.70908200  1
  Li  Li12  1  0.79299300  0.23235200  0.79091800  1
  Li  Li13  1  0.34016900  0.82291300  0.90210400  1
  Li  Li14  1  0.61771600  0.04670000  0.96825600  1
  Li  Li15  1  0.73485600  0.48063400  0.99852900  1
  Ni  Ni16  1  0.48938400  0.51236600  0.13247900  1
  Ni  Ni17  1  0.50444700  0.00019000  0.17109800  1
  Ni  Ni18  1  0.23174200  0.25836200  0.23632000  1
  Ni  Ni19  1  0.73174200  0.75836200  0.26368000  1
  Ni  Ni20  1  0.00444700  0.50019000  0.32890200  1
  Ni  Ni21  1  0.98938400  0.01236600  0.36752100  1
  Ni  Ni22  1  0.48938400  0.98763400  0.63247900  1
  Ni  Ni23  1  0.50444700  0.49981000  0.67109800  1
  Ni  Ni24  1  0.23174200  0.24163800  0.73632000  1
  Ni  Ni25  1  0.73174200  0.74163800  0.76368000  1
  Ni  Ni26  1  0.00444700  0.99981000  0.82890200  1
  Ni  Ni27  1  0.98938400  0.48763400  0.86752100  1
  P  P28  1  0.54000700  0.78029000  0.04878800  1
  P  P29  1  0.36569100  0.23965200  0.06315800  1
  P  P30  1  0.98581200  0.51938000  0.17159700  1
  P  P31  1  0.99951700  0.99522400  0.20926400  1
  P  P32  1  0.49951700  0.49522400  0.29073600  1
  P  P33  1  0.48581200  0.01938000  0.32840300  1
  P  P34  1  0.86569100  0.73965200  0.43684200  1
  P  P35  1  0.04000700  0.28029000  0.45121200  1
  P  P36  1  0.54000700  0.71971000  0.54878800  1
  P  P37  1  0.36569100  0.26034800  0.56315800  1
  P  P38  1  0.98581200  0.98062000  0.67159700  1
  P  P39  1  0.99951700  0.50477600  0.70926400  1
  P  P40  1  0.49951700  0.00477600  0.79073600  1
  P  P41  1  0.48581200  0.48062000  0.82840300  1
  P  P42  1  0.86569100  0.76034800  0.93684200  1
  P  P43  1  0.04000700  0.21971000  0.95121200  1
  O  O44  1  0.40626400  0.87743700  0.00421600  1
  O  O45  1  0.77789900  0.81033400  0.01947800  1
  O  O46  1  0.49469600  0.63731100  0.03229800  1
  O  O47  1  0.45925100  0.37373900  0.04799100  1
  O  O48  1  0.53240800  0.13732300  0.08111700  1
  O  O49  1  0.79867400  0.50490400  0.11812400  1
  O  O50  1  0.18465400  0.23580700  0.11957200  1
  O  O51  1  0.18122000  0.54509000  0.12361200  1
  O  O52  1  0.54169900  0.81042600  0.13413400  1
  O  O53  1  0.81507300  0.01578500  0.15574400  1
  O  O54  1  0.18956100  0.95829600  0.15951600  1
  O  O55  1  0.00228400  0.39624400  0.22542900  1
  O  O56  1  0.96685900  0.63196100  0.23303500  1
  O  O57  1  0.46457400  0.38804700  0.22873300  1
  O  O58  1  0.52264600  0.62025200  0.23989800  1
  O  O59  1  0.02264600  0.12025200  0.26010200  1
  O  O60  1  0.96457400  0.88804700  0.27126700  1
  O  O61  1  0.46685900  0.13196100  0.26696500  1
  O  O62  1  0.50228400  0.89624400  0.27457100  1
  O  O63  1  0.68956100  0.45829600  0.34048400  1
  O  O64  1  0.31507300  0.51578500  0.34425600  1
  O  O65  1  0.04169900  0.31042600  0.36586600  1
  O  O66  1  0.68122000  0.04509000  0.37638800  1
  O  O67  1  0.68465400  0.73580700  0.38042800  1
  O  O68  1  0.29867400  0.00490400  0.38187600  1
  O  O69  1  0.03240800  0.63732300  0.41888300  1
  O  O70  1  0.95925100  0.87373900  0.45200900  1
  O  O71  1  0.99469600  0.13731100  0.46770200  1
  O  O72  1  0.27789900  0.31033400  0.48052200  1
  O  O73  1  0.90626400  0.37743700  0.49578400  1
  O  O74  1  0.40626400  0.62256300  0.50421600  1
  O  O75  1  0.77789900  0.68966600  0.51947800  1
  O  O76  1  0.49469600  0.86268900  0.53229800  1
  O  O77  1  0.45925100  0.12626100  0.54799100  1
  O  O78  1  0.53240800  0.36267700  0.58111700  1
  O  O79  1  0.79867400  0.99509600  0.61812400  1
  O  O80  1  0.18465400  0.26419300  0.61957200  1
  O  O81  1  0.18122000  0.95491000  0.62361200  1
  O  O82  1  0.54169900  0.68957400  0.63413400  1
  O  O83  1  0.81507300  0.48421500  0.65574400  1
  O  O84  1  0.18956100  0.54170400  0.65951600  1
  O  O85  1  0.00228400  0.10375600  0.72542900  1
  O  O86  1  0.96685900  0.86803900  0.73303500  1
  O  O87  1  0.46457400  0.11195300  0.72873300  1
  O  O88  1  0.52264600  0.87974800  0.73989800  1
  O  O89  1  0.02264600  0.37974800  0.76010200  1
  O  O90  1  0.96457400  0.61195300  0.77126700  1
  O  O91  1  0.46685900  0.36803900  0.76696500  1
  O  O92  1  0.50228400  0.60375600  0.77457100  1
  O  O93  1  0.68956100  0.04170400  0.84048400  1
  O  O94  1  0.31507300  0.98421500  0.84425600  1
  O  O95  1  0.04169900  0.18957400  0.86586600  1
  O  O96  1  0.68122000  0.45491000  0.87638800  1
  O  O97  1  0.68465400  0.76419300  0.88042800  1
  O  O98  1  0.29867400  0.49509600  0.88187600  1
  O  O99  1  0.03240800  0.86267700  0.91888300  1
  O  O100  1  0.95925100  0.62626100  0.95200900  1
  O  O101  1  0.99469600  0.36268900  0.96770200  1
  O  O102  1  0.27789900  0.18966600  0.98052200  1
  O  O103  1  0.90626400  0.12256300  0.99578400  1
