# generated using pymatgen
data_Cs3LiI4
_symmetry_space_group_name_H-M   'P 1'
_cell_length_a   9.36858600
_cell_length_b   5.20946100
_cell_length_c   17.44132924
_cell_angle_alpha   81.76421367
_cell_angle_beta   90.00000000
_cell_angle_gamma   90.00000000
_symmetry_Int_Tables_number   1
_chemical_formula_structural   Cs3LiI4
_chemical_formula_sum   'Cs6 Li2 I8'
_cell_volume   842.45025184
_cell_formula_units_Z   2
loop_
 _symmetry_equiv_pos_site_id
 _symmetry_equiv_pos_as_xyz
  1  'x, y, z'
loop_
 _atom_site_type_symbol
 _atom_site_label
 _atom_site_symmetry_multiplicity
 _atom_site_fract_x
 _atom_site_fract_y
 _atom_site_fract_z
 _atom_site_occupancy
  Cs  Cs0  1  0.75000000  0.62035700  0.73923700  1
  Cs  Cs1  1  0.75000000  0.28705300  0.45542500  1
  Cs  Cs2  1  0.00000000  0.50000000  0.00000000  1
  Cs  Cs3  1  0.25000000  0.37964300  0.26076300  1
  Cs  Cs4  1  0.25000000  0.71294700  0.54457500  1
  Cs  Cs5  1  0.50000000  0.50000000  0.00000000  1
  Li  Li6  1  0.25000000  0.12247900  0.73981100  1
  Li  Li7  1  0.75000000  0.87752100  0.26018900  1
  I  I8  1  0.75000000  0.04329300  0.90700900  1
  I  I9  1  0.00639100  0.16759500  0.63919200  1
  I  I10  1  0.75000000  0.41175300  0.18762200  1
  I  I11  1  0.99360900  0.83240500  0.36080800  1
  I  I12  1  0.49360900  0.16759500  0.63919200  1
  I  I13  1  0.50639100  0.83240500  0.36080800  1
  I  I14  1  0.25000000  0.95670700  0.09299100  1
  I  I15  1  0.25000000  0.58824700  0.81237800  1
