# generated using pymatgen
data_Li9Al3P8O29
_symmetry_space_group_name_H-M   'P 1'
_cell_length_a   9.67060336
_cell_length_b   9.67060336
_cell_length_c   13.64591800
_cell_angle_alpha   90.00000000
_cell_angle_beta   90.00000000
_cell_angle_gamma   119.99999565
_symmetry_Int_Tables_number   1
_chemical_formula_structural   Li9Al3P8O29
_chemical_formula_sum   'Li18 Al6 P16 O58'
_cell_volume   1105.19917093
_cell_formula_units_Z   2
loop_
 _symmetry_equiv_pos_site_id
 _symmetry_equiv_pos_as_xyz
  1  'x, y, z'
loop_
 _atom_site_type_symbol
 _atom_site_label
 _atom_site_symmetry_multiplicity
 _atom_site_fract_x
 _atom_site_fract_y
 _atom_site_fract_z
 _atom_site_occupancy
  Li  Li0  1  0.89882600  0.23712100  0.06423100  1
  Li  Li1  1  0.33333300  0.66666700  0.11872000  1
  Li  Li2  1  0.23712100  0.33829400  0.93576900  1
  Li  Li3  1  0.33333300  0.66666700  0.61872000  1
  Li  Li4  1  0.10117400  0.33829400  0.43576900  1
  Li  Li5  1  0.23712100  0.89882600  0.43576900  1
  Li  Li6  1  0.33829400  0.10117400  0.06423100  1
  Li  Li7  1  0.33829400  0.23712100  0.56423100  1
  Li  Li8  1  0.66666700  0.33333300  0.38128000  1
  Li  Li9  1  0.89882600  0.66170600  0.56423100  1
  Li  Li10  1  0.66666700  0.33333300  0.88128000  1
  Li  Li11  1  0.66170600  0.76287900  0.43576900  1
  Li  Li12  1  0.00000000  0.00000000  0.50000000  1
  Li  Li13  1  0.76287900  0.10117400  0.56423100  1
  Li  Li14  1  0.10117400  0.76287900  0.93576900  1
  Li  Li15  1  0.76287900  0.66170600  0.06423100  1
  Li  Li16  1  0.00000000  0.00000000  0.00000000  1
  Li  Li17  1  0.66170600  0.89882600  0.93576900  1
  Al  Al18  1  0.56547900  0.00000000  0.75000000  1
  Al  Al19  1  0.43452100  0.43452100  0.75000000  1
  Al  Al20  1  0.56547900  0.56547900  0.25000000  1
  Al  Al21  1  0.00000000  0.43452100  0.25000000  1
  Al  Al22  1  0.43452100  0.00000000  0.25000000  1
  Al  Al23  1  0.00000000  0.56547900  0.75000000  1
  P  P24  1  0.31847300  0.09210200  0.84273300  1
  P  P25  1  0.90789800  0.22637100  0.84273300  1
  P  P26  1  0.31847300  0.22637100  0.34273300  1
  P  P27  1  0.22637100  0.90789800  0.65726700  1
  P  P28  1  0.90789800  0.68152700  0.34273300  1
  P  P29  1  0.33333300  0.66666700  0.87061700  1
  P  P30  1  0.66666700  0.33333300  0.12938300  1
  P  P31  1  0.68152700  0.90789800  0.15726700  1
  P  P32  1  0.33333300  0.66666700  0.37061700  1
  P  P33  1  0.77362900  0.09210200  0.34273300  1
  P  P34  1  0.68152700  0.77362900  0.65726700  1
  P  P35  1  0.09210200  0.31847300  0.65726700  1
  P  P36  1  0.66666700  0.33333300  0.62938300  1
  P  P37  1  0.22637100  0.31847300  0.15726700  1
  P  P38  1  0.09210200  0.77362900  0.15726700  1
  P  P39  1  0.77362900  0.68152700  0.84273300  1
  O  O40  1  0.74059600  0.66201700  0.34067400  1
  O  O41  1  0.62139500  0.10259000  0.33013700  1
  O  O42  1  0.92142200  0.25940400  0.34067400  1
  O  O43  1  0.33798300  0.07857800  0.34067400  1
  O  O44  1  0.22540700  0.99853300  0.56632200  1
  O  O45  1  0.00146700  0.77459300  0.06632200  1
  O  O46  1  0.32915000  0.81634500  0.33196100  1
  O  O47  1  0.00146700  0.22687400  0.56632200  1
  O  O48  1  0.20785800  0.20785800  0.25000000  1
  O  O49  1  0.66666700  0.33333300  0.51803000  1
  O  O50  1  0.22687400  0.00146700  0.93367800  1
  O  O51  1  0.48719600  0.67085000  0.33196100  1
  O  O52  1  0.00000000  0.79214200  0.25000000  1
  O  O53  1  0.99853300  0.77312600  0.43367800  1
  O  O54  1  0.89741000  0.51880500  0.33013700  1
  O  O55  1  0.10259000  0.62139500  0.16986300  1
  O  O56  1  0.67085000  0.48719600  0.16803900  1
  O  O57  1  0.07857800  0.74059600  0.65932600  1
  O  O58  1  0.51280400  0.18365500  0.16803900  1
  O  O59  1  0.81634500  0.48719600  0.66803900  1
  O  O60  1  0.51880500  0.89741000  0.16986300  1
  O  O61  1  0.48719600  0.81634500  0.83196100  1
  O  O62  1  0.22540700  0.22687400  0.06632200  1
  O  O63  1  0.77312600  0.77459300  0.56632200  1
  O  O64  1  0.74059600  0.07857800  0.84067400  1
  O  O65  1  0.25940400  0.33798300  0.65932600  1
  O  O66  1  0.48119500  0.37860500  0.33013700  1
  O  O67  1  0.37860500  0.48119500  0.16986300  1
  O  O68  1  0.66201700  0.74059600  0.15932600  1
  O  O69  1  0.33333300  0.66666700  0.48197000  1
  O  O70  1  0.77312600  0.99853300  0.06632200  1
  O  O71  1  0.51880500  0.62139500  0.66986300  1
  O  O72  1  0.18365500  0.67085000  0.83196100  1
  O  O73  1  0.51280400  0.32915000  0.66803900  1
  O  O74  1  0.25940400  0.92142200  0.15932600  1
  O  O75  1  0.99853300  0.22540700  0.93367800  1
  O  O76  1  0.77459300  0.00146700  0.43367800  1
  O  O77  1  0.22687400  0.22540700  0.43367800  1
  O  O78  1  0.33333300  0.66666700  0.98197000  1
  O  O79  1  0.92142200  0.66201700  0.84067400  1
  O  O80  1  0.79214200  0.00000000  0.25000000  1
  O  O81  1  0.81634500  0.32915000  0.16803900  1
  O  O82  1  0.66201700  0.92142200  0.65932600  1
  O  O83  1  0.20785800  0.00000000  0.75000000  1
  O  O84  1  0.89741000  0.37860500  0.83013700  1
  O  O85  1  0.77459300  0.77312600  0.93367800  1
  O  O86  1  0.07857800  0.33798300  0.15932600  1
  O  O87  1  0.33798300  0.25940400  0.84067400  1
  O  O88  1  0.62139500  0.51880500  0.83013700  1
  O  O89  1  0.37860500  0.89741000  0.66986300  1
  O  O90  1  0.67085000  0.18365500  0.66803900  1
  O  O91  1  0.48119500  0.10259000  0.83013700  1
  O  O92  1  0.79214200  0.79214200  0.75000000  1
  O  O93  1  0.18365500  0.51280400  0.33196100  1
  O  O94  1  0.32915000  0.51280400  0.83196100  1
  O  O95  1  0.00000000  0.20785800  0.75000000  1
  O  O96  1  0.66666700  0.33333300  0.01803000  1
  O  O97  1  0.10259000  0.48119500  0.66986300  1
