# generated using pymatgen
data_Li2Ni(SO4)2
_symmetry_space_group_name_H-M   'P 1'
_cell_length_a   9.13962200
_cell_length_b   9.25861500
_cell_length_c   13.74112200
_cell_angle_alpha   90.00000000
_cell_angle_beta   90.00000000
_cell_angle_gamma   90.00000000
_symmetry_Int_Tables_number   1
_chemical_formula_structural   Li2Ni(SO4)2
_chemical_formula_sum   'Li16 Ni8 S16 O64'
_cell_volume   1162.77705997
_cell_formula_units_Z   8
loop_
 _symmetry_equiv_pos_site_id
 _symmetry_equiv_pos_as_xyz
  1  'x, y, z'
loop_
 _atom_site_type_symbol
 _atom_site_label
 _atom_site_symmetry_multiplicity
 _atom_site_fract_x
 _atom_site_fract_y
 _atom_site_fract_z
 _atom_site_occupancy
  Li  Li0  1  0.72025800  0.46649500  0.62666500  1
  Li  Li1  1  0.54443100  0.22566500  0.12779300  1
  Li  Li2  1  0.45556900  0.27433500  0.62779300  1
  Li  Li3  1  0.22025800  0.53350500  0.87333500  1
  Li  Li4  1  0.54443100  0.72566500  0.37220700  1
  Li  Li5  1  0.27974200  0.53350500  0.37333500  1
  Li  Li6  1  0.45556900  0.77433500  0.87220700  1
  Li  Li7  1  0.95556900  0.72566500  0.87220700  1
  Li  Li8  1  0.77974200  0.96649500  0.37333500  1
  Li  Li9  1  0.27974200  0.03350500  0.12666500  1
  Li  Li10  1  0.77974200  0.46649500  0.12666500  1
  Li  Li11  1  0.04443100  0.77433500  0.37220700  1
  Li  Li12  1  0.04443100  0.27433500  0.12779300  1
  Li  Li13  1  0.95556900  0.22566500  0.62779300  1
  Li  Li14  1  0.72025800  0.96649500  0.87333500  1
  Li  Li15  1  0.22025800  0.03350500  0.62666500  1
  Ni  Ni16  1  0.89663600  0.36191100  0.37795600  1
  Ni  Ni17  1  0.60336400  0.86191100  0.62204400  1
  Ni  Ni18  1  0.39663600  0.63808900  0.12204400  1
  Ni  Ni19  1  0.39663600  0.13808900  0.37795600  1
  Ni  Ni20  1  0.10336400  0.63808900  0.62204400  1
  Ni  Ni21  1  0.60336400  0.36191100  0.87795600  1
  Ni  Ni22  1  0.10336400  0.13808900  0.87795600  1
  Ni  Ni23  1  0.89663600  0.86191100  0.12204400  1
  S  S24  1  0.43066100  0.07493300  0.77307100  1
  S  S25  1  0.81294000  0.16071900  0.00867600  1
  S  S26  1  0.31294000  0.83928100  0.49132400  1
  S  S27  1  0.43066100  0.57493300  0.72692900  1
  S  S28  1  0.93066100  0.92506700  0.72692900  1
  S  S29  1  0.31294000  0.33928100  0.00867600  1
  S  S30  1  0.18706000  0.83928100  0.99132400  1
  S  S31  1  0.68706000  0.16071900  0.50867600  1
  S  S32  1  0.56933900  0.92506700  0.22692900  1
  S  S33  1  0.18706000  0.33928100  0.50867600  1
  S  S34  1  0.06933900  0.07493300  0.27307100  1
  S  S35  1  0.06933900  0.57493300  0.22692900  1
  S  S36  1  0.93066100  0.42506700  0.77307100  1
  S  S37  1  0.56933900  0.42506700  0.27307100  1
  S  S38  1  0.81294000  0.66071900  0.49132400  1
  S  S39  1  0.68706000  0.66071900  0.99132400  1
  O  O40  1  0.00209700  0.48195000  0.15213200  1
  O  O41  1  0.99790300  0.51805000  0.84786800  1
  O  O42  1  0.26722300  0.07408300  0.77786800  1
  O  O43  1  0.01143100  0.22533600  0.27826600  1
  O  O44  1  0.26722300  0.57408300  0.72213200  1
  O  O45  1  0.98856900  0.27466400  0.77826600  1
  O  O46  1  0.51143100  0.77466400  0.22173400  1
  O  O47  1  0.27168900  0.81056000  0.08212800  1
  O  O48  1  0.76722300  0.42591700  0.77786800  1
  O  O49  1  0.29910500  0.99826500  0.47722300  1
  O  O50  1  0.75784200  0.74263100  0.40625000  1
  O  O51  1  0.23277700  0.07408300  0.27786800  1
  O  O52  1  0.20089500  0.99826500  0.97722300  1
  O  O53  1  0.77168900  0.18944000  0.41787200  1
  O  O54  1  0.96897700  0.20424300  0.99448500  1
  O  O55  1  0.23277700  0.57408300  0.22213200  1
  O  O56  1  0.99790300  0.01805000  0.65213200  1
  O  O57  1  0.03102300  0.79575700  0.00551500  1
  O  O58  1  0.50209700  0.51805000  0.34786800  1
  O  O59  1  0.49790300  0.98195000  0.84786800  1
  O  O60  1  0.20089500  0.49826500  0.52277700  1
  O  O61  1  0.49790300  0.48195000  0.65213200  1
  O  O62  1  0.01143100  0.72533600  0.22173400  1
  O  O63  1  0.46332400  0.52333600  0.82891100  1
  O  O64  1  0.73277700  0.42591700  0.27786800  1
  O  O65  1  0.53102300  0.70424300  0.00551500  1
  O  O66  1  0.53667600  0.97666400  0.32891100  1
  O  O67  1  0.70089500  0.00173500  0.52277700  1
  O  O68  1  0.96897700  0.70424300  0.50551500  1
  O  O69  1  0.75784200  0.24263100  0.09375000  1
  O  O70  1  0.77168900  0.68944000  0.08212800  1
  O  O71  1  0.00209700  0.98195000  0.34786800  1
  O  O72  1  0.48856900  0.72533600  0.72173400  1
  O  O73  1  0.46332400  0.02333600  0.67108900  1
  O  O74  1  0.46897700  0.29575700  0.99448500  1
  O  O75  1  0.74215800  0.24263100  0.59375000  1
  O  O76  1  0.51143100  0.27466400  0.27826600  1
  O  O77  1  0.27168900  0.31056000  0.41787200  1
  O  O78  1  0.24215800  0.25736900  0.59375000  1
  O  O79  1  0.79910500  0.00173500  0.02277700  1
  O  O80  1  0.53102300  0.20424300  0.49448500  1
  O  O81  1  0.22831100  0.31056000  0.91787200  1
  O  O82  1  0.72831100  0.18944000  0.91787200  1
  O  O83  1  0.03667600  0.52333600  0.32891100  1
  O  O84  1  0.76722300  0.92591700  0.72213200  1
  O  O85  1  0.46897700  0.79575700  0.50551500  1
  O  O86  1  0.25784200  0.75736900  0.40625000  1
  O  O87  1  0.03102300  0.29575700  0.49448500  1
  O  O88  1  0.48856900  0.22533600  0.77826600  1
  O  O89  1  0.24215800  0.75736900  0.90625000  1
  O  O90  1  0.96332400  0.97666400  0.82891100  1
  O  O91  1  0.50209700  0.01805000  0.15213200  1
  O  O92  1  0.29910500  0.49826500  0.02277700  1
  O  O93  1  0.74215800  0.74263100  0.90625000  1
  O  O94  1  0.96332400  0.47666400  0.67108900  1
  O  O95  1  0.22831100  0.81056000  0.58212800  1
  O  O96  1  0.79910500  0.50173500  0.47722300  1
  O  O97  1  0.70089500  0.50173500  0.97722300  1
  O  O98  1  0.03667600  0.02333600  0.17108900  1
  O  O99  1  0.53667600  0.47666400  0.17108900  1
  O  O100  1  0.72831100  0.68944000  0.58212800  1
  O  O101  1  0.73277700  0.92591700  0.22213200  1
  O  O102  1  0.25784200  0.25736900  0.09375000  1
  O  O103  1  0.98856900  0.77466400  0.72173400  1
