# generated using pymatgen
data_Li5La3Nb2O12
_symmetry_space_group_name_H-M   'P 1'
_cell_length_a   11.36757762
_cell_length_b   11.36757762
_cell_length_c   11.36757762
_cell_angle_alpha   109.47122063
_cell_angle_beta   109.47122063
_cell_angle_gamma   109.47122063
_symmetry_Int_Tables_number   1
_chemical_formula_structural   Li5La3Nb2O12
_chemical_formula_sum   'Li20 La12 Nb8 O48'
_cell_volume   1130.78983142
_cell_formula_units_Z   4
loop_
 _symmetry_equiv_pos_site_id
 _symmetry_equiv_pos_as_xyz
  1  'x, y, z'
loop_
 _atom_site_type_symbol
 _atom_site_label
 _atom_site_symmetry_multiplicity
 _atom_site_fract_x
 _atom_site_fract_y
 _atom_site_fract_z
 _atom_site_occupancy
  Li  Li0  1  0.75000000  0.87500000  0.12500000  1
  Li  Li1  1  0.62500000  0.75000000  0.37500000  1
  Li  Li2  1  0.37500000  0.62500000  0.75000000  1
  Li  Li3  1  0.25000000  0.25000000  0.25000000  1
  Li  Li4  1  0.87500000  0.12500000  0.75000000  1
  Li  Li5  1  0.00000000  0.75000000  0.50000000  1
  Li  Li6  1  0.12500000  0.75000000  0.87500000  1
  Li  Li7  1  0.25000000  0.50000000  0.00000000  1
  Li  Li8  1  0.87500000  0.25000000  0.12500000  1
  Li  Li9  1  0.50000000  0.00000000  0.75000000  1
  Li  Li10  1  0.37500000  0.25000000  0.62500000  1
  Li  Li11  1  0.50000000  0.00000000  0.25000000  1
  Li  Li12  1  0.25000000  0.62500000  0.37500000  1
  Li  Li13  1  0.75000000  0.75000000  0.75000000  1
  Li  Li14  1  0.75000000  0.37500000  0.62500000  1
  Li  Li15  1  0.00000000  0.25000000  0.50000000  1
  Li  Li16  1  0.25000000  0.12500000  0.87500000  1
  Li  Li17  1  0.75000000  0.50000000  0.00000000  1
  Li  Li18  1  0.62500000  0.37500000  0.25000000  1
  Li  Li19  1  0.12500000  0.87500000  0.25000000  1
  La  La20  1  0.12500000  0.37500000  0.75000000  1
  La  La21  1  0.25000000  0.87500000  0.62500000  1
  La  La22  1  0.12500000  0.25000000  0.37500000  1
  La  La23  1  0.62500000  0.87500000  0.75000000  1
  La  La24  1  0.25000000  0.37500000  0.12500000  1
  La  La25  1  0.37500000  0.12500000  0.25000000  1
  La  La26  1  0.62500000  0.25000000  0.87500000  1
  La  La27  1  0.87500000  0.62500000  0.25000000  1
  La  La28  1  0.87500000  0.75000000  0.62500000  1
  La  La29  1  0.75000000  0.62500000  0.87500000  1
  La  La30  1  0.37500000  0.75000000  0.12500000  1
  La  La31  1  0.75000000  0.12500000  0.37500000  1
  Nb  Nb32  1  0.00000000  0.50000000  0.50000000  1
  Nb  Nb33  1  0.00000000  0.00000000  0.50000000  1
  Nb  Nb34  1  0.50000000  0.50000000  0.50000000  1
  Nb  Nb35  1  0.00000000  0.50000000  0.00000000  1
  Nb  Nb36  1  0.50000000  0.00000000  0.00000000  1
  Nb  Nb37  1  0.50000000  0.00000000  0.50000000  1
  Nb  Nb38  1  0.00000000  0.00000000  0.00000000  1
  Nb  Nb39  1  0.50000000  0.50000000  0.00000000  1
  O  O40  1  0.57567500  0.16587600  0.19962700  1
  O  O41  1  0.87604700  0.96624900  0.80037300  1
  O  O42  1  0.57567500  0.90979900  0.37604700  1
  O  O43  1  0.07567500  0.69962700  0.66587600  1
  O  O44  1  0.33412400  0.90979900  0.03375100  1
  O  O45  1  0.42432500  0.83412400  0.80037300  1
  O  O46  1  0.30037300  0.33412400  0.92432500  1
  O  O47  1  0.90979900  0.03375100  0.33412400  1
  O  O48  1  0.53375100  0.62395200  0.69962700  1
  O  O49  1  0.37604700  0.30037300  0.46624900  1
  O  O50  1  0.80037300  0.87604700  0.96624900  1
  O  O51  1  0.03375100  0.19962700  0.12395300  1
  O  O52  1  0.59020100  0.16587600  0.46624900  1
  O  O53  1  0.59020100  0.92432500  0.12395300  1
  O  O54  1  0.96624900  0.66587600  0.09020100  1
  O  O55  1  0.37604700  0.57567500  0.90979900  1
  O  O56  1  0.12395300  0.03375100  0.19962700  1
  O  O57  1  0.16587600  0.19962700  0.57567500  1
  O  O58  1  0.96624900  0.80037300  0.87604700  1
  O  O59  1  0.42432500  0.09020100  0.62395300  1
  O  O60  1  0.69962700  0.53375100  0.62395300  1
  O  O61  1  0.92432500  0.30037300  0.33412400  1
  O  O62  1  0.46624900  0.37604700  0.30037300  1
  O  O63  1  0.40979900  0.07567500  0.87604700  1
  O  O64  1  0.66587600  0.07567500  0.69962700  1
  O  O65  1  0.30037300  0.46624900  0.37604700  1
  O  O66  1  0.09020100  0.96624900  0.66587600  1
  O  O67  1  0.12395300  0.59020100  0.92432500  1
  O  O68  1  0.90979900  0.37604700  0.57567500  1
  O  O69  1  0.69962700  0.66587600  0.07567500  1
  O  O70  1  0.62395200  0.42432500  0.09020100  1
  O  O71  1  0.33412400  0.92432500  0.30037300  1
  O  O72  1  0.66587600  0.09020100  0.96624900  1
  O  O73  1  0.80037300  0.42432500  0.83412400  1
  O  O74  1  0.83412400  0.80037300  0.42432500  1
  O  O75  1  0.03375100  0.33412400  0.90979900  1
  O  O76  1  0.19962700  0.57567500  0.16587600  1
  O  O77  1  0.16587600  0.46624900  0.59020100  1
  O  O78  1  0.09020100  0.62395200  0.42432500  1
  O  O79  1  0.62395300  0.69962700  0.53375100  1
  O  O80  1  0.46624900  0.59020100  0.16587600  1
  O  O81  1  0.87604700  0.40979900  0.07567500  1
  O  O82  1  0.40979900  0.83412400  0.53375100  1
  O  O83  1  0.53375100  0.40979900  0.83412400  1
  O  O84  1  0.83412400  0.53375100  0.40979900  1
  O  O85  1  0.07567500  0.87604700  0.40979900  1
  O  O86  1  0.19962700  0.12395200  0.03375100  1
  O  O87  1  0.92432500  0.12395300  0.59020100  1
