# generated using pymatgen
data_Li4CO4
_symmetry_space_group_name_H-M   'P 1'
_cell_length_a   4.13955600
_cell_length_b   4.13955600
_cell_length_c   4.13955600
_cell_angle_alpha   90.00000000
_cell_angle_beta   90.00000000
_cell_angle_gamma   90.00000000
_symmetry_Int_Tables_number   1
_chemical_formula_structural   Li4CO4
_chemical_formula_sum   'Li4 C1 O4'
_cell_volume   70.93511650
_cell_formula_units_Z   1
loop_
 _symmetry_equiv_pos_site_id
 _symmetry_equiv_pos_as_xyz
  1  'x, y, z'
loop_
 _atom_site_type_symbol
 _atom_site_label
 _atom_site_symmetry_multiplicity
 _atom_site_fract_x
 _atom_site_fract_y
 _atom_site_fract_z
 _atom_site_occupancy
  Li  Li0  1  0.71911800  0.28088200  0.71911800  1
  Li  Li1  1  0.71911800  0.71911800  0.28088200  1
  Li  Li2  1  0.28088200  0.28088200  0.28088200  1
  Li  Li3  1  0.28088200  0.71911800  0.71911800  1
  C  C4  1  0.00000000  0.00000000  0.00000000  1
  O  O5  1  0.79938400  0.20061600  0.20061600  1
  O  O6  1  0.79938400  0.79938400  0.79938400  1
  O  O7  1  0.20061600  0.79938400  0.20061600  1
  O  O8  1  0.20061600  0.20061600  0.79938400  1
