# generated using pymatgen
data_Li9Ni23O32
_symmetry_space_group_name_H-M   'P 1'
_cell_length_a   5.86460864
_cell_length_b   5.88391973
_cell_length_c   23.55033075
_cell_angle_alpha   59.79227001
_cell_angle_beta   60.06226017
_cell_angle_gamma   60.20964023
_symmetry_Int_Tables_number   1
_chemical_formula_structural   Li9Ni23O32
_chemical_formula_sum   'Li9 Ni23 O32'
_cell_volume   574.89230360
_cell_formula_units_Z   1
loop_
 _symmetry_equiv_pos_site_id
 _symmetry_equiv_pos_as_xyz
  1  'x, y, z'
loop_
 _atom_site_type_symbol
 _atom_site_label
 _atom_site_symmetry_multiplicity
 _atom_site_fract_x
 _atom_site_fract_y
 _atom_site_fract_z
 _atom_site_occupancy
  Li  Li0  1  0.40121772  0.40970459  0.21876669  1
  Li  Li1  1  0.39349734  0.88922239  0.10053432  1
  Li  Li2  1  0.89038110  0.39105087  0.10250916  1
  Li  Li3  1  0.39388483  0.39908225  0.34696886  1
  Li  Li4  1  0.38635607  0.38987745  0.47777647  1
  Li  Li5  1  0.39706373  0.39150145  0.59867111  1
  Li  Li6  1  0.90014326  0.40140117  0.59536256  1
  Li  Li7  1  0.39740350  0.39551871  0.84814075  1
  Li  Li8  1  0.88794973  0.39609154  0.84857161  1
  Ni  Ni9  1  0.39275911  0.39201912  0.10026086  1
  Ni  Ni10  1  0.39778346  0.88807395  0.22330641  1
  Ni  Ni11  1  0.39686599  0.89378958  0.34868329  1
  Ni  Ni12  1  0.89174690  0.39528946  0.22330251  1
  Ni  Ni13  1  0.89375771  0.89212080  0.09916255  1
  Ni  Ni14  1  0.89802703  0.39563279  0.34804504  1
  Ni  Ni15  1  0.90252803  0.89549468  0.22166698  1
  Ni  Ni16  1  0.39203121  0.90024146  0.47379710  1
  Ni  Ni17  1  0.39467746  0.39609079  0.72329310  1
  Ni  Ni18  1  0.39503858  0.90056496  0.59737150  1
  Ni  Ni19  1  0.89255048  0.39545360  0.47577624  1
  Ni  Ni20  1  0.89931487  0.89049158  0.34873811  1
  Ni  Ni21  1  0.89158691  0.89864016  0.47384266  1
  Ni  Ni22  1  0.39365602  0.89523349  0.72377378  1
  Ni  Ni23  1  0.39306710  0.38657905  0.97424856  1
  Ni  Ni24  1  0.39346267  0.89592342  0.84829685  1
  Ni  Ni25  1  0.89477281  0.39624760  0.72310729  1
  Ni  Ni26  1  0.89304891  0.89539179  0.59811191  1
  Ni  Ni27  1  0.89518489  0.89569450  0.72323251  1
  Ni  Ni28  1  0.39442718  0.89282055  0.97371123  1
  Ni  Ni29  1  0.89739084  0.39278178  0.97244250  1
  Ni  Ni30  1  0.89353521  0.89921683  0.84874255  1
  Ni  Ni31  1  0.89001252  0.89016212  0.97579275  1
  O  O32  1  0.14902426  0.13425473  0.03229050  1
  O  O33  1  0.14899097  0.63714137  0.03590693  1
  O  O34  1  0.14686670  0.14443147  0.16387870  1
  O  O35  1  0.13651862  0.64184329  0.16053242  1
  O  O36  1  0.13378374  0.12675522  0.29026432  1
  O  O37  1  0.64438049  0.15046859  0.03569954  1
  O  O38  1  0.62525699  0.65427164  0.03104769  1
  O  O39  1  0.64383026  0.13714742  0.16133479  1
  O  O40  1  0.14152759  0.64541753  0.28492093  1
  O  O41  1  0.13597671  0.14044412  0.41233964  1
  O  O42  1  0.12639219  0.66362336  0.40796196  1
  O  O43  1  0.13992683  0.13846450  0.53725767  1
  O  O44  1  0.65058261  0.65056087  0.16248131  1
  O  O45  1  0.66905295  0.11919060  0.29050102  1
  O  O46  1  0.65212793  0.64859045  0.28599950  1
  O  O47  1  0.66618295  0.13097278  0.41464782  1
  O  O48  1  0.12598836  0.67668125  0.52951577  1
  O  O49  1  0.15938104  0.12689495  0.66554278  1
  O  O50  1  0.14475130  0.64656629  0.66107442  1
  O  O51  1  0.14112202  0.15245504  0.78662299  1
  O  O52  1  0.66177183  0.65800803  0.40735925  1
  O  O53  1  0.65074940  0.14115473  0.53595683  1
  O  O54  1  0.64741450  0.66285020  0.53214328  1
  O  O55  1  0.62790243  0.12472959  0.66660120  1
  O  O56  1  0.15628264  0.66548567  0.78206137  1
  O  O57  1  0.16114695  0.11584835  0.91725555  1
  O  O58  1  0.13972411  0.65049159  0.91254227  1
  O  O59  1  0.64439460  0.64006103  0.66124483  1
  O  O60  1  0.64728761  0.14347116  0.78551117  1
  O  O61  1  0.62988229  0.66464616  0.78151979  1
  O  O62  1  0.64732855  0.13431717  0.91428747  1
  O  O63  1  0.63679541  0.65282439  0.91205647  1
