# generated using pymatgen
data_Li3Fe2(PO4)3
_symmetry_space_group_name_H-M   'P 1'
_cell_length_a   8.44448538
_cell_length_b   8.44448538
_cell_length_c   8.67384066
_cell_angle_alpha   61.48212663
_cell_angle_beta   61.48212663
_cell_angle_gamma   63.10444139
_symmetry_Int_Tables_number   1
_chemical_formula_structural   Li3Fe2(PO4)3
_chemical_formula_sum   'Li6 Fe4 P6 O24'
_cell_volume   456.91745890
_cell_formula_units_Z   2
loop_
 _symmetry_equiv_pos_site_id
 _symmetry_equiv_pos_as_xyz
  1  'x, y, z'
loop_
 _atom_site_type_symbol
 _atom_site_label
 _atom_site_symmetry_multiplicity
 _atom_site_fract_x
 _atom_site_fract_y
 _atom_site_fract_z
 _atom_site_occupancy
  Li  Li0  1  0.23540700  0.16028100  0.35821500  1
  Li  Li1  1  0.16028100  0.23540700  0.85821500  1
  Li  Li2  1  0.00000000  0.50000000  0.50000000  1
  Li  Li3  1  0.83971900  0.76459300  0.14178500  1
  Li  Li4  1  0.50000000  0.00000000  0.00000000  1
  Li  Li5  1  0.76459300  0.83972000  0.64178500  1
  Fe  Fe6  1  0.63732600  0.14804000  0.14705900  1
  Fe  Fe7  1  0.14804000  0.63732600  0.64705900  1
  Fe  Fe8  1  0.85196000  0.36267400  0.35294100  1
  Fe  Fe9  1  0.36267400  0.85196000  0.85294100  1
  P  P10  1  0.25534200  0.44002300  0.03197400  1
  P  P11  1  0.95519800  0.04480200  0.75000000  1
  P  P12  1  0.44002300  0.25534200  0.53197400  1
  P  P13  1  0.55997700  0.74465800  0.46802600  1
  P  P14  1  0.04480200  0.95519800  0.25000000  1
  P  P15  1  0.74465800  0.55997700  0.96802600  1
  O  O16  1  0.12219300  0.01399700  0.80076700  1
  O  O17  1  0.01399700  0.12219300  0.30076700  1
  O  O18  1  0.09941200  0.43883300  0.22639400  1
  O  O19  1  0.40789800  0.24594100  0.06994000  1
  O  O20  1  0.18658000  0.44631200  0.89263400  1
  O  O21  1  0.76972400  0.05261500  0.91933200  1
  O  O22  1  0.32307600  0.61097600  0.95687100  1
  O  O23  1  0.43883300  0.09941200  0.72639400  1
  O  O24  1  0.24594100  0.40789800  0.56994000  1
  O  O25  1  0.44631200  0.18658000  0.39263400  1
  O  O26  1  0.38902400  0.67692400  0.54312900  1
  O  O27  1  0.05261500  0.76972400  0.41933200  1
  O  O28  1  0.94738500  0.23027600  0.58066800  1
  O  O29  1  0.61097600  0.32307600  0.45687100  1
  O  O30  1  0.55368800  0.81342000  0.60736600  1
  O  O31  1  0.75405900  0.59210200  0.43006000  1
  O  O32  1  0.56116700  0.90058800  0.27360600  1
  O  O33  1  0.67692400  0.38902400  0.04312900  1
  O  O34  1  0.23027600  0.94738500  0.08066800  1
  O  O35  1  0.81342000  0.55368800  0.10736600  1
  O  O36  1  0.59210200  0.75405900  0.93006000  1
  O  O37  1  0.90058800  0.56116700  0.77360600  1
  O  O38  1  0.98600300  0.87780700  0.69923300  1
  O  O39  1  0.87780700  0.98600300  0.19923300  1
