# generated using pymatgen
data_Li15Si4
_symmetry_space_group_name_H-M   'P 1'
_cell_length_a   9.15046599
_cell_length_b   9.15046599
_cell_length_c   9.15046599
_cell_angle_alpha   109.47122063
_cell_angle_beta   109.47122063
_cell_angle_gamma   109.47122063
_symmetry_Int_Tables_number   1
_chemical_formula_structural   Li15Si4
_chemical_formula_sum   'Li30 Si8'
_cell_volume   589.80403889
_cell_formula_units_Z   2
loop_
 _symmetry_equiv_pos_site_id
 _symmetry_equiv_pos_as_xyz
  1  'x, y, z'
loop_
 _atom_site_type_symbol
 _atom_site_label
 _atom_site_symmetry_multiplicity
 _atom_site_fract_x
 _atom_site_fract_y
 _atom_site_fract_z
 _atom_site_occupancy
  Li  Li0  1  0.34037000  0.80952900  0.72301600  1
  Li  Li1  1  0.12500000  0.75000000  0.87500000  1
  Li  Li2  1  0.72301600  0.34037000  0.80952900  1
  Li  Li3  1  0.61735400  0.77698400  0.58651300  1
  Li  Li4  1  0.03084100  0.91348700  0.69047100  1
  Li  Li5  1  0.08651300  0.27698400  0.11735400  1
  Li  Li6  1  0.91348700  0.69047100  0.03084100  1
  Li  Li7  1  0.27698400  0.11735400  0.08651300  1
  Li  Li8  1  0.19047100  0.41348700  0.53084100  1
  Li  Li9  1  0.77698400  0.58651300  0.61735400  1
  Li  Li10  1  0.69047100  0.03084100  0.91348700  1
  Li  Li11  1  0.53084100  0.19047100  0.41348700  1
  Li  Li12  1  0.62500000  0.37500000  0.25000000  1
  Li  Li13  1  0.46915900  0.15963000  0.88264600  1
  Li  Li14  1  0.87500000  0.12500000  0.75000000  1
  Li  Li15  1  0.96915900  0.38264600  0.65963000  1
  Li  Li16  1  0.41348700  0.53084100  0.19047100  1
  Li  Li17  1  0.11735400  0.08651300  0.27698400  1
  Li  Li18  1  0.30952900  0.84037000  0.22301600  1
  Li  Li19  1  0.75000000  0.87500000  0.12500000  1
  Li  Li20  1  0.88264600  0.46915900  0.15963000  1
  Li  Li21  1  0.58651300  0.61735400  0.77698400  1
  Li  Li22  1  0.38264600  0.65963000  0.96915900  1
  Li  Li23  1  0.80952900  0.72301600  0.34037000  1
  Li  Li24  1  0.65963000  0.96915900  0.38264600  1
  Li  Li25  1  0.15963000  0.88264600  0.46915900  1
  Li  Li26  1  0.22301600  0.30952900  0.84037000  1
  Li  Li27  1  0.37500000  0.25000000  0.62500000  1
  Li  Li28  1  0.84037000  0.22301600  0.30952900  1
  Li  Li29  1  0.25000000  0.62500000  0.37500000  1
  Si  Si30  1  0.50000000  0.00000000  0.58485600  1
  Si  Si31  1  0.58485600  0.50000000  0.00000000  1
  Si  Si32  1  0.50000000  0.00000000  0.08485600  1
  Si  Si33  1  0.00000000  0.08485600  0.50000000  1
  Si  Si34  1  0.00000000  0.58485600  0.50000000  1
  Si  Si35  1  0.08485600  0.50000000  0.00000000  1
  Si  Si36  1  0.41514400  0.41514400  0.41514400  1
  Si  Si37  1  0.91514400  0.91514400  0.91514400  1
