# generated using pymatgen
data_Li6ZrBeF12
_symmetry_space_group_name_H-M   'P 1'
_cell_length_a   10.53302016
_cell_length_b   10.53302016
_cell_length_c   10.53302016
_cell_angle_alpha   143.02084813
_cell_angle_beta   143.02084813
_cell_angle_gamma   53.29401630
_symmetry_Int_Tables_number   1
_chemical_formula_structural   Li6ZrBeF12
_chemical_formula_sum   'Li12 Zr2 Be2 F24'
_cell_volume   420.17772196
_cell_formula_units_Z   2
loop_
 _symmetry_equiv_pos_site_id
 _symmetry_equiv_pos_as_xyz
  1  'x, y, z'
loop_
 _atom_site_type_symbol
 _atom_site_label
 _atom_site_symmetry_multiplicity
 _atom_site_fract_x
 _atom_site_fract_y
 _atom_site_fract_z
 _atom_site_occupancy
  Li  Li0  1  0.97815200  0.47815200  0.50000000  1
  Li  Li1  1  0.87500000  0.35858500  0.98358500  1
  Li  Li2  1  0.52184800  0.02184800  0.50000000  1
  Li  Li3  1  0.37500000  0.89141500  0.01641500  1
  Li  Li4  1  0.64141500  0.12500000  0.01641500  1
  Li  Li5  1  0.37500000  0.35858500  0.48358500  1
  Li  Li6  1  0.64141500  0.62500000  0.51641500  1
  Li  Li7  1  0.10858500  0.62500000  0.98358500  1
  Li  Li8  1  0.87500000  0.89141500  0.51641500  1
  Li  Li9  1  0.10858500  0.12500000  0.48358500  1
  Li  Li10  1  0.22815200  0.22815200  0.00000000  1
  Li  Li11  1  0.77184800  0.77184800  0.00000000  1
  Zr  Zr12  1  0.25000000  0.75000000  0.50000000  1
  Zr  Zr13  1  0.50000000  0.50000000  0.00000000  1
  Be  Be14  1  0.00000000  0.00000000  0.00000000  1
  Be  Be15  1  0.75000000  0.25000000  0.50000000  1
  F  F16  1  0.94972400  0.75918600  0.80946200  1
  F  F17  1  0.24081400  0.05027600  0.19053800  1
  F  F18  1  0.89026100  0.19972400  0.69053800  1
  F  F19  1  0.45294100  0.16870700  0.71576600  1
  F  F20  1  0.64502400  0.41555700  0.22946700  1
  F  F21  1  0.56391100  0.83444300  0.72946700  1
  F  F22  1  0.58444300  0.81391100  0.22946700  1
  F  F23  1  0.16555700  0.43608900  0.27053300  1
  F  F24  1  0.58444300  0.35497600  0.77053300  1
  F  F25  1  0.29705900  0.08129300  0.78423400  1
  F  F26  1  0.16555700  0.89502400  0.72946700  1
  F  F27  1  0.45294100  0.73717600  0.28423400  1
  F  F28  1  0.85973900  0.05027600  0.80946200  1
  F  F29  1  0.80027600  0.10973900  0.30946200  1
  F  F30  1  0.29705900  0.51282400  0.21576600  1
  F  F31  1  0.50918600  0.19972400  0.30946200  1
  F  F32  1  0.80027600  0.49081400  0.69053800  1
  F  F33  1  0.94972400  0.14026100  0.19053800  1
  F  F34  1  0.18608900  0.41555700  0.77053300  1
  F  F35  1  0.10497600  0.83444300  0.27053300  1
  F  F36  1  0.83129300  0.54705900  0.28423400  1
  F  F37  1  0.26282400  0.54705900  0.71576600  1
  F  F38  1  0.48717600  0.70294100  0.78423400  1
  F  F39  1  0.91870700  0.70294100  0.21576600  1
