# generated using pymatgen
data_Li11La12Fe3O28
_symmetry_space_group_name_H-M   'P 1'
_cell_length_a   13.30443900
_cell_length_b   13.30443900
_cell_length_c   7.53197400
_cell_angle_alpha   90.00000000
_cell_angle_beta   90.00000000
_cell_angle_gamma   90.00000000
_symmetry_Int_Tables_number   1
_chemical_formula_structural   Li11La12Fe3O28
_chemical_formula_sum   'Li22 La24 Fe6 O56'
_cell_volume   1333.22038518
_cell_formula_units_Z   2
loop_
 _symmetry_equiv_pos_site_id
 _symmetry_equiv_pos_as_xyz
  1  'x, y, z'
loop_
 _atom_site_type_symbol
 _atom_site_label
 _atom_site_symmetry_multiplicity
 _atom_site_fract_x
 _atom_site_fract_y
 _atom_site_fract_z
 _atom_site_occupancy
  Li  Li0  1  0.37904900  0.12095100  0.50000000  1
  Li  Li1  1  0.09785800  0.59785800  0.15720400  1
  Li  Li2  1  0.90214200  0.40214200  0.84279600  1
  Li  Li3  1  0.57671000  0.07671000  0.34977600  1
  Li  Li4  1  0.07671000  0.42329000  0.65022400  1
  Li  Li5  1  0.62095100  0.87904900  0.50000000  1
  Li  Li6  1  0.59785800  0.90214200  0.84279600  1
  Li  Li7  1  0.92329000  0.57671000  0.34977600  1
  Li  Li8  1  0.00000000  0.00000000  0.50000000  1
  Li  Li9  1  0.92329000  0.57671000  0.65022400  1
  Li  Li10  1  0.40214200  0.09785800  0.15720400  1
  Li  Li11  1  0.57671000  0.07671000  0.65022400  1
  Li  Li12  1  0.09785800  0.59785800  0.84279600  1
  Li  Li13  1  0.50000000  0.50000000  0.50000000  1
  Li  Li14  1  0.42329000  0.92329000  0.65022400  1
  Li  Li15  1  0.40214200  0.09785800  0.84279600  1
  Li  Li16  1  0.59785800  0.90214200  0.15720400  1
  Li  Li17  1  0.07671000  0.42329000  0.34977600  1
  Li  Li18  1  0.90214200  0.40214200  0.15720400  1
  Li  Li19  1  0.12095100  0.62095100  0.50000000  1
  Li  Li20  1  0.42329000  0.92329000  0.34977600  1
  Li  Li21  1  0.87904900  0.37904900  0.50000000  1
  La  La22  1  0.19968500  0.00916000  0.25968400  1
  La  La23  1  0.50916000  0.69968500  0.25968400  1
  La  La24  1  0.77820400  0.72179600  0.50000000  1
  La  La25  1  0.00916000  0.80031500  0.74031600  1
  La  La26  1  0.19968500  0.00916000  0.74031600  1
  La  La27  1  0.99084000  0.19968500  0.74031600  1
  La  La28  1  0.30031500  0.50916000  0.25968400  1
  La  La29  1  0.49084000  0.30031500  0.25968400  1
  La  La30  1  0.80031500  0.99084000  0.74031600  1
  La  La31  1  0.74065900  0.75934100  0.00000000  1
  La  La32  1  0.75934100  0.25934100  0.00000000  1
  La  La33  1  0.25934100  0.24065900  0.00000000  1
  La  La34  1  0.69968500  0.49084000  0.74031600  1
  La  La35  1  0.27820400  0.77820400  0.50000000  1
  La  La36  1  0.99084000  0.19968500  0.25968400  1
  La  La37  1  0.72179600  0.22179600  0.50000000  1
  La  La38  1  0.69968500  0.49084000  0.25968400  1
  La  La39  1  0.50916000  0.69968500  0.74031600  1
  La  La40  1  0.24065900  0.74065900  0.00000000  1
  La  La41  1  0.49084000  0.30031500  0.74031600  1
  La  La42  1  0.22179600  0.27820400  0.50000000  1
  La  La43  1  0.30031500  0.50916000  0.74031600  1
  La  La44  1  0.80031500  0.99084000  0.25968400  1
  La  La45  1  0.00916000  0.80031500  0.25968400  1
  Fe  Fe46  1  0.41417900  0.91417900  0.00000000  1
  Fe  Fe47  1  0.91417900  0.58582100  0.00000000  1
  Fe  Fe48  1  0.08582100  0.41417900  0.00000000  1
  Fe  Fe49  1  0.00000000  0.00000000  0.00000000  1
  Fe  Fe50  1  0.58582100  0.08582100  0.00000000  1
  Fe  Fe51  1  0.50000000  0.50000000  0.00000000  1
  O  O52  1  0.10815900  0.12061800  0.00000000  1
  O  O53  1  0.62210600  0.62075100  0.50000000  1
  O  O54  1  0.68345100  0.81654900  0.71232000  1
  O  O55  1  0.51652900  0.18108400  0.50000000  1
  O  O56  1  0.00000000  0.00000000  0.74767200  1
  O  O57  1  0.01652900  0.31891600  0.50000000  1
  O  O58  1  0.68345100  0.81654900  0.28768000  1
  O  O59  1  0.68993700  0.97058300  0.00000000  1
  O  O60  1  0.02941700  0.68993700  0.00000000  1
  O  O61  1  0.62061800  0.60815900  0.00000000  1
  O  O62  1  0.50000000  0.00000000  0.18733200  1
  O  O63  1  0.15889900  0.34110100  0.80285700  1
  O  O64  1  0.00000000  0.50000000  0.18733200  1
  O  O65  1  0.60815900  0.37938200  0.00000000  1
  O  O66  1  0.62075100  0.37789400  0.50000000  1
  O  O67  1  0.84110100  0.65889900  0.19714300  1
  O  O68  1  0.47058300  0.18993700  0.00000000  1
  O  O69  1  0.39184100  0.62061800  0.00000000  1
  O  O70  1  0.48347100  0.81891600  0.50000000  1
  O  O71  1  0.31891600  0.98347100  0.50000000  1
  O  O72  1  0.12210600  0.87924900  0.50000000  1
  O  O73  1  0.18108400  0.48347100  0.50000000  1
  O  O74  1  0.65889900  0.15889900  0.80285700  1
  O  O75  1  0.34110100  0.84110100  0.19714300  1
  O  O76  1  0.31654900  0.18345100  0.28768000  1
  O  O77  1  0.18345100  0.68345100  0.71232000  1
  O  O78  1  0.31654900  0.18345100  0.71232000  1
  O  O79  1  0.81654900  0.31654900  0.28768000  1
  O  O80  1  0.97058300  0.31006300  0.00000000  1
  O  O81  1  0.81654900  0.31654900  0.71232000  1
  O  O82  1  0.87789400  0.12075100  0.50000000  1
  O  O83  1  0.98347100  0.68108400  0.50000000  1
  O  O84  1  0.65889900  0.15889900  0.19714300  1
  O  O85  1  0.50000000  0.50000000  0.74767200  1
  O  O86  1  0.37938200  0.39184100  0.00000000  1
  O  O87  1  0.00000000  0.00000000  0.25232800  1
  O  O88  1  0.18993700  0.52941700  0.00000000  1
  O  O89  1  0.68108400  0.01652900  0.50000000  1
  O  O90  1  0.89184100  0.87938200  0.00000000  1
  O  O91  1  0.12075100  0.12210600  0.50000000  1
  O  O92  1  0.34110100  0.84110100  0.80285700  1
  O  O93  1  0.00000000  0.50000000  0.81266800  1
  O  O94  1  0.31006300  0.02941700  0.00000000  1
  O  O95  1  0.37789400  0.37924900  0.50000000  1
  O  O96  1  0.50000000  0.50000000  0.25232800  1
  O  O97  1  0.15889900  0.34110100  0.19714300  1
  O  O98  1  0.87924900  0.87789400  0.50000000  1
  O  O99  1  0.84110100  0.65889900  0.80285700  1
  O  O100  1  0.52941700  0.81006300  0.00000000  1
  O  O101  1  0.81891600  0.51652900  0.50000000  1
  O  O102  1  0.12061800  0.89184100  0.00000000  1
  O  O103  1  0.37924900  0.62210600  0.50000000  1
  O  O104  1  0.87938200  0.10815900  0.00000000  1
  O  O105  1  0.18345100  0.68345100  0.28768000  1
  O  O106  1  0.81006300  0.47058300  0.00000000  1
  O  O107  1  0.50000000  0.00000000  0.81266800  1
