# generated using pymatgen
data_LiCoSiO4
_symmetry_space_group_name_H-M   'P 1'
_cell_length_a   5.08045300
_cell_length_b   6.65106600
_cell_length_c   10.39988500
_cell_angle_alpha   90.00000000
_cell_angle_beta   90.00000000
_cell_angle_gamma   90.00000000
_symmetry_Int_Tables_number   1
_chemical_formula_structural   LiCoSiO4
_chemical_formula_sum   'Li4 Co4 Si4 O16'
_cell_volume   351.41656751
_cell_formula_units_Z   4
loop_
 _symmetry_equiv_pos_site_id
 _symmetry_equiv_pos_as_xyz
  1  'x, y, z'
loop_
 _atom_site_type_symbol
 _atom_site_label
 _atom_site_symmetry_multiplicity
 _atom_site_fract_x
 _atom_site_fract_y
 _atom_site_fract_z
 _atom_site_occupancy
  Li  Li0  1  0.75911700  0.00967300  0.15468800  1
  Li  Li1  1  0.75911700  0.49032700  0.65468800  1
  Li  Li2  1  0.25911700  0.50967300  0.34531200  1
  Li  Li3  1  0.25911700  0.99032700  0.84531200  1
  Co  Co4  1  0.26170600  0.01340500  0.33170300  1
  Co  Co5  1  0.26170600  0.48659500  0.83170300  1
  Co  Co6  1  0.76170600  0.51340500  0.16829700  1
  Co  Co7  1  0.76170600  0.98659500  0.66829700  1
  Si  Si8  1  0.26254200  0.23304400  0.59377200  1
  Si  Si9  1  0.26254200  0.26695600  0.09377200  1
  Si  Si10  1  0.76254200  0.73304400  0.90622800  1
  Si  Si11  1  0.76254200  0.76695600  0.40622800  1
  O  O12  1  0.12292500  0.03861400  0.66455500  1
  O  O13  1  0.14924600  0.06023100  0.16123700  1
  O  O14  1  0.21046400  0.26162600  0.93783400  1
  O  O15  1  0.58177300  0.22144100  0.62359300  1
  O  O16  1  0.58177300  0.27855900  0.12359300  1
  O  O17  1  0.21046400  0.23837400  0.43783400  1
  O  O18  1  0.14924600  0.43976900  0.66123700  1
  O  O19  1  0.12292500  0.46138600  0.16455500  1
  O  O20  1  0.62292500  0.53861400  0.83544500  1
  O  O21  1  0.64924600  0.56023100  0.33876300  1
  O  O22  1  0.71046400  0.76162600  0.56216600  1
  O  O23  1  0.08177300  0.72144100  0.87640700  1
  O  O24  1  0.08177300  0.77855900  0.37640700  1
  O  O25  1  0.71046400  0.73837400  0.06216600  1
  O  O26  1  0.64924600  0.93976900  0.83876300  1
  O  O27  1  0.62292500  0.96138600  0.33544500  1
