# generated using pymatgen
data_LiH4SNO4
_symmetry_space_group_name_H-M   'P 1'
_cell_length_a   5.30718300
_cell_length_b   8.88744400
_cell_length_c   9.30868700
_cell_angle_alpha   90.00000000
_cell_angle_beta   90.00000000
_cell_angle_gamma   90.00000000
_symmetry_Int_Tables_number   1
_chemical_formula_structural   LiH4SNO4
_chemical_formula_sum   'Li4 H16 S4 N4 O16'
_cell_volume   439.06555517
_cell_formula_units_Z   4
loop_
 _symmetry_equiv_pos_site_id
 _symmetry_equiv_pos_as_xyz
  1  'x, y, z'
loop_
 _atom_site_type_symbol
 _atom_site_label
 _atom_site_symmetry_multiplicity
 _atom_site_fract_x
 _atom_site_fract_y
 _atom_site_fract_z
 _atom_site_occupancy
  Li  Li0  1  0.26224600  0.82103600  0.41329200  1
  Li  Li1  1  0.26224600  0.32103600  0.08670800  1
  Li  Li2  1  0.76224600  0.17896400  0.58670800  1
  Li  Li3  1  0.76224600  0.67896400  0.91329200  1
  H  H4  1  0.71281600  0.59621700  0.34810100  1
  H  H5  1  0.93078900  0.97939400  0.23023700  1
  H  H6  1  0.93078900  0.47939400  0.26976300  1
  H  H7  1  0.71281600  0.09621700  0.15189900  1
  H  H8  1  0.21281600  0.90378300  0.84810100  1
  H  H9  1  0.16293700  0.09363400  0.83906400  1
  H  H10  1  0.21281600  0.40378300  0.65189900  1
  H  H11  1  0.66293700  0.90636600  0.16093600  1
  H  H12  1  0.15281600  0.48757000  0.81116400  1
  H  H13  1  0.15281600  0.98757000  0.68883600  1
  H  H14  1  0.66293700  0.40636600  0.33906400  1
  H  H15  1  0.65281600  0.01243000  0.31116400  1
  H  H16  1  0.16293700  0.59363400  0.66093600  1
  H  H17  1  0.65281600  0.51243000  0.18883600  1
  H  H18  1  0.43078900  0.52060600  0.73023700  1
  H  H19  1  0.43078900  0.02060600  0.76976300  1
  S  S20  1  0.26116200  0.70577800  0.08427000  1
  S  S21  1  0.76116200  0.29422200  0.91573000  1
  S  S22  1  0.76116200  0.79422200  0.58427000  1
  S  S23  1  0.26116200  0.20577800  0.41573000  1
  N  N24  1  0.24176900  0.50074400  0.71371500  1
  N  N25  1  0.74176900  0.49925600  0.28628500  1
  N  N26  1  0.24176900  0.00074400  0.78628500  1
  N  N27  1  0.74176900  0.99925600  0.21371500  1
  O  O28  1  0.66094700  0.22408100  0.78310900  1
  O  O29  1  0.25737800  0.03960500  0.40214200  1
  O  O30  1  0.52733500  0.75713800  0.05961300  1
  O  O31  1  0.60400700  0.74732600  0.45805300  1
  O  O32  1  0.10400700  0.25267400  0.54194700  1
  O  O33  1  0.02733500  0.74286200  0.55961300  1
  O  O34  1  0.60400700  0.24732600  0.04194700  1
  O  O35  1  0.16094700  0.77591900  0.21689100  1
  O  O36  1  0.75737800  0.96039500  0.59785800  1
  O  O37  1  0.75737800  0.46039500  0.90214200  1
  O  O38  1  0.10400700  0.75267400  0.95805300  1
  O  O39  1  0.02733500  0.24286200  0.94038700  1
  O  O40  1  0.16094700  0.27591900  0.28310900  1
  O  O41  1  0.66094700  0.72408100  0.71689100  1
  O  O42  1  0.25737800  0.53960500  0.09785800  1
  O  O43  1  0.52733500  0.25713800  0.44038700  1
