# generated using pymatgen
data_Li6V3P8O29
_symmetry_space_group_name_H-M   'P 1'
_cell_length_a   9.81949787
_cell_length_b   9.81949787
_cell_length_c   13.99994835
_cell_angle_alpha   89.17341269
_cell_angle_beta   89.17341269
_cell_angle_gamma   60.29606834
_symmetry_Int_Tables_number   1
_chemical_formula_structural   Li6V3P8O29
_chemical_formula_sum   'Li12 V6 P16 O58'
_cell_volume   1172.36577522
_cell_formula_units_Z   2
loop_
 _symmetry_equiv_pos_site_id
 _symmetry_equiv_pos_as_xyz
  1  'x, y, z'
loop_
 _atom_site_type_symbol
 _atom_site_label
 _atom_site_symmetry_multiplicity
 _atom_site_fract_x
 _atom_site_fract_y
 _atom_site_fract_z
 _atom_site_occupancy
  Li  Li0  1  0.08188100  0.69423800  0.43873500  1
  Li  Li1  1  0.34424900  0.33251100  0.61316800  1
  Li  Li2  1  0.33251100  0.34424900  0.11316800  1
  Li  Li3  1  0.69423800  0.08188100  0.93873500  1
  Li  Li4  1  0.77515900  0.91136400  0.56112500  1
  Li  Li5  1  0.08643200  0.22419500  0.93666800  1
  Li  Li6  1  0.91136400  0.77515900  0.06112500  1
  Li  Li7  1  0.22419500  0.08643200  0.43666800  1
  Li  Li8  1  0.32220300  0.90753600  0.05455800  1
  Li  Li9  1  0.32936100  0.77046700  0.56203700  1
  Li  Li10  1  0.90753600  0.32220300  0.55455800  1
  Li  Li11  1  0.77046700  0.32936100  0.06203700  1
  V  V12  1  0.56458500  0.43429700  0.25335100  1
  V  V13  1  0.57022100  0.99721300  0.75099600  1
  V  V14  1  0.43387700  0.99830200  0.24934900  1
  V  V15  1  0.99721300  0.57022100  0.25099600  1
  V  V16  1  0.99830200  0.43387700  0.74934900  1
  V  V17  1  0.43429700  0.56458500  0.75335100  1
  P  P18  1  0.22905500  0.68524100  0.16187700  1
  P  P19  1  0.09249900  0.67887200  0.65935800  1
  P  P20  1  0.68524100  0.22905500  0.66187700  1
  P  P21  1  0.33360800  0.32868800  0.87245300  1
  P  P22  1  0.32868800  0.33360800  0.37245300  1
  P  P23  1  0.67887200  0.09249900  0.15935800  1
  P  P24  1  0.76412300  0.91337400  0.34366100  1
  P  P25  1  0.09312800  0.23254000  0.15543600  1
  P  P26  1  0.91337400  0.76412300  0.84366100  1
  P  P27  1  0.23254000  0.09312800  0.65543600  1
  P  P28  1  0.31597000  0.91121000  0.83849800  1
  P  P29  1  0.66412100  0.67049100  0.12699900  1
  P  P30  1  0.67049100  0.66412100  0.62699900  1
  P  P31  1  0.31969200  0.76474800  0.34604500  1
  P  P32  1  0.91121000  0.31597000  0.33849800  1
  P  P33  1  0.76474800  0.31969200  0.84604500  1
  O  O34  1  0.20461000  0.77577000  0.26176400  1
  O  O35  1  0.24659400  0.75239900  0.43880400  1
  O  O36  1  0.25487600  0.66652800  0.65663200  1
  O  O37  1  0.00558700  0.78263400  0.75154800  1
  O  O38  1  0.37374900  0.51820900  0.17124900  1
  O  O39  1  0.08133800  0.66346400  0.16034900  1
  O  O40  1  0.33609200  0.47479200  0.82609200  1
  O  O41  1  0.51820900  0.37374900  0.67124900  1
  O  O42  1  0.75239900  0.24659400  0.93880400  1
  O  O43  1  0.77577000  0.20461000  0.76176400  1
  O  O44  1  0.66652800  0.25487500  0.15663200  1
  O  O45  1  0.17998600  0.48746200  0.33711300  1
  O  O46  1  0.11788800  0.51021200  0.67584300  1
  O  O47  1  0.47479200  0.33609200  0.32609200  1
  O  O48  1  0.33083700  0.33167700  0.97941800  1
  O  O49  1  0.33167700  0.33083700  0.47941800  1
  O  O50  1  0.48746200  0.17998600  0.83711300  1
  O  O51  1  0.11850800  0.37360900  0.17387800  1
  O  O52  1  0.18435300  0.32667100  0.83368500  1
  O  O53  1  0.66346400  0.08133800  0.66034900  1
  O  O54  1  0.78263400  0.00558700  0.25154800  1
  O  O55  1  0.76074200  0.99100200  0.43452900  1
  O  O56  1  0.75576500  0.99811000  0.07124600  1
  O  O57  1  0.51021200  0.11788800  0.17584300  1
  O  O58  1  0.32667100  0.18435300  0.33368500  1
  O  O59  1  0.37360900  0.11850800  0.67387800  1
  O  O60  1  0.08208600  0.25431600  0.65377200  1
  O  O61  1  0.74886000  0.91415900  0.83714800  1
  O  O62  1  0.99811000  0.75576500  0.57124600  1
  O  O63  1  0.99100200  0.76074200  0.93452900  1
  O  O64  1  0.00273200  0.24349500  0.42775300  1
  O  O65  1  0.00457700  0.21024300  0.24736700  1
  O  O66  1  0.61563900  0.90110500  0.32637300  1
  O  O67  1  0.91415900  0.74886000  0.33714800  1
  O  O68  1  0.25431600  0.08208600  0.15377200  1
  O  O69  1  0.67328400  0.81168600  0.66395300  1
  O  O70  1  0.47685900  0.90338900  0.81780400  1
  O  O71  1  0.24349500  0.00273200  0.92775300  1
  O  O72  1  0.25190400  0.99819500  0.56761800  1
  O  O73  1  0.21024300  0.00457700  0.74736700  1
  O  O74  1  0.32679700  0.91802400  0.33982600  1
  O  O75  1  0.81168600  0.67328400  0.16395300  1
  O  O76  1  0.51343800  0.82066800  0.17089600  1
  O  O77  1  0.90110500  0.61563900  0.82637300  1
  O  O78  1  0.65284600  0.67731700  0.02091300  1
  O  O79  1  0.67731700  0.65284600  0.52091300  1
  O  O80  1  0.90338900  0.47685900  0.31780400  1
  O  O81  1  0.52009300  0.66301200  0.67006500  1
  O  O82  1  0.33545100  0.74853600  0.83701700  1
  O  O83  1  0.82066800  0.51343800  0.67089600  1
  O  O84  1  0.23332400  0.78118900  0.08081800  1
  O  O85  1  0.48146800  0.62134200  0.32679500  1
  O  O86  1  0.66301200  0.52009300  0.17006500  1
  O  O87  1  0.62134200  0.48146800  0.82679500  1
  O  O88  1  0.91802400  0.32679700  0.83982600  1
  O  O89  1  0.99819500  0.25190400  0.06761800  1
  O  O90  1  0.74853600  0.33545100  0.33701700  1
  O  O91  1  0.78118900  0.23332400  0.58081800  1
