# generated using pymatgen
data_Na2LiAlP2H2O9
_symmetry_space_group_name_H-M   'P 1'
_cell_length_a   7.03186700
_cell_length_b   14.20860900
_cell_length_c   14.24731400
_cell_angle_alpha   90.00000000
_cell_angle_beta   90.00000000
_cell_angle_gamma   90.00000000
_symmetry_Int_Tables_number   1
_chemical_formula_structural   Na2LiAlP2H2O9
_chemical_formula_sum   'Na16 Li8 Al8 P16 H16 O72'
_cell_volume   1423.49257814
_cell_formula_units_Z   8
loop_
 _symmetry_equiv_pos_site_id
 _symmetry_equiv_pos_as_xyz
  1  'x, y, z'
loop_
 _atom_site_type_symbol
 _atom_site_label
 _atom_site_symmetry_multiplicity
 _atom_site_fract_x
 _atom_site_fract_y
 _atom_site_fract_z
 _atom_site_occupancy
  Na  Na0  1  0.95873300  0.00000000  0.25000000  1
  Na  Na1  1  0.50000000  0.50000000  0.00000000  1
  Na  Na2  1  0.00000000  0.25000000  0.75359300  1
  Na  Na3  1  0.50000000  0.00000000  0.50000000  1
  Na  Na4  1  0.04126700  0.50000000  0.25000000  1
  Na  Na5  1  0.00000000  0.75000000  0.24640700  1
  Na  Na6  1  0.04126700  0.00000000  0.75000000  1
  Na  Na7  1  0.50000000  0.00000000  0.00000000  1
  Na  Na8  1  0.50000000  0.25000000  0.47928700  1
  Na  Na9  1  0.50000000  0.75000000  0.02071300  1
  Na  Na10  1  0.50000000  0.75000000  0.52071300  1
  Na  Na11  1  0.00000000  0.75000000  0.74640700  1
  Na  Na12  1  0.00000000  0.25000000  0.25359300  1
  Na  Na13  1  0.50000000  0.50000000  0.50000000  1
  Na  Na14  1  0.95873300  0.50000000  0.75000000  1
  Na  Na15  1  0.50000000  0.25000000  0.97928700  1
  Li  Li16  1  0.26003700  0.12578800  0.12582400  1
  Li  Li17  1  0.26003700  0.87421200  0.37417600  1
  Li  Li18  1  0.26003700  0.37421200  0.62582400  1
  Li  Li19  1  0.73996300  0.87421200  0.87417600  1
  Li  Li20  1  0.73996300  0.12578800  0.62582400  1
  Li  Li21  1  0.26003700  0.62578800  0.87417600  1
  Li  Li22  1  0.73996300  0.62578800  0.37417600  1
  Li  Li23  1  0.73996300  0.37421200  0.12582400  1
  Al  Al24  1  0.00000000  0.00000000  0.00000000  1
  Al  Al25  1  0.00000000  0.50000000  0.50000000  1
  Al  Al26  1  0.00000000  0.25000000  0.49890200  1
  Al  Al27  1  0.00000000  0.75000000  0.50109800  1
  Al  Al28  1  0.00000000  0.50000000  0.00000000  1
  Al  Al29  1  0.00000000  0.25000000  0.99890200  1
  Al  Al30  1  0.00000000  0.75000000  0.00109800  1
  Al  Al31  1  0.00000000  0.00000000  0.50000000  1
  P  P32  1  0.27811000  0.87031600  0.86809200  1
  P  P33  1  0.26111100  0.37905600  0.85648800  1
  P  P34  1  0.72189000  0.37031600  0.63190800  1
  P  P35  1  0.72189000  0.87031600  0.36809200  1
  P  P36  1  0.26111100  0.87905600  0.14351200  1
  P  P37  1  0.73888900  0.87905600  0.64351200  1
  P  P38  1  0.26111100  0.12094400  0.35648800  1
  P  P39  1  0.72189000  0.62968400  0.86809200  1
  P  P40  1  0.27811000  0.37031600  0.13190800  1
  P  P41  1  0.72189000  0.12968400  0.13190800  1
  P  P42  1  0.73888900  0.12094400  0.85648800  1
  P  P43  1  0.27811000  0.62968400  0.36809200  1
  P  P44  1  0.27811000  0.12968400  0.63190800  1
  P  P45  1  0.73888900  0.37905600  0.35648800  1
  P  P46  1  0.26111100  0.62094400  0.64351200  1
  P  P47  1  0.73888900  0.62094400  0.14351200  1
  H  H48  1  0.58944400  0.12643200  0.29678400  1
  H  H49  1  0.41055600  0.12643200  0.79678400  1
  H  H50  1  0.19933100  0.12539300  0.94027900  1
  H  H51  1  0.80066900  0.12539300  0.44027900  1
  H  H52  1  0.80066900  0.62539300  0.55972100  1
  H  H53  1  0.80066900  0.87460700  0.05972100  1
  H  H54  1  0.41055600  0.37356800  0.29678400  1
  H  H55  1  0.41055600  0.62643200  0.20321600  1
  H  H56  1  0.19933100  0.37460700  0.44027900  1
  H  H57  1  0.58944400  0.62643200  0.70321600  1
  H  H58  1  0.41055600  0.87356800  0.70321600  1
  H  H59  1  0.58944400  0.37356800  0.79678400  1
  H  H60  1  0.19933100  0.87460700  0.55972100  1
  H  H61  1  0.58944400  0.87356800  0.20321600  1
  H  H62  1  0.80066900  0.37460700  0.94027900  1
  H  H63  1  0.19933100  0.62539300  0.05972100  1
  O  O64  1  0.19470400  0.46907100  0.91035400  1
  O  O65  1  0.83785800  0.45849200  0.59940800  1
  O  O66  1  0.47917900  0.62858900  0.40831200  1
  O  O67  1  0.88658400  0.12473400  0.49419600  1
  O  O68  1  0.17158900  0.27970700  0.09867500  1
  O  O69  1  0.82841100  0.22029300  0.09867500  1
  O  O70  1  0.51591400  0.87670900  0.63700100  1
  O  O71  1  0.18505400  0.21113400  0.40719400  1
  O  O72  1  0.80529600  0.03092900  0.91035400  1
  O  O73  1  0.48408600  0.62329100  0.63700100  1
  O  O74  1  0.27512800  0.62952800  0.25867500  1
  O  O75  1  0.16214200  0.45849200  0.09940800  1
  O  O76  1  0.48408600  0.87670900  0.13700100  1
  O  O77  1  0.51591400  0.62329100  0.13700100  1
  O  O78  1  0.81494600  0.71113400  0.09280600  1
  O  O79  1  0.16214200  0.95849200  0.90059200  1
  O  O80  1  0.80884500  0.11896400  0.75533800  1
  O  O81  1  0.18505400  0.71113400  0.59280600  1
  O  O82  1  0.88658400  0.87526600  0.00580400  1
  O  O83  1  0.48408600  0.37670900  0.86299900  1
  O  O84  1  0.47917900  0.87141100  0.90831200  1
  O  O85  1  0.19115500  0.38103600  0.75533800  1
  O  O86  1  0.17158900  0.72029300  0.40132500  1
  O  O87  1  0.52082100  0.87141100  0.40831200  1
  O  O88  1  0.88658400  0.62473400  0.50580400  1
  O  O89  1  0.80884500  0.38103600  0.25533800  1
  O  O90  1  0.52082100  0.12858900  0.09168800  1
  O  O91  1  0.11341600  0.37526600  0.49419600  1
  O  O92  1  0.27512800  0.87047200  0.75867500  1
  O  O93  1  0.19470400  0.53092900  0.58964600  1
  O  O94  1  0.80529600  0.96907100  0.58964600  1
  O  O95  1  0.82841100  0.27970700  0.59867500  1
  O  O96  1  0.11341600  0.12473400  0.99419600  1
  O  O97  1  0.52082100  0.62858900  0.90831200  1
  O  O98  1  0.82841100  0.72029300  0.90132500  1
  O  O99  1  0.83785800  0.95849200  0.40059200  1
  O  O100  1  0.72487200  0.62952800  0.75867500  1
  O  O101  1  0.72487200  0.12952800  0.24132500  1
  O  O102  1  0.47917900  0.12858900  0.59168800  1
  O  O103  1  0.47917900  0.37141100  0.09168800  1
  O  O104  1  0.83785800  0.04150800  0.09940800  1
  O  O105  1  0.51591400  0.12329100  0.86299900  1
  O  O106  1  0.19470400  0.03092900  0.41035400  1
  O  O107  1  0.27512800  0.12952800  0.74132500  1
  O  O108  1  0.27512800  0.37047200  0.24132500  1
  O  O109  1  0.48408600  0.12329100  0.36299900  1
  O  O110  1  0.11341600  0.62473400  0.00580400  1
  O  O111  1  0.16214200  0.04150800  0.59940800  1
  O  O112  1  0.83785800  0.54150800  0.90059200  1
  O  O113  1  0.80884500  0.88103600  0.74466200  1
  O  O114  1  0.88658400  0.37526600  0.99419600  1
  O  O115  1  0.51591400  0.37670900  0.36299900  1
  O  O116  1  0.19470400  0.96907100  0.08964600  1
  O  O117  1  0.18505400  0.78886600  0.09280600  1
  O  O118  1  0.72487200  0.87047200  0.25867500  1
  O  O119  1  0.82841100  0.77970700  0.40132500  1
  O  O120  1  0.18505400  0.28886600  0.90719400  1
  O  O121  1  0.72487200  0.37047200  0.74132500  1
  O  O122  1  0.11341600  0.87526600  0.50580400  1
  O  O123  1  0.81494600  0.78886600  0.59280600  1
  O  O124  1  0.80529600  0.46907100  0.41035400  1
  O  O125  1  0.17158900  0.77970700  0.90132500  1
  O  O126  1  0.81494600  0.21113400  0.90719400  1
  O  O127  1  0.19115500  0.61896400  0.74466200  1
  O  O128  1  0.19115500  0.88103600  0.24466200  1
  O  O129  1  0.80529600  0.53092900  0.08964600  1
  O  O130  1  0.81494600  0.28886600  0.40719400  1
  O  O131  1  0.17158900  0.22029300  0.59867500  1
  O  O132  1  0.16214200  0.54150800  0.40059200  1
  O  O133  1  0.19115500  0.11896400  0.25533800  1
  O  O134  1  0.52082100  0.37141100  0.59168800  1
  O  O135  1  0.80884500  0.61896400  0.24466200  1
