# generated using pymatgen
data_LiBi2(PO4)3
_symmetry_space_group_name_H-M   'P 1'
_cell_length_a   8.78688799
_cell_length_b   9.68257286
_cell_length_c   8.77152997
_cell_angle_alpha   63.44177597
_cell_angle_beta   60.14508897
_cell_angle_gamma   62.96875642
_symmetry_Int_Tables_number   1
_chemical_formula_structural   LiBi2(PO4)3
_chemical_formula_sum   'Li2 Bi4 P6 O24'
_cell_volume   552.47032282
_cell_formula_units_Z   2
loop_
 _symmetry_equiv_pos_site_id
 _symmetry_equiv_pos_as_xyz
  1  'x, y, z'
loop_
 _atom_site_type_symbol
 _atom_site_label
 _atom_site_symmetry_multiplicity
 _atom_site_fract_x
 _atom_site_fract_y
 _atom_site_fract_z
 _atom_site_occupancy
  Bi  Bi0  1  0.13569409  0.56479655  0.14813950  1
  Bi  Bi1  1  0.33895285  0.96656161  0.33728731  1
  Bi  Bi2  1  0.66104270  0.03343727  0.66271585  1
  Bi  Bi3  1  0.86430450  0.43520858  0.85185569  1
  Li  Li4  1  0.68198486  0.12165383  0.25794277  1
  Li  Li5  1  0.31801632  0.87834764  0.74205701  1
  O  O6  1  0.13889044  0.10949765  0.20800206  1
  O  O7  1  0.22830322  0.08602472  0.55398554  1
  O  O8  1  0.21911863  0.38633964  0.39836789  1
  O  O9  1  0.15325298  0.24981951  0.74332732  1
  O  O10  1  0.53213828  0.11552784  0.15009165  1
  O  O11  1  0.25708031  0.74592154  0.13128509  1
  O  O12  1  0.03423423  0.59509652  0.78617822  1
  O  O13  1  0.47875341  0.18840446  0.50031869  1
  O  O14  1  0.16525198  0.80989937  0.52670269  1
  O  O15  1  0.60058982  0.59311511  0.02736832  1
  O  O16  1  0.15105748  0.75379596  0.84828208  1
  O  O17  1  0.49483923  0.81364574  0.15824658  1
  O  O18  1  0.50516158  0.18635390  0.84175743  1
  O  O19  1  0.84894565  0.24620812  0.15171410  1
  O  O20  1  0.39941291  0.40688678  0.97263421  1
  O  O21  1  0.83474653  0.19009658  0.47329827  1
  O  O22  1  0.52124457  0.81159617  0.49968046  1
  O  O23  1  0.96577536  0.40489506  0.21383110  1
  O  O24  1  0.74292004  0.25407283  0.86872642  1
  O  O25  1  0.46785529  0.88447158  0.84991542  1
  O  O26  1  0.84674269  0.75019087  0.25666107  1
  O  O27  1  0.78088971  0.61366213  0.60161846  1
  O  O28  1  0.77169287  0.91397874  0.44601130  1
  O  O29  1  0.86110551  0.89049252  0.79200025  1
  P  P30  1  0.26503537  0.23568098  0.54852359  1
  P  P31  1  0.05436770  0.75878022  0.73871812  1
  P  P32  1  0.45332524  0.75395610  0.04686017  1
  P  P33  1  0.54667551  0.24604195  0.95314616  1
  P  P34  1  0.94563316  0.24121553  0.26128354  1
  P  P35  1  0.73496399  0.76432342  0.45146865  1
