# generated using pymatgen
data_LiCrPO5
_symmetry_space_group_name_H-M   'P 1'
_cell_length_a   6.76563468
_cell_length_b   6.98311122
_cell_length_c   8.06137179
_cell_angle_alpha   89.65788130
_cell_angle_beta   91.36303586
_cell_angle_gamma   115.60428853
_symmetry_Int_Tables_number   1
_chemical_formula_structural   LiCrPO5
_chemical_formula_sum   'Li4 Cr4 P4 O20'
_cell_volume   343.35937481
_cell_formula_units_Z   4
loop_
 _symmetry_equiv_pos_site_id
 _symmetry_equiv_pos_as_xyz
  1  'x, y, z'
loop_
 _atom_site_type_symbol
 _atom_site_label
 _atom_site_symmetry_multiplicity
 _atom_site_fract_x
 _atom_site_fract_y
 _atom_site_fract_z
 _atom_site_occupancy
  Li  Li0  1  0.70026300  0.19152400  0.57253000  1
  Li  Li1  1  0.22043000  0.28358500  0.07277000  1
  Li  Li2  1  0.29973700  0.80847600  0.42747000  1
  Li  Li3  1  0.77957000  0.71641500  0.92723000  1
  Cr  Cr4  1  0.24286400  0.49537600  0.74424500  1
  Cr  Cr5  1  0.24423000  0.99884800  0.75582500  1
  Cr  Cr6  1  0.75713600  0.50462400  0.25575500  1
  Cr  Cr7  1  0.75577000  0.00115200  0.24417500  1
  P  P8  1  0.23719500  0.75149900  0.08757100  1
  P  P9  1  0.73740000  0.75543500  0.58709900  1
  P  P10  1  0.76280500  0.24850100  0.91242900  1
  P  P11  1  0.26260000  0.24456500  0.41290100  1
  O  O12  1  0.55633000  0.08439700  0.82158600  1
  O  O13  1  0.64418500  0.88255200  0.47458400  1
  O  O14  1  0.08188300  0.64016200  0.23299500  1
  O  O15  1  0.73634600  0.74047300  0.17600600  1
  O  O16  1  0.93537600  0.91227600  0.69079600  1
  O  O17  1  0.71707200  0.41431900  0.01306200  1
  O  O18  1  0.06462400  0.08772400  0.30920400  1
  O  O19  1  0.44367000  0.91560300  0.17841400  1
  O  O20  1  0.13178900  0.86455000  0.97413200  1
  O  O21  1  0.26365400  0.25952700  0.82399400  1
  O  O22  1  0.76029700  0.25628600  0.31665600  1
  O  O23  1  0.23970300  0.74371400  0.68334400  1
  O  O24  1  0.43029300  0.37460600  0.28107100  1
  O  O25  1  0.56970700  0.62539400  0.71892900  1
  O  O26  1  0.80571800  0.60925500  0.48202500  1
  O  O27  1  0.19428200  0.39074400  0.51797500  1
  O  O28  1  0.35581500  0.11744800  0.52541600  1
  O  O29  1  0.86821100  0.13545000  0.02586800  1
  O  O30  1  0.28292800  0.58568100  0.98693800  1
  O  O31  1  0.91811700  0.35983800  0.76700500  1
