# generated using pymatgen
data_Sr4Li(BO3)3
_symmetry_space_group_name_H-M   'P 1'
_cell_length_a   13.08396376
_cell_length_b   13.08396376
_cell_length_c   13.08396376
_cell_angle_alpha   109.47122063
_cell_angle_beta   109.47122063
_cell_angle_gamma   109.47122063
_symmetry_Int_Tables_number   1
_chemical_formula_structural   Sr4Li(BO3)3
_chemical_formula_sum   'Sr32 Li8 B24 O72'
_cell_volume   1724.23361259
_cell_formula_units_Z   8
loop_
 _symmetry_equiv_pos_site_id
 _symmetry_equiv_pos_as_xyz
  1  'x, y, z'
loop_
 _atom_site_type_symbol
 _atom_site_label
 _atom_site_symmetry_multiplicity
 _atom_site_fract_x
 _atom_site_fract_y
 _atom_site_fract_z
 _atom_site_occupancy
  Sr  Sr0  1  0.74658100  0.25000000  0.99658100  1
  Sr  Sr1  1  0.50341900  0.25000000  0.75341900  1
  Sr  Sr2  1  0.49658100  0.24658100  0.25000000  1
  Sr  Sr3  1  0.49658100  0.75000000  0.24658100  1
  Sr  Sr4  1  0.25341900  0.75000000  0.00341900  1
  Sr  Sr5  1  0.99658100  0.74658100  0.25000000  1
  Sr  Sr6  1  0.00341900  0.25341900  0.75000000  1
  Sr  Sr7  1  0.99658100  0.75000000  0.74658100  1
  Sr  Sr8  1  0.25000000  0.99658100  0.74658100  1
  Sr  Sr9  1  0.75000000  0.74658100  0.99658100  1
  Sr  Sr10  1  0.24658100  0.25000000  0.49658100  1
  Sr  Sr11  1  0.00000000  0.00000000  0.00000000  1
  Sr  Sr12  1  0.50000000  0.50000000  0.00000000  1
  Sr  Sr13  1  0.74658100  0.99658100  0.75000000  1
  Sr  Sr14  1  0.00000000  0.50000000  0.00000000  1
  Sr  Sr15  1  0.50341900  0.75341900  0.75000000  1
  Sr  Sr16  1  0.00341900  0.25000000  0.25341900  1
  Sr  Sr17  1  0.24658100  0.49658100  0.75000000  1
  Sr  Sr18  1  0.75000000  0.00341900  0.25341900  1
  Sr  Sr19  1  0.75341900  0.50341900  0.25000000  1
  Sr  Sr20  1  0.75000000  0.24658100  0.49658100  1
  Sr  Sr21  1  0.25000000  0.75341900  0.50341900  1
  Sr  Sr22  1  0.25000000  0.25341900  0.00341900  1
  Sr  Sr23  1  0.00000000  0.00000000  0.50000000  1
  Sr  Sr24  1  0.50000000  0.00000000  0.00000000  1
  Sr  Sr25  1  0.50000000  0.00000000  0.50000000  1
  Sr  Sr26  1  0.75000000  0.50341900  0.75341900  1
  Sr  Sr27  1  0.25341900  0.00341900  0.25000000  1
  Sr  Sr28  1  0.50000000  0.50000000  0.50000000  1
  Sr  Sr29  1  0.00000000  0.50000000  0.50000000  1
  Sr  Sr30  1  0.25000000  0.49658100  0.24658100  1
  Sr  Sr31  1  0.75341900  0.75000000  0.50341900  1
  Li  Li32  1  0.25000000  0.25000000  0.25000000  1
  Li  Li33  1  0.00000000  0.75000000  0.50000000  1
  Li  Li34  1  0.50000000  0.00000000  0.25000000  1
  Li  Li35  1  0.75000000  0.75000000  0.75000000  1
  Li  Li36  1  0.00000000  0.25000000  0.50000000  1
  Li  Li37  1  0.25000000  0.50000000  0.00000000  1
  Li  Li38  1  0.75000000  0.50000000  0.00000000  1
  Li  Li39  1  0.50000000  0.00000000  0.75000000  1
  B  B40  1  0.73509900  0.25000000  0.76490100  1
  B  B41  1  0.26490100  0.01490100  0.02980300  1
  B  B42  1  0.23509900  0.47019700  0.48509900  1
  B  B43  1  0.01490100  0.02980300  0.26490100  1
  B  B44  1  0.48509900  0.23509900  0.47019700  1
  B  B45  1  0.75000000  0.23509900  0.26490100  1
  B  B46  1  0.25000000  0.98509900  0.51490100  1
  B  B47  1  0.26490100  0.75000000  0.23509900  1
  B  B48  1  0.73509900  0.98509900  0.97019700  1
  B  B49  1  0.52980300  0.51490100  0.76490100  1
  B  B50  1  0.47019700  0.48509900  0.23509900  1
  B  B51  1  0.97019700  0.73509900  0.98509900  1
  B  B52  1  0.48509900  0.75000000  0.01490100  1
  B  B53  1  0.76490100  0.52980300  0.51490100  1
  B  B54  1  0.02980300  0.26490100  0.01490100  1
  B  B55  1  0.01490100  0.48509900  0.75000000  1
  B  B56  1  0.98509900  0.97019700  0.73509900  1
  B  B57  1  0.98509900  0.51490100  0.25000000  1
  B  B58  1  0.75000000  0.01490100  0.48509900  1
  B  B59  1  0.25000000  0.76490100  0.73509900  1
  B  B60  1  0.23509900  0.26490100  0.75000000  1
  B  B61  1  0.51490100  0.25000000  0.98509900  1
  B  B62  1  0.51490100  0.76490100  0.52980300  1
  B  B63  1  0.76490100  0.73509900  0.25000000  1
  O  O64  1  0.95056600  0.90113200  0.20056600  1
  O  O65  1  0.45056600  0.25000000  0.04943400  1
  O  O66  1  0.90108000  0.75953700  0.89788500  1
  O  O67  1  0.00319500  0.90108000  0.64154300  1
  O  O68  1  0.13834800  0.74046300  0.64154300  1
  O  O69  1  0.70056600  0.40113200  0.45056600  1
  O  O70  1  0.24046300  0.63834800  0.14154300  1
  O  O71  1  0.74046300  0.59892000  0.60211500  1
  O  O72  1  0.14154300  0.40108000  0.50319500  1
  O  O73  1  0.85845700  0.75953700  0.36165200  1
  O  O74  1  0.35845700  0.86165200  0.25953700  1
  O  O75  1  0.14154300  0.24046300  0.63834800  1
  O  O76  1  0.95056600  0.54943400  0.75000000  1
  O  O77  1  0.99680500  0.09892000  0.35845700  1
  O  O78  1  0.90113200  0.20056600  0.95056600  1
  O  O79  1  0.85845700  0.59892000  0.49680500  1
  O  O80  1  0.49680500  0.13834800  0.89788500  1
  O  O81  1  0.45056600  0.70056600  0.40113200  1
  O  O82  1  0.00319500  0.60211500  0.36165200  1
  O  O83  1  0.29943400  0.59886800  0.54943400  1
  O  O84  1  0.75953700  0.36165200  0.85845700  1
  O  O85  1  0.89788500  0.90108000  0.75953700  1
  O  O86  1  0.60211500  0.36165200  0.00319500  1
  O  O87  1  0.90108000  0.64154300  0.00319500  1
  O  O88  1  0.59886800  0.54943400  0.29943400  1
  O  O89  1  0.50319500  0.14154300  0.40108000  1
  O  O90  1  0.64154300  0.13834800  0.74046300  1
  O  O91  1  0.09892000  0.35845700  0.99680500  1
  O  O92  1  0.39788500  0.25953700  0.40108000  1
  O  O93  1  0.86165200  0.10211500  0.50319500  1
  O  O94  1  0.25000000  0.04943400  0.45056600  1
  O  O95  1  0.25953700  0.35845700  0.86165200  1
  O  O96  1  0.75000000  0.95056600  0.54943400  1
  O  O97  1  0.64154300  0.00319500  0.90108000  1
  O  O98  1  0.09886800  0.79943400  0.04943400  1
  O  O99  1  0.99680500  0.39788500  0.63834800  1
  O  O100  1  0.59892000  0.49680500  0.85845700  1
  O  O101  1  0.74046300  0.64154300  0.13834800  1
  O  O102  1  0.24046300  0.10211500  0.09892000  1
  O  O103  1  0.63834800  0.99680500  0.39788500  1
  O  O104  1  0.59892000  0.60211500  0.74046300  1
  O  O105  1  0.36165200  0.85845700  0.75953700  1
  O  O106  1  0.79943400  0.25000000  0.70056600  1
  O  O107  1  0.09892000  0.24046300  0.10211500  1
  O  O108  1  0.63834800  0.14154300  0.24046300  1
  O  O109  1  0.60211500  0.74046300  0.59892000  1
  O  O110  1  0.75000000  0.29943400  0.20056600  1
  O  O111  1  0.04943400  0.45056600  0.25000000  1
  O  O112  1  0.49680500  0.85845700  0.59892000  1
  O  O113  1  0.20056600  0.75000000  0.29943400  1
  O  O114  1  0.89788500  0.49680500  0.13834800  1
  O  O115  1  0.25000000  0.70056600  0.79943400  1
  O  O116  1  0.54943400  0.29943400  0.59886800  1
  O  O117  1  0.75953700  0.89788500  0.90108000  1
  O  O118  1  0.04943400  0.09886800  0.79943400  1
  O  O119  1  0.40108000  0.50319500  0.14154300  1
  O  O120  1  0.13834800  0.89788500  0.49680500  1
  O  O121  1  0.86165200  0.25953700  0.35845700  1
  O  O122  1  0.20056600  0.95056600  0.90113200  1
  O  O123  1  0.29943400  0.20056600  0.75000000  1
  O  O124  1  0.50319500  0.86165200  0.10211500  1
  O  O125  1  0.35845700  0.99680500  0.09892000  1
  O  O126  1  0.10211500  0.50319500  0.86165200  1
  O  O127  1  0.39788500  0.63834800  0.99680500  1
  O  O128  1  0.25953700  0.40108000  0.39788500  1
  O  O129  1  0.40113200  0.45056600  0.70056600  1
  O  O130  1  0.70056600  0.79943400  0.25000000  1
  O  O131  1  0.40108000  0.39788500  0.25953700  1
  O  O132  1  0.10211500  0.09892000  0.24046300  1
  O  O133  1  0.54943400  0.75000000  0.95056600  1
  O  O134  1  0.79943400  0.04943400  0.09886800  1
  O  O135  1  0.36165200  0.00319500  0.60211500  1
