# generated using pymatgen
data_Cs2Li3Br5
_symmetry_space_group_name_H-M   'P 1'
_cell_length_a   8.23044389
_cell_length_b   8.23044389
_cell_length_c   10.25215023
_cell_angle_alpha   65.99014817
_cell_angle_beta   65.99014817
_cell_angle_gamma   31.17407515
_symmetry_Int_Tables_number   1
_chemical_formula_structural   Cs2Li3Br5
_chemical_formula_sum   'Cs2 Li3 Br5'
_cell_volume   325.84208864
_cell_formula_units_Z   1
loop_
 _symmetry_equiv_pos_site_id
 _symmetry_equiv_pos_as_xyz
  1  'x, y, z'
loop_
 _atom_site_type_symbol
 _atom_site_label
 _atom_site_symmetry_multiplicity
 _atom_site_fract_x
 _atom_site_fract_y
 _atom_site_fract_z
 _atom_site_occupancy
  Cs  Cs0  1  0.18681600  0.18681600  0.26995300  1
  Cs  Cs1  1  0.81318400  0.81318400  0.73004700  1
  Li  Li2  1  0.45083500  0.45083500  0.29178100  1
  Li  Li3  1  0.54916500  0.54916500  0.70821900  1
  Li  Li4  1  0.00000000  0.00000000  0.00000000  1
  Br  Br5  1  0.59612100  0.59612100  0.06245400  1
  Br  Br6  1  0.40387900  0.40387900  0.93754600  1
  Br  Br7  1  0.13158300  0.13158300  0.70667300  1
  Br  Br8  1  0.50000000  0.50000000  0.50000000  1
  Br  Br9  1  0.86841700  0.86841700  0.29332700  1
