# generated using pymatgen
data_Li3Co2(PO4)3
_symmetry_space_group_name_H-M   'P 1'
_cell_length_a   8.75515700
_cell_length_b   8.45038800
_cell_length_c   14.47802644
_cell_angle_alpha   55.97522487
_cell_angle_beta   90.00000000
_cell_angle_gamma   90.00000000
_symmetry_Int_Tables_number   1
_chemical_formula_structural   Li3Co2(PO4)3
_chemical_formula_sum   'Li12 Co8 P12 O48'
_cell_volume   887.76381828
_cell_formula_units_Z   4
loop_
 _symmetry_equiv_pos_site_id
 _symmetry_equiv_pos_as_xyz
  1  'x, y, z'
loop_
 _atom_site_type_symbol
 _atom_site_label
 _atom_site_symmetry_multiplicity
 _atom_site_fract_x
 _atom_site_fract_y
 _atom_site_fract_z
 _atom_site_occupancy
  Li  Li0  1  0.98968500  0.78288000  0.15655000  1
  Li  Li1  1  0.41206800  0.11320300  0.80679700  1
  Li  Li2  1  0.72011200  0.49323000  0.32295400  1
  Li  Li3  1  0.22011200  0.50677000  0.17704600  1
  Li  Li4  1  0.91206800  0.88679700  0.69320300  1
  Li  Li5  1  0.48968500  0.21712000  0.34345000  1
  Li  Li6  1  0.51031500  0.78288000  0.65655000  1
  Li  Li7  1  0.08793200  0.11320300  0.30679700  1
  Li  Li8  1  0.77988800  0.49323000  0.82295400  1
  Li  Li9  1  0.27988800  0.50677000  0.67704600  1
  Li  Li10  1  0.58793200  0.88679700  0.19320300  1
  Li  Li11  1  0.01031500  0.21712000  0.84345000  1
  Co  Co12  1  0.47456200  0.15646300  0.60046900  1
  Co  Co13  1  0.97456200  0.84353700  0.89953100  1
  Co  Co14  1  0.03541900  0.35989100  0.39429300  1
  Co  Co15  1  0.53541900  0.64010900  0.10570700  1
  Co  Co16  1  0.46458100  0.35989100  0.89429300  1
  Co  Co17  1  0.96458100  0.64010900  0.60570700  1
  Co  Co18  1  0.02543800  0.15646300  0.10046900  1
  Co  Co19  1  0.52543800  0.84353700  0.39953100  1
  P  P20  1  0.25105400  0.95128400  0.00810800  1
  P  P21  1  0.11845500  0.23526800  0.65003500  1
  P  P22  1  0.39005100  0.53472100  0.35114100  1
  P  P23  1  0.61845500  0.76473200  0.84996500  1
  P  P24  1  0.89005100  0.46527900  0.14885900  1
  P  P25  1  0.75105400  0.04871600  0.49189200  1
  P  P26  1  0.24894600  0.95128400  0.50810800  1
  P  P27  1  0.10994900  0.53472100  0.85114100  1
  P  P28  1  0.38154500  0.23526800  0.15003500  1
  P  P29  1  0.60994900  0.46527900  0.64885900  1
  P  P30  1  0.88154500  0.76473200  0.34996500  1
  P  P31  1  0.74894600  0.04871600  0.99189200  1
  O  O32  1  0.60792200  0.34277200  0.60100900  1
  O  O33  1  0.62736700  0.89318800  0.05655900  1
  O  O34  1  0.83455100  0.03937500  0.90140900  1
  O  O35  1  0.91966800  0.62613900  0.31369300  1
  O  O36  1  0.13963100  0.98326400  0.91454700  1
  O  O37  1  0.29536200  0.21001000  0.66375100  1
  O  O38  1  0.07917500  0.33607500  0.52468600  1
  O  O39  1  0.50843400  0.62025300  0.25216100  1
  O  O40  1  0.23122300  0.51980800  0.31075800  1
  O  O41  1  0.32133500  0.74890200  0.06474600  1
  O  O42  1  0.02834700  0.04867300  0.72008700  1
  O  O43  1  0.45213300  0.32742300  0.43579000  1
  O  O44  1  0.52834700  0.95132700  0.77991300  1
  O  O45  1  0.95213300  0.67257700  0.06421000  1
  O  O46  1  0.82133500  0.25109800  0.43525400  1
  O  O47  1  0.73122300  0.48019200  0.18924200  1
  O  O48  1  0.57917500  0.66392500  0.97531400  1
  O  O49  1  0.79536200  0.78999000  0.83624900  1
  O  O50  1  0.00843400  0.37974700  0.24783900  1
  O  O51  1  0.63963100  0.01673600  0.58545300  1
  O  O52  1  0.33455100  0.96062500  0.59859100  1
  O  O53  1  0.10792200  0.65722800  0.89899100  1
  O  O54  1  0.41966800  0.37386100  0.18630700  1
  O  O55  1  0.12736700  0.10681200  0.44344100  1
  O  O56  1  0.87263300  0.89318800  0.55655900  1
  O  O57  1  0.58033200  0.62613900  0.81369300  1
  O  O58  1  0.89207800  0.34277200  0.10100900  1
  O  O59  1  0.66544900  0.03937500  0.40140900  1
  O  O60  1  0.36036900  0.98326400  0.41454700  1
  O  O61  1  0.99156600  0.62025300  0.75216100  1
  O  O62  1  0.20463800  0.21001000  0.16375100  1
  O  O63  1  0.42082500  0.33607500  0.02468600  1
  O  O64  1  0.26877700  0.51980800  0.81075800  1
  O  O65  1  0.17866500  0.74890200  0.56474600  1
  O  O66  1  0.04786700  0.32742300  0.93579000  1
  O  O67  1  0.47165300  0.04867300  0.22008700  1
  O  O68  1  0.54786700  0.67257700  0.56421000  1
  O  O69  1  0.97165300  0.95132700  0.27991300  1
  O  O70  1  0.67866500  0.25109800  0.93525400  1
  O  O71  1  0.76877700  0.48019200  0.68924200  1
  O  O72  1  0.49156600  0.37974700  0.74783900  1
  O  O73  1  0.92082500  0.66392500  0.47531400  1
  O  O74  1  0.70463800  0.78999000  0.33624900  1
  O  O75  1  0.86036900  0.01673600  0.08545300  1
  O  O76  1  0.08033200  0.37386100  0.68630700  1
  O  O77  1  0.16544900  0.96062500  0.09859100  1
  O  O78  1  0.37263300  0.10681200  0.94344100  1
  O  O79  1  0.39207800  0.65722800  0.39899100  1
