# generated using pymatgen
data_Li15Nb16O48
_symmetry_space_group_name_H-M   'P 1'
_cell_length_a   11.19351444
_cell_length_b   11.19351444
_cell_length_c   11.19351477
_cell_angle_alpha   55.70736562
_cell_angle_beta   55.70736562
_cell_angle_gamma   55.70737145
_symmetry_Int_Tables_number   1
_chemical_formula_structural   Li15Nb16O48
_chemical_formula_sum   'Li15 Nb16 O48'
_cell_volume   892.95751130
_cell_formula_units_Z   1
loop_
 _symmetry_equiv_pos_site_id
 _symmetry_equiv_pos_as_xyz
  1  'x, y, z'
loop_
 _atom_site_type_symbol
 _atom_site_label
 _atom_site_symmetry_multiplicity
 _atom_site_fract_x
 _atom_site_fract_y
 _atom_site_fract_z
 _atom_site_occupancy
  Li  Li0  1  0.14043500  0.14070800  0.63983300  1
  Li  Li1  1  0.63983300  0.14043500  0.14070800  1
  Li  Li2  1  0.14070800  0.63983300  0.14043500  1
  Li  Li3  1  0.39049500  0.39049500  0.39049500  1
  Li  Li4  1  0.64142200  0.13928800  0.64100000  1
  Li  Li5  1  0.64100000  0.64142200  0.13928800  1
  Li  Li6  1  0.13928800  0.64100000  0.64142200  1
  Li  Li7  1  0.88923200  0.39100100  0.39233400  1
  Li  Li8  1  0.39100100  0.39233400  0.88923200  1
  Li  Li9  1  0.39233400  0.88923200  0.39100100  1
  Li  Li10  1  0.64029400  0.64029400  0.64029400  1
  Li  Li11  1  0.89088500  0.39076600  0.88995400  1
  Li  Li12  1  0.88995400  0.89088500  0.39076600  1
  Li  Li13  1  0.39076600  0.88995400  0.89088500  1
  Li  Li14  1  0.88956400  0.88956400  0.88956400  1
  Nb  Nb15  1  0.99998600  0.99998600  0.99998600  1
  Nb  Nb16  1  0.00318600  0.00190600  0.49443200  1
  Nb  Nb17  1  0.49443200  0.00318600  0.00190600  1
  Nb  Nb18  1  0.00190600  0.49443200  0.00318600  1
  Nb  Nb19  1  0.24914700  0.24914700  0.24914700  1
  Nb  Nb20  1  0.00026000  0.49902500  0.49925200  1
  Nb  Nb21  1  0.49902500  0.49925200  0.00026000  1
  Nb  Nb22  1  0.24900200  0.24960100  0.75011400  1
  Nb  Nb23  1  0.75011400  0.24900200  0.24960100  1
  Nb  Nb24  1  0.24960100  0.75011400  0.24900200  1
  Nb  Nb25  1  0.49945000  0.49945000  0.49945000  1
  Nb  Nb26  1  0.74997000  0.24812600  0.74996200  1
  Nb  Nb27  1  0.24812600  0.74996200  0.74997000  1
  Nb  Nb28  1  0.74996200  0.74997000  0.24812600  1
  Nb  Nb29  1  0.49925200  0.00026000  0.49902500  1
  Nb  Nb30  1  0.74973400  0.74973400  0.74973400  1
  O  O31  1  0.18278200  0.05313300  0.36570100  1
  O  O32  1  0.36570100  0.18278200  0.05313300  1
  O  O33  1  0.05313300  0.36570100  0.18278200  1
  O  O34  1  0.42903400  0.11020900  0.30527500  1
  O  O35  1  0.11020900  0.30527500  0.42903400  1
  O  O36  1  0.67859200  0.05464700  0.35858000  1
  O  O37  1  0.17948900  0.05473800  0.85953500  1
  O  O38  1  0.30527500  0.42903400  0.11020900  1
  O  O39  1  0.35976000  0.17946300  0.55413000  1
  O  O40  1  0.85953500  0.17948900  0.05473800  1
  O  O41  1  0.05464700  0.35858000  0.67859200  1
  O  O42  1  0.55413000  0.35976000  0.17946300  1
  O  O43  1  0.42830600  0.11037400  0.80581700  1
  O  O44  1  0.91939500  0.10538800  0.31642500  1
  O  O45  1  0.17946300  0.55413000  0.35976000  1
  O  O46  1  0.60854300  0.30565400  0.42874000  1
  O  O47  1  0.10538800  0.31642500  0.91939500  1
  O  O48  1  0.35858000  0.67859200  0.05464700  1
  O  O49  1  0.67813900  0.05472000  0.85941900  1
  O  O50  1  0.80581700  0.42830600  0.11037400  1
  O  O51  1  0.30565400  0.42874000  0.60854300  1
  O  O52  1  0.86054200  0.17899200  0.55433600  1
  O  O53  1  0.05473800  0.85953500  0.17948900  1
  O  O54  1  0.42874000  0.60854300  0.30565400  1
  O  O55  1  0.55464700  0.35970600  0.67892100  1
  O  O56  1  0.92934100  0.10935600  0.80515600  1
  O  O57  1  0.11037400  0.80581700  0.42830600  1
  O  O58  1  0.17899200  0.55433600  0.86054200  1
  O  O59  1  0.67892100  0.55464700  0.35970600  1
  O  O60  1  0.31642500  0.91939500  0.10538800  1
  O  O61  1  0.61037000  0.30484500  0.92858400  1
  O  O62  1  0.35970600  0.67892100  0.55464700  1
  O  O63  1  0.85941900  0.67813900  0.05472000  1
  O  O64  1  0.80475100  0.42816100  0.60956200  1
  O  O65  1  0.05472000  0.85941900  0.67813900  1
  O  O66  1  0.55433600  0.86054200  0.17899200  1
  O  O67  1  0.42816100  0.60956200  0.80475100  1
  O  O68  1  0.92858400  0.61037000  0.30484500  1
  O  O69  1  0.60956200  0.80475100  0.42816100  1
  O  O70  1  0.10935600  0.80515600  0.92934100  1
  O  O71  1  0.67891600  0.55421600  0.85965800  1
  O  O72  1  0.80515600  0.92934100  0.10935600  1
  O  O73  1  0.30484500  0.92858400  0.61037000  1
  O  O74  1  0.85965800  0.67891600  0.55421600  1
  O  O75  1  0.55421600  0.85965800  0.67891600  1
  O  O76  1  0.92873900  0.61187400  0.80402200  1
  O  O77  1  0.61187400  0.80402200  0.92873900  1
  O  O78  1  0.80402200  0.92873900  0.61187400  1
