# generated using pymatgen
data_Li9Ga3P8O29
_symmetry_space_group_name_H-M   'P 1'
_cell_length_a   9.78115327
_cell_length_b   9.78115327
_cell_length_c   13.74601400
_cell_angle_alpha   90.00000000
_cell_angle_beta   90.00000000
_cell_angle_gamma   119.99999507
_symmetry_Int_Tables_number   1
_chemical_formula_structural   Li9Ga3P8O29
_chemical_formula_sum   'Li18 Ga6 P16 O58'
_cell_volume   1138.90516859
_cell_formula_units_Z   2
loop_
 _symmetry_equiv_pos_site_id
 _symmetry_equiv_pos_as_xyz
  1  'x, y, z'
loop_
 _atom_site_type_symbol
 _atom_site_label
 _atom_site_symmetry_multiplicity
 _atom_site_fract_x
 _atom_site_fract_y
 _atom_site_fract_z
 _atom_site_occupancy
  Li  Li0  1  0.23504000  0.89818000  0.43654500  1
  Li  Li1  1  0.89818000  0.66314000  0.56345500  1
  Li  Li2  1  0.10182000  0.76496000  0.93654500  1
  Li  Li3  1  0.76496000  0.10182000  0.56345500  1
  Li  Li4  1  0.33333300  0.66666700  0.61971400  1
  Li  Li5  1  0.76496000  0.66314000  0.06345500  1
  Li  Li6  1  0.23504000  0.33686000  0.93654500  1
  Li  Li7  1  0.33686000  0.23504000  0.56345500  1
  Li  Li8  1  0.66666700  0.33333300  0.88028600  1
  Li  Li9  1  0.33686000  0.10182000  0.06345500  1
  Li  Li10  1  0.00000000  0.00000000  0.50000000  1
  Li  Li11  1  0.89818000  0.23504000  0.06345500  1
  Li  Li12  1  0.66666700  0.33333300  0.38028600  1
  Li  Li13  1  0.66314000  0.76496000  0.43654500  1
  Li  Li14  1  0.66314000  0.89818000  0.93654500  1
  Li  Li15  1  0.10182000  0.33686000  0.43654500  1
  Li  Li16  1  0.33333300  0.66666700  0.11971400  1
  Li  Li17  1  0.00000000  0.00000000  0.00000000  1
  Ga  Ga18  1  0.00000000  0.56509200  0.75000000  1
  Ga  Ga19  1  0.43490800  0.43490800  0.75000000  1
  Ga  Ga20  1  0.56509200  0.00000000  0.75000000  1
  Ga  Ga21  1  0.43490800  0.00000000  0.25000000  1
  Ga  Ga22  1  0.00000000  0.43490800  0.25000000  1
  Ga  Ga23  1  0.56509200  0.56509200  0.25000000  1
  P  P24  1  0.66666700  0.33333300  0.12536200  1
  P  P25  1  0.77351500  0.68193400  0.84365000  1
  P  P26  1  0.68193400  0.77351500  0.65635000  1
  P  P27  1  0.66666700  0.33333300  0.62536200  1
  P  P28  1  0.31806600  0.09158100  0.84365000  1
  P  P29  1  0.22648500  0.90841900  0.65635000  1
  P  P30  1  0.77351500  0.09158100  0.34365000  1
  P  P31  1  0.33333300  0.66666700  0.37463800  1
  P  P32  1  0.90841900  0.22648500  0.84365000  1
  P  P33  1  0.09158100  0.31806600  0.65635000  1
  P  P34  1  0.33333300  0.66666700  0.87463800  1
  P  P35  1  0.09158100  0.77351500  0.15635000  1
  P  P36  1  0.68193400  0.90841900  0.15635000  1
  P  P37  1  0.22648500  0.31806600  0.15635000  1
  P  P38  1  0.90841900  0.68193400  0.34365000  1
  P  P39  1  0.31806600  0.22648500  0.34365000  1
  O  O40  1  0.00000000  0.78662800  0.25000000  1
  O  O41  1  0.81264200  0.32433200  0.16352100  1
  O  O42  1  0.51168900  0.18735800  0.16352100  1
  O  O43  1  0.62662000  0.10956900  0.33285100  1
  O  O44  1  0.51168900  0.32433200  0.66352100  1
  O  O45  1  0.48831100  0.81264200  0.83647900  1
  O  O46  1  0.22686400  0.99952700  0.93321100  1
  O  O47  1  0.89043100  0.51705100  0.33285100  1
  O  O48  1  0.78662800  0.78662800  0.75000000  1
  O  O49  1  0.25474000  0.33149600  0.65663400  1
  O  O50  1  0.10956900  0.62662000  0.16714900  1
  O  O51  1  0.33149600  0.25474000  0.84336600  1
  O  O52  1  0.67566800  0.18735800  0.66352100  1
  O  O53  1  0.18735800  0.67566800  0.83647900  1
  O  O54  1  0.18735800  0.51168900  0.33647900  1
  O  O55  1  0.37338000  0.89043100  0.66714900  1
  O  O56  1  0.92324400  0.25474000  0.34336600  1
  O  O57  1  0.78662800  0.00000000  0.25000000  1
  O  O58  1  0.22733700  0.00047300  0.56678900  1
  O  O59  1  0.66666700  0.33333300  0.51510100  1
  O  O60  1  0.10956900  0.48294900  0.66714900  1
  O  O61  1  0.21337200  0.00000000  0.75000000  1
  O  O62  1  0.67566800  0.48831100  0.16352100  1
  O  O63  1  0.33149600  0.07675600  0.34336600  1
  O  O64  1  0.51705100  0.89043100  0.16714900  1
  O  O65  1  0.99952700  0.22686400  0.56678900  1
  O  O66  1  0.00000000  0.21337200  0.75000000  1
  O  O67  1  0.33333300  0.66666700  0.48489900  1
  O  O68  1  0.22733700  0.22686400  0.06678900  1
  O  O69  1  0.77313600  0.00047300  0.06678900  1
  O  O70  1  0.48831100  0.67566800  0.33647900  1
  O  O71  1  0.62662000  0.51705100  0.83285100  1
  O  O72  1  0.77266300  0.99952700  0.43321100  1
  O  O73  1  0.66850400  0.74526000  0.15663400  1
  O  O74  1  0.99952700  0.77266300  0.06678900  1
  O  O75  1  0.77266300  0.77313600  0.93321100  1
  O  O76  1  0.48294900  0.10956900  0.83285100  1
  O  O77  1  0.32433200  0.51168900  0.83647900  1
  O  O78  1  0.51705100  0.62662000  0.66714900  1
  O  O79  1  0.74526000  0.66850400  0.34336600  1
  O  O80  1  0.66850400  0.92324400  0.65663400  1
  O  O81  1  0.25474000  0.92324400  0.15663400  1
  O  O82  1  0.00047300  0.77313600  0.43321100  1
  O  O83  1  0.32433200  0.81264200  0.33647900  1
  O  O84  1  0.81264200  0.48831100  0.66352100  1
  O  O85  1  0.92324400  0.66850400  0.84336600  1
  O  O86  1  0.37338000  0.48294900  0.16714900  1
  O  O87  1  0.66666700  0.33333300  0.01510100  1
  O  O88  1  0.07675600  0.33149600  0.15663400  1
  O  O89  1  0.07675600  0.74526000  0.65663400  1
  O  O90  1  0.48294900  0.37338000  0.33285100  1
  O  O91  1  0.77313600  0.77266300  0.56678900  1
  O  O92  1  0.33333300  0.66666700  0.98489900  1
  O  O93  1  0.89043100  0.37338000  0.83285100  1
  O  O94  1  0.22686400  0.22733700  0.43321100  1
  O  O95  1  0.00047300  0.22733700  0.93321100  1
  O  O96  1  0.74526000  0.07675600  0.84336600  1
  O  O97  1  0.21337200  0.21337200  0.25000000  1
