# generated using pymatgen
data_Li4P2O7
_symmetry_space_group_name_H-M   'P 1'
_cell_length_a   14.11846800
_cell_length_b   5.25963400
_cell_length_c   9.56035484
_cell_angle_alpha   56.68904263
_cell_angle_beta   90.00000000
_cell_angle_gamma   90.00000000
_symmetry_Int_Tables_number   1
_chemical_formula_structural   Li4P2O7
_chemical_formula_sum   'Li16 P8 O28'
_cell_volume   593.29232847
_cell_formula_units_Z   4
loop_
 _symmetry_equiv_pos_site_id
 _symmetry_equiv_pos_as_xyz
  1  'x, y, z'
loop_
 _atom_site_type_symbol
 _atom_site_label
 _atom_site_symmetry_multiplicity
 _atom_site_fract_x
 _atom_site_fract_y
 _atom_site_fract_z
 _atom_site_occupancy
  Li  Li0  1  0.78308900  0.85376900  0.94853200  1
  Li  Li1  1  0.17490500  0.74255000  0.45422500  1
  Li  Li2  1  0.94192200  0.73900200  0.44094800  1
  Li  Li3  1  0.60639900  0.10204700  0.56839200  1
  Li  Li4  1  0.55807800  0.73900200  0.94094800  1
  Li  Li5  1  0.71691100  0.85376900  0.44853200  1
  Li  Li6  1  0.82509500  0.25745000  0.54577500  1
  Li  Li7  1  0.10639900  0.89795300  0.93160800  1
  Li  Li8  1  0.05807800  0.26099800  0.55905200  1
  Li  Li9  1  0.67490500  0.25745000  0.04577500  1
  Li  Li10  1  0.39360100  0.89795300  0.43160800  1
  Li  Li11  1  0.28308900  0.14623100  0.55146800  1
  Li  Li12  1  0.89360100  0.10204700  0.06839200  1
  Li  Li13  1  0.32509500  0.74255000  0.95422500  1
  Li  Li14  1  0.21691100  0.14623100  0.05146800  1
  Li  Li15  1  0.44192200  0.26099800  0.05905200  1
  P  P16  1  0.05118800  0.56370400  0.76334400  1
  P  P17  1  0.55118800  0.43629600  0.73665600  1
  P  P18  1  0.33353700  0.44306800  0.73854300  1
  P  P19  1  0.66646300  0.55693200  0.26145700  1
  P  P20  1  0.94881200  0.43629600  0.23665600  1
  P  P21  1  0.44881200  0.56370400  0.26334400  1
  P  P22  1  0.83353700  0.55693200  0.76145700  1
  P  P23  1  0.16646300  0.44306800  0.23854300  1
  O  O24  1  0.43072900  0.85866200  0.25371200  1
  O  O25  1  0.28034500  0.72056200  0.59620100  1
  O  O26  1  0.56927100  0.14133800  0.74628800  1
  O  O27  1  0.88999500  0.70525300  0.10659700  1
  O  O28  1  0.71965500  0.27943800  0.40379900  1
  O  O29  1  0.55771800  0.45249400  0.33399400  1
  O  O30  1  0.78034500  0.27943800  0.90379900  1
  O  O31  1  0.18922000  0.14762600  0.25180700  1
  O  O32  1  0.81078000  0.85237400  0.74819300  1
  O  O33  1  0.38999500  0.29474700  0.39340300  1
  O  O34  1  0.44228200  0.54750600  0.66600600  1
  O  O35  1  0.17084700  0.40936200  0.40880700  1
  O  O36  1  0.94668100  0.38948700  0.41076900  1
  O  O37  1  0.61000500  0.70525300  0.60659700  1
  O  O38  1  0.05331900  0.61051300  0.58923100  1
  O  O39  1  0.11000500  0.29474700  0.89340300  1
  O  O40  1  0.67084700  0.59063800  0.09119300  1
  O  O41  1  0.82915300  0.59063800  0.59119300  1
  O  O42  1  0.32915300  0.40936200  0.90880700  1
  O  O43  1  0.93072900  0.14133800  0.24628800  1
  O  O44  1  0.55331900  0.38948700  0.91076900  1
  O  O45  1  0.06927100  0.85866200  0.75371200  1
  O  O46  1  0.68922000  0.85237400  0.24819300  1
  O  O47  1  0.21965500  0.72056200  0.09620100  1
  O  O48  1  0.44668100  0.61051300  0.08923100  1
  O  O49  1  0.05771800  0.54750600  0.16600600  1
  O  O50  1  0.94228200  0.45249400  0.83399400  1
  O  O51  1  0.31078000  0.14762600  0.75180700  1
