# generated using pymatgen
data_LiNiPO4
_symmetry_space_group_name_H-M   'P 1'
_cell_length_a   9.93382141
_cell_length_b   9.93382141
_cell_length_c   16.51550287
_cell_angle_alpha   80.89192253
_cell_angle_beta   80.89192253
_cell_angle_gamma   59.73648173
_symmetry_Int_Tables_number   1
_chemical_formula_structural   LiNiPO4
_chemical_formula_sum   'Li16 Ni16 P16 O64'
_cell_volume   1384.00168014
_cell_formula_units_Z   16
loop_
 _symmetry_equiv_pos_site_id
 _symmetry_equiv_pos_as_xyz
  1  'x, y, z'
loop_
 _atom_site_type_symbol
 _atom_site_label
 _atom_site_symmetry_multiplicity
 _atom_site_fract_x
 _atom_site_fract_y
 _atom_site_fract_z
 _atom_site_occupancy
  Li  Li0  1  0.88277100  0.26644600  0.12749800  1
  Li  Li1  1  0.44078600  0.77345300  0.12615800  1
  Li  Li2  1  0.26644600  0.88277100  0.62749800  1
  Li  Li3  1  0.77345300  0.44078600  0.62615800  1
  Li  Li4  1  0.99302900  0.33577200  0.37785100  1
  Li  Li5  1  0.50393800  0.89027500  0.37735000  1
  Li  Li6  1  0.33577200  0.99302900  0.87785100  1
  Li  Li7  1  0.89027500  0.50393800  0.87735000  1
  Li  Li8  1  0.38009500  0.27920800  0.12686300  1
  Li  Li9  1  0.93649400  0.78258300  0.12396500  1
  Li  Li10  1  0.27920800  0.38009500  0.62686300  1
  Li  Li11  1  0.78258300  0.93649400  0.62396500  1
  Li  Li12  1  0.99956700  0.83196300  0.37595100  1
  Li  Li13  1  0.49889200  0.39307700  0.38117700  1
  Li  Li14  1  0.83196300  0.99956700  0.87595100  1
  Li  Li15  1  0.39307700  0.49889200  0.88117700  1
  Ni  Ni16  1  0.20390700  0.80746000  0.00347000  1
  Ni  Ni17  1  0.80746000  0.20390700  0.50347000  1
  Ni  Ni18  1  0.70044700  0.58968900  0.24688900  1
  Ni  Ni19  1  0.24445100  0.08778400  0.24613400  1
  Ni  Ni20  1  0.14499200  0.30750500  0.00174400  1
  Ni  Ni21  1  0.70219200  0.80483700  0.00548400  1
  Ni  Ni22  1  0.58968900  0.70044700  0.74688900  1
  Ni  Ni23  1  0.08778400  0.24445100  0.74613400  1
  Ni  Ni24  1  0.30750500  0.14499200  0.50174400  1
  Ni  Ni25  1  0.80483700  0.70219200  0.50548400  1
  Ni  Ni26  1  0.18537600  0.56496200  0.25708000  1
  Ni  Ni27  1  0.74526500  0.09514000  0.24812600  1
  Ni  Ni28  1  0.65335900  0.30148400  0.00756000  1
  Ni  Ni29  1  0.56496200  0.18537600  0.75708000  1
  Ni  Ni30  1  0.09514000  0.74526500  0.74812600  1
  Ni  Ni31  1  0.30148400  0.65335900  0.50756000  1
  P  P32  1  0.10037200  0.91258600  0.19171300  1
  P  P33  1  0.91258600  0.10037200  0.69171300  1
  P  P34  1  0.16213800  0.99031400  0.43692400  1
  P  P35  1  0.65818900  0.54630900  0.43958200  1
  P  P36  1  0.99031400  0.16213800  0.93692400  1
  P  P37  1  0.54630900  0.65818900  0.93958200  1
  P  P38  1  0.03965800  0.41946300  0.18741400  1
  P  P39  1  0.59809100  0.92302900  0.19215500  1
  P  P40  1  0.41946300  0.03965800  0.68741400  1
  P  P41  1  0.92302900  0.59809100  0.69215500  1
  P  P42  1  0.15883100  0.48999600  0.44228400  1
  P  P43  1  0.66325300  0.04400000  0.43954800  1
  P  P44  1  0.48999600  0.15883100  0.94228400  1
  P  P45  1  0.04400100  0.66325300  0.93954800  1
  P  P46  1  0.53849900  0.42244900  0.19413600  1
  P  P47  1  0.42244900  0.53849900  0.69413600  1
  O  O48  1  0.95401900  0.07454800  0.20734900  1
  O  O49  1  0.42529400  0.74557300  0.01193300  1
  O  O50  1  0.53502300  0.57829700  0.19935000  1
  O  O51  1  0.49693400  0.56085300  0.43458900  1
  O  O52  1  0.98658200  0.23736900  0.01445400  1
  O  O53  1  0.24792200  0.93214400  0.18263700  1
  O  O54  1  0.07454800  0.95401900  0.70734900  1
  O  O55  1  0.99962400  0.13887000  0.42851200  1
  O  O56  1  0.74557300  0.42529400  0.51193300  1
  O  O57  1  0.57829700  0.53502300  0.69935000  1
  O  O58  1  0.56085300  0.49693400  0.93458900  1
  O  O59  1  0.76287800  0.48577600  0.35851700  1
  O  O60  1  0.27476200  0.99372000  0.36121500  1
  O  O61  1  0.87978700  0.43571700  0.17746500  1
  O  O62  1  0.23736900  0.98658200  0.51445400  1
  O  O63  1  0.93214400  0.24792200  0.68263700  1
  O  O64  1  0.13887000  0.99962400  0.92851200  1
  O  O65  1  0.60264800  0.84077500  0.11789500  1
  O  O66  1  0.63452400  0.70798200  0.45397200  1
  O  O67  1  0.11084400  0.31388800  0.26722500  1
  O  O68  1  0.60310100  0.81124300  0.27043300  1
  O  O69  1  0.48577600  0.76287800  0.85851700  1
  O  O70  1  0.99372000  0.27476200  0.86121500  1
  O  O71  1  0.43571700  0.87978700  0.67746500  1
  O  O72  1  0.15890300  0.33637500  0.11416200  1
  O  O73  1  0.44537200  0.08233700  0.20098000  1
  O  O74  1  0.13509900  0.34472500  0.45469500  1
  O  O75  1  0.84077500  0.60264800  0.61789500  1
  O  O76  1  0.70798200  0.63452400  0.95397200  1
  O  O77  1  0.31388800  0.11084400  0.76722500  1
  O  O78  1  0.81124300  0.60310100  0.77043300  1
  O  O79  1  0.92297800  0.74419000  0.01295700  1
  O  O80  1  0.01998100  0.58266900  0.19385100  1
  O  O81  1  0.33637500  0.15890300  0.61416200  1
  O  O82  1  0.50414100  0.05630900  0.43051900  1
  O  O83  1  0.49415900  0.23273000  0.01770600  1
  O  O84  1  0.74168100  0.94910200  0.17921900  1
  O  O85  1  0.08233700  0.44537200  0.70098000  1
  O  O86  1  0.99722600  0.63845900  0.42992700  1
  O  O87  1  0.34472500  0.13509900  0.95469500  1
  O  O88  1  0.74419000  0.92297800  0.51295700  1
  O  O89  1  0.58266900  0.01998100  0.69385100  1
  O  O90  1  0.05630900  0.50414100  0.93051900  1
  O  O91  1  0.27221600  0.48439100  0.36492600  1
  O  O92  1  0.77463200  0.98523000  0.36054400  1
  O  O93  1  0.37381700  0.45428600  0.17973400  1
  O  O94  1  0.23273000  0.49415900  0.51770600  1
  O  O95  1  0.94910200  0.74168100  0.67921900  1
  O  O96  1  0.63845900  0.99722600  0.92992700  1
  O  O97  1  0.09278000  0.85455200  0.11151600  1
  O  O98  1  0.63394600  0.20697500  0.45587200  1
  O  O99  1  0.10355300  0.79088500  0.26397300  1
  O  O100  1  0.59858100  0.31380500  0.27422700  1
  O  O101  1  0.48439100  0.27221600  0.86492600  1
  O  O102  1  0.98523000  0.77463200  0.86054400  1
  O  O103  1  0.65721500  0.32970900  0.12223300  1
  O  O104  1  0.45428600  0.37381700  0.67973400  1
  O  O105  1  0.14285200  0.84294700  0.44586300  1
  O  O106  1  0.85455200  0.09278000  0.61151600  1
  O  O107  1  0.20697500  0.63394600  0.95587200  1
  O  O108  1  0.79088500  0.10355300  0.76397300  1
  O  O109  1  0.31380500  0.59858100  0.77422700  1
  O  O110  1  0.32970900  0.65721500  0.62223300  1
  O  O111  1  0.84294700  0.14285200  0.94586300  1
