# generated using pymatgen
data_LiMg4V3O12
_symmetry_space_group_name_H-M   'P 1'
_cell_length_a   10.77345031
_cell_length_b   10.77345031
_cell_length_c   10.77345031
_cell_angle_alpha   142.32001832
_cell_angle_beta   142.32001832
_cell_angle_gamma   54.34704036
_symmetry_Int_Tables_number   1
_chemical_formula_structural   LiMg4V3O12
_chemical_formula_sum   'Li2 Mg8 V6 O24'
_cell_volume   464.02311565
_cell_formula_units_Z   2
loop_
 _symmetry_equiv_pos_site_id
 _symmetry_equiv_pos_as_xyz
  1  'x, y, z'
loop_
 _atom_site_type_symbol
 _atom_site_label
 _atom_site_symmetry_multiplicity
 _atom_site_fract_x
 _atom_site_fract_y
 _atom_site_fract_z
 _atom_site_occupancy
  Li  Li0  1  0.25000000  0.75000000  0.50000000  1
  Li  Li1  1  0.50000000  0.50000000  0.00000000  1
  Mg  Mg2  1  0.97524700  0.47524700  0.50000000  1
  Mg  Mg3  1  0.52475300  0.02475300  0.50000000  1
  Mg  Mg4  1  0.37500000  0.36727900  0.49227900  1
  Mg  Mg5  1  0.11727900  0.62500000  0.99227900  1
  Mg  Mg6  1  0.77475300  0.77475300  0.00000000  1
  Mg  Mg7  1  0.22524700  0.22524700  0.00000000  1
  Mg  Mg8  1  0.87500000  0.88272100  0.50772100  1
  Mg  Mg9  1  0.63272100  0.12500000  0.00772100  1
  V  V10  1  0.37500000  0.77481800  0.89981800  1
  V  V11  1  0.52481800  0.62500000  0.39981800  1
  V  V12  1  0.22518200  0.12500000  0.60018200  1
  V  V13  1  0.75000000  0.25000000  0.50000000  1
  V  V14  1  0.87500000  0.47518200  0.10018200  1
  V  V15  1  0.00000000  0.00000000  0.00000000  1
  O  O16  1  0.49401600  0.25784000  0.34285800  1
  O  O17  1  0.90561000  0.70523800  0.22238100  1
  O  O18  1  0.83501800  0.99216000  0.73617600  1
  O  O19  1  0.43322900  0.73285800  0.27761900  1
  O  O20  1  0.84884200  0.50598400  0.76382400  1
  O  O21  1  0.91498200  0.15115800  0.65714200  1
  O  O22  1  0.64207700  0.32894700  0.76869400  1
  O  O23  1  0.25598400  0.09884200  0.26382400  1
  O  O24  1  0.12661600  0.35792300  0.68687000  1
  O  O25  1  0.84439000  0.56677100  0.29962900  1
  O  O26  1  0.18974700  0.92105300  0.81313000  1
  O  O27  1  0.90115800  0.16498200  0.15714200  1
  O  O28  1  0.74216000  0.08501800  0.23617600  1
  O  O29  1  0.62338400  0.81025300  0.73130600  1
  O  O30  1  0.48285800  0.68322900  0.77761900  1
  O  O31  1  0.07894700  0.89207700  0.26869400  1
  O  O32  1  0.31677100  0.09439000  0.79962900  1
  O  O33  1  0.56025300  0.87338400  0.23130600  1
  O  O34  1  0.45523800  0.15561000  0.72238100  1
  O  O35  1  0.29476200  0.51714200  0.20037100  1
  O  O36  1  0.67105300  0.43974700  0.31313000  1
  O  O37  1  0.26714200  0.54476200  0.70037100  1
  O  O38  1  0.00784000  0.74401600  0.84285800  1
  O  O39  1  0.10792300  0.37661600  0.18687000  1
