# generated using pymatgen
data_LiYb(PO3)4
_symmetry_space_group_name_H-M   'P 1'
_cell_length_a   9.05917930
_cell_length_b   9.05917930
_cell_length_c   9.86966035
_cell_angle_alpha   57.09671148
_cell_angle_beta   57.09671148
_cell_angle_gamma   46.66332442
_symmetry_Int_Tables_number   1
_chemical_formula_structural   LiYb(PO3)4
_chemical_formula_sum   'Li2 Yb2 P8 O24'
_cell_volume   474.97830108
_cell_formula_units_Z   2
loop_
 _symmetry_equiv_pos_site_id
 _symmetry_equiv_pos_as_xyz
  1  'x, y, z'
loop_
 _atom_site_type_symbol
 _atom_site_label
 _atom_site_symmetry_multiplicity
 _atom_site_fract_x
 _atom_site_fract_y
 _atom_site_fract_z
 _atom_site_occupancy
  Li  Li0  1  0.29478700  0.70521300  0.75000000  1
  Li  Li1  1  0.70521300  0.29478700  0.25000000  1
  Yb  Yb2  1  0.20537600  0.79462400  0.25000000  1
  Yb  Yb3  1  0.79462400  0.20537600  0.75000000  1
  P  P4  1  0.69092700  0.58636400  0.88459800  1
  P  P5  1  0.70394900  0.00518600  0.19269200  1
  P  P6  1  0.99481400  0.29605100  0.30730800  1
  P  P7  1  0.00518600  0.70394900  0.69269200  1
  P  P8  1  0.29605100  0.99481400  0.80730800  1
  P  P9  1  0.41363600  0.30907300  0.61540200  1
  P  P10  1  0.58636400  0.69092700  0.38459800  1
  P  P11  1  0.30907300  0.41363600  0.11540200  1
  O  O12  1  0.98547800  0.76793100  0.52488300  1
  O  O13  1  0.53023200  0.78604800  0.77169300  1
  O  O14  1  0.17364600  0.33284900  0.15368700  1
  O  O15  1  0.21395200  0.46976800  0.72830700  1
  O  O16  1  0.55951300  0.57747700  0.56962500  1
  O  O17  1  0.46976800  0.21395200  0.22830700  1
  O  O18  1  0.59559900  0.17672100  0.68479400  1
  O  O19  1  0.40440100  0.82327900  0.31520600  1
  O  O20  1  0.33284900  0.17364600  0.65368700  1
  O  O21  1  0.01598900  0.84083200  0.72448900  1
  O  O22  1  0.44048700  0.42252300  0.43037500  1
  O  O23  1  0.78604800  0.53023200  0.27169300  1
  O  O24  1  0.66715100  0.82635400  0.34631300  1
  O  O25  1  0.76793100  0.98547800  0.02488300  1
  O  O26  1  0.15916800  0.98401100  0.77551100  1
  O  O27  1  0.82635400  0.66715100  0.84631300  1
  O  O28  1  0.57747700  0.55951300  0.06962500  1
  O  O29  1  0.17672100  0.59559900  0.18479400  1
  O  O30  1  0.98401100  0.15916800  0.27551100  1
  O  O31  1  0.01452200  0.23206900  0.47511700  1
  O  O32  1  0.82327900  0.40440100  0.81520600  1
  O  O33  1  0.84083200  0.01598900  0.22448900  1
  O  O34  1  0.23206900  0.01452200  0.97511700  1
  O  O35  1  0.42252300  0.44048700  0.93037500  1
