# generated using pymatgen
data_LiMnPO4
_symmetry_space_group_name_H-M   'P 1'
_cell_length_a   10.23570052
_cell_length_b   10.23570052
_cell_length_c   17.71461018
_cell_angle_alpha   72.10124682
_cell_angle_beta   72.10124682
_cell_angle_gamma   59.05688652
_symmetry_Int_Tables_number   1
_chemical_formula_structural   LiMnPO4
_chemical_formula_sum   'Li16 Mn16 P16 O64'
_cell_volume   1489.20533094
_cell_formula_units_Z   16
loop_
 _symmetry_equiv_pos_site_id
 _symmetry_equiv_pos_as_xyz
  1  'x, y, z'
loop_
 _atom_site_type_symbol
 _atom_site_label
 _atom_site_symmetry_multiplicity
 _atom_site_fract_x
 _atom_site_fract_y
 _atom_site_fract_z
 _atom_site_occupancy
  Li  Li0  1  0.25821100  0.18203600  0.93616700  1
  Li  Li1  1  0.12306800  0.75820800  0.43738500  1
  Li  Li2  1  0.25801000  0.68349300  0.93606200  1
  Li  Li3  1  0.49361900  0.88068100  0.68631700  1
  Li  Li4  1  0.44136000  0.37520700  0.68494700  1
  Li  Li5  1  0.62297500  0.75952100  0.43700400  1
  Li  Li6  1  0.36895900  0.93999400  0.18693200  1
  Li  Li7  1  0.37520700  0.44136000  0.18494700  1
  Li  Li8  1  0.75820800  0.12306800  0.93738500  1
  Li  Li9  1  0.99344100  0.87304000  0.68695500  1
  Li  Li10  1  0.75952100  0.62297500  0.93700400  1
  Li  Li11  1  0.93999400  0.36895900  0.68693200  1
  Li  Li12  1  0.68349300  0.25801000  0.43606200  1
  Li  Li13  1  0.87304000  0.99344100  0.18695500  1
  Li  Li14  1  0.88068100  0.49361900  0.18631700  1
  Li  Li15  1  0.18203600  0.25821100  0.43616700  1
  Mn  Mn16  1  0.12461000  0.50405100  0.81191500  1
  Mn  Mn17  1  0.12973300  0.00377600  0.81255600  1
  Mn  Mn18  1  0.00377600  0.12973300  0.31255600  1
  Mn  Mn19  1  0.74180400  0.81548200  0.06252200  1
  Mn  Mn20  1  0.63066100  0.05873600  0.81277500  1
  Mn  Mn21  1  0.62576900  0.55781800  0.81361000  1
  Mn  Mn22  1  0.24296900  0.87526300  0.06160700  1
  Mn  Mn23  1  0.87526300  0.24296900  0.56160700  1
  Mn  Mn24  1  0.37743900  0.23939100  0.56152100  1
  Mn  Mn25  1  0.50405100  0.12461000  0.31191500  1
  Mn  Mn26  1  0.81548200  0.74180400  0.56252200  1
  Mn  Mn27  1  0.55781800  0.62576900  0.31361000  1
  Mn  Mn28  1  0.31526300  0.74103900  0.56211600  1
  Mn  Mn29  1  0.74103900  0.31526300  0.06211600  1
  Mn  Mn30  1  0.23939100  0.37743900  0.06152100  1
  Mn  Mn31  1  0.05873600  0.63066100  0.31277500  1
  P  P32  1  0.06458200  0.68497900  0.12280700  1
  P  P33  1  0.68497900  0.06458200  0.62280700  1
  P  P34  1  0.62805700  0.56559700  0.62463800  1
  P  P35  1  0.31534200  0.93521300  0.37495900  1
  P  P36  1  0.18325300  0.06255500  0.62341800  1
  P  P37  1  0.81661400  0.93775800  0.37508000  1
  P  P38  1  0.43820000  0.87230900  0.87347800  1
  P  P39  1  0.06255500  0.18325300  0.12341800  1
  P  P40  1  0.37159600  0.43445600  0.37348300  1
  P  P41  1  0.12713000  0.56222400  0.62461000  1
  P  P42  1  0.87230900  0.43820000  0.37347800  1
  P  P43  1  0.93775800  0.81661400  0.87508000  1
  P  P44  1  0.43445600  0.37159600  0.87348300  1
  P  P45  1  0.56222400  0.12713000  0.12461000  1
  P  P46  1  0.93521300  0.31534200  0.87495900  1
  P  P47  1  0.56559700  0.62805700  0.12463800  1
  O  O48  1  0.11049300  0.17376600  0.54830500  1
  O  O49  1  0.87021900  0.91551800  0.79672600  1
  O  O50  1  0.35033200  0.03953400  0.61083100  1
  O  O51  1  0.17308500  0.61256700  0.04707400  1
  O  O52  1  0.95338300  0.65159300  0.89126200  1
  O  O53  1  0.66982000  0.16707300  0.04771600  1
  O  O54  1  0.27054500  0.40049800  0.63745700  1
  O  O55  1  0.66919500  0.67004600  0.04623500  1
  O  O56  1  0.32376500  0.32831600  0.94702200  1
  O  O57  1  0.83115700  0.32418200  0.44570700  1
  O  O58  1  0.61256700  0.17308500  0.54707400  1
  O  O59  1  0.41157600  0.36524000  0.29754300  1
  O  O60  1  0.90063000  0.82219900  0.44612800  1
  O  O61  1  0.13790200  0.08051100  0.19906600  1
  O  O62  1  0.04047500  0.85236700  0.11039400  1
  O  O63  1  0.32418200  0.83115700  0.94570700  1
  O  O64  1  0.17376600  0.11049300  0.04830500  1
  O  O65  1  0.36524000  0.41157600  0.79754300  1
  O  O66  1  0.60042400  0.23327900  0.86424700  1
  O  O67  1  0.91551800  0.87021900  0.29672600  1
  O  O68  1  0.80505000  0.09969500  0.36416200  1
  O  O69  1  0.14969000  0.95235600  0.39168100  1
  O  O70  1  0.40234000  0.76878500  0.13827200  1
  O  O71  1  0.58178500  0.14563200  0.69652600  1
  O  O72  1  0.68731100  0.90586200  0.63750500  1
  O  O73  1  0.82154000  0.39991400  0.94615300  1
  O  O74  1  0.14563200  0.58178500  0.19652600  1
  O  O75  1  0.65159300  0.95338300  0.39126200  1
  O  O76  1  0.08051100  0.13790200  0.69906600  1
  O  O77  1  0.51106200  0.44366600  0.38480200  1
  O  O78  1  0.41337000  0.86414800  0.29762700  1
  O  O79  1  0.58573700  0.64752200  0.69590200  1
  O  O80  1  0.03953400  0.35033200  0.11083100  1
  O  O81  1  0.32831600  0.32376500  0.44702200  1
  O  O82  1  0.91668500  0.37058600  0.29621100  1
  O  O83  1  0.45057900  0.00873600  0.88620600  1
  O  O84  1  0.30432500  0.09726100  0.36317600  1
  O  O85  1  0.82219900  0.90063000  0.94612800  1
  O  O86  1  0.37058600  0.91668500  0.79621100  1
  O  O87  1  0.60202200  0.73088800  0.86431200  1
  O  O88  1  0.64752200  0.58573700  0.19590200  1
  O  O89  1  0.49097100  0.54802400  0.61709200  1
  O  O90  1  0.99183900  0.54325600  0.61584600  1
  O  O91  1  0.39991400  0.82154000  0.44615300  1
  O  O92  1  0.54325600  0.99183900  0.11584600  1
  O  O93  1  0.54802400  0.49097100  0.11709200  1
  O  O94  1  0.67004600  0.66919500  0.54623500  1
  O  O95  1  0.90362300  0.18641800  0.13708400  1
  O  O96  1  0.40049800  0.27054500  0.13745700  1
  O  O97  1  0.86414800  0.41337000  0.79762700  1
  O  O98  1  0.73088800  0.60202200  0.36431200  1
  O  O99  1  0.90586200  0.68731100  0.13750500  1
  O  O100  1  0.08264200  0.63925500  0.69832600  1
  O  O101  1  0.23327900  0.60042400  0.36424700  1
  O  O102  1  0.63925500  0.08264200  0.19832600  1
  O  O103  1  0.00873600  0.45057900  0.38620600  1
  O  O104  1  0.18641800  0.90362300  0.63708400  1
  O  O105  1  0.09726100  0.30432500  0.86317600  1
  O  O106  1  0.09969500  0.80505000  0.86416200  1
  O  O107  1  0.76878500  0.40234000  0.63827200  1
  O  O108  1  0.16707300  0.66982000  0.54771600  1
  O  O109  1  0.95235600  0.14969000  0.89168100  1
  O  O110  1  0.85236700  0.04047500  0.61039400  1
  O  O111  1  0.44366600  0.51106200  0.88480200  1
