# generated using pymatgen
data_LiCo3P3O11
_symmetry_space_group_name_H-M   'P 1'
_cell_length_a   9.66646900
_cell_length_b   9.84734100
_cell_length_c   10.31672731
_cell_angle_alpha   60.11901924
_cell_angle_beta   90.00000000
_cell_angle_gamma   90.00000000
_symmetry_Int_Tables_number   1
_chemical_formula_structural   LiCo3P3O11
_chemical_formula_sum   'Li4 Co12 P12 O44'
_cell_volume   851.48897879
_cell_formula_units_Z   4
loop_
 _symmetry_equiv_pos_site_id
 _symmetry_equiv_pos_as_xyz
  1  'x, y, z'
loop_
 _atom_site_type_symbol
 _atom_site_label
 _atom_site_symmetry_multiplicity
 _atom_site_fract_x
 _atom_site_fract_y
 _atom_site_fract_z
 _atom_site_occupancy
  Li  Li0  1  0.17132800  0.69648600  0.79625100  1
  Li  Li1  1  0.67132800  0.30351400  0.70374900  1
  Li  Li2  1  0.82867200  0.30351400  0.20374900  1
  Li  Li3  1  0.32867200  0.69648600  0.29625100  1
  Co  Co4  1  0.63163900  0.72725900  0.12865700  1
  Co  Co5  1  0.36873800  0.08512900  0.23211600  1
  Co  Co6  1  0.62515800  0.10018700  0.39667200  1
  Co  Co7  1  0.36836100  0.27274100  0.87134300  1
  Co  Co8  1  0.63126200  0.91487100  0.76788400  1
  Co  Co9  1  0.86873800  0.91487100  0.26788400  1
  Co  Co10  1  0.37484200  0.89981300  0.60332800  1
  Co  Co11  1  0.12515800  0.89981300  0.10332800  1
  Co  Co12  1  0.86836100  0.72725900  0.62865700  1
  Co  Co13  1  0.87484200  0.10018700  0.89667200  1
  Co  Co14  1  0.13163900  0.27274100  0.37134300  1
  Co  Co15  1  0.13126200  0.08512900  0.73211600  1
  P  P16  1  0.43369000  0.40569100  0.24499700  1
  P  P17  1  0.66205600  0.10751500  0.06550700  1
  P  P18  1  0.92159800  0.76320700  0.92932700  1
  P  P19  1  0.56631000  0.59430900  0.75500300  1
  P  P20  1  0.07840200  0.23679300  0.07067300  1
  P  P21  1  0.42159800  0.23679300  0.57067300  1
  P  P22  1  0.83794400  0.10751500  0.56550700  1
  P  P23  1  0.57840200  0.76320700  0.42932700  1
  P  P24  1  0.33794400  0.89248500  0.93449300  1
  P  P25  1  0.93369000  0.59430900  0.25500300  1
  P  P26  1  0.16205600  0.89248500  0.43449300  1
  P  P27  1  0.06631000  0.40569100  0.74499700  1
  O  O28  1  0.72041600  0.22789800  0.91033100  1
  O  O29  1  0.50716400  0.91470900  0.41632000  1
  O  O30  1  0.77958400  0.22789800  0.41033100  1
  O  O31  1  0.52304000  0.73159700  0.30933200  1
  O  O32  1  0.47696000  0.26840300  0.69066800  1
  O  O33  1  0.98116300  0.54558100  0.64065800  1
  O  O34  1  0.98404500  0.75013700  0.24548800  1
  O  O35  1  0.26351900  0.22380700  0.56437000  1
  O  O36  1  0.02304000  0.26840300  0.19066800  1
  O  O37  1  0.48404500  0.24986300  0.25451200  1
  O  O38  1  0.50301200  0.11143100  0.06530400  1
  O  O39  1  0.27958400  0.77210200  0.08966900  1
  O  O40  1  0.27341500  0.05433300  0.90522700  1
  O  O41  1  0.23648100  0.22380700  0.06437000  1
  O  O42  1  0.52945100  0.62048500  0.58578300  1
  O  O43  1  0.22208400  0.41990200  0.72866500  1
  O  O44  1  0.72867700  0.12611100  0.19514500  1
  O  O45  1  0.22041600  0.77210200  0.58966900  1
  O  O46  1  0.48116300  0.45441900  0.85934200  1
  O  O47  1  0.51883700  0.54558100  0.14065800  1
  O  O48  1  0.47054900  0.37951500  0.41421700  1
  O  O49  1  0.27132300  0.87388900  0.80485500  1
  O  O50  1  0.22867700  0.87388900  0.30485500  1
  O  O51  1  0.77341500  0.94566700  0.59477300  1
  O  O52  1  0.77791600  0.58009800  0.27133500  1
  O  O53  1  0.01883700  0.45441900  0.35934200  1
  O  O54  1  0.00716400  0.08529100  0.08368000  1
  O  O55  1  0.97696000  0.73159700  0.80933200  1
  O  O56  1  0.99283600  0.91470900  0.91632000  1
  O  O57  1  0.72208400  0.58009800  0.77133500  1
  O  O58  1  0.22658500  0.05433300  0.40522700  1
  O  O59  1  0.27791600  0.41990200  0.22866500  1
  O  O60  1  0.73648100  0.77619300  0.43563000  1
  O  O61  1  0.76351900  0.77619300  0.93563000  1
  O  O62  1  0.49283600  0.08529100  0.58368000  1
  O  O63  1  0.00301200  0.88856900  0.43469600  1
  O  O64  1  0.02945100  0.37951500  0.91421700  1
  O  O65  1  0.77132300  0.12611100  0.69514500  1
  O  O66  1  0.49698800  0.88856900  0.93469600  1
  O  O67  1  0.72658500  0.94566700  0.09477300  1
  O  O68  1  0.97054900  0.62048500  0.08578300  1
  O  O69  1  0.01595500  0.24986300  0.75451200  1
  O  O70  1  0.99698800  0.11143100  0.56530400  1
  O  O71  1  0.51595500  0.75013700  0.74548800  1
