# generated using pymatgen
data_Li3BiO4
_symmetry_space_group_name_H-M   'P 1'
_cell_length_a   8.86838200
_cell_length_b   8.86838200
_cell_length_c   4.30858100
_cell_angle_alpha   90.00000000
_cell_angle_beta   90.00000000
_cell_angle_gamma   90.00000000
_symmetry_Int_Tables_number   1
_chemical_formula_structural   Li3BiO4
_chemical_formula_sum   'Li12 Bi4 O16'
_cell_volume   338.86213718
_cell_formula_units_Z   4
loop_
 _symmetry_equiv_pos_site_id
 _symmetry_equiv_pos_as_xyz
  1  'x, y, z'
loop_
 _atom_site_type_symbol
 _atom_site_label
 _atom_site_symmetry_multiplicity
 _atom_site_fract_x
 _atom_site_fract_y
 _atom_site_fract_z
 _atom_site_occupancy
  Li  Li0  1  0.86986400  0.13013600  0.50000000  1
  Li  Li1  1  0.63013600  0.63013600  0.00000000  1
  Li  Li2  1  0.39463500  0.88760900  0.00000000  1
  Li  Li3  1  0.61239100  0.89463500  0.50000000  1
  Li  Li4  1  0.13013600  0.86986400  0.50000000  1
  Li  Li5  1  0.10536500  0.38760900  0.50000000  1
  Li  Li6  1  0.88760900  0.39463500  0.00000000  1
  Li  Li7  1  0.60536500  0.11239100  0.00000000  1
  Li  Li8  1  0.89463500  0.61239100  0.50000000  1
  Li  Li9  1  0.36986400  0.36986400  0.00000000  1
  Li  Li10  1  0.11239100  0.60536500  0.00000000  1
  Li  Li11  1  0.38760900  0.10536500  0.50000000  1
  Bi  Bi12  1  0.36620900  0.63379100  0.50000000  1
  Bi  Bi13  1  0.63379100  0.36620900  0.50000000  1
  Bi  Bi14  1  0.86620900  0.86620900  0.00000000  1
  Bi  Bi15  1  0.13379100  0.13379100  0.00000000  1
  O  O16  1  0.88740700  0.11259300  0.00000000  1
  O  O17  1  0.38740700  0.38740700  0.50000000  1
  O  O18  1  0.62099500  0.13256700  0.50000000  1
  O  O19  1  0.86743300  0.37900500  0.50000000  1
  O  O20  1  0.87553600  0.87553600  0.50000000  1
  O  O21  1  0.12446400  0.12446400  0.50000000  1
  O  O22  1  0.13256700  0.62099500  0.50000000  1
  O  O23  1  0.61259300  0.61259300  0.50000000  1
  O  O24  1  0.63256700  0.87900500  0.00000000  1
  O  O25  1  0.12099500  0.36743300  0.00000000  1
  O  O26  1  0.37553600  0.62446400  0.00000000  1
  O  O27  1  0.62446400  0.37553600  0.00000000  1
  O  O28  1  0.87900500  0.63256700  0.00000000  1
  O  O29  1  0.37900500  0.86743300  0.50000000  1
  O  O30  1  0.11259300  0.88740700  0.00000000  1
  O  O31  1  0.36743300  0.12099500  0.00000000  1
