# generated using pymatgen
data_LiNi6P7O24
_symmetry_space_group_name_H-M   'P 1'
_cell_length_a   26.38660500
_cell_length_b   5.25083900
_cell_length_c   6.40251461
_cell_angle_alpha   72.64312514
_cell_angle_beta   90.00000000
_cell_angle_gamma   90.00000000
_symmetry_Int_Tables_number   1
_chemical_formula_structural   LiNi6P7O24
_chemical_formula_sum   'Li2 Ni12 P14 O48'
_cell_volume   846.68695240
_cell_formula_units_Z   2
loop_
 _symmetry_equiv_pos_site_id
 _symmetry_equiv_pos_as_xyz
  1  'x, y, z'
loop_
 _atom_site_type_symbol
 _atom_site_label
 _atom_site_symmetry_multiplicity
 _atom_site_fract_x
 _atom_site_fract_y
 _atom_site_fract_z
 _atom_site_occupancy
  Li  Li0  1  0.25000000  0.13502800  0.53683300  1
  Li  Li1  1  0.75000000  0.86497200  0.46316700  1
  Ni  Ni2  1  0.90288800  0.79643700  0.08827400  1
  Ni  Ni3  1  0.09711200  0.20356300  0.91172600  1
  Ni  Ni4  1  0.54782900  0.18919000  0.31068600  1
  Ni  Ni5  1  0.31717500  0.87517300  0.27466300  1
  Ni  Ni6  1  0.68282500  0.12482700  0.72533700  1
  Ni  Ni7  1  0.04782900  0.81081000  0.68931400  1
  Ni  Ni8  1  0.81717500  0.12482700  0.72533700  1
  Ni  Ni9  1  0.95217100  0.18919000  0.31068600  1
  Ni  Ni10  1  0.18282500  0.87517300  0.27466300  1
  Ni  Ni11  1  0.40288800  0.20356300  0.91172600  1
  Ni  Ni12  1  0.45217100  0.81081000  0.68931400  1
  Ni  Ni13  1  0.59711200  0.79643700  0.08827400  1
  P  P14  1  0.88951900  0.68545900  0.61676800  1
  P  P15  1  0.75000000  0.53597500  0.90544000  1
  P  P16  1  0.47600000  0.71054900  0.20471300  1
  P  P17  1  0.11048100  0.31454100  0.38323200  1
  P  P18  1  0.38951900  0.31454100  0.38323200  1
  P  P19  1  0.66705300  0.24338100  0.19538700  1
  P  P20  1  0.97600000  0.28945100  0.79528700  1
  P  P21  1  0.02400000  0.71054900  0.20471300  1
  P  P22  1  0.16705300  0.75661900  0.80461300  1
  P  P23  1  0.25000000  0.46402500  0.09456000  1
  P  P24  1  0.52400000  0.28945100  0.79528700  1
  P  P25  1  0.83294700  0.24338100  0.19538700  1
  P  P26  1  0.61048100  0.68545900  0.61676800  1
  P  P27  1  0.33294700  0.75661900  0.80461300  1
  O  O28  1  0.54831400  0.12171400  0.01197700  1
  O  O29  1  0.75000000  0.34307900  0.76792300  1
  O  O30  1  0.97737100  0.13860600  0.62451300  1
  O  O31  1  0.90463600  0.86276300  0.38634900  1
  O  O32  1  0.29693800  0.50666900  0.93633500  1
  O  O33  1  0.69422900  0.10713300  0.41031900  1
  O  O34  1  0.66416300  0.05761600  0.04958200  1
  O  O35  1  0.80577100  0.10713300  0.41031900  1
  O  O36  1  0.02713800  0.41488900  0.82769200  1
  O  O37  1  0.34895900  0.51492500  0.38550600  1
  O  O38  1  0.15104100  0.51492500  0.38550600  1
  O  O39  1  0.59536400  0.86276300  0.38634900  1
  O  O40  1  0.62301000  0.85789800  0.76803100  1
  O  O41  1  0.47286200  0.41488900  0.82769200  1
  O  O42  1  0.16416300  0.94238400  0.95041800  1
  O  O43  1  0.12301000  0.14210200  0.23196900  1
  O  O44  1  0.20306200  0.50666900  0.93633500  1
  O  O45  1  0.25000000  0.65692100  0.23207700  1
  O  O46  1  0.94178700  0.54888900  0.71199900  1
  O  O47  1  0.11845800  0.60602600  0.78481000  1
  O  O48  1  0.47737100  0.86139400  0.37548700  1
  O  O49  1  0.55821300  0.54888900  0.71199900  1
  O  O50  1  0.61845800  0.39397400  0.21519000  1
  O  O51  1  0.95168600  0.12171400  0.01197700  1
  O  O52  1  0.05821300  0.45111100  0.28800100  1
  O  O53  1  0.75000000  0.83157400  0.77712500  1
  O  O54  1  0.79693800  0.49333100  0.06366500  1
  O  O55  1  0.30577100  0.89286700  0.58968100  1
  O  O56  1  0.19422900  0.89286700  0.58968100  1
  O  O57  1  0.44178700  0.45111100  0.28800100  1
  O  O58  1  0.87699000  0.85789800  0.76803100  1
  O  O59  1  0.65104100  0.48507500  0.61449400  1
  O  O60  1  0.45168600  0.87828600  0.98802300  1
  O  O61  1  0.97286200  0.58511100  0.17230800  1
  O  O62  1  0.83583700  0.05761600  0.04958200  1
  O  O63  1  0.38154200  0.60602600  0.78481000  1
  O  O64  1  0.33583700  0.94238400  0.95041800  1
  O  O65  1  0.52262900  0.13860600  0.62451300  1
  O  O66  1  0.88154200  0.39397400  0.21519000  1
  O  O67  1  0.04831400  0.87828600  0.98802300  1
  O  O68  1  0.37699000  0.14210200  0.23196900  1
  O  O69  1  0.09536400  0.13723700  0.61365100  1
  O  O70  1  0.40463600  0.13723700  0.61365100  1
  O  O71  1  0.70306200  0.49333100  0.06366500  1
  O  O72  1  0.02262900  0.86139400  0.37548700  1
  O  O73  1  0.84895900  0.48507500  0.61449400  1
  O  O74  1  0.52713800  0.58511100  0.17230800  1
  O  O75  1  0.25000000  0.16842600  0.22287500  1
