# generated using pymatgen
data_Li2CO3
_symmetry_space_group_name_H-M   'P 1'
_cell_length_a   4.65344648
_cell_length_b   4.65344648
_cell_length_c   5.38293100
_cell_angle_alpha   90.00000000
_cell_angle_beta   90.00000000
_cell_angle_gamma   120.00000676
_symmetry_Int_Tables_number   1
_chemical_formula_structural   Li2CO3
_chemical_formula_sum   'Li4 C2 O6'
_cell_volume   100.94826543
_cell_formula_units_Z   2
loop_
 _symmetry_equiv_pos_site_id
 _symmetry_equiv_pos_as_xyz
  1  'x, y, z'
loop_
 _atom_site_type_symbol
 _atom_site_label
 _atom_site_symmetry_multiplicity
 _atom_site_fract_x
 _atom_site_fract_y
 _atom_site_fract_z
 _atom_site_occupancy
  Li  Li0  1  0.33333300  0.66666700  0.00000000  1
  Li  Li1  1  0.66666700  0.33333300  0.00000000  1
  Li  Li2  1  0.33333300  0.66666700  0.50000000  1
  Li  Li3  1  0.66666700  0.33333300  0.50000000  1
  C  C4  1  0.00000000  0.00000000  0.25000000  1
  C  C5  1  0.00000000  0.00000000  0.75000000  1
  O  O6  1  0.71990900  0.00000000  0.75000000  1
  O  O7  1  0.28009100  0.00000000  0.25000000  1
  O  O8  1  0.00000000  0.71990900  0.75000000  1
  O  O9  1  0.00000000  0.28009100  0.25000000  1
  O  O10  1  0.28009100  0.28009100  0.75000000  1
  O  O11  1  0.71990900  0.71990900  0.25000000  1
