# generated using pymatgen
data_Li4CO4
_symmetry_space_group_name_H-M   'P 1'
_cell_length_a   5.11744650
_cell_length_b   5.11744650
_cell_length_c   7.43516973
_cell_angle_alpha   88.66704045
_cell_angle_beta   88.66704045
_cell_angle_gamma   48.09713249
_symmetry_Int_Tables_number   1
_chemical_formula_structural   Li4CO4
_chemical_formula_sum   'Li4 C1 O4'
_cell_volume   144.87445314
_cell_formula_units_Z   1
loop_
 _symmetry_equiv_pos_site_id
 _symmetry_equiv_pos_as_xyz
  1  'x, y, z'
loop_
 _atom_site_type_symbol
 _atom_site_label
 _atom_site_symmetry_multiplicity
 _atom_site_fract_x
 _atom_site_fract_y
 _atom_site_fract_z
 _atom_site_occupancy
  Li  Li0  1  0.86800100  0.78199900  0.02643200  1
  Li  Li1  1  0.76148700  0.26180800  0.19987900  1
  Li  Li2  1  0.73819200  0.23851300  0.80012100  1
  Li  Li3  1  0.21800100  0.13199900  0.97356800  1
  C  C4  1  0.38262400  0.61737600  0.00000000  1
  O  O5  1  0.19142000  0.79230100  0.84319000  1
  O  O6  1  0.20769900  0.80858000  0.15681000  1
  O  O7  1  0.46139600  0.28899200  0.01439000  1
  O  O8  1  0.71100800  0.53860400  0.98561000  1
