# generated using pymatgen
data_Li4Mg23B54
_symmetry_space_group_name_H-M   'P 1'
_cell_length_a   3.06427029
_cell_length_b   3.06427029
_cell_length_c   95.06446100
_cell_angle_alpha   90.00000000
_cell_angle_beta   90.00000000
_cell_angle_gamma   120.00000628
_symmetry_Int_Tables_number   1
_chemical_formula_structural   Li4Mg23B54
_chemical_formula_sum   'Li4 Mg23 B54'
_cell_volume   773.04172482
_cell_formula_units_Z   1
loop_
 _symmetry_equiv_pos_site_id
 _symmetry_equiv_pos_as_xyz
  1  'x, y, z'
loop_
 _atom_site_type_symbol
 _atom_site_label
 _atom_site_symmetry_multiplicity
 _atom_site_fract_x
 _atom_site_fract_y
 _atom_site_fract_z
 _atom_site_occupancy
  Li  Li0  1  0.00000000  0.00000000  0.55556600  1
  Li  Li1  1  0.00000000  0.00000000  0.33334200  1
  Li  Li2  1  0.00000000  0.00000000  0.44443400  1
  Li  Li3  1  0.00000000  0.00000000  0.66665800  1
  Mg  Mg4  1  0.00000000  0.00000000  0.70327200  1
  Mg  Mg5  1  0.00000000  0.00000000  0.25938200  1
  Mg  Mg6  1  0.00000000  0.00000000  0.40780500  1
  Mg  Mg7  1  0.00000000  0.00000000  0.96297800  1
  Mg  Mg8  1  0.00000000  0.00000000  0.11111000  1
  Mg  Mg9  1  0.00000000  0.00000000  0.22229000  1
  Mg  Mg10  1  0.00000000  0.00000000  0.51888700  1
  Mg  Mg11  1  0.00000000  0.00000000  0.63003900  1
  Mg  Mg12  1  0.00000000  0.00000000  0.74061800  1
  Mg  Mg13  1  0.00000000  0.00000000  0.77771000  1
  Mg  Mg14  1  0.00000000  0.00000000  0.81478600  1
  Mg  Mg15  1  0.00000000  0.00000000  0.85188100  1
  Mg  Mg16  1  0.00000000  0.00000000  0.88889000  1
  Mg  Mg17  1  0.00000000  0.00000000  0.92593300  1
  Mg  Mg18  1  0.00000000  0.00000000  0.00000000  1
  Mg  Mg19  1  0.00000000  0.00000000  0.03702200  1
  Mg  Mg20  1  0.00000000  0.00000000  0.07406700  1
  Mg  Mg21  1  0.00000000  0.00000000  0.14811900  1
  Mg  Mg22  1  0.00000000  0.00000000  0.18521400  1
  Mg  Mg23  1  0.00000000  0.00000000  0.29672800  1
  Mg  Mg24  1  0.00000000  0.00000000  0.36996100  1
  Mg  Mg25  1  0.00000000  0.00000000  0.48111300  1
  Mg  Mg26  1  0.00000000  0.00000000  0.59219500  1
  B  B27  1  0.33333300  0.66666700  0.72204800  1
  B  B28  1  0.33333300  0.66666700  0.79624000  1
  B  B29  1  0.33333300  0.66666700  0.75914000  1
  B  B30  1  0.33333300  0.66666700  0.87039300  1
  B  B31  1  0.33333300  0.66666700  0.83332700  1
  B  B32  1  0.33333300  0.66666700  0.90742100  1
  B  B33  1  0.33333300  0.66666700  0.94446300  1
  B  B34  1  0.33333300  0.66666700  0.98148600  1
  B  B35  1  0.33333300  0.66666700  0.01851400  1
  B  B36  1  0.33333300  0.66666700  0.05553700  1
  B  B37  1  0.33333300  0.66666700  0.09257900  1
  B  B38  1  0.33333300  0.66666700  0.12960700  1
  B  B39  1  0.33333300  0.66666700  0.20376000  1
  B  B40  1  0.33333300  0.66666700  0.16667300  1
  B  B41  1  0.33333300  0.66666700  0.27795200  1
  B  B42  1  0.33333300  0.66666700  0.24086000  1
  B  B43  1  0.33333300  0.66666700  0.31508100  1
  B  B44  1  0.33333300  0.66666700  0.38884500  1
  B  B45  1  0.33333300  0.66666700  0.35159800  1
  B  B46  1  0.33333300  0.66666700  0.42613700  1
  B  B47  1  0.33333300  0.66666700  0.50000000  1
  B  B48  1  0.33333300  0.66666700  0.46280800  1
  B  B49  1  0.33333300  0.66666700  0.57386300  1
  B  B50  1  0.33333300  0.66666700  0.53719200  1
  B  B51  1  0.33333300  0.66666700  0.61115500  1
  B  B52  1  0.33333300  0.66666700  0.64840200  1
  B  B53  1  0.33333300  0.66666700  0.68491900  1
  B  B54  1  0.66666700  0.33333300  0.72204800  1
  B  B55  1  0.66666700  0.33333300  0.75914000  1
  B  B56  1  0.66666700  0.33333300  0.79624000  1
  B  B57  1  0.66666700  0.33333300  0.83332700  1
  B  B58  1  0.66666700  0.33333300  0.87039300  1
  B  B59  1  0.66666700  0.33333300  0.90742100  1
  B  B60  1  0.66666700  0.33333300  0.98148600  1
  B  B61  1  0.66666700  0.33333300  0.01851400  1
  B  B62  1  0.66666700  0.33333300  0.94446300  1
  B  B63  1  0.66666700  0.33333300  0.05553700  1
  B  B64  1  0.66666700  0.33333300  0.09257900  1
  B  B65  1  0.66666700  0.33333300  0.12960700  1
  B  B66  1  0.66666700  0.33333300  0.16667300  1
  B  B67  1  0.66666700  0.33333300  0.20376000  1
  B  B68  1  0.66666700  0.33333300  0.24086000  1
  B  B69  1  0.66666700  0.33333300  0.27795200  1
  B  B70  1  0.66666700  0.33333300  0.31508100  1
  B  B71  1  0.66666700  0.33333300  0.35159800  1
  B  B72  1  0.66666700  0.33333300  0.38884500  1
  B  B73  1  0.66666700  0.33333300  0.42613700  1
  B  B74  1  0.66666700  0.33333300  0.46280800  1
  B  B75  1  0.66666700  0.33333300  0.50000000  1
  B  B76  1  0.66666700  0.33333300  0.53719200  1
  B  B77  1  0.66666700  0.33333300  0.57386300  1
  B  B78  1  0.66666700  0.33333300  0.61115500  1
  B  B79  1  0.66666700  0.33333300  0.64840200  1
  B  B80  1  0.66666700  0.33333300  0.68491900  1
