# generated using pymatgen
data_Li14Co9(P2O7)8
_symmetry_space_group_name_H-M   'P 1'
_cell_length_a   10.74779593
_cell_length_b   9.62586104
_cell_length_c   12.72434186
_cell_angle_alpha   68.82039172
_cell_angle_beta   116.02577883
_cell_angle_gamma   107.29987556
_symmetry_Int_Tables_number   1
_chemical_formula_structural   Li14Co9(P2O7)8
_chemical_formula_sum   'Li14 Co9 P16 O56'
_cell_volume   1087.77679084
_cell_formula_units_Z   1
loop_
 _symmetry_equiv_pos_site_id
 _symmetry_equiv_pos_as_xyz
  1  'x, y, z'
loop_
 _atom_site_type_symbol
 _atom_site_label
 _atom_site_symmetry_multiplicity
 _atom_site_fract_x
 _atom_site_fract_y
 _atom_site_fract_z
 _atom_site_occupancy
  Li  Li0  1  0.13733900  0.92805000  0.59744100  1
  Li  Li1  1  0.12604500  0.43402600  0.08470000  1
  Li  Li2  1  0.62617600  0.45386800  0.59083900  1
  Li  Li3  1  0.37382400  0.54613200  0.40916100  1
  Li  Li4  1  0.02128800  0.64399600  0.39688000  1
  Li  Li5  1  0.86266100  0.07195000  0.40255900  1
  Li  Li6  1  0.97871200  0.35600400  0.60312000  1
  Li  Li7  1  0.49722200  0.86740000  0.31620300  1
  Li  Li8  1  0.51415800  0.63293800  0.17353100  1
  Li  Li9  1  0.62191000  0.95542600  0.08945700  1
  Li  Li10  1  0.48584200  0.36706200  0.82646900  1
  Li  Li11  1  0.37809000  0.04457400  0.91054300  1
  Li  Li12  1  0.50277800  0.13260000  0.68379700  1
  Li  Li13  1  0.87395500  0.56597400  0.91530000  1
  Co  Co14  1  0.74496200  0.43537700  0.30420000  1
  Co  Co15  1  0.26426200  0.07153100  0.20193200  1
  Co  Co16  1  0.21764800  0.20048600  0.41689500  1
  Co  Co17  1  0.73573800  0.92846900  0.79806800  1
  Co  Co18  1  0.25503800  0.56462300  0.69580000  1
  Co  Co19  1  0.78235200  0.79951400  0.58310500  1
  Co  Co20  1  0.78013300  0.30090900  0.07859000  1
  Co  Co21  1  0.00000000  0.00000000  0.00000000  1
  Co  Co22  1  0.21986700  0.69909100  0.92141000  1
  P  P23  1  0.70090200  0.63832100  0.01497900  1
  P  P24  1  0.20813100  0.23139300  0.65970200  1
  P  P25  1  0.53891100  0.19614100  0.13275900  1
  P  P26  1  0.05282300  0.96856200  0.77698500  1
  P  P27  1  0.79827500  0.26379300  0.84392700  1
  P  P28  1  0.29909800  0.36167900  0.98502100  1
  P  P29  1  0.05017500  0.46902900  0.27315800  1
  P  P30  1  0.94982500  0.53097100  0.72684200  1
  P  P31  1  0.94717700  0.03143800  0.22301500  1
  P  P32  1  0.46108900  0.80385900  0.86724100  1
  P  P33  1  0.30056200  0.86476500  0.48546600  1
  P  P34  1  0.69943800  0.13523500  0.51453400  1
  P  P35  1  0.20172500  0.73620700  0.15607300  1
  P  P36  1  0.46435600  0.30844200  0.36788800  1
  P  P37  1  0.53564400  0.69155800  0.63211200  1
  P  P38  1  0.79186900  0.76860700  0.34029800  1
  O  O39  1  0.53986300  0.15819200  0.02474300  1
  O  O40  1  0.09209900  0.65277300  0.22593800  1
  O  O41  1  0.17663700  0.90104600  0.10523300  1
  O  O42  1  0.20505000  0.21303000  0.02217900  1
  O  O43  1  0.90790100  0.34722700  0.77406200  1
  O  O44  1  0.71662100  0.00746100  0.47944000  1
  O  O45  1  0.68715800  0.75491600  0.70908600  1
  O  O46  1  0.95469500  0.45511000  0.33680300  1
  O  O47  1  0.27639000  0.49228400  0.01450800  1
  O  O48  1  0.84740000  0.34119600  0.94499300  1
  O  O49  1  0.45833900  0.56253900  0.70479000  1
  O  O50  1  0.04362900  0.05080900  0.15686300  1
  O  O51  1  0.54204400  0.16579500  0.42178300  1
  O  O52  1  0.54054700  0.66213500  0.91965200  1
  O  O53  1  0.98582800  0.40557400  0.16294300  1
  O  O54  1  0.30281400  0.39901900  0.86006100  1
  O  O55  1  0.28337900  0.99253900  0.52056000  1
  O  O56  1  0.31284200  0.24508400  0.29091400  1
  O  O57  1  0.79495000  0.78697000  0.97782100  1
  O  O58  1  0.35495300  0.20308700  0.75262900  1
  O  O59  1  0.18004200  0.39269300  0.60976600  1
  O  O60  1  0.80873800  0.58249000  0.64000200  1
  O  O61  1  0.95637100  0.94919100  0.84313700  1
  O  O62  1  0.30829800  0.74371900  0.79096500  1
  O  O63  1  0.46013700  0.84180800  0.97525700  1
  O  O64  1  0.72361000  0.50771600  0.98549200  1
  O  O65  1  0.20076600  0.71812200  0.51567800  1
  O  O66  1  0.45945300  0.33786500  0.08034800  1
  O  O67  1  0.34922000  0.71275700  0.24749300  1
  O  O68  1  0.98317000  0.90438600  0.66758000  1
  O  O69  1  0.04530500  0.54489000  0.66319700  1
  O  O70  1  0.53978700  0.65326000  0.52596700  1
  O  O71  1  0.19345600  0.91496500  0.86218400  1
  O  O72  1  0.09348100  0.15089700  0.72831400  1
  O  O73  1  0.90651900  0.84910300  0.27168600  1
  O  O74  1  0.53685500  0.93437400  0.79367800  1
  O  O75  1  0.19126200  0.41751000  0.35999800  1
  O  O76  1  0.82336300  0.09895400  0.89476700  1
  O  O77  1  0.81995800  0.60730700  0.39023400  1
  O  O78  1  0.15260000  0.65880400  0.05500700  1
  O  O79  1  0.46021300  0.34674000  0.47403300  1
  O  O80  1  0.54166100  0.43746100  0.29521000  1
  O  O81  1  0.84198600  0.84927900  0.43901400  1
  O  O82  1  0.65078000  0.28724300  0.75250700  1
  O  O83  1  0.69718600  0.60098100  0.13993900  1
  O  O84  1  0.69921200  0.09466700  0.64134800  1
  O  O85  1  0.01417300  0.59442600  0.83705700  1
  O  O86  1  0.15801400  0.15072100  0.56098600  1
  O  O87  1  0.30078800  0.90533300  0.35865200  1
  O  O88  1  0.80654400  0.08503500  0.13781600  1
  O  O89  1  0.01683000  0.09561400  0.33242000  1
  O  O90  1  0.69170200  0.25628100  0.20903500  1
  O  O91  1  0.46314500  0.06562600  0.20632200  1
  O  O92  1  0.64504700  0.79691300  0.24737100  1
  O  O93  1  0.45795600  0.83420500  0.57821700  1
  O  O94  1  0.79923400  0.28187800  0.48432200  1
