# generated using pymatgen
data_LiCrPO4
_symmetry_space_group_name_H-M   'P 1'
_cell_length_a   5.06591278
_cell_length_b   5.06591278
_cell_length_c   16.79451230
_cell_angle_alpha   88.88760371
_cell_angle_beta   88.88760371
_cell_angle_gamma   88.58451656
_symmetry_Int_Tables_number   1
_chemical_formula_structural   LiCrPO4
_chemical_formula_sum   'Li4 Cr4 P4 O16'
_cell_volume   430.71547252
_cell_formula_units_Z   4
loop_
 _symmetry_equiv_pos_site_id
 _symmetry_equiv_pos_as_xyz
  1  'x, y, z'
loop_
 _atom_site_type_symbol
 _atom_site_label
 _atom_site_symmetry_multiplicity
 _atom_site_fract_x
 _atom_site_fract_y
 _atom_site_fract_z
 _atom_site_occupancy
  Li  Li0  1  0.44659700  0.84086300  0.44113300  1
  Li  Li1  1  0.84086300  0.44659700  0.94113300  1
  Li  Li2  1  0.15913700  0.55340300  0.05886700  1
  Li  Li3  1  0.55340300  0.15913700  0.55886700  1
  Cr  Cr4  1  0.65987900  0.83670900  0.25146100  1
  Cr  Cr5  1  0.83670900  0.65987900  0.75146100  1
  Cr  Cr6  1  0.16329100  0.34012100  0.24853900  1
  Cr  Cr7  1  0.34012100  0.16329100  0.74853900  1
  P  P8  1  0.68597800  0.35309500  0.13444100  1
  P  P9  1  0.35309500  0.68597800  0.63444100  1
  P  P10  1  0.64690500  0.31402200  0.36555900  1
  P  P11  1  0.31402200  0.64690500  0.86555900  1
  O  O12  1  0.84274300  0.52185800  0.19694300  1
  O  O13  1  0.52185800  0.84274300  0.69694300  1
  O  O14  1  0.94064600  0.25587500  0.34565500  1
  O  O15  1  0.78848800  0.42854000  0.05175500  1
  O  O16  1  0.56843900  0.61360200  0.35319900  1
  O  O17  1  0.25587500  0.94064600  0.84565500  1
  O  O18  1  0.42854000  0.78848800  0.55175500  1
  O  O19  1  0.61360200  0.56843900  0.85319900  1
  O  O20  1  0.38639800  0.43156100  0.14680100  1
  O  O21  1  0.57146000  0.21151200  0.44824500  1
  O  O22  1  0.74412500  0.05935400  0.15434500  1
  O  O23  1  0.43156100  0.38639800  0.64680100  1
  O  O24  1  0.21151200  0.57146000  0.94824500  1
  O  O25  1  0.05935400  0.74412500  0.65434500  1
  O  O26  1  0.47814200  0.15725700  0.30305700  1
  O  O27  1  0.15725700  0.47814200  0.80305700  1
