# generated using pymatgen
data_LiV6O13
_symmetry_space_group_name_H-M   'P 1'
_cell_length_a   3.72003808
_cell_length_b   11.46433398
_cell_length_c   12.13745851
_cell_angle_alpha   110.40831394
_cell_angle_beta   90.16672406
_cell_angle_gamma   99.33072110
_symmetry_Int_Tables_number   1
_chemical_formula_structural   LiV6O13
_chemical_formula_sum   'Li2 V12 O26'
_cell_volume   477.73516559
_cell_formula_units_Z   2
loop_
 _symmetry_equiv_pos_site_id
 _symmetry_equiv_pos_as_xyz
  1  'x, y, z'
loop_
 _atom_site_type_symbol
 _atom_site_label
 _atom_site_symmetry_multiplicity
 _atom_site_fract_x
 _atom_site_fract_y
 _atom_site_fract_z
 _atom_site_occupancy
  Li  Li0  1  0.81172031  0.63003630  0.23572340  1
  Li  Li1  1  0.18827969  0.36996370  0.76427660  1
  V  V2  1  0.77325564  0.55159729  0.92599500  1
  V  V3  1  0.22674436  0.44840271  0.07400500  1
  V  V4  1  0.21996461  0.49317322  0.38846317  1
  V  V5  1  0.78003539  0.50682678  0.61153683  1
  V  V6  1  0.94732749  0.89661790  0.04163416  1
  V  V7  1  0.05267251  0.10338210  0.95836584  1
  V  V8  1  0.42625817  0.85465955  0.51591153  1
  V  V9  1  0.57374183  0.14534045  0.48408847  1
  V  V10  1  0.92779814  0.85439347  0.71629781  1
  V  V11  1  0.07220186  0.14560653  0.28370219  1
  V  V12  1  0.43607812  0.87202106  0.23076623  1
  V  V13  1  0.56392188  0.12797894  0.76923377  1
  O  O14  1  0.75451080  0.50616291  0.07171581  1
  O  O15  1  0.24548920  0.49383709  0.92828419  1
  O  O16  1  0.24752711  0.49810324  0.57039886  1
  O  O17  1  0.75247289  0.50189676  0.42960114  1
  O  O18  1  0.93586288  0.87346952  0.55852226  1
  O  O19  1  0.06413712  0.12653048  0.44147774  1
  O  O20  1  0.44377888  0.88842747  0.06881820  1
  O  O21  1  0.55622112  0.11157253  0.93118180  1
  O  O22  1  0.95932901  0.91861417  0.21733841  1
  O  O23  1  0.04067099  0.08138583  0.78266159  1
  O  O24  1  0.44885329  0.89743268  0.69527179  1
  O  O25  1  0.55114671  0.10256732  0.30472821  1
  O  O26  1  0.73933710  0.49629676  0.75564596  1
  O  O27  1  0.26066290  0.50370324  0.24435404  1
  O  O28  1  0.85469450  0.71046318  0.97224588  1
  O  O29  1  0.14530550  0.28953682  0.02775412  1
  O  O30  1  0.34420107  0.69662757  0.44941050  1
  O  O31  1  0.65579893  0.30337243  0.55058950  1
  O  O32  1  0.85099759  0.69419960  0.67855810  1
  O  O33  1  0.14900241  0.30580040  0.32144190  1
  O  O34  1  0.35749018  0.71504550  0.19654533  1
  O  O35  1  0.64250982  0.28495550  0.80345467  1
  O  O36  1  0.95931993  0.91841003  0.89349124  1
  O  O37  1  0.04068007  0.08158997  0.10650876  1
  O  O38  1  0.45678391  0.91390042  0.40001563  1
  O  O39  1  0.54321609  0.08609958  0.59998437  1
