# generated using pymatgen
data_Li2MnSn3O8
_symmetry_space_group_name_H-M   'P 1'
_cell_length_a   10.78613105
_cell_length_b   10.78613105
_cell_length_c   10.07608700
_cell_angle_alpha   90.00000000
_cell_angle_beta   90.00000000
_cell_angle_gamma   119.99686596
_symmetry_Int_Tables_number   1
_chemical_formula_structural   Li2MnSn3O8
_chemical_formula_sum   'Li12 Mn6 Sn18 O48'
_cell_volume   1015.23747519
_cell_formula_units_Z   6
loop_
 _symmetry_equiv_pos_site_id
 _symmetry_equiv_pos_as_xyz
  1  'x, y, z'
loop_
 _atom_site_type_symbol
 _atom_site_label
 _atom_site_symmetry_multiplicity
 _atom_site_fract_x
 _atom_site_fract_y
 _atom_site_fract_z
 _atom_site_occupancy
  Li  Li0  1  0.98269800  0.98269800  0.71998400  1
  Li  Li1  1  0.01730200  0.01730200  0.21998400  1
  Li  Li2  1  0.66531800  0.16474900  0.99368200  1
  Li  Li3  1  0.33468200  0.83525100  0.49368200  1
  Li  Li4  1  0.30399800  0.66478000  0.22336800  1
  Li  Li5  1  0.83357800  0.83357800  0.49520100  1
  Li  Li6  1  0.83525100  0.33468200  0.49368200  1
  Li  Li7  1  0.33522000  0.69600200  0.72336800  1
  Li  Li8  1  0.16474900  0.66531800  0.99368200  1
  Li  Li9  1  0.69600200  0.33522000  0.72336800  1
  Li  Li10  1  0.66478000  0.30399800  0.22336800  1
  Li  Li11  1  0.16642200  0.16642200  0.99520100  1
  Mn  Mn12  1  0.00078600  0.66671900  0.31309600  1
  Mn  Mn13  1  0.66671900  0.00078600  0.31309600  1
  Mn  Mn14  1  0.66674700  0.66674700  0.81402300  1
  Mn  Mn15  1  0.33325300  0.33325300  0.31402300  1
  Mn  Mn16  1  0.99921400  0.33328100  0.81309600  1
  Mn  Mn17  1  0.33328100  0.99921400  0.81309600  1
  Sn  Sn18  1  0.32120600  0.49258800  0.99967500  1
  Sn  Sn19  1  0.49258800  0.32120600  0.99967500  1
  Sn  Sn20  1  0.32992000  0.32992000  0.72057300  1
  Sn  Sn21  1  0.67008000  0.67008000  0.22057300  1
  Sn  Sn22  1  0.50741200  0.67879400  0.49967500  1
  Sn  Sn23  1  0.16066300  0.98657600  0.50015700  1
  Sn  Sn24  1  0.50444600  0.16182400  0.50213800  1
  Sn  Sn25  1  0.67879400  0.50741200  0.49967500  1
  Sn  Sn26  1  0.33299300  0.99724200  0.22117100  1
  Sn  Sn27  1  0.99724200  0.33299300  0.22117100  1
  Sn  Sn28  1  0.98657600  0.16066300  0.50015700  1
  Sn  Sn29  1  0.83933700  0.01342400  0.00015700  1
  Sn  Sn30  1  0.16182400  0.50444600  0.50213800  1
  Sn  Sn31  1  0.49555400  0.83817600  0.00213800  1
  Sn  Sn32  1  0.83817600  0.49555400  0.00213800  1
  Sn  Sn33  1  0.66700700  0.00275800  0.72117100  1
  Sn  Sn34  1  0.00275800  0.66700700  0.72117100  1
  Sn  Sn35  1  0.01342400  0.83933700  0.00015700  1
  O  O36  1  0.85135700  0.67000200  0.87514500  1
  O  O37  1  0.33314500  0.00457400  0.60591800  1
  O  O38  1  0.18360600  0.85417400  0.36486500  1
  O  O39  1  0.66128900  0.66128900  0.60879400  1
  O  O40  1  0.48783200  0.01290100  0.36311200  1
  O  O41  1  0.65924700  0.81049700  0.36100200  1
  O  O42  1  0.66444200  0.49679000  0.11272900  1
  O  O43  1  0.99662200  0.16534000  0.11948600  1
  O  O44  1  0.66337300  0.33376600  0.40428900  1
  O  O45  1  0.00302500  0.00302500  0.40333500  1
  O  O46  1  0.66685500  0.99542600  0.10591800  1
  O  O47  1  0.33376600  0.66337300  0.40428900  1
  O  O48  1  0.34075300  0.18950300  0.86100200  1
  O  O49  1  0.83090000  0.50498100  0.61983000  1
  O  O50  1  0.67000200  0.85135700  0.87514500  1
  O  O51  1  0.83466000  0.00337800  0.61948600  1
  O  O52  1  0.81639400  0.14582600  0.86486500  1
  O  O53  1  0.33555800  0.50321000  0.61272900  1
  O  O54  1  0.66623400  0.33662700  0.90428900  1
  O  O55  1  0.00457400  0.33314500  0.60591800  1
  O  O56  1  0.98709900  0.51216800  0.86311200  1
  O  O57  1  0.32999800  0.14864300  0.37514500  1
  O  O58  1  0.85417400  0.18360600  0.36486500  1
  O  O59  1  0.18950300  0.34075300  0.86100200  1
  O  O60  1  0.01290100  0.48783200  0.36311200  1
  O  O61  1  0.50321000  0.33555800  0.61272900  1
  O  O62  1  0.99697500  0.99697500  0.90333500  1
  O  O63  1  0.00337800  0.83466000  0.61948600  1
  O  O64  1  0.81049700  0.65924700  0.36100200  1
  O  O65  1  0.51216800  0.98709900  0.86311200  1
  O  O66  1  0.66124300  0.16666100  0.62213000  1
  O  O67  1  0.33662700  0.66623400  0.90428900  1
  O  O68  1  0.50498100  0.83090000  0.61983000  1
  O  O69  1  0.84097600  0.84097600  0.11694800  1
  O  O70  1  0.51896400  0.51896400  0.37055300  1
  O  O71  1  0.49679000  0.66444200  0.11272900  1
  O  O72  1  0.16534000  0.99662200  0.11948600  1
  O  O73  1  0.33875700  0.83333900  0.12213000  1
  O  O74  1  0.14864300  0.32999800  0.37514500  1
  O  O75  1  0.99542600  0.66685500  0.10591800  1
  O  O76  1  0.83333900  0.33875700  0.12213000  1
  O  O77  1  0.48103600  0.48103600  0.87055300  1
  O  O78  1  0.33871100  0.33871100  0.10879400  1
  O  O79  1  0.16666100  0.66124300  0.62213000  1
  O  O80  1  0.14582600  0.81639400  0.86486500  1
  O  O81  1  0.49501900  0.16910000  0.11983000  1
  O  O82  1  0.16910000  0.49501900  0.11983000  1
  O  O83  1  0.15902400  0.15902400  0.61694800  1
