# generated using pymatgen
data_Li28Mg22N25
_symmetry_space_group_name_H-M   'P 1'
_cell_length_a   3.53079600
_cell_length_b   3.53079561
_cell_length_c   88.55638151
_cell_angle_alpha   60.10695651
_cell_angle_beta   60.10696014
_cell_angle_gamma   59.99999101
_symmetry_Int_Tables_number   1
_chemical_formula_structural   Li28Mg22N25
_chemical_formula_sum   'Li28 Mg22 N25'
_cell_volume   781.89828994
_cell_formula_units_Z   1
loop_
 _symmetry_equiv_pos_site_id
 _symmetry_equiv_pos_as_xyz
  1  'x, y, z'
loop_
 _atom_site_type_symbol
 _atom_site_label
 _atom_site_symmetry_multiplicity
 _atom_site_fract_x
 _atom_site_fract_y
 _atom_site_fract_z
 _atom_site_occupancy
  Li  Li0  1  0.75057791  0.75057791  0.02993065  1
  Li  Li1  1  0.74960518  0.74960518  0.07004738  1
  Li  Li2  1  0.74947324  0.74947324  0.11006321  1
  Li  Li3  1  0.74955043  0.74955043  0.15005395  1
  Li  Li4  1  0.74966669  0.74966669  0.19004000  1
  Li  Li5  1  0.74976116  0.74976116  0.23002866  1
  Li  Li6  1  0.74984528  0.74984528  0.27001857  1
  Li  Li7  1  0.74993682  0.74993682  0.31000758  1
  Li  Li8  1  0.75003287  0.75003287  0.34999606  1
  Li  Li9  1  0.75010412  0.75010412  0.38998751  1
  Li  Li10  1  0.75014581  0.75014581  0.42998250  1
  Li  Li11  1  0.75020500  0.75020500  0.46997540  1
  Li  Li12  1  0.75026799  0.75026799  0.50996784  1
  Li  Li13  1  0.75025897  0.75025897  0.54996892  1
  Li  Li14  1  0.74896957  0.74896957  0.59012365  1
  Li  Li15  1  0.24653545  0.24653545  0.65041575  1
  Li  Li16  1  0.72890464  0.72890464  0.63253144  1
  Li  Li17  1  0.76918482  0.76918482  0.66769782  1
  Li  Li18  1  0.75097445  0.75097445  0.70988307  1
  Li  Li19  1  0.74868084  0.74868084  0.75015830  1
  Li  Li20  1  0.24592778  0.24592778  0.81048867  1
  Li  Li21  1  0.72967104  0.72967104  0.79243948  1
  Li  Li22  1  0.76929843  0.76929843  0.82768419  1
  Li  Li23  1  0.75142092  0.75142092  0.86982949  1
  Li  Li24  1  0.74895413  0.74895413  0.91012550  1
  Li  Li25  1  0.24508674  0.24508674  0.97058959  1
  Li  Li26  1  0.72986409  0.72986409  0.95241631  1
  Li  Li27  1  0.76857530  0.76857530  0.98777096  1
  Mg  Mg28  1  0.25375210  0.25375210  0.00954975  1
  Mg  Mg29  1  0.25042417  0.25042417  0.04994910  1
  Mg  Mg30  1  0.24979026  0.24979026  0.09002517  1
  Mg  Mg31  1  0.24965564  0.24965564  0.13004132  1
  Mg  Mg32  1  0.24972146  0.24972146  0.17003342  1
  Mg  Mg33  1  0.24980189  0.24980189  0.21002377  1
  Mg  Mg34  1  0.24984903  0.24984903  0.25001812  1
  Mg  Mg35  1  0.24990442  0.24990442  0.29001147  1
  Mg  Mg36  1  0.25000871  0.25000871  0.32999895  1
  Mg  Mg37  1  0.25009835  0.25009835  0.36998820  1
  Mg  Mg38  1  0.25015235  0.25015235  0.40998172  1
  Mg  Mg39  1  0.25021204  0.25021204  0.44997456  1
  Mg  Mg40  1  0.25033565  0.25033565  0.48995972  1
  Mg  Mg41  1  0.25051457  0.25051457  0.52993825  1
  Mg  Mg42  1  0.25030686  0.25030686  0.56996318  1
  Mg  Mg43  1  0.24676218  0.24676218  0.61038854  1
  Mg  Mg44  1  0.25465359  0.25465359  0.68944157  1
  Mg  Mg45  1  0.25073469  0.25073469  0.72991184  1
  Mg  Mg46  1  0.24759777  0.24759777  0.77028827  1
  Mg  Mg47  1  0.25488739  0.25488739  0.84941351  1
  Mg  Mg48  1  0.25094252  0.25094252  0.88988690  1
  Mg  Mg49  1  0.24791759  0.24791759  0.93024989  1
  N  N50  1  0.99737404  0.99737404  0.00031511  1
  N  N51  1  -0.00059994  -0.00059994  0.04007199  1
  N  N52  1  0.99984757  0.99984757  0.08001829  1
  N  N53  1  1.00000506  1.00000506  0.11999939  1
  N  N54  1  1.00006939  1.00006939  0.15999167  1
  N  N55  1  1.00010466  1.00010466  0.19998744  1
  N  N56  1  1.00012766  1.00012766  0.23998468  1
  N  N57  1  1.00017105  1.00017105  0.27997947  1
  N  N58  1  0.00026734  0.00026734  0.31996792  1
  N  N59  1  0.00035009  0.00035009  0.35995799  1
  N  N60  1  0.00034814  0.00034814  0.39995822  1
  N  N61  1  0.00028560  0.00028560  0.43996573  1
  N  N62  1  0.00026234  0.00026234  0.47996852  1
  N  N63  1  0.00047367  0.00047367  0.51994316  1
  N  N64  1  1.00122348  1.00122348  0.55985318  1
  N  N65  1  0.00221140  0.00221140  0.59973463  1
  N  N66  1  0.00317963  0.00317963  0.63961844  1
  N  N67  1  0.99651641  0.99651641  0.68041803  1
  N  N68  1  0.99973780  0.99973780  0.72003146  1
  N  N69  1  1.00180156  1.00180156  0.75978381  1
  N  N70  1  0.00395437  0.00395437  0.79952548  1
  N  N71  1  1.00170107  1.00170107  0.91979587  1
  N  N72  1  0.99739562  0.99739562  0.84031253  1
  N  N73  1  1.00010271  1.00010271  0.87998767  1
  N  N74  1  0.00358643  0.00358643  0.95956963  1
