# generated using pymatgen
data_LiAlSiH2O5
_symmetry_space_group_name_H-M   'P 1'
_cell_length_a   4.79655600
_cell_length_b   9.02801600
_cell_length_c   11.74449600
_cell_angle_alpha   90.00000000
_cell_angle_beta   90.00000000
_cell_angle_gamma   90.00000000
_symmetry_Int_Tables_number   1
_chemical_formula_structural   LiAlSiH2O5
_chemical_formula_sum   'Li4 Al4 Si4 H8 O20'
_cell_volume   508.57642385
_cell_formula_units_Z   4
loop_
 _symmetry_equiv_pos_site_id
 _symmetry_equiv_pos_as_xyz
  1  'x, y, z'
loop_
 _atom_site_type_symbol
 _atom_site_label
 _atom_site_symmetry_multiplicity
 _atom_site_fract_x
 _atom_site_fract_y
 _atom_site_fract_z
 _atom_site_occupancy
  Li  Li0  1  0.37976800  0.58749000  0.80982200  1
  Li  Li1  1  0.37976800  0.91251000  0.30982200  1
  Li  Li2  1  0.87976800  0.08749000  0.69017800  1
  Li  Li3  1  0.87976800  0.41251000  0.19017800  1
  Al  Al4  1  0.35571900  0.04394900  0.85918300  1
  Al  Al5  1  0.85571900  0.95605100  0.14081700  1
  Al  Al6  1  0.35571900  0.45605100  0.35918300  1
  Al  Al7  1  0.85571900  0.54394900  0.64081700  1
  Si  Si8  1  0.76825700  0.88097300  0.88592500  1
  Si  Si9  1  0.26825700  0.38097300  0.61407500  1
  Si  Si10  1  0.26825700  0.11902700  0.11407500  1
  Si  Si11  1  0.76825700  0.61902700  0.38592500  1
  H  H12  1  0.88518700  0.85377700  0.55153800  1
  H  H13  1  0.20947100  0.48924600  0.99018700  1
  H  H14  1  0.70947100  0.98924600  0.50981300  1
  H  H15  1  0.38518700  0.14622300  0.44846200  1
  H  H16  1  0.70947100  0.51075400  0.00981300  1
  H  H17  1  0.38518700  0.35377700  0.94846200  1
  H  H18  1  0.88518700  0.64622300  0.05153800  1
  H  H19  1  0.20947100  0.01075400  0.49018700  1
  O  O20  1  0.97275000  0.63408000  0.76857400  1
  O  O21  1  0.52335800  0.47438600  0.67386800  1
  O  O22  1  0.88367900  0.96397700  0.55218100  1
  O  O23  1  0.47275000  0.36592000  0.23142600  1
  O  O24  1  0.71231900  0.77436300  0.30791100  1
  O  O25  1  0.47275000  0.13408000  0.73142600  1
  O  O26  1  0.21231900  0.27436300  0.19208900  1
  O  O27  1  0.35039200  0.16122300  0.98105700  1
  O  O28  1  0.38367900  0.03602300  0.44781900  1
  O  O29  1  0.35039200  0.33877700  0.48105700  1
  O  O30  1  0.85039200  0.66122300  0.51894300  1
  O  O31  1  0.85039200  0.83877700  0.01894300  1
  O  O32  1  0.88367900  0.53602300  0.05218100  1
  O  O33  1  0.97275000  0.86592000  0.26857400  1
  O  O34  1  0.71231900  0.72563700  0.80791100  1
  O  O35  1  0.21231900  0.22563700  0.69208900  1
  O  O36  1  0.02335800  0.97438600  0.82613200  1
  O  O37  1  0.02335800  0.52561400  0.32613200  1
  O  O38  1  0.52335800  0.02561400  0.17386800  1
  O  O39  1  0.38367900  0.46397700  0.94781900  1
