# generated using pymatgen
data_Li2Mo4O13
_symmetry_space_group_name_H-M   'P 1'
_cell_length_a   8.40000600
_cell_length_b   8.73455832
_cell_length_c   11.73208186
_cell_angle_alpha   95.88310245
_cell_angle_beta   109.13960775
_cell_angle_gamma   95.83433877
_symmetry_Int_Tables_number   1
_chemical_formula_structural   Li2Mo4O13
_chemical_formula_sum   'Li6 Mo12 O39'
_cell_volume   800.49886749
_cell_formula_units_Z   3
loop_
 _symmetry_equiv_pos_site_id
 _symmetry_equiv_pos_as_xyz
  1  'x, y, z'
loop_
 _atom_site_type_symbol
 _atom_site_label
 _atom_site_symmetry_multiplicity
 _atom_site_fract_x
 _atom_site_fract_y
 _atom_site_fract_z
 _atom_site_occupancy
  Li  Li0  1  0.18613900  0.07890200  0.63471500  1
  Li  Li1  1  0.29777100  0.51655300  0.99792900  1
  Li  Li2  1  0.77748600  0.12284200  0.62739700  1
  Li  Li3  1  0.81386100  0.92109800  0.36528500  1
  Li  Li4  1  0.22251400  0.87715800  0.37260300  1
  Li  Li5  1  0.70222900  0.48344700  0.00207100  1
  Mo  Mo6  1  0.11449700  0.43756600  0.63599500  1
  Mo  Mo7  1  0.49433900  0.58098600  0.36495300  1
  Mo  Mo8  1  0.04190100  0.82388700  0.03580200  1
  Mo  Mo9  1  0.88550300  0.56243400  0.36400500  1
  Mo  Mo10  1  0.85661100  0.76947000  0.63323500  1
  Mo  Mo11  1  0.14338900  0.23053000  0.36676500  1
  Mo  Mo12  1  0.64562000  0.84182700  0.02934800  1
  Mo  Mo13  1  0.35438000  0.15817300  0.97065200  1
  Mo  Mo14  1  0.46856500  0.78982400  0.63971900  1
  Mo  Mo15  1  0.53143500  0.21017600  0.36028100  1
  Mo  Mo16  1  0.50566100  0.41901400  0.63504700  1
  Mo  Mo17  1  0.95809900  0.17611300  0.96419800  1
  O  O18  1  0.93241700  0.77573500  0.78895200  1
  O  O19  1  0.85690400  0.32748000  0.00206300  1
  O  O20  1  0.33156100  0.10775700  0.38688800  1
  O  O21  1  0.87753900  0.14366100  0.80551600  1
  O  O22  1  0.66843900  0.89224300  0.61311200  1
  O  O23  1  0.39728500  0.72923200  0.42298200  1
  O  O24  1  0.67629000  0.07886100  0.40453100  1
  O  O25  1  0.33156500  0.58695200  0.61649300  1
  O  O26  1  0.72143300  0.87362800  0.18797900  1
  O  O27  1  0.18446300  0.28977400  0.99886800  1
  O  O28  1  0.96757000  0.27168500  0.61330400  1
  O  O29  1  0.72444000  0.70196900  0.40838600  1
  O  O30  1  0.14309600  0.67252000  0.99793700  1
  O  O31  1  0.12246100  0.85633900  0.19448400  1
  O  O32  1  0.03243000  0.72831500  0.38669600  1
  O  O33  1  0.14955300  0.00492200  0.99382300  1
  O  O34  1  0.03630800  0.40847200  0.41662000  1
  O  O35  1  0.27556000  0.29803100  0.59161400  1
  O  O36  1  0.37557700  0.39847100  0.40075000  1
  O  O37  1  0.80348500  0.51624600  0.20801500  1
  O  O38  1  0.66843500  0.41304800  0.38350700  1
  O  O39  1  0.19651500  0.48375400  0.79198500  1
  O  O40  1  0.41129100  0.56822300  0.20951000  1
  O  O41  1  0.02020400  0.07815300  0.39873800  1
  O  O42  1  0.45344400  0.17688100  0.20164800  1
  O  O43  1  0.50310800  0.32682700  0.00539500  1
  O  O44  1  0.60271500  0.27076800  0.57701800  1
  O  O45  1  0.50000000  0.00000000  0.00000000  1
  O  O46  1  0.81553700  0.71022600  0.00113200  1
  O  O47  1  0.85044700  0.99507800  0.00617700  1
  O  O48  1  0.06758300  0.22426500  0.21104800  1
  O  O49  1  0.27856700  0.12637200  0.81202100  1
  O  O50  1  0.62442300  0.60152900  0.59925000  1
  O  O51  1  0.58870900  0.43177700  0.79049000  1
  O  O52  1  0.54655600  0.82311900  0.79835200  1
  O  O53  1  0.49689200  0.67317300  0.99460500  1
  O  O54  1  0.96369200  0.59152800  0.58338000  1
  O  O55  1  0.32371000  0.92113900  0.59546900  1
  O  O56  1  0.97979600  0.92184700  0.60126200  1
