# generated using pymatgen
data_LiNi(PO3)3
_symmetry_space_group_name_H-M   'P 1'
_cell_length_a   6.49476600
_cell_length_b   6.83222869
_cell_length_c   7.30234673
_cell_angle_alpha   101.47349666
_cell_angle_beta   92.80043240
_cell_angle_gamma   90.62669765
_symmetry_Int_Tables_number   1
_chemical_formula_structural   LiNi(PO3)3
_chemical_formula_sum   'Li2 Ni2 P6 O18'
_cell_volume   317.10727453
_cell_formula_units_Z   2
loop_
 _symmetry_equiv_pos_site_id
 _symmetry_equiv_pos_as_xyz
  1  'x, y, z'
loop_
 _atom_site_type_symbol
 _atom_site_label
 _atom_site_symmetry_multiplicity
 _atom_site_fract_x
 _atom_site_fract_y
 _atom_site_fract_z
 _atom_site_occupancy
  Li  Li0  1  0.86050400  0.42240300  0.17473100  1
  Li  Li1  1  0.13949600  0.57759700  0.82526900  1
  Ni  Ni2  1  0.85051700  0.91323900  0.13937000  1
  Ni  Ni3  1  0.14948300  0.08676100  0.86063000  1
  P  P4  1  0.85896500  0.78372900  0.55015500  1
  P  P5  1  0.66119000  0.11424000  0.78442200  1
  P  P6  1  0.64961100  0.56072700  0.80056400  1
  P  P7  1  0.35038900  0.43927300  0.19943600  1
  P  P8  1  0.33881000  0.88576000  0.21557800  1
  P  P9  1  0.14103500  0.21627100  0.44984500  1
  O  O10  1  0.94838900  0.19099600  0.32212400  1
  O  O11  1  0.88000900  0.72803200  0.34148100  1
  O  O12  1  0.82492800  0.63515400  0.94464100  1
  O  O13  1  0.83503700  0.09713000  0.93027900  1
  O  O14  1  0.72753900  0.98420700  0.58733400  1
  O  O15  1  0.70535500  0.62094400  0.60348600  1
  O  O16  1  0.67703300  0.32534200  0.72837700  1
  O  O17  1  0.56592500  0.39030000  0.15767700  1
  O  O18  1  0.55059600  0.94437400  0.18032100  1
  O  O19  1  0.44940400  0.05562600  0.81967900  1
  O  O20  1  0.43407500  0.60970000  0.84232300  1
  O  O21  1  0.32296700  0.67465800  0.27162300  1
  O  O22  1  0.29464500  0.37905600  0.39651400  1
  O  O23  1  0.27246100  0.01579300  0.41266600  1
  O  O24  1  0.16496300  0.90287000  0.06972100  1
  O  O25  1  0.17507200  0.36484600  0.05535900  1
  O  O26  1  0.11999100  0.27196800  0.65851900  1
  O  O27  1  0.05161100  0.80900400  0.67787600  1
