# generated using pymatgen
data_Li(NiO2)2
_symmetry_space_group_name_H-M   'P 1'
_cell_length_a   5.73639275
_cell_length_b   5.73639275
_cell_length_c   5.73639284
_cell_angle_alpha   60.09493558
_cell_angle_beta   60.09493558
_cell_angle_gamma   60.09493297
_symmetry_Int_Tables_number   1
_chemical_formula_structural   Li(NiO2)2
_chemical_formula_sum   'Li2 Ni4 O8'
_cell_volume   133.76264840
_cell_formula_units_Z   2
loop_
 _symmetry_equiv_pos_site_id
 _symmetry_equiv_pos_as_xyz
  1  'x, y, z'
loop_
 _atom_site_type_symbol
 _atom_site_label
 _atom_site_symmetry_multiplicity
 _atom_site_fract_x
 _atom_site_fract_y
 _atom_site_fract_z
 _atom_site_occupancy
  Li  Li0  1  0.12819200  0.12819200  0.12819200  1
  Li  Li1  1  0.87180800  0.87180800  0.87180800  1
  Ni  Ni2  1  0.00000000  0.50000000  0.50000000  1
  Ni  Ni3  1  0.50000000  0.50000000  0.50000000  1
  Ni  Ni4  1  0.50000000  0.50000000  0.00000000  1
  Ni  Ni5  1  0.50000000  0.00000000  0.50000000  1
  O  O6  1  0.24933700  0.71152500  0.28792500  1
  O  O7  1  0.28847500  0.71207500  0.75066300  1
  O  O8  1  0.75066300  0.28847500  0.71207500  1
  O  O9  1  0.26568700  0.26568700  0.26568700  1
  O  O10  1  0.71152500  0.28792500  0.24933700  1
  O  O11  1  0.71207500  0.75066300  0.28847500  1
  O  O12  1  0.73431300  0.73431300  0.73431300  1
  O  O13  1  0.28792500  0.24933700  0.71152500  1
