# generated using pymatgen
data_Li4MoP2O9
_symmetry_space_group_name_H-M   'P 1'
_cell_length_a   8.04057845
_cell_length_b   8.04057845
_cell_length_c   7.18524977
_cell_angle_alpha   89.82645926
_cell_angle_beta   89.82645926
_cell_angle_gamma   51.90648797
_symmetry_Int_Tables_number   1
_chemical_formula_structural   Li4MoP2O9
_chemical_formula_sum   'Li8 Mo2 P4 O18'
_cell_volume   365.58757080
_cell_formula_units_Z   2
loop_
 _symmetry_equiv_pos_site_id
 _symmetry_equiv_pos_as_xyz
  1  'x, y, z'
loop_
 _atom_site_type_symbol
 _atom_site_label
 _atom_site_symmetry_multiplicity
 _atom_site_fract_x
 _atom_site_fract_y
 _atom_site_fract_z
 _atom_site_occupancy
  Li  Li0  1  0.89975500  0.89975500  0.24009700  1
  Li  Li1  1  0.36878700  0.36878700  0.69101400  1
  Li  Li2  1  0.00000000  0.50000000  0.50000000  1
  Li  Li3  1  0.50000000  0.00000000  0.50000000  1
  Li  Li4  1  0.63121300  0.63121300  0.30898600  1
  Li  Li5  1  0.10024500  0.10024500  0.75990300  1
  Li  Li6  1  0.76889300  0.23110700  0.00000000  1
  Li  Li7  1  0.23110700  0.76889300  0.00000000  1
  Mo  Mo8  1  0.00000000  0.50000000  0.00000000  1
  Mo  Mo9  1  0.50000000  0.00000000  0.00000000  1
  P  P10  1  0.40287100  0.40287100  0.24340300  1
  P  P11  1  0.87770100  0.87770100  0.69939300  1
  P  P12  1  0.12229900  0.12229900  0.30060700  1
  P  P13  1  0.59712900  0.59712900  0.75659700  1
  O  O14  1  0.49285400  0.49285400  0.75175400  1
  O  O15  1  0.96638600  0.96638600  0.81809100  1
  O  O16  1  0.88264100  0.88264100  0.48942700  1
  O  O17  1  0.55749500  0.19423400  0.12041900  1
  O  O18  1  0.19423400  0.55749500  0.12041900  1
  O  O19  1  0.34668000  0.34668000  0.42428900  1
  O  O20  1  0.63541600  0.00426200  0.75106900  1
  O  O21  1  0.00426200  0.63541600  0.75106900  1
  O  O22  1  0.75958300  0.75958300  0.12978700  1
  O  O23  1  0.24041700  0.24041700  0.87021300  1
  O  O24  1  0.99573800  0.36458400  0.24893100  1
  O  O25  1  0.36458400  0.99573800  0.24893100  1
  O  O26  1  0.65332000  0.65332000  0.57571100  1
  O  O27  1  0.80576600  0.44250500  0.87958100  1
  O  O28  1  0.44250500  0.80576600  0.87958100  1
  O  O29  1  0.11735900  0.11735900  0.51057300  1
  O  O30  1  0.03361400  0.03361400  0.18190900  1
  O  O31  1  0.50714600  0.50714600  0.24824600  1
