# generated using pymatgen
data_Li6Br3N
_symmetry_space_group_name_H-M   'P 1'
_cell_length_a   6.38385400
_cell_length_b   6.27188100
_cell_length_c   10.98309424
_cell_angle_alpha   55.52274111
_cell_angle_beta   90.00000000
_cell_angle_gamma   90.00000000
_symmetry_Int_Tables_number   1
_chemical_formula_structural   Li6Br3N
_chemical_formula_sum   'Li12 Br6 N2'
_cell_volume   362.50800426
_cell_formula_units_Z   2
loop_
 _symmetry_equiv_pos_site_id
 _symmetry_equiv_pos_as_xyz
  1  'x, y, z'
loop_
 _atom_site_type_symbol
 _atom_site_label
 _atom_site_symmetry_multiplicity
 _atom_site_fract_x
 _atom_site_fract_y
 _atom_site_fract_z
 _atom_site_occupancy
  Li  Li0  1  0.43763300  0.29778600  0.30013800  1
  Li  Li1  1  0.82931300  0.21578800  0.03523200  1
  Li  Li2  1  0.17068700  0.78421200  0.96476800  1
  Li  Li3  1  0.67068700  0.21578800  0.53523200  1
  Li  Li4  1  0.32931300  0.78421200  0.46476800  1
  Li  Li5  1  0.76400200  0.90708200  0.92562100  1
  Li  Li6  1  0.93763300  0.70221400  0.19986200  1
  Li  Li7  1  0.73599800  0.90708200  0.42562100  1
  Li  Li8  1  0.56236700  0.70221400  0.69986200  1
  Li  Li9  1  0.06236700  0.29778600  0.80013800  1
  Li  Li10  1  0.23599800  0.09291800  0.07437900  1
  Li  Li11  1  0.26400200  0.09291800  0.57437900  1
  Br  Br12  1  0.48179000  0.24939200  0.74285500  1
  Br  Br13  1  0.51821000  0.75060800  0.25714500  1
  Br  Br14  1  0.01821000  0.24939200  0.24285500  1
  Br  Br15  1  0.98179000  0.75060800  0.75714500  1
  Br  Br16  1  0.50000000  0.50000000  0.00000000  1
  Br  Br17  1  0.00000000  0.50000000  0.50000000  1
  N  N18  1  0.50000000  0.00000000  0.50000000  1
  N  N19  1  0.00000000  0.00000000  0.00000000  1
