# generated using pymatgen
data_Li2CoSiO4
_symmetry_space_group_name_H-M   'P 1'
_cell_length_a   5.01353400
_cell_length_b   6.31821900
_cell_length_c   10.78928900
_cell_angle_alpha   90.00160209
_cell_angle_beta   90.00012086
_cell_angle_gamma   90.00020260
_symmetry_Int_Tables_number   1
_chemical_formula_structural   Li2CoSiO4
_chemical_formula_sum   'Li8 Co4 Si4 O16'
_cell_volume   341.76805419
_cell_formula_units_Z   4
loop_
 _symmetry_equiv_pos_site_id
 _symmetry_equiv_pos_as_xyz
  1  'x, y, z'
loop_
 _atom_site_type_symbol
 _atom_site_label
 _atom_site_symmetry_multiplicity
 _atom_site_fract_x
 _atom_site_fract_y
 _atom_site_fract_z
 _atom_site_occupancy
  Li  Li0  1  0.25741900  0.50180400  0.66206700  1
  Li  Li1  1  0.75742000  0.49819600  0.33793200  1
  Li  Li2  1  0.75742900  0.00180300  0.83792900  1
  Li  Li3  1  0.25742900  0.99819900  0.16207100  1
  Li  Li4  1  0.25672600  0.75736500  0.92207300  1
  Li  Li5  1  0.75672700  0.24263500  0.07792700  1
  Li  Li6  1  0.75672400  0.25735800  0.57792800  1
  Li  Li7  1  0.25672400  0.74264200  0.42207100  1
  Co  Co8  1  0.76036300  0.50848800  0.83574400  1
  Co  Co9  1  0.26036100  0.49151600  0.16425300  1
  Co  Co10  1  0.26037700  0.00850000  0.66425300  1
  Co  Co11  1  0.76038000  0.99149800  0.33574600  1
  Si  Si12  1  0.26379300  0.25214000  0.91308800  1
  Si  Si13  1  0.76378600  0.74786700  0.08691400  1
  Si  Si14  1  0.76382600  0.75217800  0.58691900  1
  Si  Si15  1  0.26383600  0.24781600  0.41308000  1
  O  O16  1  0.59360900  0.25405700  0.90968600  1
  O  O17  1  0.09360400  0.74594300  0.09031900  1
  O  O18  1  0.09364900  0.75406700  0.59030400  1
  O  O19  1  0.59366500  0.24593100  0.40970000  1
  O  O20  1  0.15752100  0.24653100  0.05831400  1
  O  O21  1  0.65751800  0.75347800  0.94168400  1
  O  O22  1  0.65754700  0.74655200  0.44169100  1
  O  O23  1  0.15754800  0.25344300  0.55831000  1
  O  O24  1  0.15770100  0.46915900  0.84155200  1
  O  O25  1  0.65769000  0.53084800  0.15844500  1
  O  O26  1  0.65770800  0.96917200  0.65847600  1
  O  O27  1  0.15770900  0.03081800  0.34152300  1
  O  O28  1  0.15556500  0.03664800  0.84144400  1
  O  O29  1  0.65555400  0.96335800  0.15855600  1
  O  O30  1  0.65563600  0.53663100  0.65855100  1
  O  O31  1  0.15565400  0.46336200  0.34144900  1
