# generated using pymatgen
data_Li10Pb3
_symmetry_space_group_name_H-M   'P 1'
_cell_length_a   10.11005500
_cell_length_b   10.11005500
_cell_length_c   10.11005500
_cell_angle_alpha   90.00000000
_cell_angle_beta   90.00000000
_cell_angle_gamma   90.00000000
_symmetry_Int_Tables_number   1
_chemical_formula_structural   Li10Pb3
_chemical_formula_sum   'Li40 Pb12'
_cell_volume   1033.38119609
_cell_formula_units_Z   4
loop_
 _symmetry_equiv_pos_site_id
 _symmetry_equiv_pos_as_xyz
  1  'x, y, z'
loop_
 _atom_site_type_symbol
 _atom_site_label
 _atom_site_symmetry_multiplicity
 _atom_site_fract_x
 _atom_site_fract_y
 _atom_site_fract_z
 _atom_site_occupancy
  Li  Li0  1  0.11146500  0.11146500  0.11146500  1
  Li  Li1  1  0.88853500  0.11146500  0.88853500  1
  Li  Li2  1  0.88853500  0.88853500  0.11146500  1
  Li  Li3  1  0.11146500  0.88853500  0.88853500  1
  Li  Li4  1  0.60535100  0.60535100  0.60535100  1
  Li  Li5  1  0.39464900  0.60535100  0.39464900  1
  Li  Li6  1  0.39464900  0.39464900  0.60535100  1
  Li  Li7  1  0.60535100  0.39464900  0.39464900  1
  Li  Li8  1  0.81863400  0.81863400  0.81863400  1
  Li  Li9  1  0.18136600  0.81863400  0.18136600  1
  Li  Li10  1  0.18136600  0.18136600  0.81863400  1
  Li  Li11  1  0.81863400  0.18136600  0.18136600  1
  Li  Li12  1  0.31802600  0.31802600  0.31802600  1
  Li  Li13  1  0.68197400  0.31802600  0.68197400  1
  Li  Li14  1  0.68197400  0.68197400  0.31802600  1
  Li  Li15  1  0.31802600  0.68197400  0.68197400  1
  Li  Li16  1  0.34908100  0.00000000  0.00000000  1
  Li  Li17  1  0.65091900  0.00000000  0.00000000  1
  Li  Li18  1  0.00000000  0.00000000  0.34908100  1
  Li  Li19  1  0.00000000  0.00000000  0.65091900  1
  Li  Li20  1  0.00000000  0.65091900  0.00000000  1
  Li  Li21  1  0.00000000  0.34908100  0.00000000  1
  Li  Li22  1  0.85889900  0.50000000  0.50000000  1
  Li  Li23  1  0.14110100  0.50000000  0.50000000  1
  Li  Li24  1  0.50000000  0.50000000  0.85889900  1
  Li  Li25  1  0.50000000  0.50000000  0.14110100  1
  Li  Li26  1  0.50000000  0.14110100  0.50000000  1
  Li  Li27  1  0.50000000  0.85889900  0.50000000  1
  Li  Li28  1  0.81041600  0.81041600  0.53122900  1
  Li  Li29  1  0.18958400  0.53122900  0.18958400  1
  Li  Li30  1  0.18958400  0.46877100  0.81041600  1
  Li  Li31  1  0.46877100  0.18958400  0.81041600  1
  Li  Li32  1  0.53122900  0.18958400  0.18958400  1
  Li  Li33  1  0.81041600  0.18958400  0.46877100  1
  Li  Li34  1  0.18958400  0.81041600  0.46877100  1
  Li  Li35  1  0.53122900  0.81041600  0.81041600  1
  Li  Li36  1  0.81041600  0.53122900  0.81041600  1
  Li  Li37  1  0.46877100  0.81041600  0.18958400  1
  Li  Li38  1  0.81041600  0.46877100  0.18958400  1
  Li  Li39  1  0.18958400  0.18958400  0.53122900  1
  Pb  Pb40  1  0.31340900  0.31340900  0.03299900  1
  Pb  Pb41  1  0.68659100  0.03299900  0.68659100  1
  Pb  Pb42  1  0.68659100  0.96700100  0.31340900  1
  Pb  Pb43  1  0.96700100  0.68659100  0.31340900  1
  Pb  Pb44  1  0.03299900  0.68659100  0.68659100  1
  Pb  Pb45  1  0.31340900  0.68659100  0.96700100  1
  Pb  Pb46  1  0.68659100  0.31340900  0.96700100  1
  Pb  Pb47  1  0.03299900  0.31340900  0.31340900  1
  Pb  Pb48  1  0.31340900  0.03299900  0.31340900  1
  Pb  Pb49  1  0.96700100  0.31340900  0.68659100  1
  Pb  Pb50  1  0.31340900  0.96700100  0.68659100  1
  Pb  Pb51  1  0.68659100  0.68659100  0.03299900  1
