# generated using pymatgen
data_Li4Ti7O16
_symmetry_space_group_name_H-M   'P 1'
_cell_length_a   5.99388000
_cell_length_b   8.47172200
_cell_length_c   11.79651200
_cell_angle_alpha   90.00000000
_cell_angle_beta   90.00000000
_cell_angle_gamma   90.00000000
_symmetry_Int_Tables_number   1
_chemical_formula_structural   Li4Ti7O16
_chemical_formula_sum   'Li8 Ti14 O32'
_cell_volume   599.00900837
_cell_formula_units_Z   2
loop_
 _symmetry_equiv_pos_site_id
 _symmetry_equiv_pos_as_xyz
  1  'x, y, z'
loop_
 _atom_site_type_symbol
 _atom_site_label
 _atom_site_symmetry_multiplicity
 _atom_site_fract_x
 _atom_site_fract_y
 _atom_site_fract_z
 _atom_site_occupancy
  Li  Li0  1  0.50000000  0.38436100  0.87292100  1
  Li  Li1  1  0.00000000  0.87706200  0.12856600  1
  Li  Li2  1  0.50000000  0.37706200  0.37143400  1
  Li  Li3  1  0.50000000  0.61563900  0.12707900  1
  Li  Li4  1  0.00000000  0.11563900  0.37292100  1
  Li  Li5  1  0.00000000  0.88436100  0.62707900  1
  Li  Li6  1  0.50000000  0.62293800  0.62856600  1
  Li  Li7  1  0.00000000  0.12293800  0.87143400  1
  Ti  Ti8  1  0.26083600  0.76198800  0.88155700  1
  Ti  Ti9  1  0.73916400  0.76198800  0.88155700  1
  Ti  Ti10  1  0.73916400  0.23801200  0.11844300  1
  Ti  Ti11  1  0.00000000  0.50000000  0.00000000  1
  Ti  Ti12  1  0.00000000  0.48573100  0.25876500  1
  Ti  Ti13  1  0.26083600  0.23801200  0.11844300  1
  Ti  Ti14  1  0.23916400  0.73801200  0.38155700  1
  Ti  Ti15  1  0.50000000  0.98573100  0.24123500  1
  Ti  Ti16  1  0.50000000  0.00000000  0.50000000  1
  Ti  Ti17  1  0.76083600  0.73801200  0.38155700  1
  Ti  Ti18  1  0.76083600  0.26198800  0.61844300  1
  Ti  Ti19  1  0.00000000  0.51426900  0.74123500  1
  Ti  Ti20  1  0.23916400  0.26198800  0.61844300  1
  Ti  Ti21  1  0.50000000  0.01426900  0.75876500  1
  O  O22  1  0.50000000  0.74073300  0.98310500  1
  O  O23  1  0.78246800  0.51409600  0.87648600  1
  O  O24  1  0.78246800  0.48590400  0.12351400  1
  O  O25  1  0.00000000  0.73904400  0.98887300  1
  O  O26  1  0.00000000  0.26555100  0.24027300  1
  O  O27  1  0.00000000  0.26095600  0.01112700  1
  O  O28  1  0.25846600  0.02069000  0.13916800  1
  O  O29  1  0.28246800  0.98590400  0.37648600  1
  O  O30  1  0.21753200  0.51409600  0.87648600  1
  O  O31  1  0.21753200  0.48590400  0.12351400  1
  O  O32  1  0.50000000  0.23923300  0.23445900  1
  O  O33  1  0.50000000  0.25926700  0.01689500  1
  O  O34  1  0.50000000  0.76555100  0.25972700  1
  O  O35  1  0.50000000  0.76095600  0.48887300  1
  O  O36  1  0.75846600  0.52069000  0.36083200  1
  O  O37  1  0.75846600  0.47931000  0.63916800  1
  O  O38  1  0.74153400  0.02069000  0.13916800  1
  O  O39  1  0.71753200  0.98590400  0.37648600  1
  O  O40  1  0.00000000  0.75926700  0.48310500  1
  O  O41  1  0.00000000  0.73923300  0.26554100  1
  O  O42  1  0.00000000  0.24073300  0.51689500  1
  O  O43  1  0.00000000  0.26076700  0.73445900  1
  O  O44  1  0.24153400  0.52069000  0.36083200  1
  O  O45  1  0.28246800  0.01409600  0.62351400  1
  O  O46  1  0.25846600  0.97931000  0.86083200  1
  O  O47  1  0.24153400  0.47931000  0.63916800  1
  O  O48  1  0.50000000  0.23444900  0.74027300  1
  O  O49  1  0.50000000  0.23904400  0.51112700  1
  O  O50  1  0.50000000  0.76076700  0.76554100  1
  O  O51  1  0.71753200  0.01409600  0.62351400  1
  O  O52  1  0.74153400  0.97931000  0.86083200  1
  O  O53  1  0.00000000  0.73444900  0.75972700  1
