# generated using pymatgen
data_LiAl(PO3)4
_symmetry_space_group_name_H-M   'P 1'
_cell_length_a   8.36172000
_cell_length_b   9.05321900
_cell_length_c   12.58499100
_cell_angle_alpha   90.00000000
_cell_angle_beta   90.00000000
_cell_angle_gamma   90.00000000
_symmetry_Int_Tables_number   1
_chemical_formula_structural   LiAl(PO3)4
_chemical_formula_sum   'Li4 Al4 P16 O48'
_cell_volume   952.68988941
_cell_formula_units_Z   4
loop_
 _symmetry_equiv_pos_site_id
 _symmetry_equiv_pos_as_xyz
  1  'x, y, z'
loop_
 _atom_site_type_symbol
 _atom_site_label
 _atom_site_symmetry_multiplicity
 _atom_site_fract_x
 _atom_site_fract_y
 _atom_site_fract_z
 _atom_site_occupancy
  Li  Li0  1  0.00592500  0.75000000  0.00000000  1
  Li  Li1  1  0.49407500  0.25000000  0.50000000  1
  Li  Li2  1  0.50592500  0.75000000  0.50000000  1
  Li  Li3  1  0.99407500  0.25000000  0.00000000  1
  Al  Al4  1  0.13204400  0.25000000  0.50000000  1
  Al  Al5  1  0.36795600  0.75000000  0.00000000  1
  Al  Al6  1  0.63204400  0.25000000  0.00000000  1
  Al  Al7  1  0.86795600  0.75000000  0.50000000  1
  P  P8  1  0.31705700  0.00636200  0.36103600  1
  P  P9  1  0.68294300  0.99363800  0.63896400  1
  P  P10  1  0.18294300  0.50636200  0.13896400  1
  P  P11  1  0.53561700  0.51187400  0.14807600  1
  P  P12  1  0.53561700  0.98812600  0.85192400  1
  P  P13  1  0.96438300  0.48812600  0.64807600  1
  P  P14  1  0.31705700  0.49363800  0.63896400  1
  P  P15  1  0.96438300  0.01187400  0.35192400  1
  P  P16  1  0.46438300  0.48812600  0.85192400  1
  P  P17  1  0.03561700  0.98812600  0.64807600  1
  P  P18  1  0.03561700  0.51187400  0.35192400  1
  P  P19  1  0.46438300  0.01187400  0.14807600  1
  P  P20  1  0.81705700  0.49363800  0.86103600  1
  P  P21  1  0.81705700  0.00636200  0.13896400  1
  P  P22  1  0.18294300  0.99363800  0.86103600  1
  P  P23  1  0.68294300  0.50636200  0.36103600  1
  O  O24  1  0.52681100  0.63490800  0.06795700  1
  O  O25  1  0.90656000  0.62564800  0.89578100  1
  O  O26  1  0.09344000  0.37435200  0.10421900  1
  O  O27  1  0.36684800  0.62137400  0.88092100  1
  O  O28  1  0.19908600  0.63667500  0.06341200  1
  O  O29  1  0.52681100  0.86509200  0.93204300  1
  O  O30  1  0.13315200  0.12137400  0.61907900  1
  O  O31  1  0.47318900  0.36509200  0.93204300  1
  O  O32  1  0.59344000  0.37435200  0.39578100  1
  O  O33  1  0.89447200  0.07978900  0.24460800  1
  O  O34  1  0.97318900  0.36509200  0.56795700  1
  O  O35  1  0.89447200  0.42021100  0.75539200  1
  O  O36  1  0.30091400  0.13667500  0.43658800  1
  O  O37  1  0.59344000  0.12564800  0.60421900  1
  O  O38  1  0.09344000  0.12564800  0.89578100  1
  O  O39  1  0.86684800  0.62137400  0.61907900  1
  O  O40  1  0.97318900  0.13490800  0.43204300  1
  O  O41  1  0.60552800  0.92021100  0.74460800  1
  O  O42  1  0.13315200  0.37862600  0.38092100  1
  O  O43  1  0.35862900  0.46051400  0.18078500  1
  O  O44  1  0.63315200  0.12137400  0.88092100  1
  O  O45  1  0.02681100  0.63490800  0.43204300  1
  O  O46  1  0.80091400  0.13667500  0.06341200  1
  O  O47  1  0.85862900  0.46051400  0.31921500  1
  O  O48  1  0.40656000  0.87435200  0.39578100  1
  O  O49  1  0.63315200  0.37862600  0.11907900  1
  O  O50  1  0.40656000  0.62564800  0.60421900  1
  O  O51  1  0.86684800  0.87862600  0.38092100  1
  O  O52  1  0.69908600  0.86332500  0.56341200  1
  O  O53  1  0.36684800  0.87862600  0.11907900  1
  O  O54  1  0.47318900  0.13490800  0.06795700  1
  O  O55  1  0.39447200  0.42021100  0.74460800  1
  O  O56  1  0.14137100  0.53948600  0.68078500  1
  O  O57  1  0.02681100  0.86509200  0.56795700  1
  O  O58  1  0.60552800  0.57978900  0.25539200  1
  O  O59  1  0.64137100  0.53948600  0.81921500  1
  O  O60  1  0.64137100  0.96051400  0.18078500  1
  O  O61  1  0.19908600  0.86332500  0.93658800  1
  O  O62  1  0.35862900  0.03948600  0.81921500  1
  O  O63  1  0.14137100  0.96051400  0.31921500  1
  O  O64  1  0.69908600  0.63667500  0.43658800  1
  O  O65  1  0.85862900  0.03948600  0.68078500  1
  O  O66  1  0.80091400  0.36332500  0.93658800  1
  O  O67  1  0.39447200  0.07978900  0.25539200  1
  O  O68  1  0.10552800  0.92021100  0.75539200  1
  O  O69  1  0.10552800  0.57978900  0.24460800  1
  O  O70  1  0.90656000  0.87435200  0.10421900  1
  O  O71  1  0.30091400  0.36332500  0.56341200  1
