# generated using pymatgen
data_Li2Fe5(PO4)4
_symmetry_space_group_name_H-M   'P 1'
_cell_length_a   5.32968471
_cell_length_b   8.12471200
_cell_length_c   8.31249404
_cell_angle_alpha   111.19257313
_cell_angle_beta   91.33295184
_cell_angle_gamma   101.44500771
_symmetry_Int_Tables_number   1
_chemical_formula_structural   Li2Fe5(PO4)4
_chemical_formula_sum   'Li2 Fe5 P4 O16'
_cell_volume   327.15041990
_cell_formula_units_Z   1
loop_
 _symmetry_equiv_pos_site_id
 _symmetry_equiv_pos_as_xyz
  1  'x, y, z'
loop_
 _atom_site_type_symbol
 _atom_site_label
 _atom_site_symmetry_multiplicity
 _atom_site_fract_x
 _atom_site_fract_y
 _atom_site_fract_z
 _atom_site_occupancy
  Li  Li0  1  0.34539900  0.92772200  0.73090700  1
  Li  Li1  1  0.65470800  0.07226500  0.26912500  1
  Fe  Fe2  1  0.36434300  0.59101600  0.33555100  1
  Fe  Fe3  1  0.63567800  0.40900500  0.66446100  1
  Fe  Fe4  1  0.00000600  0.99998000  0.99996800  1
  Fe  Fe5  1  0.90453300  0.74714000  0.21567000  1
  Fe  Fe6  1  0.09543700  0.25285500  0.78430100  1
  P  P7  1  0.86729000  0.78834500  0.57262800  1
  P  P8  1  0.13273100  0.21166200  0.42737200  1
  P  P9  1  0.62813400  0.29831500  0.01937600  1
  P  P10  1  0.37183600  0.70168300  0.98063500  1
  O  O11  1  0.12833500  0.75916100  0.50127900  1
  O  O12  1  0.87173900  0.24088400  0.49878500  1
  O  O13  1  0.07683100  0.03233900  0.26338600  1
  O  O14  1  0.92306700  0.96765100  0.73661800  1
  O  O15  1  0.23159800  0.67273900  0.13676400  1
  O  O16  1  0.76839100  0.32726000  0.86325500  1
  O  O17  1  0.71984500  0.63377900  0.61946700  1
  O  O18  1  0.28014400  0.36618700  0.38047000  1
  O  O19  1  0.65521500  0.80684200  0.05548300  1
  O  O20  1  0.34477100  0.19314700  0.94449300  1
  O  O21  1  0.69098100  0.81245600  0.43193100  1
  O  O22  1  0.30906600  0.18755300  0.56804700  1
  O  O23  1  0.64342300  0.48497000  0.16270000  1
  O  O24  1  0.35654500  0.51503500  0.83729000  1
  O  O25  1  0.24042000  0.82012600  0.91207500  1
  O  O26  1  0.75953500  0.17988200  0.08796200  1
