# generated using pymatgen
data_LiSn2(PO4)3
_symmetry_space_group_name_H-M   'P 1'
_cell_length_a   8.85335011
_cell_length_b   8.85335011
_cell_length_c   8.85335025
_cell_angle_alpha   59.31655872
_cell_angle_beta   59.31655872
_cell_angle_gamma   59.31655712
_symmetry_Int_Tables_number   1
_chemical_formula_structural   LiSn2(PO4)3
_chemical_formula_sum   'Li2 Sn4 P6 O24'
_cell_volume   483.05542348
_cell_formula_units_Z   2
loop_
 _symmetry_equiv_pos_site_id
 _symmetry_equiv_pos_as_xyz
  1  'x, y, z'
loop_
 _atom_site_type_symbol
 _atom_site_label
 _atom_site_symmetry_multiplicity
 _atom_site_fract_x
 _atom_site_fract_y
 _atom_site_fract_z
 _atom_site_occupancy
  Li  Li0  1  0.00000000  0.00000000  0.00000000  1
  Li  Li1  1  0.50000000  0.50000000  0.50000000  1
  Sn  Sn2  1  0.14291900  0.14291900  0.14291900  1
  Sn  Sn3  1  0.64291900  0.64291900  0.64291900  1
  Sn  Sn4  1  0.85708100  0.85708100  0.85708100  1
  Sn  Sn5  1  0.35708100  0.35708100  0.35708100  1
  P  P6  1  0.25000000  0.95570000  0.54430000  1
  P  P7  1  0.45570000  0.75000000  0.04430000  1
  P  P8  1  0.75000000  0.04430000  0.45570000  1
  P  P9  1  0.95570000  0.54430000  0.25000000  1
  P  P10  1  0.04430000  0.45570000  0.75000000  1
  P  P11  1  0.54430000  0.25000000  0.95570000  1
  O  O12  1  0.30407200  0.11289000  0.50958900  1
  O  O13  1  0.76655500  0.56001500  0.41369800  1
  O  O14  1  0.08630200  0.93998500  0.73344500  1
  O  O15  1  0.41369800  0.76655500  0.56001500  1
  O  O16  1  0.23344500  0.43998500  0.58630200  1
  O  O17  1  0.61289000  0.80407200  0.00958900  1
  O  O18  1  0.69592800  0.88711000  0.49041100  1
  O  O19  1  0.88711000  0.49041100  0.69592800  1
  O  O20  1  0.80407200  0.00958900  0.61289000  1
  O  O21  1  0.43998500  0.58630200  0.23344500  1
  O  O22  1  0.50958900  0.30407200  0.11289000  1
  O  O23  1  0.38711000  0.19592800  0.99041100  1
  O  O24  1  0.56001500  0.41369800  0.76655500  1
  O  O25  1  0.11289000  0.50958900  0.30407200  1
  O  O26  1  0.06001500  0.26655500  0.91369800  1
  O  O27  1  0.73344500  0.08630200  0.93998500  1
  O  O28  1  0.99041100  0.38711000  0.19592800  1
  O  O29  1  0.58630200  0.23344500  0.43998500  1
  O  O30  1  0.49041100  0.69592800  0.88711000  1
  O  O31  1  0.19592800  0.99041100  0.38711000  1
  O  O32  1  0.91369800  0.06001500  0.26655500  1
  O  O33  1  0.93998500  0.73344500  0.08630200  1
  O  O34  1  0.26655500  0.91369800  0.06001500  1
  O  O35  1  0.00958900  0.61289000  0.80407200  1
