# generated using pymatgen
data_Li4CO4
_symmetry_space_group_name_H-M   'P 1'
_cell_length_a   5.07720517
_cell_length_b   5.07720517
_cell_length_c   6.29618855
_cell_angle_alpha   51.63309944
_cell_angle_beta   51.63309944
_cell_angle_gamma   51.12560752
_symmetry_Int_Tables_number   1
_chemical_formula_structural   Li4CO4
_chemical_formula_sum   'Li4 C1 O4'
_cell_volume   91.69307692
_cell_formula_units_Z   1
loop_
 _symmetry_equiv_pos_site_id
 _symmetry_equiv_pos_as_xyz
  1  'x, y, z'
loop_
 _atom_site_type_symbol
 _atom_site_label
 _atom_site_symmetry_multiplicity
 _atom_site_fract_x
 _atom_site_fract_y
 _atom_site_fract_z
 _atom_site_occupancy
  Li  Li0  1  0.83369300  0.47779800  0.65590900  1
  Li  Li1  1  0.52220200  0.16630700  0.34409100  1
  Li  Li2  1  0.24213200  0.40518600  0.01237900  1
  Li  Li3  1  0.59481400  0.75786800  0.98762100  1
  C  C4  1  0.04751800  0.95248200  0.00000000  1
  O  O5  1  0.98117800  0.26794500  0.00045700  1
  O  O6  1  0.12021500  0.64253400  0.25033500  1
  O  O7  1  0.73205500  0.01882200  0.99954300  1
  O  O8  1  0.35746600  0.87978500  0.74966500  1
