# generated using pymatgen
data_Li4CO4
_symmetry_space_group_name_H-M   'P 1'
_cell_length_a   4.23449447
_cell_length_b   4.23449447
_cell_length_c   4.92610946
_cell_angle_alpha   64.99144701
_cell_angle_beta   64.99144701
_cell_angle_gamma   89.79582587
_symmetry_Int_Tables_number   1
_chemical_formula_structural   Li4CO4
_chemical_formula_sum   'Li4 C1 O4'
_cell_volume   70.87440099
_cell_formula_units_Z   1
loop_
 _symmetry_equiv_pos_site_id
 _symmetry_equiv_pos_as_xyz
  1  'x, y, z'
loop_
 _atom_site_type_symbol
 _atom_site_label
 _atom_site_symmetry_multiplicity
 _atom_site_fract_x
 _atom_site_fract_y
 _atom_site_fract_z
 _atom_site_occupancy
  Li  Li0  1  0.76113200  0.76113200  0.26739000  1
  Li  Li1  1  0.36640400  0.36640400  0.25768400  1
  Li  Li2  1  0.46130800  0.06109100  0.83683000  1
  Li  Li3  1  0.06109100  0.46130800  0.83683000  1
  C  C4  1  0.92660900  0.92660900  0.54952300  1
  O  O5  1  0.83818900  0.22285000  0.33659500  1
  O  O6  1  0.63047700  0.63047700  0.76183800  1
  O  O7  1  0.01327400  0.01327400  0.76246200  1
  O  O8  1  0.22285000  0.83818900  0.33659500  1
