# generated using pymatgen
data_LiMoAsO6
_symmetry_space_group_name_H-M   'P 1'
_cell_length_a   5.00568000
_cell_length_b   9.09604900
_cell_length_c   9.57260600
_cell_angle_alpha   90.00000000
_cell_angle_beta   90.00000000
_cell_angle_gamma   90.00000000
_symmetry_Int_Tables_number   1
_chemical_formula_structural   LiMoAsO6
_chemical_formula_sum   'Li4 Mo4 As4 O24'
_cell_volume   435.85904020
_cell_formula_units_Z   4
loop_
 _symmetry_equiv_pos_site_id
 _symmetry_equiv_pos_as_xyz
  1  'x, y, z'
loop_
 _atom_site_type_symbol
 _atom_site_label
 _atom_site_symmetry_multiplicity
 _atom_site_fract_x
 _atom_site_fract_y
 _atom_site_fract_z
 _atom_site_occupancy
  Li  Li0  1  0.60347600  0.85185000  0.62093600  1
  Li  Li1  1  0.10347600  0.35185000  0.87906400  1
  Li  Li2  1  0.39652400  0.35185000  0.37906400  1
  Li  Li3  1  0.89652400  0.85185000  0.12093600  1
  Mo  Mo4  1  0.39010800  0.99837900  0.33855000  1
  Mo  Mo5  1  0.10989200  0.99837900  0.83855000  1
  Mo  Mo6  1  0.60989200  0.49837900  0.66145000  1
  Mo  Mo7  1  0.89010800  0.49837900  0.16145000  1
  As  As8  1  0.10001000  0.67861000  0.44848700  1
  As  As9  1  0.39999000  0.67861000  0.94848700  1
  As  As10  1  0.89999000  0.17861000  0.55151300  1
  As  As11  1  0.60001000  0.17861000  0.05151300  1
  O  O12  1  0.76190900  0.34458700  0.01606200  1
  O  O13  1  0.91816000  0.87086400  0.74982800  1
  O  O14  1  0.59608400  0.49470700  0.25541700  1
  O  O15  1  0.41816000  0.37086400  0.75017200  1
  O  O16  1  0.23809100  0.84458700  0.98393800  1
  O  O17  1  0.44627100  0.67182100  0.76641800  1
  O  O18  1  0.20285700  0.53650000  0.00445800  1
  O  O19  1  0.09608400  0.99470700  0.24458300  1
  O  O20  1  0.29714300  0.53650000  0.50445800  1
  O  O21  1  0.79714300  0.03650000  0.99554200  1
  O  O22  1  0.94627100  0.17182200  0.73358200  1
  O  O23  1  0.55372900  0.17182200  0.23358200  1
  O  O24  1  0.05372900  0.67182100  0.26641800  1
  O  O25  1  0.90391600  0.49470700  0.75541700  1
  O  O26  1  0.29082900  0.17248000  0.97607200  1
  O  O27  1  0.08184000  0.37086400  0.25017200  1
  O  O28  1  0.79082900  0.67248000  0.52392800  1
  O  O29  1  0.40391600  0.99470700  0.74458300  1
  O  O30  1  0.70917100  0.67248000  0.02392800  1
  O  O31  1  0.70285700  0.03650000  0.49554200  1
  O  O32  1  0.20917100  0.17248000  0.47607200  1
  O  O33  1  0.26190900  0.84458700  0.48393800  1
  O  O34  1  0.58184000  0.87086400  0.24982800  1
  O  O35  1  0.73809100  0.34458700  0.51606200  1
