# generated using pymatgen
data_Li9Co3P8O29
_symmetry_space_group_name_H-M   'P 1'
_cell_length_a   9.81197716
_cell_length_b   9.81197716
_cell_length_c   13.74082558
_cell_angle_alpha   89.37360427
_cell_angle_beta   89.37360427
_cell_angle_gamma   60.06157630
_symmetry_Int_Tables_number   1
_chemical_formula_structural   Li9Co3P8O29
_chemical_formula_sum   'Li18 Co6 P16 O58'
_cell_volume   1146.28082011
_cell_formula_units_Z   2
loop_
 _symmetry_equiv_pos_site_id
 _symmetry_equiv_pos_as_xyz
  1  'x, y, z'
loop_
 _atom_site_type_symbol
 _atom_site_label
 _atom_site_symmetry_multiplicity
 _atom_site_fract_x
 _atom_site_fract_y
 _atom_site_fract_z
 _atom_site_occupancy
  Li  Li0  1  0.23444000  0.66410900  0.93646400  1
  Li  Li1  1  0.90473500  0.32873400  0.56468000  1
  Li  Li2  1  0.10107400  0.23741200  0.93604300  1
  Li  Li3  1  0.89892600  0.76258800  0.06395700  1
  Li  Li4  1  0.33546000  0.33568400  0.12038900  1
  Li  Li5  1  0.76258800  0.89892600  0.56395700  1
  Li  Li6  1  0.66454000  0.66431600  0.87961100  1
  Li  Li7  1  0.67126600  0.09526500  0.93532000  1
  Li  Li8  1  0.66410900  0.23444000  0.43646400  1
  Li  Li9  1  0.00000000  0.00000000  0.50000000  1
  Li  Li10  1  0.32873400  0.90473500  0.06468000  1
  Li  Li11  1  0.00000000  0.00000000  0.00000000  1
  Li  Li12  1  0.66431600  0.66454000  0.37961100  1
  Li  Li13  1  0.23741200  0.10107400  0.43604300  1
  Li  Li14  1  0.09526500  0.67126600  0.43532000  1
  Li  Li15  1  0.33589100  0.76556000  0.56353600  1
  Li  Li16  1  0.33568400  0.33546000  0.62038900  1
  Li  Li17  1  0.76556000  0.33589100  0.06353600  1
  Co  Co18  1  0.56901100  0.99790600  0.75245500  1
  Co  Co19  1  0.43098900  0.00209400  0.24754500  1
  Co  Co20  1  0.00209400  0.43098900  0.74754500  1
  Co  Co21  1  0.99790600  0.56901100  0.25245500  1
  Co  Co22  1  0.43720600  0.56279400  0.75000000  1
  Co  Co23  1  0.56279400  0.43720600  0.25000000  1
  P  P24  1  0.08970700  0.23296400  0.15676900  1
  P  P25  1  0.66452500  0.66733700  0.12571400  1
  P  P26  1  0.68573300  0.22287300  0.65656000  1
  P  P27  1  0.91029300  0.76703600  0.84323100  1
  P  P28  1  0.31723600  0.90961300  0.84582600  1
  P  P29  1  0.68276400  0.09038700  0.15417400  1
  P  P30  1  0.33266300  0.33547500  0.37428600  1
  P  P31  1  0.77712700  0.31426700  0.84344000  1
  P  P32  1  0.66733700  0.66452500  0.62571400  1
  P  P33  1  0.23296400  0.08970700  0.65676900  1
  P  P34  1  0.22287300  0.68573300  0.15656000  1
  P  P35  1  0.09038700  0.68276400  0.65417400  1
  P  P36  1  0.33547500  0.33266300  0.87428600  1
  P  P37  1  0.76703600  0.91029300  0.34323100  1
  P  P38  1  0.31426700  0.77712700  0.34344000  1
  P  P39  1  0.90961300  0.31723600  0.34582600  1
  O  O40  1  0.47825300  0.63050000  0.33533500  1
  O  O41  1  0.67283700  0.07282000  0.65859100  1
  O  O42  1  0.92718000  0.32716300  0.84140900  1
  O  O43  1  0.78418000  0.99949800  0.24909000  1
  O  O44  1  0.10831300  0.51788700  0.66456300  1
  O  O45  1  0.78888900  0.21111100  0.75000000  1
  O  O46  1  0.00298300  0.76294700  0.93238500  1
  O  O47  1  0.50733500  0.81173100  0.16050200  1
  O  O48  1  0.21582000  0.00050200  0.75091000  1
  O  O49  1  0.62201400  0.89085200  0.33154600  1
  O  O50  1  0.78055800  0.21978100  0.93324200  1
  O  O51  1  0.99551600  0.77590500  0.56573600  1
  O  O52  1  0.18826900  0.49266500  0.33949800  1
  O  O53  1  0.63050000  0.47825300  0.83533500  1
  O  O54  1  0.21978100  0.78055900  0.43324200  1
  O  O55  1  0.22409500  0.00448400  0.93426400  1
  O  O56  1  0.51320400  0.67144300  0.66680400  1
  O  O57  1  0.89085200  0.62201400  0.83154600  1
  O  O58  1  0.00050200  0.21582000  0.25091000  1
  O  O59  1  0.32153600  0.19341900  0.33467400  1
  O  O60  1  0.74775500  0.33038000  0.34691400  1
  O  O61  1  0.08305800  0.25242300  0.65444700  1
  O  O62  1  0.07282000  0.67283700  0.15859100  1
  O  O63  1  0.76294700  0.00298300  0.43238500  1
  O  O64  1  0.34120400  0.32838400  0.48445100  1
  O  O65  1  0.21944100  0.78021900  0.06675800  1
  O  O66  1  0.66962000  0.25224500  0.15308600  1
  O  O67  1  0.51788700  0.10831300  0.16456300  1
  O  O68  1  0.67846400  0.80658100  0.66532600  1
  O  O69  1  0.99949800  0.78418000  0.74909000  1
  O  O70  1  0.89168700  0.48211300  0.33543700  1
  O  O71  1  0.65879600  0.67161600  0.51554900  1
  O  O72  1  0.25242300  0.08305800  0.15444700  1
  O  O73  1  0.32838400  0.34120400  0.98445100  1
  O  O74  1  0.32855700  0.48679600  0.83319600  1
  O  O75  1  0.37798600  0.10914800  0.66845400  1
  O  O76  1  0.81173100  0.50733500  0.66050200  1
  O  O77  1  0.78021900  0.21944100  0.56675800  1
  O  O78  1  0.77590500  0.99551600  0.06573600  1
  O  O79  1  0.67144300  0.51320400  0.16680400  1
  O  O80  1  0.32716300  0.92718000  0.34140900  1
  O  O81  1  0.23705300  0.99701700  0.56761500  1
  O  O82  1  0.48211300  0.89168700  0.83543700  1
  O  O83  1  0.10914800  0.37798600  0.16845400  1
  O  O84  1  0.00448400  0.22409500  0.43426400  1
  O  O85  1  0.25224500  0.66962000  0.65308600  1
  O  O86  1  0.52174700  0.36950000  0.66466500  1
  O  O87  1  0.80658100  0.67846400  0.16532600  1
  O  O88  1  0.49266500  0.18826900  0.83949800  1
  O  O89  1  0.99701700  0.23705300  0.06761500  1
  O  O90  1  0.48679600  0.32855700  0.33319600  1
  O  O91  1  0.36950000  0.52174700  0.16466500  1
  O  O92  1  0.74757700  0.91694200  0.84555300  1
  O  O93  1  0.67161600  0.65879600  0.01554900  1
  O  O94  1  0.21111100  0.78888900  0.25000000  1
  O  O95  1  0.91694200  0.74757700  0.34555300  1
  O  O96  1  0.19341900  0.32153600  0.83467400  1
  O  O97  1  0.33038000  0.74775500  0.84691400  1
