# generated using pymatgen
data_LiSn(PO3)3
_symmetry_space_group_name_H-M   'P 1'
_cell_length_a   6.86279900
_cell_length_b   7.33378103
_cell_length_c   7.52146214
_cell_angle_alpha   83.71420030
_cell_angle_beta   79.22812967
_cell_angle_gamma   82.47719873
_symmetry_Int_Tables_number   1
_chemical_formula_structural   LiSn(PO3)3
_chemical_formula_sum   'Li2 Sn2 P6 O18'
_cell_volume   367.27832025
_cell_formula_units_Z   2
loop_
 _symmetry_equiv_pos_site_id
 _symmetry_equiv_pos_as_xyz
  1  'x, y, z'
loop_
 _atom_site_type_symbol
 _atom_site_label
 _atom_site_symmetry_multiplicity
 _atom_site_fract_x
 _atom_site_fract_y
 _atom_site_fract_z
 _atom_site_occupancy
  Li  Li0  1  0.44764200  0.82652100  0.82351600  1
  Li  Li1  1  0.55235800  0.17347900  0.17648400  1
  Sn  Sn2  1  0.94873400  0.76630300  0.85385200  1
  Sn  Sn3  1  0.05126600  0.23369700  0.14614800  1
  P  P4  1  0.76928100  0.83965500  0.44184500  1
  P  P5  1  0.15243700  0.71983100  0.22445500  1
  P  P6  1  0.58684200  0.61437400  0.21712300  1
  P  P7  1  0.41315800  0.38562600  0.78287700  1
  P  P8  1  0.84756300  0.28016900  0.77554500  1
  P  P9  1  0.23071900  0.16034500  0.55815500  1
  O  O10  1  0.26906500  0.98997500  0.67940500  1
  O  O11  1  0.71191200  0.83986100  0.64604600  1
  O  O12  1  0.17587100  0.88789900  0.09046600  1
  O  O13  1  0.63332100  0.74844100  0.04956900  1
  O  O14  1  0.00895700  0.77180700  0.41317100  1
  O  O15  1  0.67884000  0.66719200  0.38443100  1
  O  O16  1  0.35199200  0.65402300  0.30419200  1
  O  O17  1  0.36035100  0.58731500  0.79827400  1
  O  O18  1  0.92718000  0.43724100  0.84339600  1
  O  O19  1  0.07282000  0.56275900  0.15660400  1
  O  O20  1  0.63964900  0.41268500  0.20172600  1
  O  O21  1  0.64800800  0.34597700  0.69580800  1
  O  O22  1  0.32116000  0.33280800  0.61556900  1
  O  O23  1  0.99104300  0.22819300  0.58682900  1
  O  O24  1  0.36667900  0.25155900  0.95043100  1
  O  O25  1  0.82412900  0.11210100  0.90953400  1
  O  O26  1  0.28808800  0.16013900  0.35395400  1
  O  O27  1  0.73093500  0.01002500  0.32059500  1
