# generated using pymatgen
data_LiCo2P3O10
_symmetry_space_group_name_H-M   'P 1'
_cell_length_a   8.11072790
_cell_length_b   8.11072790
_cell_length_c   9.16763142
_cell_angle_alpha   62.05311627
_cell_angle_beta   62.05311627
_cell_angle_gamma   63.49335500
_symmetry_Int_Tables_number   1
_chemical_formula_structural   LiCo2P3O10
_chemical_formula_sum   'Li2 Co4 P6 O20'
_cell_volume   450.33405476
_cell_formula_units_Z   2
loop_
 _symmetry_equiv_pos_site_id
 _symmetry_equiv_pos_as_xyz
  1  'x, y, z'
loop_
 _atom_site_type_symbol
 _atom_site_label
 _atom_site_symmetry_multiplicity
 _atom_site_fract_x
 _atom_site_fract_y
 _atom_site_fract_z
 _atom_site_occupancy
  Li  Li0  1  0.40326000  0.59674000  0.25000000  1
  Li  Li1  1  0.59674000  0.40326000  0.75000000  1
  Co  Co2  1  0.70232300  0.75652900  0.45649300  1
  Co  Co3  1  0.29767700  0.24347100  0.54350700  1
  Co  Co4  1  0.75652900  0.70232300  0.95649300  1
  Co  Co5  1  0.24347100  0.29767700  0.04350700  1
  P  P6  1  0.43931300  0.82901000  0.80862200  1
  P  P7  1  0.82901000  0.43931300  0.30862200  1
  P  P8  1  0.07838800  0.92161200  0.75000000  1
  P  P9  1  0.17099000  0.56068700  0.69137800  1
  P  P10  1  0.56068700  0.17099000  0.19137800  1
  P  P11  1  0.92161200  0.07838800  0.25000000  1
  O  O12  1  0.82790300  0.21451800  0.36988200  1
  O  O13  1  0.09228000  0.12314900  0.62830900  1
  O  O14  1  0.45383300  0.03442800  0.69232200  1
  O  O15  1  0.96557200  0.54616700  0.80767800  1
  O  O16  1  0.24191600  0.52089500  0.52058000  1
  O  O17  1  0.90772000  0.87685100  0.37169100  1
  O  O18  1  0.78548200  0.17209700  0.13011800  1
  O  O19  1  0.67941200  0.56847000  0.21112000  1
  O  O20  1  0.32058800  0.43153000  0.78888000  1
  O  O21  1  0.17209700  0.78548200  0.63011800  1
  O  O22  1  0.21451800  0.82790300  0.86988200  1
  O  O23  1  0.03442800  0.45383300  0.19232200  1
  O  O24  1  0.54616700  0.96557200  0.30767800  1
  O  O25  1  0.87685100  0.90772000  0.87169100  1
  O  O26  1  0.12314900  0.09228000  0.12830900  1
  O  O27  1  0.52089500  0.24191600  0.02058000  1
  O  O28  1  0.47910500  0.75808400  0.97942000  1
  O  O29  1  0.56847000  0.67941200  0.71112000  1
  O  O30  1  0.43153000  0.32058800  0.28888000  1
  O  O31  1  0.75808400  0.47910500  0.47942000  1
