# generated using pymatgen
data_LiZr2(PO4)3
_symmetry_space_group_name_H-M   'P 1'
_cell_length_a   9.05810589
_cell_length_b   9.05810589
_cell_length_c   9.05810523
_cell_angle_alpha   59.13024956
_cell_angle_beta   59.13024956
_cell_angle_gamma   59.13025109
_symmetry_Int_Tables_number   1
_chemical_formula_structural   LiZr2(PO4)3
_chemical_formula_sum   'Li2 Zr4 P6 O24'
_cell_volume   515.11133402
_cell_formula_units_Z   2
loop_
 _symmetry_equiv_pos_site_id
 _symmetry_equiv_pos_as_xyz
  1  'x, y, z'
loop_
 _atom_site_type_symbol
 _atom_site_label
 _atom_site_symmetry_multiplicity
 _atom_site_fract_x
 _atom_site_fract_y
 _atom_site_fract_z
 _atom_site_occupancy
  Li  Li0  1  0.00000000  0.00000000  0.00000000  1
  Li  Li1  1  0.50000000  0.50000000  0.50000000  1
  Zr  Zr2  1  0.14331800  0.14331800  0.14331800  1
  Zr  Zr3  1  0.35668200  0.35668200  0.35668200  1
  Zr  Zr4  1  0.85668200  0.85668200  0.85668200  1
  Zr  Zr5  1  0.64331800  0.64331800  0.64331800  1
  P  P6  1  0.95640900  0.54359100  0.25000000  1
  P  P7  1  0.54359100  0.25000000  0.95640900  1
  P  P8  1  0.25000000  0.95640900  0.54359100  1
  P  P9  1  0.04359100  0.45640900  0.75000000  1
  P  P10  1  0.45640900  0.75000000  0.04359100  1
  P  P11  1  0.75000000  0.04359100  0.45640900  1
  O  O12  1  0.99831500  0.38635800  0.19608200  1
  O  O13  1  0.38635800  0.19608200  0.99831500  1
  O  O14  1  0.19608200  0.99831500  0.38635800  1
  O  O15  1  0.11364200  0.50168500  0.30391800  1
  O  O16  1  0.50168500  0.30391800  0.11364200  1
  O  O17  1  0.30391800  0.11364200  0.50168500  1
  O  O18  1  0.00168500  0.61364200  0.80391800  1
  O  O19  1  0.61364200  0.80391800  0.00168500  1
  O  O20  1  0.80391800  0.00168500  0.61364200  1
  O  O21  1  0.88635800  0.49831500  0.69608200  1
  O  O22  1  0.49831500  0.69608200  0.88635800  1
  O  O23  1  0.69608200  0.88635800  0.49831500  1
  O  O24  1  0.06040400  0.27272800  0.91126900  1
  O  O25  1  0.27272800  0.91126900  0.06040400  1
  O  O26  1  0.91126900  0.06040400  0.27272800  1
  O  O27  1  0.22727200  0.43959600  0.58873100  1
  O  O28  1  0.43959600  0.58873100  0.22727200  1
  O  O29  1  0.58873100  0.22727200  0.43959600  1
  O  O30  1  0.93959600  0.72727200  0.08873100  1
  O  O31  1  0.72727200  0.08873100  0.93959600  1
  O  O32  1  0.08873100  0.93959600  0.72727200  1
  O  O33  1  0.77272800  0.56040400  0.41126900  1
  O  O34  1  0.56040400  0.41126900  0.77272800  1
  O  O35  1  0.41126900  0.77272800  0.56040400  1
