# generated using pymatgen
data_LiGa5O8
_symmetry_space_group_name_H-M   'P 1'
_cell_length_a   5.84157300
_cell_length_b   5.94309000
_cell_length_c   8.29703500
_cell_angle_alpha   90.00000000
_cell_angle_beta   90.00000000
_cell_angle_gamma   90.00000000
_symmetry_Int_Tables_number   1
_chemical_formula_structural   LiGa5O8
_chemical_formula_sum   'Li2 Ga10 O16'
_cell_volume   288.04811498
_cell_formula_units_Z   2
loop_
 _symmetry_equiv_pos_site_id
 _symmetry_equiv_pos_as_xyz
  1  'x, y, z'
loop_
 _atom_site_type_symbol
 _atom_site_label
 _atom_site_symmetry_multiplicity
 _atom_site_fract_x
 _atom_site_fract_y
 _atom_site_fract_z
 _atom_site_occupancy
  Li  Li0  1  0.50000000  0.50000000  0.00000000  1
  Li  Li1  1  0.50000000  0.00000000  0.50000000  1
  Ga  Ga2  1  0.75651200  0.00000000  0.88414900  1
  Ga  Ga3  1  0.00000000  0.00000000  0.50000000  1
  Ga  Ga4  1  0.26953600  0.75000000  0.75000000  1
  Ga  Ga5  1  0.73046400  0.25000000  0.25000000  1
  Ga  Ga6  1  0.24348800  0.00000000  0.11585100  1
  Ga  Ga7  1  0.75651200  0.50000000  0.61585100  1
  Ga  Ga8  1  0.73046400  0.75000000  0.25000000  1
  Ga  Ga9  1  0.26953600  0.25000000  0.75000000  1
  Ga  Ga10  1  0.00000000  0.50000000  0.00000000  1
  Ga  Ga11  1  0.24348800  0.50000000  0.38414900  1
  O  O12  1  0.98202600  0.00000000  0.25719100  1
  O  O13  1  0.24055800  0.73801900  0.98830500  1
  O  O14  1  0.49078000  0.50000000  0.74486300  1
  O  O15  1  0.75944200  0.23801900  0.48830500  1
  O  O16  1  0.50922000  0.50000000  0.25513700  1
  O  O17  1  0.24055800  0.76198100  0.51169500  1
  O  O18  1  0.01797400  0.00000000  0.74280900  1
  O  O19  1  0.75944200  0.26198100  0.01169500  1
  O  O20  1  0.24055800  0.23801900  0.51169500  1
  O  O21  1  0.98202600  0.50000000  0.24280900  1
  O  O22  1  0.75944200  0.73801900  0.01169500  1
  O  O23  1  0.49078000  0.00000000  0.75513700  1
  O  O24  1  0.24055800  0.26198100  0.98830500  1
  O  O25  1  0.50922000  0.00000000  0.24486300  1
  O  O26  1  0.75944200  0.76198100  0.48830500  1
  O  O27  1  0.01797400  0.50000000  0.75719100  1
