# generated using pymatgen
data_LiCa9Mn(PO4)7
_symmetry_space_group_name_H-M   'P 1'
_cell_length_a   13.90664939
_cell_length_b   13.90664939
_cell_length_c   13.90664872
_cell_angle_alpha   44.09217819
_cell_angle_beta   44.09217819
_cell_angle_gamma   44.09217907
_symmetry_Int_Tables_number   1
_chemical_formula_structural   LiCa9Mn(PO4)7
_chemical_formula_sum   'Li2 Ca18 Mn2 P14 O56'
_cell_volume   1182.91560499
_cell_formula_units_Z   2
loop_
 _symmetry_equiv_pos_site_id
 _symmetry_equiv_pos_as_xyz
  1  'x, y, z'
loop_
 _atom_site_type_symbol
 _atom_site_label
 _atom_site_symmetry_multiplicity
 _atom_site_fract_x
 _atom_site_fract_y
 _atom_site_fract_z
 _atom_site_occupancy
  Li  Li0  1  0.82196000  0.82196000  0.82196000  1
  Li  Li1  1  0.32196000  0.32196000  0.32196000  1
  Ca  Ca2  1  0.43497200  0.42330800  0.83992300  1
  Ca  Ca3  1  0.09321600  0.06559500  0.64670200  1
  Ca  Ca4  1  0.06559500  0.64670200  0.09321600  1
  Ca  Ca5  1  0.05005900  0.44126300  0.03036800  1
  Ca  Ca6  1  0.92330800  0.93497200  0.33992300  1
  Ca  Ca7  1  0.03036800  0.05005900  0.44126300  1
  Ca  Ca8  1  0.94126300  0.55005900  0.53036800  1
  Ca  Ca9  1  0.64670200  0.09321600  0.06559500  1
  Ca  Ca10  1  0.14670200  0.56559500  0.59321600  1
  Ca  Ca11  1  0.83992300  0.43497200  0.42330800  1
  Ca  Ca12  1  0.42330800  0.83992300  0.43497200  1
  Ca  Ca13  1  0.59321600  0.14670200  0.56559500  1
  Ca  Ca14  1  0.53036800  0.94126300  0.55005900  1
  Ca  Ca15  1  0.55005900  0.53036800  0.94126300  1
  Ca  Ca16  1  0.93497200  0.33992300  0.92330800  1
  Ca  Ca17  1  0.56559500  0.59321600  0.14670200  1
  Ca  Ca18  1  0.33992300  0.92330800  0.93497200  1
  Ca  Ca19  1  0.44126300  0.03036800  0.05005900  1
  Mn  Mn20  1  0.99795400  0.99795400  0.99795400  1
  Mn  Mn21  1  0.49795400  0.49795400  0.49795400  1
  P  P22  1  0.31366800  0.27435900  0.81382700  1
  P  P23  1  0.81366800  0.31382700  0.77435900  1
  P  P24  1  0.16930900  0.69445600  0.73127300  1
  P  P25  1  0.23127300  0.19445600  0.66930900  1
  P  P26  1  0.81382700  0.31366800  0.27435900  1
  P  P27  1  0.31382700  0.77435900  0.81366800  1
  P  P28  1  0.27435900  0.81382700  0.31366800  1
  P  P29  1  0.77435900  0.81366800  0.31382700  1
  P  P30  1  0.23313200  0.23313200  0.23313200  1
  P  P31  1  0.73127300  0.16930900  0.69445600  1
  P  P32  1  0.19445600  0.66930900  0.23127300  1
  P  P33  1  0.73313200  0.73313200  0.73313200  1
  P  P34  1  0.69445600  0.73127300  0.16930900  1
  P  P35  1  0.66930900  0.23127300  0.19445600  1
  O  O36  1  0.38483900  0.81083300  0.82743400  1
  O  O37  1  0.32743400  0.31083300  0.88483900  1
  O  O38  1  0.91044500  0.35380600  0.60149000  1
  O  O39  1  0.13086000  0.12423100  0.84430100  1
  O  O40  1  0.63086000  0.34430100  0.62423100  1
  O  O41  1  0.35380600  0.60149000  0.91044500  1
  O  O42  1  0.37803500  0.36192500  0.63690900  1
  O  O43  1  0.62423100  0.63086000  0.34430100  1
  O  O44  1  0.65467500  0.11850100  0.86740200  1
  O  O45  1  0.75129900  0.06716800  0.66275500  1
  O  O46  1  0.88829300  0.60559100  0.74508000  1
  O  O47  1  0.74508000  0.88829300  0.60559100  1
  O  O48  1  0.39226900  0.10720600  0.66176900  1
  O  O49  1  0.15467500  0.36740200  0.61850100  1
  O  O50  1  0.66275500  0.75129900  0.06716800  1
  O  O51  1  0.16275500  0.56716800  0.25129900  1
  O  O52  1  0.85380600  0.41044500  0.10149000  1
  O  O53  1  0.41044500  0.10149000  0.85380600  1
  O  O54  1  0.36740200  0.61850100  0.15467500  1
  O  O55  1  0.87501300  0.14286200  0.32795800  1
  O  O56  1  0.10720600  0.66176900  0.39226900  1
  O  O57  1  0.69180600  0.69180600  0.69180600  1
  O  O58  1  0.16176900  0.60720600  0.89226900  1
  O  O59  1  0.37501300  0.82795800  0.64286200  1
  O  O60  1  0.61850100  0.15467500  0.36740200  1
  O  O61  1  0.56716800  0.25129900  0.16275500  1
  O  O62  1  0.87803500  0.13690900  0.86192500  1
  O  O63  1  0.10559100  0.38829300  0.24508000  1
  O  O64  1  0.89226900  0.16176900  0.60720600  1
  O  O65  1  0.31083300  0.88483900  0.32743400  1
  O  O66  1  0.11850100  0.86740200  0.65467500  1
  O  O67  1  0.34430100  0.62423100  0.63086000  1
  O  O68  1  0.10149000  0.85380600  0.41044500  1
  O  O69  1  0.66176900  0.39226900  0.10720600  1
  O  O70  1  0.60149000  0.91044500  0.35380600  1
  O  O71  1  0.60559100  0.74508000  0.88829300  1
  O  O72  1  0.63690900  0.37803500  0.36192500  1
  O  O73  1  0.86740200  0.65467500  0.11850100  1
  O  O74  1  0.82795800  0.64286200  0.37501300  1
  O  O75  1  0.81083300  0.82743400  0.38483900  1
  O  O76  1  0.82743400  0.38483900  0.81083300  1
  O  O77  1  0.14286200  0.32795800  0.87501300  1
  O  O78  1  0.84430100  0.13086000  0.12423100  1
  O  O79  1  0.88483900  0.32743400  0.31083300  1
  O  O80  1  0.12423100  0.84430100  0.13086000  1
  O  O81  1  0.24508000  0.10559100  0.38829300  1
  O  O82  1  0.25129900  0.16275500  0.56716800  1
  O  O83  1  0.38829300  0.24508000  0.10559100  1
  O  O84  1  0.36192500  0.63690900  0.37803500  1
  O  O85  1  0.60720600  0.89226900  0.16176900  1
  O  O86  1  0.64286200  0.37501300  0.82795800  1
  O  O87  1  0.32795800  0.87501300  0.14286200  1
  O  O88  1  0.06716800  0.66275500  0.75129900  1
  O  O89  1  0.86192500  0.87803500  0.13690900  1
  O  O90  1  0.13690900  0.86192500  0.87803500  1
  O  O91  1  0.19180600  0.19180600  0.19180600  1
