# generated using pymatgen
data_Li2NiPO4F
_symmetry_space_group_name_H-M   'P 1'
_cell_length_a   6.36022400
_cell_length_b   10.54541900
_cell_length_c   10.94110600
_cell_angle_alpha   90.00000000
_cell_angle_beta   90.00000000
_cell_angle_gamma   90.00000000
_symmetry_Int_Tables_number   1
_chemical_formula_structural   Li2NiPO4F
_chemical_formula_sum   'Li16 Ni8 P8 O32 F8'
_cell_volume   733.83340431
_cell_formula_units_Z   8
loop_
 _symmetry_equiv_pos_site_id
 _symmetry_equiv_pos_as_xyz
  1  'x, y, z'
loop_
 _atom_site_type_symbol
 _atom_site_label
 _atom_site_symmetry_multiplicity
 _atom_site_fract_x
 _atom_site_fract_y
 _atom_site_fract_z
 _atom_site_occupancy
  Li  Li0  1  0.50558900  0.23915300  0.66608700  1
  Li  Li1  1  0.49441100  0.26084700  0.16608700  1
  Li  Li2  1  0.25000000  0.72745200  0.58309100  1
  Li  Li3  1  0.49441100  0.76084700  0.33391300  1
  Li  Li4  1  0.75000000  0.52601100  0.77326600  1
  Li  Li5  1  0.00558900  0.26084700  0.16608700  1
  Li  Li6  1  0.25000000  0.22745200  0.91690900  1
  Li  Li7  1  0.25000000  0.47398900  0.22673400  1
  Li  Li8  1  0.00558900  0.76084700  0.33391300  1
  Li  Li9  1  0.75000000  0.27254800  0.41690900  1
  Li  Li10  1  0.99441100  0.23915300  0.66608700  1
  Li  Li11  1  0.99441100  0.73915300  0.83391300  1
  Li  Li12  1  0.75000000  0.77254800  0.08309100  1
  Li  Li13  1  0.50558900  0.73915300  0.83391300  1
  Li  Li14  1  0.25000000  0.97398900  0.27326600  1
  Li  Li15  1  0.75000000  0.02601100  0.72673400  1
  Ni  Ni16  1  0.00000000  0.50000000  0.50000000  1
  Ni  Ni17  1  0.50000000  0.50000000  0.50000000  1
  Ni  Ni18  1  0.00000000  0.00000000  0.00000000  1
  Ni  Ni19  1  0.50000000  0.00000000  0.00000000  1
  Ni  Ni20  1  0.00000000  0.50000000  0.00000000  1
  Ni  Ni21  1  0.50000000  0.50000000  0.00000000  1
  Ni  Ni22  1  0.00000000  0.00000000  0.50000000  1
  Ni  Ni23  1  0.50000000  0.00000000  0.50000000  1
  P  P24  1  0.25000000  0.97728200  0.74386700  1
  P  P25  1  0.75000000  0.02271800  0.25613300  1
  P  P26  1  0.75000000  0.24343300  0.92159900  1
  P  P27  1  0.75000000  0.74343300  0.57840100  1
  P  P28  1  0.25000000  0.75656700  0.07840100  1
  P  P29  1  0.75000000  0.52271800  0.24386700  1
  P  P30  1  0.25000000  0.25656700  0.42159900  1
  P  P31  1  0.25000000  0.47728200  0.75613300  1
  O  O32  1  0.75000000  0.16972600  0.25630500  1
  O  O33  1  0.75000000  0.38935100  0.94530200  1
  O  O34  1  0.25000000  0.61064900  0.05469800  1
  O  O35  1  0.95019300  0.68987800  0.51446800  1
  O  O36  1  0.75000000  0.88935100  0.55469800  1
  O  O37  1  0.54980700  0.68987800  0.51446800  1
  O  O38  1  0.94701100  0.96584900  0.31986000  1
  O  O39  1  0.05298900  0.53415100  0.81986000  1
  O  O40  1  0.45019300  0.81012200  0.01446800  1
  O  O41  1  0.55298900  0.96584900  0.31986000  1
  O  O42  1  0.25000000  0.52760700  0.62152100  1
  O  O43  1  0.25000000  0.28327900  0.28326400  1
  O  O44  1  0.25000000  0.83027400  0.74369500  1
  O  O45  1  0.94701100  0.46584900  0.18014000  1
  O  O46  1  0.25000000  0.11064900  0.44530200  1
  O  O47  1  0.25000000  0.78327900  0.21673600  1
  O  O48  1  0.55298900  0.46584900  0.18014000  1
  O  O49  1  0.75000000  0.66972600  0.24369500  1
  O  O50  1  0.54980700  0.18987800  0.98553200  1
  O  O51  1  0.95019300  0.18987800  0.98553200  1
  O  O52  1  0.75000000  0.97239300  0.12152100  1
  O  O53  1  0.44701100  0.53415100  0.81986000  1
  O  O54  1  0.04980700  0.31012200  0.48553200  1
  O  O55  1  0.04980700  0.81012200  0.01446800  1
  O  O56  1  0.75000000  0.47239300  0.37847900  1
  O  O57  1  0.75000000  0.21672100  0.78326400  1
  O  O58  1  0.45019300  0.31012200  0.48553200  1
  O  O59  1  0.25000000  0.02760700  0.87847900  1
  O  O60  1  0.44701100  0.03415100  0.68014000  1
  O  O61  1  0.05298900  0.03415100  0.68014000  1
  O  O62  1  0.75000000  0.71672100  0.71673600  1
  O  O63  1  0.25000000  0.33027400  0.75630500  1
  F  F64  1  0.75000000  0.45026900  0.61616700  1
  F  F65  1  0.75000000  0.12831600  0.52763200  1
  F  F66  1  0.25000000  0.54973100  0.38383300  1
  F  F67  1  0.25000000  0.04973100  0.11616700  1
  F  F68  1  0.75000000  0.62831600  0.97236800  1
  F  F69  1  0.75000000  0.95026900  0.88383300  1
  F  F70  1  0.25000000  0.87168400  0.47236800  1
  F  F71  1  0.25000000  0.37168400  0.02763200  1
