# generated using pymatgen
data_Li2ZrF6
_symmetry_space_group_name_H-M   'P 1'
_cell_length_a   5.03586400
_cell_length_b   7.55354400
_cell_length_c   11.15265309
_cell_angle_alpha   72.97571200
_cell_angle_beta   90.00000000
_cell_angle_gamma   90.00000000
_symmetry_Int_Tables_number   1
_chemical_formula_structural   Li2ZrF6
_chemical_formula_sum   'Li8 Zr4 F24'
_cell_volume   405.64202105
_cell_formula_units_Z   4
loop_
 _symmetry_equiv_pos_site_id
 _symmetry_equiv_pos_as_xyz
  1  'x, y, z'
loop_
 _atom_site_type_symbol
 _atom_site_label
 _atom_site_symmetry_multiplicity
 _atom_site_fract_x
 _atom_site_fract_y
 _atom_site_fract_z
 _atom_site_occupancy
  Li  Li0  1  0.49304900  0.41035500  0.69320000  1
  Li  Li1  1  0.99304900  0.58964500  0.80680000  1
  Li  Li2  1  0.50695100  0.58964500  0.30680000  1
  Li  Li3  1  0.00695100  0.41035500  0.19320000  1
  Li  Li4  1  0.02627100  0.03836900  0.83683200  1
  Li  Li5  1  0.52627100  0.96163100  0.66316800  1
  Li  Li6  1  0.97372900  0.96163100  0.16316800  1
  Li  Li7  1  0.47372900  0.03836900  0.33683200  1
  Zr  Zr8  1  0.48729200  0.25388300  0.99903100  1
  Zr  Zr9  1  0.98729200  0.74611700  0.50096900  1
  Zr  Zr10  1  0.51270800  0.74611700  0.00096900  1
  Zr  Zr11  1  0.01270800  0.25388300  0.49903100  1
  F  F12  1  0.81083500  0.45529300  0.57038000  1
  F  F13  1  0.31083500  0.54470700  0.92962000  1
  F  F14  1  0.18916500  0.54470700  0.42962000  1
  F  F15  1  0.68916500  0.45529300  0.07038000  1
  F  F16  1  0.64204600  0.10373100  0.17279900  1
  F  F17  1  0.14204600  0.89626900  0.32720100  1
  F  F18  1  0.35795400  0.89626900  0.82720100  1
  F  F19  1  0.85795400  0.10373100  0.67279900  1
  F  F20  1  0.77676100  0.04772300  0.45360700  1
  F  F21  1  0.27676100  0.95227700  0.04639300  1
  F  F22  1  0.22323900  0.95227700  0.54639300  1
  F  F23  1  0.72323900  0.04772300  0.95360700  1
  F  F24  1  0.78254900  0.40003000  0.34400500  1
  F  F25  1  0.28254900  0.59997000  0.15599500  1
  F  F26  1  0.21745100  0.59997000  0.65599500  1
  F  F27  1  0.71745100  0.40003000  0.84400500  1
  F  F28  1  0.35001700  0.24526100  0.60297500  1
  F  F29  1  0.85001700  0.75473900  0.89702500  1
  F  F30  1  0.64998300  0.75473900  0.39702500  1
  F  F31  1  0.14998300  0.24526100  0.10297500  1
  F  F32  1  0.25148700  0.24889700  0.35071000  1
  F  F33  1  0.75148700  0.75110300  0.14929000  1
  F  F34  1  0.74851300  0.75110300  0.64929000  1
  F  F35  1  0.24851300  0.24889700  0.85071000  1
