# generated using pymatgen
data_LiTiPO5
_symmetry_space_group_name_H-M   'P 1'
_cell_length_a   6.98535600
_cell_length_b   7.27440766
_cell_length_c   7.97479342
_cell_angle_alpha   90.44415848
_cell_angle_beta   91.40374737
_cell_angle_gamma   117.12688821
_symmetry_Int_Tables_number   1
_chemical_formula_structural   LiTiPO5
_chemical_formula_sum   'Li4 Ti4 P4 O20'
_cell_volume   360.46783101
_cell_formula_units_Z   4
loop_
 _symmetry_equiv_pos_site_id
 _symmetry_equiv_pos_as_xyz
  1  'x, y, z'
loop_
 _atom_site_type_symbol
 _atom_site_label
 _atom_site_symmetry_multiplicity
 _atom_site_fract_x
 _atom_site_fract_y
 _atom_site_fract_z
 _atom_site_occupancy
  Li  Li0  1  0.69293900  0.18480900  0.56690700  1
  Li  Li1  1  0.30706100  0.81519100  0.43309300  1
  Li  Li2  1  0.79071400  0.70646400  0.93255700  1
  Li  Li3  1  0.20928600  0.29353600  0.06744300  1
  Ti  Ti4  1  0.75195500  0.97895700  0.23599100  1
  Ti  Ti5  1  0.75424600  0.48149100  0.26265700  1
  Ti  Ti6  1  0.24804500  0.02104300  0.76400900  1
  Ti  Ti7  1  0.24575400  0.51850900  0.73734300  1
  P  P8  1  0.26648700  0.24051800  0.40731200  1
  P  P9  1  0.76759500  0.24885500  0.90687700  1
  P  P10  1  0.73351300  0.75948200  0.59268800  1
  P  P11  1  0.23240500  0.75114500  0.09312300  1
  O  O12  1  0.55381800  0.09308600  0.81898500  1
  O  O13  1  0.26739300  0.25689700  0.83284000  1
  O  O14  1  0.76452200  0.25881200  0.33041700  1
  O  O15  1  0.23547800  0.74118800  0.66958300  1
  O  O16  1  0.65182100  0.88563200  0.47930500  1
  O  O17  1  0.34817900  0.11436800  0.52069500  1
  O  O18  1  0.76779100  0.59946800  0.48615600  1
  O  O19  1  0.73260700  0.74310300  0.16716000  1
  O  O20  1  0.14287100  0.86681700  0.97736500  1
  O  O21  1  0.42562900  0.35056300  0.26648600  1
  O  O22  1  0.25996200  0.58375900  0.98888100  1
  O  O23  1  0.57437100  0.64943700  0.73351400  1
  O  O24  1  0.92024100  0.34813000  0.76027100  1
  O  O25  1  0.85712900  0.13318300  0.02263500  1
  O  O26  1  0.94457900  0.90775900  0.68606500  1
  O  O27  1  0.05542100  0.09224100  0.31393500  1
  O  O28  1  0.23220900  0.40053200  0.51384400  1
  O  O29  1  0.07975900  0.65187000  0.23972900  1
  O  O30  1  0.74003800  0.41624100  0.01111900  1
  O  O31  1  0.44618200  0.90691400  0.18101500  1
