# generated using pymatgen
data_LiCo(PO3)3
_symmetry_space_group_name_H-M   'P 1'
_cell_length_a   6.54121666
_cell_length_b   7.34373378
_cell_length_c   6.87567889
_cell_angle_alpha   102.14885361
_cell_angle_beta   89.41303951
_cell_angle_gamma   87.34951028
_symmetry_Int_Tables_number   1
_chemical_formula_structural   LiCo(PO3)3
_chemical_formula_sum   'Li2 Co2 P6 O18'
_cell_volume   322.47670343
_cell_formula_units_Z   2
loop_
 _symmetry_equiv_pos_site_id
 _symmetry_equiv_pos_as_xyz
  1  'x, y, z'
loop_
 _atom_site_type_symbol
 _atom_site_label
 _atom_site_symmetry_multiplicity
 _atom_site_fract_x
 _atom_site_fract_y
 _atom_site_fract_z
 _atom_site_occupancy
  Li  Li0  1  0.14405600  0.16938800  0.42212200  1
  Li  Li1  1  0.85509300  0.83001900  0.57876300  1
  Co  Co2  1  0.84944500  0.85809900  0.08853300  1
  Co  Co3  1  0.15217900  0.14003200  0.91059900  1
  P  P4  1  0.13987600  0.55224400  0.77910700  1
  P  P5  1  0.86063200  0.44783800  0.22136700  1
  P  P6  1  0.65169000  0.20169800  0.44478400  1
  P  P7  1  0.34737100  0.79910500  0.55483800  1
  P  P8  1  0.66075100  0.21510800  0.88733100  1
  P  P9  1  0.33993500  0.78467200  0.11268900  1
  O  O10  1  0.55054100  0.82188500  0.05611300  1
  O  O11  1  0.44990700  0.17757600  0.94383500  1
  O  O12  1  0.43789200  0.16075800  0.39169300  1
  O  O13  1  0.56069200  0.84110600  0.60908200  1
  O  O14  1  0.94943900  0.68076900  0.80942100  1
  O  O15  1  0.05076300  0.31941800  0.19090800  1
  O  O16  1  0.67352200  0.27616400  0.68045300  1
  O  O17  1  0.32725200  0.72323800  0.31940500  1
  O  O18  1  0.88307900  0.65569200  0.27683300  1
  O  O19  1  0.11746700  0.34443500  0.72345400  1
  O  O20  1  0.16731300  0.93049000  0.10218600  1
  O  O21  1  0.83292400  0.06892100  0.89825200  1
  O  O22  1  0.17368300  0.94456200  0.62517500  1
  O  O23  1  0.82456100  0.05599600  0.37251600  1
  O  O24  1  0.71188300  0.39652500  0.38661500  1
  O  O25  1  0.28769100  0.60446900  0.61381400  1
  O  O26  1  0.72441900  0.41014600  0.02430800  1
  O  O27  1  0.27594400  0.58964600  0.97580500  1
