# generated using pymatgen
data_Li2ReO3
_symmetry_space_group_name_H-M   'P 1'
_cell_length_a   5.77902457
_cell_length_b   5.77902457
_cell_length_c   5.77902440
_cell_angle_alpha   51.18017471
_cell_angle_beta   51.18017471
_cell_angle_gamma   51.18018672
_symmetry_Int_Tables_number   1
_chemical_formula_structural   Li2ReO3
_chemical_formula_sum   'Li4 Re2 O6'
_cell_volume   108.11162606
_cell_formula_units_Z   2
loop_
 _symmetry_equiv_pos_site_id
 _symmetry_equiv_pos_as_xyz
  1  'x, y, z'
loop_
 _atom_site_type_symbol
 _atom_site_label
 _atom_site_symmetry_multiplicity
 _atom_site_fract_x
 _atom_site_fract_y
 _atom_site_fract_z
 _atom_site_occupancy
  Li  Li0  1  0.17435900  0.17435900  0.17435900  1
  Li  Li1  1  0.32564100  0.32564100  0.32564100  1
  Li  Li2  1  0.82564100  0.82564100  0.82564100  1
  Li  Li3  1  0.67435900  0.67435900  0.67435900  1
  Re  Re4  1  0.50000000  0.50000000  0.50000000  1
  Re  Re5  1  0.00000000  0.00000000  0.00000000  1
  O  O6  1  0.60705600  0.89294400  0.25000000  1
  O  O7  1  0.89294400  0.25000000  0.60705600  1
  O  O8  1  0.10705600  0.75000000  0.39294400  1
  O  O9  1  0.75000000  0.39294400  0.10705600  1
  O  O10  1  0.39294400  0.10705600  0.75000000  1
  O  O11  1  0.25000000  0.60705600  0.89294400  1
