# generated using pymatgen
data_Li3AlF6
_symmetry_space_group_name_H-M   'P 1'
_cell_length_a   4.94744800
_cell_length_b   8.35011600
_cell_length_c   9.67127700
_cell_angle_alpha   90.00000000
_cell_angle_beta   90.00000000
_cell_angle_gamma   90.00000000
_symmetry_Int_Tables_number   1
_chemical_formula_structural   Li3AlF6
_chemical_formula_sum   'Li12 Al4 F24'
_cell_volume   399.53751981
_cell_formula_units_Z   4
loop_
 _symmetry_equiv_pos_site_id
 _symmetry_equiv_pos_as_xyz
  1  'x, y, z'
loop_
 _atom_site_type_symbol
 _atom_site_label
 _atom_site_symmetry_multiplicity
 _atom_site_fract_x
 _atom_site_fract_y
 _atom_site_fract_z
 _atom_site_occupancy
  Li  Li0  1  0.99215200  0.14874900  0.12526500  1
  Li  Li1  1  0.00481800  0.45552900  0.89435900  1
  Li  Li2  1  0.99215200  0.35125100  0.62526500  1
  Li  Li3  1  0.50481800  0.54447100  0.10564100  1
  Li  Li4  1  0.99706800  0.04670100  0.85443600  1
  Li  Li5  1  0.49706800  0.95329900  0.14556400  1
  Li  Li6  1  0.49215200  0.85125100  0.87473500  1
  Li  Li7  1  0.49215200  0.64874900  0.37473500  1
  Li  Li8  1  0.50481800  0.95552900  0.60564100  1
  Li  Li9  1  0.49706800  0.54670100  0.64556400  1
  Li  Li10  1  0.00481800  0.04447100  0.39435900  1
  Li  Li11  1  0.99706800  0.45329900  0.35443600  1
  Al  Al12  1  0.00005400  0.75982900  0.12784700  1
  Al  Al13  1  0.50005400  0.24017100  0.87215300  1
  Al  Al14  1  0.50005400  0.25982900  0.37215300  1
  Al  Al15  1  0.00005400  0.74017100  0.62784700  1
  F  F16  1  0.30182900  0.73357200  0.73579400  1
  F  F17  1  0.36132200  0.06696100  0.77690100  1
  F  F18  1  0.69198600  0.74324700  0.52409100  1
  F  F19  1  0.64883200  0.40199900  0.97060500  1
  F  F20  1  0.14883200  0.59800100  0.02939500  1
  F  F21  1  0.82588000  0.61875800  0.24401900  1
  F  F22  1  0.69198600  0.75675300  0.02409100  1
  F  F23  1  0.64883200  0.09800100  0.47060500  1
  F  F24  1  0.19198600  0.25675300  0.47590900  1
  F  F25  1  0.32588000  0.38124200  0.75598100  1
  F  F26  1  0.16889100  0.90867400  0.01310600  1
  F  F27  1  0.14883200  0.90199900  0.52939500  1
  F  F28  1  0.16889100  0.59132600  0.51310600  1
  F  F29  1  0.36132200  0.43303900  0.27690100  1
  F  F30  1  0.30182900  0.76642800  0.23579400  1
  F  F31  1  0.86132200  0.93303900  0.22309900  1
  F  F32  1  0.66889100  0.40867400  0.48689400  1
  F  F33  1  0.32588000  0.11875800  0.25598100  1
  F  F34  1  0.86132200  0.56696100  0.72309900  1
  F  F35  1  0.19198600  0.24324700  0.97590900  1
  F  F36  1  0.80182900  0.26642800  0.26420600  1
  F  F37  1  0.66889100  0.09132600  0.98689400  1
  F  F38  1  0.80182900  0.23357200  0.76420600  1
  F  F39  1  0.82588000  0.88124200  0.74401900  1
