# generated using pymatgen
data_LiC2S2N(O2F3)2
_symmetry_space_group_name_H-M   'P 1'
_cell_length_a   5.52901500
_cell_length_b   9.82532700
_cell_length_c   16.59463100
_cell_angle_alpha   90.00000000
_cell_angle_beta   90.00000000
_cell_angle_gamma   90.00000000
_symmetry_Int_Tables_number   1
_chemical_formula_structural   LiC2S2N(O2F3)2
_chemical_formula_sum   'Li4 C8 S8 N4 O16 F24'
_cell_volume   901.49304643
_cell_formula_units_Z   4
loop_
 _symmetry_equiv_pos_site_id
 _symmetry_equiv_pos_as_xyz
  1  'x, y, z'
loop_
 _atom_site_type_symbol
 _atom_site_label
 _atom_site_symmetry_multiplicity
 _atom_site_fract_x
 _atom_site_fract_y
 _atom_site_fract_z
 _atom_site_occupancy
  Li  Li0  1  0.25000000  0.34519800  0.75000000  1
  Li  Li1  1  0.75000000  0.65480200  0.25000000  1
  Li  Li2  1  0.25000000  0.84519800  0.75000000  1
  Li  Li3  1  0.75000000  0.15480200  0.25000000  1
  C  C4  1  0.74966900  0.09366600  0.90792900  1
  C  C5  1  0.75033100  0.09366600  0.59207100  1
  C  C6  1  0.74966900  0.59366600  0.59207100  1
  C  C7  1  0.25033100  0.90633400  0.09207100  1
  C  C8  1  0.24966900  0.90633400  0.40792900  1
  C  C9  1  0.75033100  0.59366600  0.90792900  1
  C  C10  1  0.24966900  0.40633400  0.09207100  1
  C  C11  1  0.25033100  0.40633400  0.40792900  1
  S  S12  1  0.07027600  0.41832700  0.31201700  1
  S  S13  1  0.42972400  0.91832700  0.31201700  1
  S  S14  1  0.92972400  0.08167300  0.81201700  1
  S  S15  1  0.57027600  0.08167300  0.68798300  1
  S  S16  1  0.57027600  0.58167300  0.81201700  1
  S  S17  1  0.07027600  0.91832700  0.18798300  1
  S  S18  1  0.92972400  0.58167300  0.68798300  1
  S  S19  1  0.42972400  0.41832700  0.18798300  1
  N  N20  1  0.25000000  0.98609700  0.25000000  1
  N  N21  1  0.75000000  0.51390300  0.75000000  1
  N  N22  1  0.25000000  0.48609700  0.25000000  1
  N  N23  1  0.75000000  0.01390300  0.75000000  1
  O  O24  1  0.11784800  0.48287500  0.67024500  1
  O  O25  1  0.88215200  0.01712500  0.17024500  1
  O  O26  1  0.11784800  0.98287500  0.82975500  1
  O  O27  1  0.50306500  0.27930300  0.20447700  1
  O  O28  1  0.88215200  0.51712500  0.32975500  1
  O  O29  1  0.00306500  0.22069700  0.79552300  1
  O  O30  1  0.49693500  0.22069700  0.70447700  1
  O  O31  1  0.38215200  0.48287500  0.82975500  1
  O  O32  1  0.50306500  0.77930300  0.29552300  1
  O  O33  1  0.99693500  0.27930300  0.29552300  1
  O  O34  1  0.99693500  0.77930300  0.20447700  1
  O  O35  1  0.38215200  0.98287500  0.67024500  1
  O  O36  1  0.49693500  0.72069700  0.79552300  1
  O  O37  1  0.61784800  0.51712500  0.17024500  1
  O  O38  1  0.61784800  0.01712500  0.32975500  1
  O  O39  1  0.00306500  0.72069700  0.70447700  1
  F  F40  1  0.67183500  0.46933100  0.56990100  1
  F  F41  1  0.60868900  0.14573600  0.53359500  1
  F  F42  1  0.39131100  0.35426400  0.03359500  1
  F  F43  1  0.17183500  0.03066900  0.43009900  1
  F  F44  1  0.44262800  0.82384500  0.10333900  1
  F  F45  1  0.89131100  0.14573600  0.96640500  1
  F  F46  1  0.60868900  0.64573600  0.96640500  1
  F  F47  1  0.10868900  0.85426400  0.03359500  1
  F  F48  1  0.17183500  0.53066900  0.06990100  1
  F  F49  1  0.05737200  0.32384500  0.10333900  1
  F  F50  1  0.67183500  0.96933100  0.93009900  1
  F  F51  1  0.89131100  0.64573600  0.53359500  1
  F  F52  1  0.32816500  0.03066900  0.06990100  1
  F  F53  1  0.55737200  0.67615500  0.60333900  1
  F  F54  1  0.94262800  0.17615500  0.60333900  1
  F  F55  1  0.05737200  0.82384500  0.39666100  1
  F  F56  1  0.94262800  0.67615500  0.89666100  1
  F  F57  1  0.82816500  0.46933100  0.93009900  1
  F  F58  1  0.82816500  0.96933100  0.56990100  1
  F  F59  1  0.39131100  0.85426400  0.46640500  1
  F  F60  1  0.10868900  0.35426400  0.46640500  1
  F  F61  1  0.44262800  0.32384500  0.39666100  1
  F  F62  1  0.55737200  0.17615500  0.89666100  1
  F  F63  1  0.32816500  0.53066900  0.43009900  1
