# generated using pymatgen
data_Li6Co5(P2O7)4
_symmetry_space_group_name_H-M   'P 1'
_cell_length_a   9.17273900
_cell_length_b   10.48701161
_cell_length_c   13.01801495
_cell_angle_alpha   87.44450626
_cell_angle_beta   106.54897549
_cell_angle_gamma   114.32003641
_symmetry_Int_Tables_number   1
_chemical_formula_structural   Li6Co5(P2O7)4
_chemical_formula_sum   'Li12 Co10 P16 O56'
_cell_volume   1090.06970704
_cell_formula_units_Z   2
loop_
 _symmetry_equiv_pos_site_id
 _symmetry_equiv_pos_as_xyz
  1  'x, y, z'
loop_
 _atom_site_type_symbol
 _atom_site_label
 _atom_site_symmetry_multiplicity
 _atom_site_fract_x
 _atom_site_fract_y
 _atom_site_fract_z
 _atom_site_occupancy
  Li  Li0  1  0.85562000  0.00136400  0.21481100  1
  Li  Li1  1  0.93255600  0.87826200  0.42527800  1
  Li  Li2  1  0.17753100  0.55929300  0.38801200  1
  Li  Li3  1  0.50000000  0.50000000  0.50000000  1
  Li  Li4  1  0.82246900  0.44070700  0.61198800  1
  Li  Li5  1  0.06744400  0.12173800  0.57472200  1
  Li  Li6  1  0.14438000  0.99863600  0.78518900  1
  Li  Li7  1  0.91071200  0.86910600  0.93579000  1
  Li  Li8  1  0.09180600  0.57095600  0.80707700  1
  Li  Li9  1  0.50000000  0.50000000  0.00000000  1
  Li  Li10  1  0.90819400  0.42904400  0.19292300  1
  Li  Li11  1  0.08928800  0.13089400  0.06421000  1
  Co  Co12  1  0.89643100  0.28092600  0.38662800  1
  Co  Co13  1  0.21152700  0.99490400  0.26262200  1
  Co  Co14  1  0.51993400  0.24478500  0.43356900  1
  Co  Co15  1  0.48006600  0.75521500  0.56643100  1
  Co  Co16  1  0.78847300  0.00509600  0.73737800  1
  Co  Co17  1  0.10356900  0.71907400  0.61337200  1
  Co  Co18  1  0.89910100  0.28844900  0.89500200  1
  Co  Co19  1  0.50462200  0.24630400  0.93170600  1
  Co  Co20  1  0.49537800  0.75369600  0.06829400  1
  Co  Co21  1  0.10089900  0.71155100  0.10499800  1
  P  P22  1  0.79966000  0.55340800  0.90224600  1
  P  P23  1  0.45753000  0.79772300  0.81666300  1
  P  P24  1  0.17832400  0.30322400  0.79091700  1
  P  P25  1  0.57108600  0.19640400  0.69381300  1
  P  P26  1  0.17576100  0.44111200  0.59494400  1
  P  P27  1  0.79887500  0.70002300  0.70770300  1
  P  P28  1  0.29031000  0.96720900  0.53323000  1
  P  P29  1  0.70969000  0.03279100  0.46677000  1
  P  P30  1  0.20112500  0.29997700  0.29229700  1
  P  P31  1  0.82423900  0.55888800  0.40505600  1
  P  P32  1  0.54247000  0.20227700  0.18333700  1
  P  P33  1  0.20034000  0.44659200  0.09775400  1
  P  P34  1  0.82167600  0.69677600  0.20908300  1
  P  P35  1  0.29595400  0.96535600  0.03275800  1
  P  P36  1  0.70404600  0.03464400  0.96724200  1
  P  P37  1  0.42891400  0.80359600  0.30618700  1
  O  O38  1  0.27133900  0.39953900  0.70610800  1
  O  O39  1  0.68994100  0.45855400  0.45396200  1
  O  O40  1  0.92666700  0.69918900  0.47416700  1
  O  O41  1  0.07562600  0.35541500  0.30580300  1
  O  O42  1  0.86061600  0.03265600  0.43776100  1
  O  O43  1  0.26592300  0.82513100  0.25287500  1
  O  O44  1  0.93464800  0.49250700  0.38298500  1
  O  O45  1  0.44422200  0.17704200  0.26707900  1
  O  O46  1  0.72866100  0.60046100  0.29389200  1
  O  O47  1  0.92909300  0.84976400  0.26459700  1
  O  O48  1  0.10782400  0.14523500  0.23925500  1
  O  O49  1  0.29173400  0.39844900  0.21024300  1
  O  O50  1  0.50974700  0.78030000  0.22759300  1
  O  O51  1  0.09888000  0.51771300  0.12539900  1
  O  O52  1  0.72995600  0.24432700  0.23603300  1
  O  O53  1  0.15167100  0.96691100  0.07464400  1
  O  O54  1  0.93125700  0.62856300  0.19080200  1
  O  O55  1  0.47004600  0.04470400  0.12408800  1
  O  O56  1  0.08407100  0.30582700  0.03056400  1
  O  O57  1  0.33667600  0.54096500  0.05091200  1
  O  O58  1  0.50678100  0.29235500  0.09364400  1
  O  O59  1  0.28179700  0.81403100  0.02503100  1
  O  O60  1  0.68044700  0.68440100  0.11028500  1
  O  O61  1  0.70028500  0.96127900  0.07072400  1
  O  O62  1  0.29971500  0.03872100  0.92927600  1
  O  O63  1  0.31955300  0.31559900  0.88971500  1
  O  O64  1  0.71820300  0.18596900  0.97496900  1
  O  O65  1  0.49321900  0.70764500  0.90635600  1
  O  O66  1  0.66332400  0.45903500  0.94908800  1
  O  O67  1  0.91592900  0.69417300  0.96943600  1
  O  O68  1  0.52995400  0.95529600  0.87591200  1
  O  O69  1  0.06874300  0.37143700  0.80919800  1
  O  O70  1  0.84832900  0.03308900  0.92535600  1
  O  O71  1  0.27004400  0.75567300  0.76396700  1
  O  O72  1  0.07090700  0.15023600  0.73540300  1
  O  O73  1  0.90112000  0.48228700  0.87460100  1
  O  O74  1  0.49025300  0.21970000  0.77240700  1
  O  O75  1  0.54770000  0.95652500  0.36923200  1
  O  O76  1  0.70826600  0.60155100  0.78975700  1
  O  O77  1  0.55577800  0.82295800  0.73292100  1
  O  O78  1  0.06535200  0.50749300  0.61701500  1
  O  O79  1  0.89217600  0.85476500  0.76074500  1
  O  O80  1  0.73407700  0.17486900  0.74712500  1
  O  O81  1  0.13938400  0.96734400  0.56223900  1
  O  O82  1  0.92437400  0.64458500  0.69419700  1
  O  O83  1  0.45230000  0.04347500  0.63076800  1
  O  O84  1  0.07333300  0.30081100  0.52583300  1
  O  O85  1  0.31005900  0.54144600  0.54603800  1
  O  O86  1  0.59419300  0.30134100  0.60741800  1
  O  O87  1  0.40580700  0.69865900  0.39258200  1
  O  O88  1  0.65977100  0.67751900  0.60324600  1
  O  O89  1  0.68233800  0.95868000  0.56858900  1
  O  O90  1  0.31766200  0.04132000  0.43141100  1
  O  O91  1  0.34022900  0.32248100  0.39675400  1
  O  O92  1  0.72073900  0.18420700  0.47012500  1
  O  O93  1  0.27926100  0.81579300  0.52987500  1
