# generated using pymatgen
data_NaLiMo(H2O3)2
_symmetry_space_group_name_H-M   'P 1'
_cell_length_a   8.42654700
_cell_length_b   10.39663800
_cell_length_c   13.41434900
_cell_angle_alpha   90.00000000
_cell_angle_beta   90.00000000
_cell_angle_gamma   90.00000000
_symmetry_Int_Tables_number   1
_chemical_formula_structural   NaLiMo(H2O3)2
_chemical_formula_sum   'Na8 Li8 Mo8 H32 O48'
_cell_volume   1175.20105097
_cell_formula_units_Z   8
loop_
 _symmetry_equiv_pos_site_id
 _symmetry_equiv_pos_as_xyz
  1  'x, y, z'
loop_
 _atom_site_type_symbol
 _atom_site_label
 _atom_site_symmetry_multiplicity
 _atom_site_fract_x
 _atom_site_fract_y
 _atom_site_fract_z
 _atom_site_occupancy
  Na  Na0  1  0.85385000  0.00630000  0.41021000  1
  Na  Na1  1  0.35385000  0.49370000  0.58979000  1
  Na  Na2  1  0.14615000  0.50630000  0.08979000  1
  Na  Na3  1  0.64615000  0.99370000  0.91021000  1
  Na  Na4  1  0.14615000  0.99370000  0.58979000  1
  Na  Na5  1  0.64615000  0.50630000  0.41021000  1
  Na  Na6  1  0.85385000  0.49370000  0.91021000  1
  Na  Na7  1  0.35385000  0.00630000  0.08979000  1
  Li  Li8  1  0.76696200  0.44368400  0.13512500  1
  Li  Li9  1  0.26696200  0.05631600  0.86487500  1
  Li  Li10  1  0.23303800  0.94368400  0.36487500  1
  Li  Li11  1  0.73303800  0.55631600  0.63512500  1
  Li  Li12  1  0.23303800  0.55631600  0.86487500  1
  Li  Li13  1  0.73303800  0.94368400  0.13512500  1
  Li  Li14  1  0.76696200  0.05631600  0.63512500  1
  Li  Li15  1  0.26696200  0.44368400  0.36487500  1
  Mo  Mo16  1  0.48987700  0.18963300  0.47244400  1
  Mo  Mo17  1  0.98987700  0.31036700  0.52755600  1
  Mo  Mo18  1  0.51012300  0.68963300  0.02755600  1
  Mo  Mo19  1  0.01012300  0.81036700  0.97244400  1
  Mo  Mo20  1  0.51012300  0.81036700  0.52755600  1
  Mo  Mo21  1  0.01012300  0.68963300  0.47244400  1
  Mo  Mo22  1  0.48987700  0.31036700  0.97244400  1
  Mo  Mo23  1  0.98987700  0.18963300  0.02755600  1
  H  H24  1  0.92183300  0.60514100  0.25883200  1
  H  H25  1  0.42183300  0.89485900  0.74116800  1
  H  H26  1  0.07816700  0.10514100  0.24116800  1
  H  H27  1  0.57816700  0.39485900  0.75883200  1
  H  H28  1  0.07816700  0.39485900  0.74116800  1
  H  H29  1  0.57816700  0.10514100  0.25883200  1
  H  H30  1  0.92183300  0.89485900  0.75883200  1
  H  H31  1  0.42183300  0.60514100  0.24116800  1
  H  H32  1  0.91909000  0.67216200  0.15406500  1
  H  H33  1  0.41909000  0.82783800  0.84593500  1
  H  H34  1  0.08091000  0.17216200  0.34593500  1
  H  H35  1  0.58091000  0.32783800  0.65406500  1
  H  H36  1  0.08091000  0.32783800  0.84593500  1
  H  H37  1  0.58091000  0.17216200  0.15406500  1
  H  H38  1  0.91909000  0.82783800  0.65406500  1
  H  H39  1  0.41909000  0.67216200  0.34593500  1
  H  H40  1  0.72895400  0.28745200  0.30592600  1
  H  H41  1  0.22895400  0.21254800  0.69407400  1
  H  H42  1  0.27104600  0.78745200  0.19407400  1
  H  H43  1  0.77104600  0.71254800  0.80592600  1
  H  H44  1  0.27104600  0.71254800  0.69407400  1
  H  H45  1  0.77104600  0.78745200  0.30592600  1
  H  H46  1  0.72895400  0.21254800  0.80592600  1
  H  H47  1  0.22895400  0.28745200  0.19407400  1
  H  H48  1  0.87754300  0.37523700  0.31360100  1
  H  H49  1  0.37754300  0.12476300  0.68639900  1
  H  H50  1  0.12245700  0.87523700  0.18639900  1
  H  H51  1  0.62245700  0.62476300  0.81360100  1
  H  H52  1  0.12245700  0.62476300  0.68639900  1
  H  H53  1  0.62245700  0.87523700  0.31360100  1
  H  H54  1  0.87754300  0.12476300  0.81360100  1
  H  H55  1  0.37754300  0.37523700  0.18639900  1
  O  O56  1  0.63411900  0.14971800  0.37738700  1
  O  O57  1  0.13411900  0.35028200  0.62261300  1
  O  O58  1  0.36588100  0.64971800  0.12261300  1
  O  O59  1  0.86588100  0.85028200  0.87738700  1
  O  O60  1  0.36588100  0.85028200  0.62261300  1
  O  O61  1  0.86588100  0.64971800  0.37738700  1
  O  O62  1  0.63411900  0.35028200  0.87738700  1
  O  O63  1  0.13411900  0.14971800  0.12261300  1
  O  O64  1  0.43251400  0.35493900  0.45371800  1
  O  O65  1  0.93251400  0.14506100  0.54628200  1
  O  O66  1  0.56748600  0.85493900  0.04628200  1
  O  O67  1  0.06748600  0.64506100  0.95371800  1
  O  O68  1  0.56748600  0.64506100  0.54628200  1
  O  O69  1  0.06748600  0.85493900  0.45371800  1
  O  O70  1  0.43251400  0.14506100  0.95371800  1
  O  O71  1  0.93251400  0.35493900  0.04628200  1
  O  O72  1  0.56902100  0.17406900  0.59707200  1
  O  O73  1  0.06902100  0.32593100  0.40292800  1
  O  O74  1  0.43097900  0.67406900  0.90292800  1
  O  O75  1  0.93097900  0.82593100  0.09707200  1
  O  O76  1  0.43097900  0.82593100  0.40292800  1
  O  O77  1  0.93097900  0.67406900  0.59707200  1
  O  O78  1  0.56902100  0.32593100  0.09707200  1
  O  O79  1  0.06902100  0.17406900  0.90292800  1
  O  O80  1  0.32162600  0.08621500  0.46201800  1
  O  O81  1  0.82162600  0.41378500  0.53798200  1
  O  O82  1  0.67837400  0.58621500  0.03798200  1
  O  O83  1  0.17837400  0.91378500  0.96201800  1
  O  O84  1  0.67837400  0.91378500  0.53798200  1
  O  O85  1  0.17837400  0.58621500  0.46201800  1
  O  O86  1  0.32162600  0.41378500  0.96201800  1
  O  O87  1  0.82162600  0.08621500  0.03798200  1
  O  O88  1  0.56641200  0.41317100  0.68640200  1
  O  O89  1  0.06641200  0.08682900  0.31359800  1
  O  O90  1  0.43358800  0.91317100  0.81359800  1
  O  O91  1  0.93358800  0.58682900  0.18640200  1
  O  O92  1  0.43358800  0.58682900  0.31359800  1
  O  O93  1  0.93358800  0.91317100  0.68640200  1
  O  O94  1  0.56641200  0.08682900  0.18640200  1
  O  O95  1  0.06641200  0.41317100  0.81359800  1
  O  O96  1  0.77037700  0.37257400  0.28485800  1
  O  O97  1  0.27037700  0.12742600  0.71514200  1
  O  O98  1  0.22962300  0.87257400  0.21514200  1
  O  O99  1  0.72962300  0.62742600  0.78485800  1
  O  O100  1  0.22962300  0.62742600  0.71514200  1
  O  O101  1  0.72962300  0.87257400  0.28485800  1
  O  O102  1  0.77037700  0.12742600  0.78485800  1
  O  O103  1  0.27037700  0.37257400  0.21514200  1
