# generated using pymatgen
data_LiMg10AlH24
_symmetry_space_group_name_H-M   'P 1'
_cell_length_a   8.98010400
_cell_length_b   4.47679400
_cell_length_c   8.96724453
_cell_angle_alpha   89.66800860
_cell_angle_beta   90.00000000
_cell_angle_gamma   90.00000000
_symmetry_Int_Tables_number   1
_chemical_formula_structural   LiMg10AlH24
_chemical_formula_sum   'Li1 Mg10 Al1 H24'
_cell_volume   360.49579186
_cell_formula_units_Z   1
loop_
 _symmetry_equiv_pos_site_id
 _symmetry_equiv_pos_as_xyz
  1  'x, y, z'
loop_
 _atom_site_type_symbol
 _atom_site_label
 _atom_site_symmetry_multiplicity
 _atom_site_fract_x
 _atom_site_fract_y
 _atom_site_fract_z
 _atom_site_occupancy
  Li  Li0  1  0.50317900  0.50000000  0.00000000  1
  Mg  Mg1  1  0.49898300  0.50000000  0.50000000  1
  Mg  Mg2  1  0.33437600  0.00559600  0.24561400  1
  Mg  Mg3  1  0.16637200  0.50000000  0.50000000  1
  Mg  Mg4  1  0.82752100  0.50000000  0.00000000  1
  Mg  Mg5  1  0.66297100  0.00095700  0.24201000  1
  Mg  Mg6  1  0.83172000  0.50000000  0.50000000  1
  Mg  Mg7  1  0.33437600  0.99440400  0.75438600  1
  Mg  Mg8  1  0.99931800  0.99718400  0.74829200  1
  Mg  Mg9  1  0.99931800  0.00281600  0.25170800  1
  Mg  Mg10  1  0.66297100  0.99904300  0.75799000  1
  Al  Al11  1  0.16794400  0.50000000  0.00000000  1
  H  H12  1  0.66680500  0.69887400  0.59971800  1
  H  H13  1  0.32933400  0.69485700  0.59912700  1
  H  H14  1  0.49428700  0.80511400  0.85126100  1
  H  H15  1  0.67148400  0.30328400  0.90119500  1
  H  H16  1  0.66680500  0.30112600  0.40028200  1
  H  H17  1  0.83476500  0.19531800  0.65395300  1
  H  H18  1  0.16629400  0.18630700  0.65568400  1
  H  H19  1  0.16629400  0.81369300  0.34431600  1
  H  H20  1  0.00093400  0.69285100  0.59805000  1
  H  H21  1  0.16185700  0.22028700  0.14241000  1
  H  H22  1  0.30447900  0.69101100  0.09310600  1
  H  H23  1  0.16185700  0.77971300  0.85759000  1
  H  H24  1  0.49623300  0.80111100  0.34720500  1
  H  H25  1  0.49623300  0.19888900  0.65279500  1
  H  H26  1  0.49428700  0.19488600  0.14873900  1
  H  H27  1  0.84101000  0.19459300  0.14901500  1
  H  H28  1  0.32933400  0.30514300  0.40087300  1
  H  H29  1  0.30447900  0.30898900  0.90689400  1
  H  H30  1  0.01799400  0.31421600  0.90819200  1
  H  H31  1  0.67148400  0.69671600  0.09880500  1
  H  H32  1  0.83476500  0.80468200  0.34604700  1
  H  H33  1  0.00093400  0.30714900  0.40195000  1
  H  H34  1  0.84101000  0.80540700  0.85098500  1
  H  H35  1  0.01799400  0.68578400  0.09180800  1
