# generated using pymatgen
data_Li2U5MoO19
_symmetry_space_group_name_H-M   'P 1'
_cell_length_a   20.25926200
_cell_length_b   8.00843200
_cell_length_c   10.22175523
_cell_angle_alpha   88.60024527
_cell_angle_beta   90.00000000
_cell_angle_gamma   90.00000000
_symmetry_Int_Tables_number   1
_chemical_formula_structural   Li2U5MoO19
_chemical_formula_sum   'Li8 U20 Mo4 O76'
_cell_volume   1657.93299666
_cell_formula_units_Z   4
loop_
 _symmetry_equiv_pos_site_id
 _symmetry_equiv_pos_as_xyz
  1  'x, y, z'
loop_
 _atom_site_type_symbol
 _atom_site_label
 _atom_site_symmetry_multiplicity
 _atom_site_fract_x
 _atom_site_fract_y
 _atom_site_fract_z
 _atom_site_occupancy
  Li  Li0  1  0.88155500  0.74380100  0.16802700  1
  Li  Li1  1  0.39320800  0.70650900  0.33827300  1
  Li  Li2  1  0.61844500  0.74380100  0.66802700  1
  Li  Li3  1  0.60679200  0.29349100  0.66172700  1
  Li  Li4  1  0.11844500  0.25619900  0.83197300  1
  Li  Li5  1  0.38155500  0.25619900  0.33197300  1
  Li  Li6  1  0.89320800  0.29349100  0.16172700  1
  Li  Li7  1  0.10679200  0.70650900  0.83827300  1
  U  U8  1  0.25337300  0.72094600  0.59255900  1
  U  U9  1  0.64020200  0.02693200  0.18496900  1
  U  U10  1  0.85979800  0.02693200  0.68496900  1
  U  U11  1  0.24662700  0.72094600  0.09255900  1
  U  U12  1  0.36396700  0.48190900  0.81898900  1
  U  U13  1  0.76419800  0.77093400  0.43940700  1
  U  U14  1  0.13603300  0.48190900  0.31898900  1
  U  U15  1  0.75337300  0.27905400  0.90744100  1
  U  U16  1  0.50000000  0.50000000  0.50000000  1
  U  U17  1  0.35979800  0.97306800  0.81503100  1
  U  U18  1  0.86396700  0.51809100  0.68101100  1
  U  U19  1  0.63603300  0.51809100  0.18101100  1
  U  U20  1  0.00000000  0.00000000  0.00000000  1
  U  U21  1  0.00000000  0.50000000  0.00000000  1
  U  U22  1  0.14020200  0.97306800  0.31503100  1
  U  U23  1  0.26419800  0.22906600  0.06059300  1
  U  U24  1  0.74662700  0.27905400  0.40744100  1
  U  U25  1  0.50000000  0.00000000  0.50000000  1
  U  U26  1  0.23580200  0.22906600  0.56059300  1
  U  U27  1  0.73580200  0.77093400  0.93940700  1
  Mo  Mo28  1  0.98793100  0.20617400  0.46792300  1
  Mo  Mo29  1  0.01206900  0.79382600  0.53207700  1
  Mo  Mo30  1  0.51206900  0.20617400  0.96792300  1
  Mo  Mo31  1  0.48793100  0.79382600  0.03207700  1
  O  O32  1  0.43142700  0.45367800  0.38111400  1
  O  O33  1  0.19956200  0.93868800  0.46734600  1
  O  O34  1  0.45052500  0.36785100  0.95719000  1
  O  O35  1  0.66263200  0.77102100  0.83542000  1
  O  O36  1  0.03075400  0.74749200  0.97571200  1
  O  O37  1  0.80284800  0.49113300  0.53090200  1
  O  O38  1  0.78187800  0.99037600  0.82879600  1
  O  O39  1  0.16309000  0.22729400  0.36717000  1
  O  O40  1  0.94494400  0.97236300  0.54049000  1
  O  O41  1  0.06432600  0.06796900  0.88198700  1
  O  O42  1  0.44939500  0.78094800  0.18264200  1
  O  O43  1  0.56857300  0.54632200  0.61888600  1
  O  O44  1  0.44494400  0.02763700  0.95951000  1
  O  O45  1  0.42634100  0.45701600  0.68183400  1
  O  O46  1  0.53075400  0.25250800  0.52428800  1
  O  O47  1  0.33736800  0.22897900  0.16458000  1
  O  O48  1  0.21508300  0.44565900  0.16995900  1
  O  O49  1  0.71812200  0.99037600  0.32879600  1
  O  O50  1  0.30043800  0.93868800  0.96734600  1
  O  O51  1  0.05505600  0.02763700  0.45951000  1
  O  O52  1  0.92634100  0.54298400  0.81816600  1
  O  O53  1  0.07062200  0.71815600  0.40594700  1
  O  O54  1  0.71508300  0.55434100  0.33004100  1
  O  O55  1  0.46924600  0.74749200  0.47571200  1
  O  O56  1  0.19509400  0.23404100  0.94693100  1
  O  O57  1  0.93567400  0.93203100  0.11801300  1
  O  O58  1  0.31556100  0.71366900  0.20630400  1
  O  O59  1  0.68443900  0.28633100  0.79369600  1
  O  O60  1  0.54947500  0.63214900  0.04281000  1
  O  O61  1  0.42937800  0.71815600  0.90594700  1
  O  O62  1  0.82081700  0.27228700  0.02492900  1
  O  O63  1  0.28491700  0.44565900  0.66995900  1
  O  O64  1  0.95052500  0.63214900  0.54281000  1
  O  O65  1  0.17918300  0.72771300  0.97507100  1
  O  O66  1  0.55060500  0.21905200  0.81735800  1
  O  O67  1  0.80490600  0.76595900  0.05306900  1
  O  O68  1  0.69956200  0.06131200  0.03265400  1
  O  O69  1  0.42270500  0.01553500  0.67928000  1
  O  O70  1  0.33691000  0.22729400  0.86717000  1
  O  O71  1  0.69509400  0.76595900  0.55306900  1
  O  O72  1  0.21812200  0.00962400  0.17120400  1
  O  O73  1  0.69715200  0.49113300  0.03090200  1
  O  O74  1  0.94939500  0.21905200  0.31735800  1
  O  O75  1  0.93142700  0.54632200  0.11888600  1
  O  O76  1  0.07365900  0.45701600  0.18183400  1
  O  O77  1  0.07729500  0.01553500  0.17928000  1
  O  O78  1  0.92270500  0.98446500  0.82072000  1
  O  O79  1  0.66309000  0.77270600  0.13283000  1
  O  O80  1  0.43567400  0.06796900  0.38198700  1
  O  O81  1  0.57365900  0.54298400  0.31816600  1
  O  O82  1  0.05060500  0.78094800  0.68264200  1
  O  O83  1  0.04947500  0.36785100  0.45719000  1
  O  O84  1  0.33028700  0.72538500  0.75107900  1
  O  O85  1  0.32081700  0.72771300  0.47507100  1
  O  O86  1  0.83736800  0.77102100  0.33542000  1
  O  O87  1  0.92937800  0.28184400  0.59405300  1
  O  O88  1  0.83028700  0.27461500  0.74892100  1
  O  O89  1  0.30490600  0.23404100  0.44693100  1
  O  O90  1  0.30284800  0.50886700  0.96909800  1
  O  O91  1  0.81556100  0.28633100  0.29369600  1
  O  O92  1  0.19715200  0.50886700  0.46909800  1
  O  O93  1  0.16971300  0.72538500  0.25107900  1
  O  O94  1  0.18443900  0.71366900  0.70630400  1
  O  O95  1  0.55505600  0.97236300  0.04049000  1
  O  O96  1  0.57729500  0.98446500  0.32072000  1
  O  O97  1  0.56432600  0.93203100  0.61801300  1
  O  O98  1  0.66971300  0.27461500  0.24892100  1
  O  O99  1  0.28187800  0.00962400  0.67120400  1
  O  O100  1  0.80043800  0.06131200  0.53265400  1
  O  O101  1  0.16263200  0.22897900  0.66458000  1
  O  O102  1  0.06857300  0.45367800  0.88111400  1
  O  O103  1  0.83691000  0.77270600  0.63283000  1
  O  O104  1  0.57062200  0.28184400  0.09405300  1
  O  O105  1  0.67918300  0.27228700  0.52492900  1
  O  O106  1  0.78491700  0.55434100  0.83004100  1
  O  O107  1  0.96924600  0.25250800  0.02428800  1
