# generated using pymatgen
data_Li5P2N5
_symmetry_space_group_name_H-M   'P 1'
_cell_length_a   8.63280200
_cell_length_b   8.87928500
_cell_length_c   12.43293400
_cell_angle_alpha   90.00000000
_cell_angle_beta   90.00000000
_cell_angle_gamma   90.00000000
_symmetry_Int_Tables_number   1
_chemical_formula_structural   Li5P2N5
_chemical_formula_sum   'Li40 P16 N40'
_cell_volume   953.02304890
_cell_formula_units_Z   8
loop_
 _symmetry_equiv_pos_site_id
 _symmetry_equiv_pos_as_xyz
  1  'x, y, z'
loop_
 _atom_site_type_symbol
 _atom_site_label
 _atom_site_symmetry_multiplicity
 _atom_site_fract_x
 _atom_site_fract_y
 _atom_site_fract_z
 _atom_site_occupancy
  Li  Li0  1  0.25000000  0.82267600  0.28337600  1
  Li  Li1  1  0.25000000  0.01148900  0.38508400  1
  Li  Li2  1  0.52452100  0.17403200  0.60043600  1
  Li  Li3  1  0.75000000  0.48851100  0.88508400  1
  Li  Li4  1  0.75000000  0.67732400  0.78337600  1
  Li  Li5  1  0.52452100  0.67403200  0.89956400  1
  Li  Li6  1  0.44532600  0.68434400  0.12288800  1
  Li  Li7  1  0.05467400  0.68434400  0.12288800  1
  Li  Li8  1  0.25000000  0.75744300  0.74728300  1
  Li  Li9  1  0.55467400  0.81565600  0.62288800  1
  Li  Li10  1  0.50000000  0.00000000  0.00000000  1
  Li  Li11  1  0.75000000  0.96463300  0.82348100  1
  Li  Li12  1  0.75000000  0.00740900  0.43219200  1
  Li  Li13  1  0.44532600  0.18434400  0.37711200  1
  Li  Li14  1  0.97547900  0.17403200  0.60043600  1
  Li  Li15  1  0.05467400  0.18434400  0.37711200  1
  Li  Li16  1  0.75000000  0.24255700  0.25271700  1
  Li  Li17  1  0.02452100  0.32596800  0.10043600  1
  Li  Li18  1  0.55467400  0.31565600  0.87711200  1
  Li  Li19  1  0.47547900  0.32596800  0.10043600  1
  Li  Li20  1  0.50000000  0.50000000  0.50000000  1
  Li  Li21  1  0.75000000  0.50740900  0.06780800  1
  Li  Li22  1  0.25000000  0.51148900  0.11491600  1
  Li  Li23  1  0.25000000  0.53536700  0.32348100  1
  Li  Li24  1  0.75000000  0.46463300  0.67651900  1
  Li  Li25  1  0.25000000  0.49259100  0.93219200  1
  Li  Li26  1  0.00000000  0.50000000  0.50000000  1
  Li  Li27  1  0.97547900  0.67403200  0.89956400  1
  Li  Li28  1  0.75000000  0.74255700  0.24728300  1
  Li  Li29  1  0.94532600  0.81565600  0.62288800  1
  Li  Li30  1  0.47547900  0.82596800  0.39956400  1
  Li  Li31  1  0.02452100  0.82596800  0.39956400  1
  Li  Li32  1  0.00000000  0.00000000  0.00000000  1
  Li  Li33  1  0.25000000  0.99259100  0.56780800  1
  Li  Li34  1  0.75000000  0.98851100  0.61491600  1
  Li  Li35  1  0.25000000  0.03536700  0.17651900  1
  Li  Li36  1  0.75000000  0.17732400  0.71662400  1
  Li  Li37  1  0.25000000  0.25744300  0.75271700  1
  Li  Li38  1  0.94532600  0.31565600  0.87711200  1
  Li  Li39  1  0.25000000  0.32267600  0.21662400  1
  P  P40  1  0.41657400  0.50779100  0.70674900  1
  P  P41  1  0.25000000  0.84038700  0.95284200  1
  P  P42  1  0.75000000  0.83704300  0.04053700  1
  P  P43  1  0.41657400  0.00779100  0.79325100  1
  P  P44  1  0.58342600  0.99220900  0.20674900  1
  P  P45  1  0.91657400  0.99220900  0.20674900  1
  P  P46  1  0.25000000  0.16295700  0.95946300  1
  P  P47  1  0.75000000  0.15961300  0.04715800  1
  P  P48  1  0.75000000  0.33704300  0.45946300  1
  P  P49  1  0.25000000  0.34038700  0.54715800  1
  P  P50  1  0.91657400  0.49220900  0.29325100  1
  P  P51  1  0.58342600  0.49220900  0.29325100  1
  P  P52  1  0.08342600  0.50779100  0.70674900  1
  P  P53  1  0.75000000  0.65961300  0.45284200  1
  P  P54  1  0.25000000  0.66295700  0.54053700  1
  P  P55  1  0.08342600  0.00779100  0.79325100  1
  N  N56  1  0.40582200  0.35412400  0.62822300  1
  N  N57  1  0.25000000  0.50895600  0.77798900  1
  N  N58  1  0.56859300  0.51150700  0.78097200  1
  N  N59  1  0.40467000  0.65666400  0.62275400  1
  N  N60  1  0.75000000  0.69434300  0.96106400  1
  N  N61  1  0.25000000  0.68833700  0.02248200  1
  N  N62  1  0.90467000  0.84333600  0.12275400  1
  N  N63  1  0.40582200  0.85412400  0.87177700  1
  N  N64  1  0.59533000  0.84333600  0.12275400  1
  N  N65  1  0.75000000  0.99104400  0.27798900  1
  N  N66  1  0.56859300  0.01150700  0.71902800  1
  N  N67  1  0.25000000  0.99847800  0.02636700  1
  N  N68  1  0.75000000  0.00152200  0.97363300  1
  N  N69  1  0.43140700  0.98849300  0.28097200  1
  N  N70  1  0.06859300  0.98849300  0.28097200  1
  N  N71  1  0.90582200  0.14587600  0.12822300  1
  N  N72  1  0.40467000  0.15666400  0.87724600  1
  N  N73  1  0.59417800  0.14587600  0.12822300  1
  N  N74  1  0.25000000  0.18833700  0.47751800  1
  N  N75  1  0.75000000  0.19434300  0.53893600  1
  N  N76  1  0.75000000  0.31166300  0.97751800  1
  N  N77  1  0.25000000  0.30565700  0.03893600  1
  N  N78  1  0.90467000  0.34333600  0.37724600  1
  N  N79  1  0.09417800  0.35412400  0.62822300  1
  N  N80  1  0.59533000  0.34333600  0.37724600  1
  N  N81  1  0.75000000  0.49104400  0.22201100  1
  N  N82  1  0.06859300  0.48849300  0.21902800  1
  N  N83  1  0.75000000  0.50152200  0.52636700  1
  N  N84  1  0.25000000  0.49847800  0.47363300  1
  N  N85  1  0.93140700  0.51150700  0.78097200  1
  N  N86  1  0.43140700  0.48849300  0.21902800  1
  N  N87  1  0.59417800  0.64587600  0.37177700  1
  N  N88  1  0.90582200  0.64587600  0.37177700  1
  N  N89  1  0.09533000  0.65666400  0.62275400  1
  N  N90  1  0.75000000  0.81166300  0.52248200  1
  N  N91  1  0.25000000  0.80565700  0.46106400  1
  N  N92  1  0.09417800  0.85412400  0.87177700  1
  N  N93  1  0.93140700  0.01150700  0.71902800  1
  N  N94  1  0.25000000  0.00895600  0.72201100  1
  N  N95  1  0.09533000  0.15666400  0.87724600  1
