# generated using pymatgen
data_Na5LiMn2O8
_symmetry_space_group_name_H-M   'P 1'
_cell_length_a   10.56125700
_cell_length_b   10.61662700
_cell_length_c   15.21052100
_cell_angle_alpha   90.00000000
_cell_angle_beta   90.00000000
_cell_angle_gamma   90.00000000
_symmetry_Int_Tables_number   1
_chemical_formula_structural   Na5LiMn2O8
_chemical_formula_sum   'Na40 Li8 Mn16 O64'
_cell_volume   1705.47854489
_cell_formula_units_Z   8
loop_
 _symmetry_equiv_pos_site_id
 _symmetry_equiv_pos_as_xyz
  1  'x, y, z'
loop_
 _atom_site_type_symbol
 _atom_site_label
 _atom_site_symmetry_multiplicity
 _atom_site_fract_x
 _atom_site_fract_y
 _atom_site_fract_z
 _atom_site_occupancy
  Na  Na0  1  0.77778600  0.00663500  0.50398700  1
  Na  Na1  1  0.75778200  0.24463000  0.89628700  1
  Na  Na2  1  0.48308500  0.29155100  0.25000000  1
  Na  Na3  1  0.72345800  0.76243600  0.36224800  1
  Na  Na4  1  0.24221800  0.75537000  0.39628700  1
  Na  Na5  1  0.27654200  0.23756400  0.63775200  1
  Na  Na6  1  0.72221400  0.50663500  0.99601300  1
  Na  Na7  1  0.27778600  0.49336500  0.00398700  1
  Na  Na8  1  0.72221400  0.50663500  0.50398700  1
  Na  Na9  1  0.57097800  0.23112900  0.75000000  1
  Na  Na10  1  0.27654200  0.23756400  0.86224800  1
  Na  Na11  1  0.51873300  0.00979000  0.11247600  1
  Na  Na12  1  0.98126700  0.50979000  0.38752400  1
  Na  Na13  1  0.75778200  0.24463000  0.60371300  1
  Na  Na14  1  0.77778600  0.00663500  0.99601300  1
  Na  Na15  1  0.72345800  0.76243600  0.13775200  1
  Na  Na16  1  0.77654200  0.26243600  0.36224800  1
  Na  Na17  1  0.01873300  0.49021000  0.61247600  1
  Na  Na18  1  0.25778200  0.25537000  0.39628700  1
  Na  Na19  1  0.92902200  0.73112900  0.75000000  1
  Na  Na20  1  0.48126700  0.99021000  0.61247600  1
  Na  Na21  1  0.51691500  0.70844900  0.75000000  1
  Na  Na22  1  0.22345800  0.73756400  0.63775200  1
  Na  Na23  1  0.22221400  0.99336500  0.49601300  1
  Na  Na24  1  0.51873300  0.00979000  0.38752400  1
  Na  Na25  1  0.74221800  0.74463000  0.89628700  1
  Na  Na26  1  0.01873300  0.49021000  0.88752400  1
  Na  Na27  1  0.25778200  0.25537000  0.10371300  1
  Na  Na28  1  0.74221800  0.74463000  0.60371300  1
  Na  Na29  1  0.42902200  0.76887100  0.25000000  1
  Na  Na30  1  0.07097800  0.26887100  0.25000000  1
  Na  Na31  1  0.98126700  0.50979000  0.11247600  1
  Na  Na32  1  0.98308500  0.20844900  0.75000000  1
  Na  Na33  1  0.77654200  0.26243600  0.13775200  1
  Na  Na34  1  0.22345800  0.73756400  0.86224800  1
  Na  Na35  1  0.24221800  0.75537000  0.10371300  1
  Na  Na36  1  0.48126700  0.99021000  0.88752400  1
  Na  Na37  1  0.22221400  0.99336500  0.00398700  1
  Na  Na38  1  0.27778600  0.49336500  0.49601300  1
  Na  Na39  1  0.01691500  0.79155100  0.25000000  1
  Li  Li40  1  0.00234000  0.98731000  0.86011500  1
  Li  Li41  1  0.99766000  0.01269000  0.13988500  1
  Li  Li42  1  0.00234000  0.98731000  0.63988500  1
  Li  Li43  1  0.50234000  0.51269000  0.13988500  1
  Li  Li44  1  0.49766000  0.48731000  0.86011500  1
  Li  Li45  1  0.49766000  0.48731000  0.63988500  1
  Li  Li46  1  0.99766000  0.01269000  0.36011500  1
  Li  Li47  1  0.50234000  0.51269000  0.36011500  1
  Mn  Mn48  1  0.49383400  0.74805300  0.49946100  1
  Mn  Mn49  1  0.50616600  0.25194700  0.99946100  1
  Mn  Mn50  1  0.49383400  0.74805300  0.00053900  1
  Mn  Mn51  1  0.25429700  0.02070900  0.25000000  1
  Mn  Mn52  1  0.22869600  0.49291800  0.75000000  1
  Mn  Mn53  1  0.50616600  0.25194700  0.50053900  1
  Mn  Mn54  1  0.00616600  0.24805300  0.00053900  1
  Mn  Mn55  1  0.00616600  0.24805300  0.49946100  1
  Mn  Mn56  1  0.75429700  0.47929100  0.75000000  1
  Mn  Mn57  1  0.27130400  0.99291800  0.75000000  1
  Mn  Mn58  1  0.99383400  0.75194700  0.99946100  1
  Mn  Mn59  1  0.24570300  0.52070900  0.25000000  1
  Mn  Mn60  1  0.74570300  0.97929100  0.75000000  1
  Mn  Mn61  1  0.77130400  0.50708200  0.25000000  1
  Mn  Mn62  1  0.72869600  0.00708200  0.25000000  1
  Mn  Mn63  1  0.99383400  0.75194700  0.50053900  1
  O  O64  1  0.11495400  0.61040500  0.75000000  1
  O  O65  1  0.68330700  0.04731000  0.84247300  1
  O  O66  1  0.61495400  0.88959500  0.25000000  1
  O  O67  1  0.11184500  0.64042400  0.98803100  1
  O  O68  1  0.44974900  0.36343500  0.07174400  1
  O  O69  1  0.94974900  0.13656500  0.57174400  1
  O  O70  1  0.45933700  0.68088500  0.39935700  1
  O  O71  1  0.28864700  0.18037900  0.25000000  1
  O  O72  1  0.61184500  0.85957600  0.48803100  1
  O  O73  1  0.38504600  0.11040500  0.75000000  1
  O  O74  1  0.86078700  0.67638400  0.46412800  1
  O  O75  1  0.81580100  0.98791500  0.15562200  1
  O  O76  1  0.05025100  0.86343500  0.07174400  1
  O  O77  1  0.81669300  0.54731000  0.84247300  1
  O  O78  1  0.18330700  0.45269000  0.15752700  1
  O  O79  1  0.31669300  0.95269000  0.15752700  1
  O  O80  1  0.13921300  0.32361600  0.53587200  1
  O  O81  1  0.34722000  0.84959600  0.75000000  1
  O  O82  1  0.63921300  0.17638400  0.03587200  1
  O  O83  1  0.13921300  0.32361600  0.96412800  1
  O  O84  1  0.81669300  0.54731000  0.65752700  1
  O  O85  1  0.05025100  0.86343500  0.42825600  1
  O  O86  1  0.55025100  0.63656500  0.92825600  1
  O  O87  1  0.31669300  0.95269000  0.34247300  1
  O  O88  1  0.68419900  0.48791500  0.15562200  1
  O  O89  1  0.55025100  0.63656500  0.57174400  1
  O  O90  1  0.84722000  0.65040400  0.25000000  1
  O  O91  1  0.90882400  0.99833800  0.75000000  1
  O  O92  1  0.45933700  0.68088500  0.10064300  1
  O  O93  1  0.04066300  0.18088500  0.39935700  1
  O  O94  1  0.94974900  0.13656500  0.92825600  1
  O  O95  1  0.71135300  0.81962100  0.75000000  1
  O  O96  1  0.11184500  0.64042400  0.51196900  1
  O  O97  1  0.68330700  0.04731000  0.65752700  1
  O  O98  1  0.88815500  0.35957600  0.48803100  1
  O  O99  1  0.38815500  0.14042400  0.51196900  1
  O  O100  1  0.88815500  0.35957600  0.01196900  1
  O  O101  1  0.59117600  0.49833800  0.75000000  1
  O  O102  1  0.95933700  0.81911500  0.60064300  1
  O  O103  1  0.04066300  0.18088500  0.10064300  1
  O  O104  1  0.78864700  0.31962100  0.75000000  1
  O  O105  1  0.18419900  0.01208500  0.84437800  1
  O  O106  1  0.88504600  0.38959500  0.25000000  1
  O  O107  1  0.40882400  0.50166200  0.25000000  1
  O  O108  1  0.36078700  0.82361600  0.96412800  1
  O  O109  1  0.95933700  0.81911500  0.89935700  1
  O  O110  1  0.81580100  0.98791500  0.34437800  1
  O  O111  1  0.65278000  0.15040400  0.25000000  1
  O  O112  1  0.68419900  0.48791500  0.34437800  1
  O  O113  1  0.54066300  0.31911500  0.60064300  1
  O  O114  1  0.63921300  0.17638400  0.46412800  1
  O  O115  1  0.15278000  0.34959600  0.75000000  1
  O  O116  1  0.18330700  0.45269000  0.34247300  1
  O  O117  1  0.36078700  0.82361600  0.53587200  1
  O  O118  1  0.86078700  0.67638400  0.03587200  1
  O  O119  1  0.54066300  0.31911500  0.89935700  1
  O  O120  1  0.44974900  0.36343500  0.42825600  1
  O  O121  1  0.61184500  0.85957600  0.01196900  1
  O  O122  1  0.18419900  0.01208500  0.65562200  1
  O  O123  1  0.21135300  0.68037900  0.25000000  1
  O  O124  1  0.09117600  0.00166200  0.25000000  1
  O  O125  1  0.38815500  0.14042400  0.98803100  1
  O  O126  1  0.31580100  0.51208500  0.84437800  1
  O  O127  1  0.31580100  0.51208500  0.65562200  1
