# generated using pymatgen
data_LiMnPO4
_symmetry_space_group_name_H-M   'P 1'
_cell_length_a   10.23785899
_cell_length_b   10.23785899
_cell_length_c   16.77392969
_cell_angle_alpha   82.09663781
_cell_angle_beta   82.09663781
_cell_angle_gamma   59.06917418
_symmetry_Int_Tables_number   1
_chemical_formula_structural   LiMnPO4
_chemical_formula_sum   'Li16 Mn16 P16 O64'
_cell_volume   1489.15854664
_cell_formula_units_Z   16
loop_
 _symmetry_equiv_pos_site_id
 _symmetry_equiv_pos_as_xyz
  1  'x, y, z'
loop_
 _atom_site_type_symbol
 _atom_site_label
 _atom_site_symmetry_multiplicity
 _atom_site_fract_x
 _atom_site_fract_y
 _atom_site_fract_z
 _atom_site_occupancy
  Li  Li0  1  0.19800900  0.81504300  0.00311200  1
  Li  Li1  1  0.81504300  0.19800900  0.50311200  1
  Li  Li2  1  0.70421200  0.57494900  0.25246600  1
  Li  Li3  1  0.25731100  0.07339400  0.25103900  1
  Li  Li4  1  0.14076200  0.31505200  0.00172600  1
  Li  Li5  1  0.57494900  0.70421200  0.75246600  1
  Li  Li6  1  0.70030100  0.81302000  0.00376100  1
  Li  Li7  1  0.07339400  0.25731100  0.75103900  1
  Li  Li8  1  0.31505200  0.14076200  0.50172600  1
  Li  Li9  1  0.81302000  0.70030100  0.50376100  1
  Li  Li10  1  0.20508900  0.56748300  0.25209700  1
  Li  Li11  1  0.75754000  0.07907000  0.25341100  1
  Li  Li12  1  0.64012500  0.31491400  0.00299400  1
  Li  Li13  1  0.56748300  0.20508900  0.75209700  1
  Li  Li14  1  0.07907000  0.75754000  0.75341100  1
  Li  Li15  1  0.31491400  0.64012500  0.50299400  1
  Mn  Mn16  1  0.88546100  0.26755000  0.12822300  1
  Mn  Mn17  1  0.44416100  0.76948300  0.12776900  1
  Mn  Mn18  1  0.26755000  0.88546100  0.62822300  1
  Mn  Mn19  1  0.76948300  0.44416100  0.62776900  1
  Mn  Mn20  1  0.00392800  0.32622500  0.37874900  1
  Mn  Mn21  1  0.51085400  0.88033700  0.37839900  1
  Mn  Mn22  1  0.32622500  0.00392800  0.87874900  1
  Mn  Mn23  1  0.88033700  0.51085400  0.87839900  1
  Mn  Mn24  1  0.38323100  0.27058300  0.12751500  1
  Mn  Mn25  1  0.94451100  0.76790900  0.12955900  1
  Mn  Mn26  1  0.27058300  0.38323100  0.62751500  1
  Mn  Mn27  1  0.76790900  0.94451100  0.62955900  1
  Mn  Mn28  1  0.00886400  0.82641400  0.37970400  1
  Mn  Mn29  1  0.50465300  0.38115400  0.37898700  1
  Mn  Mn30  1  0.82641400  0.00886400  0.87970400  1
  Mn  Mn31  1  0.38115400  0.50465300  0.87898700  1
  P  P32  1  0.10048100  0.91376400  0.19091300  1
  P  P33  1  0.91376400  0.10048100  0.69091300  1
  P  P34  1  0.17014800  0.98257100  0.43942500  1
  P  P35  1  0.66658800  0.53632400  0.44089700  1
  P  P36  1  0.98257100  0.17014800  0.93942500  1
  P  P37  1  0.53632400  0.66658800  0.94089700  1
  P  P38  1  0.04530200  0.41520000  0.18898100  1
  P  P39  1  0.60166900  0.91647200  0.19090500  1
  P  P40  1  0.41520000  0.04530200  0.68898100  1
  P  P41  1  0.91647200  0.60166900  0.69090500  1
  P  P42  1  0.16646400  0.48227400  0.43966300  1
  P  P43  1  0.66810200  0.03809400  0.44149700  1
  P  P44  1  0.48227400  0.16646400  0.93966300  1
  P  P45  1  0.03809400  0.66810200  0.94149700  1
  P  P46  1  0.54631600  0.41659900  0.18955600  1
  P  P47  1  0.41659900  0.54631600  0.68955600  1
  O  O48  1  0.95310500  0.07000500  0.20510500  1
  O  O49  1  0.53645900  0.56883900  0.20260600  1
  O  O50  1  0.41621900  0.74800300  0.01153300  1
  O  O51  1  0.50975500  0.55341200  0.43086900  1
  O  O52  1  0.24153000  0.93473600  0.18331100  1
  O  O53  1  0.07000500  0.95310500  0.70510500  1
  O  O54  1  0.98966700  0.24330800  0.01310300  1
  O  O55  1  0.00897300  0.12528700  0.42959400  1
  O  O56  1  0.56883900  0.53645900  0.70260600  1
  O  O57  1  0.74800300  0.41621900  0.51153300  1
  O  O58  1  0.55341200  0.50975500  0.93086900  1
  O  O59  1  0.77234400  0.47740900  0.36218200  1
  O  O60  1  0.27809800  0.98000500  0.36364400  1
  O  O61  1  0.93473600  0.24153000  0.68331100  1
  O  O62  1  0.88394500  0.44611900  0.17649100  1
  O  O63  1  0.24330800  0.98966700  0.51310300  1
  O  O64  1  0.12528700  0.00897300  0.92959400  1
  O  O65  1  0.64307400  0.69311100  0.45734100  1
  O  O66  1  0.60075800  0.84661700  0.11413100  1
  O  O67  1  0.11146900  0.29678900  0.26257500  1
  O  O68  1  0.60925200  0.80283700  0.26485000  1
  O  O69  1  0.47740900  0.77234400  0.86218200  1
  O  O70  1  0.98000500  0.27809800  0.86364400  1
  O  O71  1  0.44611900  0.88394500  0.67649100  1
  O  O72  1  0.15530500  0.34516000  0.11303300  1
  O  O73  1  0.45168100  0.07167800  0.20342000  1
  O  O74  1  0.69311100  0.64307400  0.95734100  1
  O  O75  1  0.14758800  0.33958200  0.45216000  1
  O  O76  1  0.84661700  0.60075800  0.61413100  1
  O  O77  1  0.29678900  0.11146900  0.76257500  1
  O  O78  1  0.80283700  0.60925200  0.76485000  1
  O  O79  1  0.03595100  0.56615900  0.20416200  1
  O  O80  1  0.91854200  0.74528400  0.01305000  1
  O  O81  1  0.34516000  0.15530500  0.61303300  1
  O  O82  1  0.51234500  0.05461100  0.42909000  1
  O  O83  1  0.48656000  0.24526600  0.01177300  1
  O  O84  1  0.07167800  0.45168100  0.70342000  1
  O  O85  1  0.74102300  0.94023400  0.18228300  1
  O  O86  1  0.00716700  0.62834200  0.43110200  1
  O  O87  1  0.33958200  0.14758800  0.95216000  1
  O  O88  1  0.56615900  0.03595100  0.70416200  1
  O  O89  1  0.74528400  0.91854200  0.51305000  1
  O  O90  1  0.05461100  0.51234500  0.92909000  1
  O  O91  1  0.27223400  0.47704500  0.36221200  1
  O  O92  1  0.77850800  0.97885700  0.36431800  1
  O  O93  1  0.24526600  0.48656000  0.51177300  1
  O  O94  1  0.38570200  0.44587600  0.17667700  1
  O  O95  1  0.94023400  0.74102300  0.68228300  1
  O  O96  1  0.62834200  0.00716700  0.93110200  1
  O  O97  1  0.64190300  0.19579500  0.45802600  1
  O  O98  1  0.09700600  0.85019400  0.11233100  1
  O  O99  1  0.10740200  0.79558000  0.26195800  1
  O  O100  1  0.61039600  0.30415600  0.26560800  1
  O  O101  1  0.47704500  0.27223400  0.86221200  1
  O  O102  1  0.97885700  0.77850800  0.86431800  1
  O  O103  1  0.44587600  0.38570200  0.67667700  1
  O  O104  1  0.65720500  0.34162000  0.11480600  1
  O  O105  1  0.19579500  0.64190300  0.95802600  1
  O  O106  1  0.15547700  0.83736000  0.45081300  1
  O  O107  1  0.85019400  0.09700600  0.61233100  1
  O  O108  1  0.79558000  0.10740200  0.76195800  1
  O  O109  1  0.30415600  0.61039600  0.76560800  1
  O  O110  1  0.34162000  0.65720500  0.61480600  1
  O  O111  1  0.83736000  0.15547700  0.95081300  1
