# generated using pymatgen
data_Li2SO4
_symmetry_space_group_name_H-M   'P 1'
_cell_length_a   4.97114080
_cell_length_b   4.97114080
_cell_length_c   6.21114100
_cell_angle_alpha   90.00000000
_cell_angle_beta   90.00000000
_cell_angle_gamma   112.00974972
_symmetry_Int_Tables_number   1
_chemical_formula_structural   Li2SO4
_chemical_formula_sum   'Li4 S2 O8'
_cell_volume   142.30478752
_cell_formula_units_Z   2
loop_
 _symmetry_equiv_pos_site_id
 _symmetry_equiv_pos_as_xyz
  1  'x, y, z'
loop_
 _atom_site_type_symbol
 _atom_site_label
 _atom_site_symmetry_multiplicity
 _atom_site_fract_x
 _atom_site_fract_y
 _atom_site_fract_z
 _atom_site_occupancy
  Li  Li0  1  0.50000000  0.50000000  0.50000000  1
  Li  Li1  1  0.17486600  0.82513400  0.25000000  1
  Li  Li2  1  0.50000000  0.50000000  0.00000000  1
  Li  Li3  1  0.82513400  0.17486600  0.75000000  1
  S  S4  1  0.14663800  0.85336200  0.75000000  1
  S  S5  1  0.85336200  0.14663800  0.25000000  1
  O  O6  1  0.74523800  0.82080400  0.25000000  1
  O  O7  1  0.17919600  0.25476200  0.25000000  1
  O  O8  1  0.74922900  0.25077100  0.44431200  1
  O  O9  1  0.25476200  0.17919600  0.75000000  1
  O  O10  1  0.74922900  0.25077100  0.05568800  1
  O  O11  1  0.82080400  0.74523800  0.75000000  1
  O  O12  1  0.25077100  0.74922900  0.55568800  1
  O  O13  1  0.25077100  0.74922900  0.94431200  1
