# generated using pymatgen
data_LiV(IO4)2
_symmetry_space_group_name_H-M   'P 1'
_cell_length_a   5.31626900
_cell_length_b   10.09191700
_cell_length_c   13.81231655
_cell_angle_alpha   61.96652486
_cell_angle_beta   90.00000000
_cell_angle_gamma   90.00000000
_symmetry_Int_Tables_number   1
_chemical_formula_structural   LiV(IO4)2
_chemical_formula_sum   'Li4 V4 I8 O32'
_cell_volume   654.10438164
_cell_formula_units_Z   4
loop_
 _symmetry_equiv_pos_site_id
 _symmetry_equiv_pos_as_xyz
  1  'x, y, z'
loop_
 _atom_site_type_symbol
 _atom_site_label
 _atom_site_symmetry_multiplicity
 _atom_site_fract_x
 _atom_site_fract_y
 _atom_site_fract_z
 _atom_site_occupancy
  Li  Li0  1  0.23443700  0.76335400  0.43636300  1
  Li  Li1  1  0.73443700  0.23664600  0.06363700  1
  Li  Li2  1  0.76556300  0.23664600  0.56363700  1
  Li  Li3  1  0.26556300  0.76335400  0.93636300  1
  V  V4  1  0.27802600  0.26707600  0.95005100  1
  V  V5  1  0.77802600  0.73292400  0.54994900  1
  V  V6  1  0.22197400  0.26707600  0.45005100  1
  V  V7  1  0.72197400  0.73292400  0.04994900  1
  I  I8  1  0.18251700  0.92479200  0.16931900  1
  I  I9  1  0.69495800  0.58343300  0.32872500  1
  I  I10  1  0.80504200  0.58343300  0.82872500  1
  I  I11  1  0.68251700  0.07520800  0.33068100  1
  I  I12  1  0.31748300  0.92479200  0.66931900  1
  I  I13  1  0.81748300  0.07520800  0.83068100  1
  I  I14  1  0.30504200  0.41656700  0.67127500  1
  I  I15  1  0.19495800  0.41656700  0.17127500  1
  O  O16  1  0.41282200  0.60690400  0.57819700  1
  O  O17  1  0.91935500  0.30554900  0.17658800  1
  O  O18  1  0.92840600  0.07469800  0.70681900  1
  O  O19  1  0.42840600  0.92530200  0.79318100  1
  O  O20  1  0.58064500  0.30554900  0.67658800  1
  O  O21  1  0.44327900  0.11486500  0.56435000  1
  O  O22  1  0.87090600  0.57378100  0.69724600  1
  O  O23  1  0.55672100  0.88513500  0.43565000  1
  O  O24  1  0.94327900  0.88513500  0.93565000  1
  O  O25  1  0.98030200  0.15251900  0.46868900  1
  O  O26  1  0.88012400  0.64235800  0.48127300  1
  O  O27  1  0.92291200  0.80983200  0.16041600  1
  O  O28  1  0.08717800  0.60690400  0.07819700  1
  O  O29  1  0.42291200  0.19016800  0.33958400  1
  O  O30  1  0.58717800  0.39309600  0.42180300  1
  O  O31  1  0.62909400  0.57378100  0.19724600  1
  O  O32  1  0.08064500  0.69445100  0.82341200  1
  O  O33  1  0.91282200  0.39309600  0.92180300  1
  O  O34  1  0.12909400  0.42621900  0.30275400  1
  O  O35  1  0.51969800  0.15251900  0.96868900  1
  O  O36  1  0.37090600  0.42621900  0.80275400  1
  O  O37  1  0.07708800  0.19016800  0.83958400  1
  O  O38  1  0.57159400  0.07469800  0.20681900  1
  O  O39  1  0.01969800  0.84748100  0.53131100  1
  O  O40  1  0.61987600  0.64235800  0.98127300  1
  O  O41  1  0.07159400  0.92530200  0.29318100  1
  O  O42  1  0.05672100  0.11486500  0.06435000  1
  O  O43  1  0.57708800  0.80983200  0.66041600  1
  O  O44  1  0.48030200  0.84748100  0.03131100  1
  O  O45  1  0.11987600  0.35764200  0.51872700  1
  O  O46  1  0.41935500  0.69445100  0.32341200  1
  O  O47  1  0.38012400  0.35764200  0.01872700  1
