# generated using pymatgen
data_Li4CO4
_symmetry_space_group_name_H-M   'P 1'
_cell_length_a   4.96619701
_cell_length_b   4.96619701
_cell_length_c   4.96619701
_cell_angle_alpha   129.41606180
_cell_angle_beta   129.41606180
_cell_angle_gamma   74.34202761
_symmetry_Int_Tables_number   1
_chemical_formula_structural   Li4CO4
_chemical_formula_sum   'Li4 C1 O4'
_cell_volume   71.25681310
_cell_formula_units_Z   1
loop_
 _symmetry_equiv_pos_site_id
 _symmetry_equiv_pos_as_xyz
  1  'x, y, z'
loop_
 _atom_site_type_symbol
 _atom_site_label
 _atom_site_symmetry_multiplicity
 _atom_site_fract_x
 _atom_site_fract_y
 _atom_site_fract_z
 _atom_site_occupancy
  Li  Li0  1  0.44353800  0.44353800  0.60118200  1
  Li  Li1  1  0.84235600  0.84235600  0.39881800  1
  Li  Li2  1  0.15764400  0.55646200  0.00000000  1
  Li  Li3  1  0.55646200  0.15764400  0.00000000  1
  C  C4  1  0.00000000  0.00000000  0.00000000  1
  O  O5  1  0.08597700  0.08597700  0.38375500  1
  O  O6  1  0.91402300  0.29777800  0.00000000  1
  O  O7  1  0.29777800  0.91402300  0.00000000  1
  O  O8  1  0.70222200  0.70222200  0.61624500  1
