# generated using pymatgen
data_KLi(PO3)2
_symmetry_space_group_name_H-M   'P 1'
_cell_length_a   5.61707400
_cell_length_b   13.99033400
_cell_length_c   15.68796053
_cell_angle_alpha   71.61403528
_cell_angle_beta   90.00000000
_cell_angle_gamma   90.00000000
_symmetry_Int_Tables_number   1
_chemical_formula_structural   KLi(PO3)2
_chemical_formula_sum   'K8 Li8 P16 O48'
_cell_volume   1169.90220370
_cell_formula_units_Z   8
loop_
 _symmetry_equiv_pos_site_id
 _symmetry_equiv_pos_as_xyz
  1  'x, y, z'
loop_
 _atom_site_type_symbol
 _atom_site_label
 _atom_site_symmetry_multiplicity
 _atom_site_fract_x
 _atom_site_fract_y
 _atom_site_fract_z
 _atom_site_occupancy
  K  K0  1  0.67516800  0.62494800  0.63265200  1
  K  K1  1  0.82483200  0.62494800  0.13265200  1
  K  K2  1  0.33279900  0.12398600  0.64022000  1
  K  K3  1  0.32483200  0.37505200  0.36734800  1
  K  K4  1  0.83279900  0.87601400  0.85978000  1
  K  K5  1  0.66720100  0.87601400  0.35978000  1
  K  K6  1  0.17516800  0.37505200  0.86734800  1
  K  K7  1  0.16720100  0.12398600  0.14022000  1
  Li  Li8  1  0.30486100  0.06980900  0.88986500  1
  Li  Li9  1  0.31617800  0.42706900  0.13724400  1
  Li  Li10  1  0.81617800  0.57293100  0.36275600  1
  Li  Li11  1  0.18382200  0.42706900  0.63724400  1
  Li  Li12  1  0.19513900  0.06980900  0.38986500  1
  Li  Li13  1  0.68382200  0.57293100  0.86275600  1
  Li  Li14  1  0.80486100  0.93019100  0.61013500  1
  Li  Li15  1  0.69513900  0.93019100  0.11013500  1
  P  P16  1  0.15075900  0.64196300  0.48501600  1
  P  P17  1  0.31647500  0.64567300  0.30701500  1
  P  P18  1  0.81647500  0.35432700  0.19298500  1
  P  P19  1  0.66800600  0.16039500  0.97953600  1
  P  P20  1  0.69151300  0.14411100  0.30727100  1
  P  P21  1  0.19151300  0.85588900  0.19272900  1
  P  P22  1  0.83199400  0.16039500  0.47953600  1
  P  P23  1  0.33199400  0.83960500  0.02046400  1
  P  P24  1  0.16800600  0.83960500  0.52046400  1
  P  P25  1  0.18352500  0.64567300  0.80701400  1
  P  P26  1  0.68352500  0.35432700  0.69298600  1
  P  P27  1  0.65075900  0.35803700  0.01498400  1
  P  P28  1  0.30848700  0.85588900  0.69272900  1
  P  P29  1  0.80848700  0.14411100  0.80727100  1
  P  P30  1  0.84924100  0.35803700  0.51498400  1
  P  P31  1  0.34924100  0.64196300  0.98501600  1
  O  O32  1  0.21951000  0.93448200  0.96199500  1
  O  O33  1  0.55759900  0.62418400  0.27712200  1
  O  O34  1  0.75434300  0.24666400  0.02156300  1
  O  O35  1  0.33733000  0.61709300  0.41598400  1
  O  O36  1  0.22223100  0.76671100  0.78152900  1
  O  O37  1  0.94051700  0.88442900  0.20634400  1
  O  O38  1  0.90441800  0.83400000  0.53868700  1
  O  O39  1  0.60028500  0.40380900  0.21599500  1
  O  O40  1  0.59558200  0.83400000  0.03868700  1
  O  O41  1  0.05759900  0.37581600  0.22287800  1
  O  O42  1  0.88367500  0.06529900  0.32712200  1
  O  O43  1  0.59844300  0.65066200  0.94853700  1
  O  O44  1  0.66267000  0.38290700  0.58401600  1
  O  O45  1  0.39971500  0.59619100  0.78400500  1
  O  O46  1  0.05948300  0.11557100  0.79365600  1
  O  O47  1  0.25434300  0.75333600  0.47843700  1
  O  O48  1  0.20453300  0.57192800  0.57693300  1
  O  O49  1  0.79546700  0.42807200  0.42306700  1
  O  O50  1  0.24565700  0.75333600  0.97843700  1
  O  O51  1  0.44240100  0.37581600  0.72287800  1
  O  O52  1  0.89971500  0.40380900  0.71599500  1
  O  O53  1  0.11632500  0.93470100  0.67287800  1
  O  O54  1  0.61632500  0.06529900  0.82712200  1
  O  O55  1  0.68873100  0.20093400  0.38350600  1
  O  O56  1  0.16267000  0.61709300  0.91598400  1
  O  O57  1  0.90155700  0.65066200  0.44853700  1
  O  O58  1  0.31126900  0.79906600  0.61649400  1
  O  O59  1  0.18873100  0.79906600  0.11649400  1
  O  O60  1  0.44051700  0.11557100  0.29365600  1
  O  O61  1  0.72223100  0.23328900  0.71847100  1
  O  O62  1  0.71951000  0.06551800  0.53800500  1
  O  O63  1  0.28049000  0.93448200  0.46199500  1
  O  O64  1  0.40155700  0.34933800  0.05146300  1
  O  O65  1  0.38367500  0.93470100  0.17287800  1
  O  O66  1  0.83733000  0.38290700  0.08401600  1
  O  O67  1  0.10028500  0.59619100  0.28400500  1
  O  O68  1  0.29546700  0.57192800  0.07693300  1
  O  O69  1  0.94240100  0.62418400  0.77712200  1
  O  O70  1  0.40441800  0.16600000  0.96131300  1
  O  O71  1  0.74565700  0.24666400  0.52156300  1
  O  O72  1  0.09844300  0.34933800  0.55146300  1
  O  O73  1  0.27776900  0.76671100  0.28152900  1
  O  O74  1  0.09558200  0.16600000  0.46131300  1
  O  O75  1  0.81126900  0.20093400  0.88350600  1
  O  O76  1  0.70453300  0.42807200  0.92306700  1
  O  O77  1  0.55948300  0.88442900  0.70634400  1
  O  O78  1  0.78049000  0.06551800  0.03800500  1
  O  O79  1  0.77776900  0.23328900  0.21847100  1
