# generated using pymatgen
data_SrLiAlF6
_symmetry_space_group_name_H-M   'P 1'
_cell_length_a   10.26708400
_cell_length_b   5.15717100
_cell_length_c   8.50670852
_cell_angle_alpha   88.93717268
_cell_angle_beta   90.00000000
_cell_angle_gamma   90.00000000
_symmetry_Int_Tables_number   1
_chemical_formula_structural   SrLiAlF6
_chemical_formula_sum   'Sr4 Li4 Al4 F24'
_cell_volume   450.34513488
_cell_formula_units_Z   4
loop_
 _symmetry_equiv_pos_site_id
 _symmetry_equiv_pos_as_xyz
  1  'x, y, z'
loop_
 _atom_site_type_symbol
 _atom_site_label
 _atom_site_symmetry_multiplicity
 _atom_site_fract_x
 _atom_site_fract_y
 _atom_site_fract_z
 _atom_site_occupancy
  Sr  Sr0  1  0.31435100  0.33039900  0.52536000  1
  Sr  Sr1  1  0.18564900  0.33039900  0.02536000  1
  Sr  Sr2  1  0.81435100  0.66960100  0.97464000  1
  Sr  Sr3  1  0.68564900  0.66960100  0.47464000  1
  Li  Li4  1  0.06864300  0.74460000  0.33217700  1
  Li  Li5  1  0.43135700  0.74460000  0.83217700  1
  Li  Li6  1  0.56864300  0.25540000  0.16782300  1
  Li  Li7  1  0.93135700  0.25540000  0.66782300  1
  Al  Al8  1  0.09704900  0.77437800  0.73920400  1
  Al  Al9  1  0.90295100  0.22562200  0.26079600  1
  Al  Al10  1  0.59704900  0.22562200  0.76079600  1
  Al  Al11  1  0.40295100  0.77437800  0.23920400  1
  F  F12  1  0.84598100  0.91754400  0.33309900  1
  F  F13  1  0.98252700  0.52469900  0.17611000  1
  F  F14  1  0.48252700  0.47530100  0.32389000  1
  F  F15  1  0.42899200  0.10540100  0.77617900  1
  F  F16  1  0.10178100  0.64088600  0.54492700  1
  F  F17  1  0.60178100  0.35911400  0.95507300  1
  F  F18  1  0.61710300  0.11965900  0.55945900  1
  F  F19  1  0.24248900  0.60593300  0.26765600  1
  F  F20  1  0.38289700  0.88034100  0.44054100  1
  F  F21  1  0.89821900  0.35911400  0.45507300  1
  F  F22  1  0.92899200  0.89459900  0.72382100  1
  F  F23  1  0.25751100  0.60593300  0.76765600  1
  F  F24  1  0.15401900  0.08245600  0.66690100  1
  F  F25  1  0.34598100  0.08245600  0.16690100  1
  F  F26  1  0.11710300  0.88034100  0.94054100  1
  F  F27  1  0.74248900  0.39406700  0.23234400  1
  F  F28  1  0.07100800  0.10540100  0.27617900  1
  F  F29  1  0.57100800  0.89459900  0.22382100  1
  F  F30  1  0.65401900  0.91754400  0.83309900  1
  F  F31  1  0.51747300  0.52469900  0.67611000  1
  F  F32  1  0.75751100  0.39406700  0.73234400  1
  F  F33  1  0.88289700  0.11965900  0.05945900  1
  F  F34  1  0.39821900  0.64088600  0.04492700  1
  F  F35  1  0.01747300  0.47530100  0.82389000  1
