# generated using pymatgen
data_Na5LiN2
_symmetry_space_group_name_H-M   'P 1'
_cell_length_a   4.32900103
_cell_length_b   4.32900103
_cell_length_c   6.14606325
_cell_angle_alpha   88.97219952
_cell_angle_beta   88.97219952
_cell_angle_gamma   91.45126974
_symmetry_Int_Tables_number   1
_chemical_formula_structural   Na5LiN2
_chemical_formula_sum   'Na5 Li1 N2'
_cell_volume   115.10379882
_cell_formula_units_Z   1
loop_
 _symmetry_equiv_pos_site_id
 _symmetry_equiv_pos_as_xyz
  1  'x, y, z'
loop_
 _atom_site_type_symbol
 _atom_site_label
 _atom_site_symmetry_multiplicity
 _atom_site_fract_x
 _atom_site_fract_y
 _atom_site_fract_z
 _atom_site_occupancy
  Na  Na0  1  0.62566900  0.37433100  0.00000000  1
  Na  Na1  1  0.56813600  0.85363800  0.21432300  1
  Na  Na2  1  0.08299700  0.91700300  0.50000000  1
  Na  Na3  1  0.61673800  0.38326200  0.50000000  1
  Na  Na4  1  0.14636200  0.43186400  0.78567700  1
  Li  Li5  1  0.09929100  0.90070900  0.00000000  1
  N  N6  1  0.10904300  0.42723600  0.22240800  1
  N  N7  1  0.57276400  0.89095700  0.77759200  1
