# generated using pymatgen
data_NaLiV2O6
_symmetry_space_group_name_H-M   'P 1'
_cell_length_a   6.95554002
_cell_length_b   6.95554002
_cell_length_c   5.91184589
_cell_angle_alpha   75.30011700
_cell_angle_beta   75.30011700
_cell_angle_gamma   83.22738006
_symmetry_Int_Tables_number   1
_chemical_formula_structural   NaLiV2O6
_chemical_formula_sum   'Na2 Li2 V4 O12'
_cell_volume   267.15697188
_cell_formula_units_Z   2
loop_
 _symmetry_equiv_pos_site_id
 _symmetry_equiv_pos_as_xyz
  1  'x, y, z'
loop_
 _atom_site_type_symbol
 _atom_site_label
 _atom_site_symmetry_multiplicity
 _atom_site_fract_x
 _atom_site_fract_y
 _atom_site_fract_z
 _atom_site_occupancy
  Na  Na0  1  0.28646800  0.71353200  0.75000000  1
  Na  Na1  1  0.71353200  0.28646800  0.25000000  1
  Li  Li2  1  0.91204100  0.08795900  0.75000000  1
  Li  Li3  1  0.08795900  0.91204100  0.25000000  1
  V  V4  1  0.19605600  0.38004700  0.25566100  1
  V  V5  1  0.61995300  0.80394400  0.24433900  1
  V  V6  1  0.38004700  0.19605600  0.75566100  1
  V  V7  1  0.80394400  0.61995300  0.74433900  1
  O  O8  1  0.97864500  0.78971400  0.64420000  1
  O  O9  1  0.64414000  0.64594900  0.53482900  1
  O  O10  1  0.61192600  0.09261100  0.70310300  1
  O  O11  1  0.21028600  0.02135500  0.85580000  1
  O  O12  1  0.90738900  0.38807400  0.79689700  1
  O  O13  1  0.64594900  0.64414000  0.03482900  1
  O  O14  1  0.02135500  0.21028600  0.35580000  1
  O  O15  1  0.35586000  0.35405100  0.46517100  1
  O  O16  1  0.38807400  0.90738900  0.29689700  1
  O  O17  1  0.78971400  0.97864500  0.14420000  1
  O  O18  1  0.09261100  0.61192600  0.20310300  1
  O  O19  1  0.35405100  0.35586000  0.96517100  1
