# generated using pymatgen
data_LiCr3O8
_symmetry_space_group_name_H-M   'P 1'
_cell_length_a   5.53190014
_cell_length_b   8.30248283
_cell_length_c   8.10267733
_cell_angle_alpha   76.25440995
_cell_angle_beta   109.95961143
_cell_angle_gamma   70.54307793
_symmetry_Int_Tables_number   1
_chemical_formula_structural   LiCr3O8
_chemical_formula_sum   'Li2 Cr6 O16'
_cell_volume   302.79482283
_cell_formula_units_Z   2
loop_
 _symmetry_equiv_pos_site_id
 _symmetry_equiv_pos_as_xyz
  1  'x, y, z'
loop_
 _atom_site_type_symbol
 _atom_site_label
 _atom_site_symmetry_multiplicity
 _atom_site_fract_x
 _atom_site_fract_y
 _atom_site_fract_z
 _atom_site_occupancy
  Li  Li0  1  0.99999500  0.00001200  0.99999500  1
  Li  Li1  1  0.99998600  0.50000000  0.49995900  1
  Cr  Cr2  1  0.00009800  0.24988200  0.25004300  1
  Cr  Cr3  1  0.99994300  0.75006400  0.74997700  1
  Cr  Cr4  1  0.64587000  0.22368400  0.51541800  1
  Cr  Cr5  1  0.35407900  0.77627300  0.48444300  1
  Cr  Cr6  1  0.35427100  0.27619500  0.98470200  1
  Cr  Cr7  1  0.64578300  0.72382400  0.01542100  1
  O  O8  1  0.25329000  0.76945300  0.27598900  1
  O  O9  1  0.25351900  0.26933100  0.77627700  1
  O  O10  1  0.74651600  0.73074400  0.22385800  1
  O  O11  1  0.74662900  0.23057600  0.72387700  1
  O  O12  1  0.23125800  0.99661200  0.45909200  1
  O  O13  1  0.23117600  0.49667200  0.95900000  1
  O  O14  1  0.76880100  0.50339400  0.04103300  1
  O  O15  1  0.76878800  0.00334400  0.54095400  1
  O  O16  1  0.72249200  0.66754300  0.60473900  1
  O  O17  1  0.72265400  0.16751600  0.10488800  1
  O  O18  1  0.27739700  0.83248500  0.89513000  1
  O  O19  1  0.27745200  0.33241900  0.39523000  1
  O  O20  1  0.21456900  0.66757800  0.60467200  1
  O  O21  1  0.21465000  0.16753500  0.10483300  1
  O  O22  1  0.78530000  0.83247500  0.89517200  1
  O  O23  1  0.78548300  0.33239100  0.39529600  1
