# generated using pymatgen
data_Li9Bi3P8O29
_symmetry_space_group_name_H-M   'P 1'
_cell_length_a   10.32720622
_cell_length_b   10.32720622
_cell_length_c   14.16363900
_cell_angle_alpha   90.00000000
_cell_angle_beta   90.00000000
_cell_angle_gamma   120.00000141
_symmetry_Int_Tables_number   1
_chemical_formula_structural   Li9Bi3P8O29
_chemical_formula_sum   'Li18 Bi6 P16 O58'
_cell_volume   1308.19104908
_cell_formula_units_Z   2
loop_
 _symmetry_equiv_pos_site_id
 _symmetry_equiv_pos_as_xyz
  1  'x, y, z'
loop_
 _atom_site_type_symbol
 _atom_site_label
 _atom_site_symmetry_multiplicity
 _atom_site_fract_x
 _atom_site_fract_y
 _atom_site_fract_z
 _atom_site_occupancy
  Li  Li0  1  0.22270500  0.32840300  0.56103400  1
  Li  Li1  1  0.32840300  0.22270500  0.93896600  1
  Li  Li2  1  0.67159700  0.89430200  0.56103400  1
  Li  Li3  1  0.67159700  0.77729500  0.06103400  1
  Li  Li4  1  0.10569800  0.32840300  0.06103400  1
  Li  Li5  1  0.77729500  0.67159700  0.43896600  1
  Li  Li6  1  0.66666700  0.33333300  0.12168300  1
  Li  Li7  1  0.33333300  0.66666700  0.87831700  1
  Li  Li8  1  0.89430200  0.22270500  0.43896600  1
  Li  Li9  1  0.77729500  0.10569800  0.93896600  1
  Li  Li10  1  0.00000000  0.00000000  0.00000000  1
  Li  Li11  1  0.00000000  0.00000000  0.50000000  1
  Li  Li12  1  0.22270500  0.89430200  0.06103400  1
  Li  Li13  1  0.66666700  0.33333300  0.62168300  1
  Li  Li14  1  0.10569800  0.77729500  0.56103400  1
  Li  Li15  1  0.33333300  0.66666700  0.37831700  1
  Li  Li16  1  0.89430200  0.67159700  0.93896600  1
  Li  Li17  1  0.32840300  0.10569800  0.43896600  1
  Bi  Bi18  1  0.56144800  0.56144800  0.25000000  1
  Bi  Bi19  1  0.56144800  0.00000000  0.75000000  1
  Bi  Bi20  1  0.43855200  0.43855200  0.75000000  1
  Bi  Bi21  1  0.43855200  0.00000000  0.25000000  1
  Bi  Bi22  1  0.00000000  0.56144800  0.75000000  1
  Bi  Bi23  1  0.00000000  0.43855200  0.25000000  1
  P  P24  1  0.91076900  0.69528800  0.15364500  1
  P  P25  1  0.33333300  0.66666700  0.11044900  1
  P  P26  1  0.08923100  0.78451900  0.34635500  1
  P  P27  1  0.66666700  0.33333300  0.88955100  1
  P  P28  1  0.33333300  0.66666700  0.61044900  1
  P  P29  1  0.08923100  0.30471200  0.84635500  1
  P  P30  1  0.78451900  0.08923100  0.15364500  1
  P  P31  1  0.78451900  0.69528800  0.65364500  1
  P  P32  1  0.30471200  0.08923100  0.65364500  1
  P  P33  1  0.91076900  0.21548100  0.65364500  1
  P  P34  1  0.66666700  0.33333300  0.38955100  1
  P  P35  1  0.21548100  0.30471200  0.34635500  1
  P  P36  1  0.69528800  0.91076900  0.34635500  1
  P  P37  1  0.21548100  0.91076900  0.84635500  1
  P  P38  1  0.69528800  0.78451900  0.84635500  1
  P  P39  1  0.30471200  0.21548100  0.15364500  1
  O  O40  1  0.06251000  0.29654200  0.34720000  1
  O  O41  1  0.34037700  0.47000300  0.34188500  1
  O  O42  1  0.00000000  0.22203100  0.75000000  1
  O  O43  1  0.76596800  0.70345800  0.15280000  1
  O  O44  1  0.52999700  0.87037400  0.34188500  1
  O  O45  1  0.23403200  0.93749000  0.34720000  1
  O  O46  1  0.30532700  0.51141800  0.64841800  1
  O  O47  1  0.48858200  0.69467300  0.14841800  1
  O  O48  1  0.87037400  0.52999700  0.15811500  1
  O  O49  1  0.22458600  0.00564100  0.93132800  1
  O  O50  1  0.22458600  0.21894500  0.43132800  1
  O  O51  1  0.30532700  0.79390900  0.14841800  1
  O  O52  1  0.52999700  0.65962300  0.84188500  1
  O  O53  1  0.29654200  0.06251000  0.15280000  1
  O  O54  1  0.20609100  0.69467300  0.64841800  1
  O  O55  1  0.12962600  0.47000300  0.84188500  1
  O  O56  1  0.00564100  0.22458600  0.56867200  1
  O  O57  1  0.69467300  0.20609100  0.85158200  1
  O  O58  1  0.65962300  0.52999700  0.65811500  1
  O  O59  1  0.70345800  0.76596800  0.34720000  1
  O  O60  1  0.77796900  0.00000000  0.25000000  1
  O  O61  1  0.34037700  0.87037400  0.84188500  1
  O  O62  1  0.23403200  0.29654200  0.84720000  1
  O  O63  1  0.93749000  0.23403200  0.15280000  1
  O  O64  1  0.22203100  0.22203100  0.25000000  1
  O  O65  1  0.69467300  0.48858200  0.35158200  1
  O  O66  1  0.87037400  0.34037700  0.65811500  1
  O  O67  1  0.12962600  0.65962300  0.34188500  1
  O  O68  1  0.48858200  0.79390900  0.64841800  1
  O  O69  1  0.00000000  0.77796900  0.25000000  1
  O  O70  1  0.76596800  0.06251000  0.65280000  1
  O  O71  1  0.66666700  0.33333300  0.99576700  1
  O  O72  1  0.99435900  0.77541400  0.43132800  1
  O  O73  1  0.78105500  0.77541400  0.93132800  1
  O  O74  1  0.06251000  0.76596800  0.84720000  1
  O  O75  1  0.65962300  0.12962600  0.15811500  1
  O  O76  1  0.93749000  0.70345800  0.65280000  1
  O  O77  1  0.33333300  0.66666700  0.00423300  1
  O  O78  1  0.77541400  0.78105500  0.56867200  1
  O  O79  1  0.51141800  0.20609100  0.35158200  1
  O  O80  1  0.51141800  0.30532700  0.85158200  1
  O  O81  1  0.78105500  0.00564100  0.43132800  1
  O  O82  1  0.33333300  0.66666700  0.50423300  1
  O  O83  1  0.77796900  0.77796900  0.75000000  1
  O  O84  1  0.22203100  0.00000000  0.75000000  1
  O  O85  1  0.21894500  0.99435900  0.56867200  1
  O  O86  1  0.47000300  0.12962600  0.65811500  1
  O  O87  1  0.00564100  0.78105500  0.06867200  1
  O  O88  1  0.66666700  0.33333300  0.49576700  1
  O  O89  1  0.29654200  0.23403200  0.65280000  1
  O  O90  1  0.79390900  0.48858200  0.85158200  1
  O  O91  1  0.47000300  0.34037700  0.15811500  1
  O  O92  1  0.77541400  0.99435900  0.06867200  1
  O  O93  1  0.70345800  0.93749000  0.84720000  1
  O  O94  1  0.99435900  0.21894500  0.93132800  1
  O  O95  1  0.20609100  0.51141800  0.14841800  1
  O  O96  1  0.21894500  0.22458600  0.06867200  1
  O  O97  1  0.79390900  0.30532700  0.35158200  1
