# generated using pymatgen
data_Li10Mg7Cl24
_symmetry_space_group_name_H-M   'P 1'
_cell_length_a   7.43471665
_cell_length_b   7.43471665
_cell_length_c   36.32991626
_cell_angle_alpha   89.91049480
_cell_angle_beta   89.91049480
_cell_angle_gamma   60.25396622
_symmetry_Int_Tables_number   1
_chemical_formula_structural   Li10Mg7Cl24
_chemical_formula_sum   'Li20 Mg14 Cl48'
_cell_volume   1743.52789879
_cell_formula_units_Z   2
loop_
 _symmetry_equiv_pos_site_id
 _symmetry_equiv_pos_as_xyz
  1  'x, y, z'
loop_
 _atom_site_type_symbol
 _atom_site_label
 _atom_site_symmetry_multiplicity
 _atom_site_fract_x
 _atom_site_fract_y
 _atom_site_fract_z
 _atom_site_occupancy
  Li  Li0  1  0.34077800  0.34077800  0.08247400  1
  Li  Li1  1  0.17436200  0.17436200  0.35633800  1
  Li  Li2  1  0.99977100  0.99977100  0.25068000  1
  Li  Li3  1  0.84074300  0.84074300  0.52270200  1
  Li  Li4  1  0.83306000  0.83306000  0.33325400  1
  Li  Li5  1  0.82612400  0.82612400  0.14603700  1
  Li  Li6  1  0.66670300  0.66670300  0.41660100  1
  Li  Li7  1  0.50009400  0.50009400  0.49995600  1
  Li  Li8  1  0.50761500  0.50761500  0.68934600  1
  Li  Li9  1  0.49261800  0.49261800  0.31020000  1
  Li  Li10  1  0.33334600  0.33334600  0.58339000  1
  Li  Li11  1  0.17477200  0.17477200  0.85449600  1
  Li  Li12  1  0.16660400  0.16660400  0.66674800  1
  Li  Li13  1  0.15907400  0.15907400  0.47727000  1
  Li  Li14  1  0.99991200  0.99991200  0.74980900  1
  Li  Li15  1  0.83315100  0.83315100  0.83208200  1
  Li  Li16  1  0.82610600  0.82610600  0.64399500  1
  Li  Li17  1  0.67344400  0.67344400  0.91599300  1
  Li  Li18  1  0.49241700  0.49241700  0.81058600  1
  Li  Li19  1  0.15851600  0.15851600  0.98049100  1
  Mg  Mg20  1  0.33991300  0.82169100  0.08268000  1
  Mg  Mg21  1  0.00275200  0.49740600  0.24989500  1
  Mg  Mg22  1  0.16878600  0.16878600  0.16913800  1
  Mg  Mg23  1  0.82169100  0.33991300  0.08268000  1
  Mg  Mg24  1  0.66644800  0.16653600  0.41665400  1
  Mg  Mg25  1  0.49740600  0.00275200  0.24989500  1
  Mg  Mg26  1  0.33331700  0.83332500  0.58344400  1
  Mg  Mg27  1  0.16653600  0.66644800  0.41665400  1
  Mg  Mg28  1  0.00035900  0.50037500  0.74980700  1
  Mg  Mg29  1  0.83332500  0.33331700  0.58344400  1
  Mg  Mg30  1  0.67088300  0.15750200  0.91605400  1
  Mg  Mg31  1  0.50037500  0.00035900  0.74980700  1
  Mg  Mg32  1  0.15750200  0.67088300  0.91605400  1
  Mg  Mg33  1  0.50076200  0.50076200  0.00273000  1
  Cl  Cl34  1  0.66100500  0.66100500  0.04252500  1
  Cl  Cl35  1  0.50521200  0.50521200  0.12094000  1
  Cl  Cl36  1  0.19129200  0.66168800  0.04240100  1
  Cl  Cl37  1  0.66168800  0.19129200  0.04240100  1
  Cl  Cl38  1  0.00836700  0.47357100  0.12391400  1
  Cl  Cl39  1  0.32568200  0.32568200  0.20979900  1
  Cl  Cl40  1  0.47357100  0.00836700  0.12391400  1
  Cl  Cl41  1  0.86237300  0.32536500  0.20949400  1
  Cl  Cl42  1  0.16967600  0.16967600  0.28914400  1
  Cl  Cl43  1  0.16311400  0.16311400  0.04633600  1
  Cl  Cl44  1  0.00898200  0.00898200  0.12381500  1
  Cl  Cl45  1  0.32536500  0.86237300  0.20949400  1
  Cl  Cl46  1  0.67111700  0.14440600  0.28916300  1
  Cl  Cl47  1  0.99303200  0.99303200  0.37716200  1
  Cl  Cl48  1  0.14440600  0.67111700  0.28916300  1
  Cl  Cl49  1  0.83667800  0.83667800  0.45538100  1
  Cl  Cl50  1  0.52239700  0.99487200  0.37720200  1
  Cl  Cl51  1  0.82986800  0.82986800  0.21151500  1
  Cl  Cl52  1  0.67281600  0.67281600  0.28858000  1
  Cl  Cl53  1  0.99487200  0.52239700  0.37720200  1
  Cl  Cl54  1  0.33762700  0.81081700  0.45626500  1
  Cl  Cl55  1  0.65966000  0.65966000  0.54394200  1
  Cl  Cl56  1  0.18838200  0.66200300  0.54408000  1
  Cl  Cl57  1  0.81081700  0.33762700  0.45626500  1
  Cl  Cl58  1  0.50335200  0.50335200  0.62207300  1
  Cl  Cl59  1  0.49637300  0.49637300  0.37792600  1
  Cl  Cl60  1  0.66200300  0.18838200  0.54408000  1
  Cl  Cl61  1  0.34009900  0.34009900  0.45622500  1
  Cl  Cl62  1  0.00434100  0.47800600  0.62296200  1
  Cl  Cl63  1  0.32670500  0.32670500  0.71049800  1
  Cl  Cl64  1  0.47800600  0.00434100  0.62296200  1
  Cl  Cl65  1  0.16991100  0.16991100  0.78832000  1
  Cl  Cl66  1  0.85540000  0.32945700  0.71055700  1
  Cl  Cl67  1  0.16314600  0.16314600  0.54480100  1
  Cl  Cl68  1  0.00706000  0.00706000  0.62303800  1
  Cl  Cl69  1  0.32945700  0.85540000  0.71055700  1
  Cl  Cl70  1  0.67119700  0.14459500  0.78960300  1
  Cl  Cl71  1  0.99582100  0.99582100  0.87670700  1
  Cl  Cl72  1  0.14459500  0.67119700  0.78960300  1
  Cl  Cl73  1  0.83854500  0.83854500  0.95337300  1
  Cl  Cl74  1  0.51870600  0.99588700  0.87676000  1
  Cl  Cl75  1  0.83029100  0.83029100  0.71146200  1
  Cl  Cl76  1  0.67349700  0.67349700  0.78967800  1
  Cl  Cl77  1  0.99588700  0.51870600  0.87676000  1
  Cl  Cl78  1  0.34189600  0.80626200  0.95759700  1
  Cl  Cl79  1  0.80626200  0.34189600  0.95759700  1
  Cl  Cl80  1  0.49500900  0.49500900  0.87928700  1
  Cl  Cl81  1  0.34184400  0.34184400  0.95776000  1
