# generated using pymatgen
data_Li21Mo11O32
_symmetry_space_group_name_H-M   'P 1'
_cell_length_a   11.87888376
_cell_length_b   11.87888376
_cell_length_c   5.25932172
_cell_angle_alpha   82.17496091
_cell_angle_beta   82.17496091
_cell_angle_gamma   61.91050099
_symmetry_Int_Tables_number   1
_chemical_formula_structural   Li21Mo11O32
_chemical_formula_sum   'Li21 Mo11 O32'
_cell_volume   646.41463394
_cell_formula_units_Z   1
loop_
 _symmetry_equiv_pos_site_id
 _symmetry_equiv_pos_as_xyz
  1  'x, y, z'
loop_
 _atom_site_type_symbol
 _atom_site_label
 _atom_site_symmetry_multiplicity
 _atom_site_fract_x
 _atom_site_fract_y
 _atom_site_fract_z
 _atom_site_occupancy
  Li  Li0  1  0.37184500  0.37184500  0.74502000  1
  Li  Li1  1  0.35715200  0.64284800  0.50000000  1
  Li  Li2  1  0.87260300  0.63433000  0.99046900  1
  Li  Li3  1  0.36567000  0.12739700  0.00953100  1
  Li  Li4  1  0.62815500  0.62815500  0.25498000  1
  Li  Li5  1  0.36381000  0.87776500  0.25279500  1
  Li  Li6  1  0.75292700  0.75292700  0.50032800  1
  Li  Li7  1  0.63433000  0.87260300  0.99046900  1
  Li  Li8  1  0.12739700  0.36567000  0.00953100  1
  Li  Li9  1  0.63619000  0.12223500  0.74720500  1
  Li  Li10  1  0.88119400  0.88119400  0.74522900  1
  Li  Li11  1  0.12223500  0.63619000  0.74720500  1
  Li  Li12  1  0.00000000  0.00000000  0.00000000  1
  Li  Li13  1  0.76279900  0.23720100  0.00000000  1
  Li  Li14  1  0.23720100  0.76279900  0.00000000  1
  Li  Li15  1  0.11354700  0.88645300  0.50000000  1
  Li  Li16  1  0.88645300  0.11354700  0.50000000  1
  Li  Li17  1  0.64284800  0.35715200  0.50000000  1
  Li  Li18  1  0.11880600  0.11880600  0.25477100  1
  Li  Li19  1  0.87776500  0.36381000  0.25279500  1
  Li  Li20  1  0.24707300  0.24707300  0.49967200  1
  Mo  Mo21  1  0.50000000  0.50000000  0.00000000  1
  Mo  Mo22  1  0.75318300  0.49715000  0.75525900  1
  Mo  Mo23  1  0.49715000  0.75318300  0.75525900  1
  Mo  Mo24  1  0.50000000  0.00000000  0.50000000  1
  Mo  Mo25  1  0.00000000  0.50000000  0.50000000  1
  Mo  Mo26  1  0.75128400  0.00413200  0.23888500  1
  Mo  Mo27  1  0.00413200  0.75128400  0.23888500  1
  Mo  Mo28  1  0.50285000  0.24681700  0.24474100  1
  Mo  Mo29  1  0.24681700  0.50285000  0.24474100  1
  Mo  Mo30  1  0.24871600  0.99586800  0.76111500  1
  Mo  Mo31  1  0.99586800  0.24871600  0.76111500  1
  O  O32  1  0.43580500  0.43580500  0.36472400  1
  O  O33  1  0.68070200  0.44229100  0.10572700  1
  O  O34  1  0.44229100  0.68070200  0.10572700  1
  O  O35  1  0.56419500  0.56419500  0.63527600  1
  O  O36  1  0.44100100  0.93849000  0.87521400  1
  O  O37  1  0.93849000  0.44100100  0.87521400  1
  O  O38  1  0.68062700  0.68062700  0.87142400  1
  O  O39  1  0.55683400  0.81786500  0.40272900  1
  O  O40  1  0.81786500  0.55683400  0.40272900  1
  O  O41  1  0.68102000  0.94268500  0.60418400  1
  O  O42  1  0.18213500  0.44316600  0.59727100  1
  O  O43  1  0.44316600  0.18213500  0.59727100  1
  O  O44  1  0.94268500  0.68102000  0.60418400  1
  O  O45  1  0.55899900  0.06151000  0.12478600  1
  O  O46  1  0.06151000  0.55899900  0.12478600  1
  O  O47  1  0.81741400  0.81741400  0.14244000  1
  O  O48  1  0.68368800  0.18340000  0.37403700  1
  O  O49  1  0.93451200  0.93451200  0.37111100  1
  O  O50  1  0.18340000  0.68368800  0.37403700  1
  O  O51  1  0.80571200  0.05926300  0.89971500  1
  O  O52  1  0.55770900  0.31929800  0.89427300  1
  O  O53  1  0.31929800  0.55770900  0.89427300  1
  O  O54  1  0.05926300  0.80571200  0.89971500  1
  O  O55  1  0.19428800  0.94073700  0.10028500  1
  O  O56  1  0.94073700  0.19428800  0.10028500  1
  O  O57  1  0.06548800  0.06548800  0.62888900  1
  O  O58  1  0.31631200  0.81660000  0.62596300  1
  O  O59  1  0.81660000  0.31631200  0.62596300  1
  O  O60  1  0.18258600  0.18258600  0.85756000  1
  O  O61  1  0.31898000  0.05731500  0.39581600  1
  O  O62  1  0.05731500  0.31898000  0.39581600  1
  O  O63  1  0.31937300  0.31937300  0.12857600  1
