# generated using pymatgen
data_Li4Mn3Cl10
_symmetry_space_group_name_H-M   'P 1'
_cell_length_a   7.45668967
_cell_length_b   7.45668967
_cell_length_c   30.75064174
_cell_angle_alpha   83.21404672
_cell_angle_beta   83.21404672
_cell_angle_gamma   60.53251907
_symmetry_Int_Tables_number   1
_chemical_formula_structural   Li4Mn3Cl10
_chemical_formula_sum   'Li16 Mn12 Cl40'
_cell_volume   1474.61854845
_cell_formula_units_Z   4
loop_
 _symmetry_equiv_pos_site_id
 _symmetry_equiv_pos_as_xyz
  1  'x, y, z'
loop_
 _atom_site_type_symbol
 _atom_site_label
 _atom_site_symmetry_multiplicity
 _atom_site_fract_x
 _atom_site_fract_y
 _atom_site_fract_z
 _atom_site_occupancy
  Li  Li0  1  0.69333500  0.69333500  0.90092200  1
  Li  Li1  1  0.96854800  0.96854800  0.57258100  1
  Li  Li2  1  0.09850300  0.09850300  0.70015700  1
  Li  Li3  1  0.23272000  0.23272000  0.82479100  1
  Li  Li4  1  0.36838800  0.36838800  0.37289700  1
  Li  Li5  1  0.30041100  0.30041100  0.60007200  1
  Li  Li6  1  0.50005600  0.50005600  0.50005200  1
  Li  Li7  1  0.63103300  0.63103300  0.62761700  1
  Li  Li8  1  0.76779500  0.76779500  0.17434300  1
  Li  Li9  1  0.69981400  0.69981400  0.40009900  1
  Li  Li10  1  0.89986400  0.89986400  0.30023000  1
  Li  Li11  1  0.03162700  0.03162700  0.42717100  1
  Li  Li12  1  0.09987900  0.09987900  0.20119500  1
  Li  Li13  1  0.29507400  0.29507400  0.10075300  1
  Li  Li14  1  0.43170800  0.43170800  0.22669700  1
  Li  Li15  1  0.83368900  0.83368900  0.02349400  1
  Mn  Mn16  1  0.50103800  0.50103800  0.99708400  1
  Mn  Mn17  1  0.60128000  0.09719000  0.69984200  1
  Mn  Mn18  1  0.90064800  0.90064800  0.79648500  1
  Mn  Mn19  1  0.69366800  0.21105500  0.90071600  1
  Mn  Mn20  1  0.21105500  0.69366800  0.90071600  1
  Mn  Mn21  1  0.00004400  0.50015000  0.49995100  1
  Mn  Mn22  1  0.50015000  0.00004400  0.49995100  1
  Mn  Mn23  1  0.09719000  0.60128000  0.69984200  1
  Mn  Mn24  1  0.39988200  0.90015000  0.30013900  1
  Mn  Mn25  1  0.90015000  0.39988200  0.30013900  1
  Mn  Mn26  1  0.80932900  0.29608400  0.10102100  1
  Mn  Mn27  1  0.29608400  0.80932900  0.10102100  1
  Cl  Cl28  1  0.35512800  0.35512800  0.94892400  1
  Cl  Cl29  1  0.35607500  0.82658100  0.94925600  1
  Cl  Cl30  1  0.54318800  0.54318800  0.85503100  1
  Cl  Cl31  1  0.82658100  0.35607500  0.94925600  1
  Cl  Cl32  1  0.75690900  0.75690900  0.74770400  1
  Cl  Cl33  1  0.57562100  0.03936200  0.85103700  1
  Cl  Cl34  1  0.94656300  0.94656300  0.65246200  1
  Cl  Cl35  1  0.75564300  0.22214900  0.74804500  1
  Cl  Cl36  1  0.03936200  0.57562100  0.85103700  1
  Cl  Cl37  1  0.85452900  0.85452900  0.94462300  1
  Cl  Cl38  1  0.22214900  0.75564300  0.74804500  1
  Cl  Cl39  1  0.04257100  0.04257100  0.85122300  1
  Cl  Cl40  1  0.15722400  0.15722400  0.54777700  1
  Cl  Cl41  1  0.97136000  0.44334300  0.65266500  1
  Cl  Cl42  1  0.15692900  0.62838900  0.54745100  1
  Cl  Cl43  1  0.25229300  0.25229300  0.74607100  1
  Cl  Cl44  1  0.34649700  0.34649700  0.45320200  1
  Cl  Cl45  1  0.44334300  0.97136000  0.65266500  1
  Cl  Cl46  1  0.62838900  0.15692900  0.54745100  1
  Cl  Cl47  1  0.44265700  0.44265700  0.65278400  1
  Cl  Cl48  1  0.55689000  0.55689000  0.34777000  1
  Cl  Cl49  1  0.37173800  0.84340200  0.45240300  1
  Cl  Cl50  1  0.65381000  0.65381000  0.54680000  1
  Cl  Cl51  1  0.74658200  0.74658200  0.25356300  1
  Cl  Cl52  1  0.55690100  0.02893100  0.34748400  1
  Cl  Cl53  1  0.84340200  0.37173800  0.45240300  1
  Cl  Cl54  1  0.02893100  0.55690100  0.34748400  1
  Cl  Cl55  1  0.84304600  0.84304600  0.45201300  1
  Cl  Cl56  1  0.95503300  0.95503300  0.14869700  1
  Cl  Cl57  1  0.77135100  0.24345500  0.25219000  1
  Cl  Cl58  1  0.24345500  0.77135100  0.25219000  1
  Cl  Cl59  1  0.05356800  0.05356800  0.34665200  1
  Cl  Cl60  1  0.14315700  0.14315700  0.05600300  1
  Cl  Cl61  1  0.95758900  0.43178500  0.14842900  1
  Cl  Cl62  1  0.43178500  0.95758900  0.14842900  1
  Cl  Cl63  1  0.24329900  0.24329900  0.25194300  1
  Cl  Cl64  1  0.17461500  0.63997000  0.05114500  1
  Cl  Cl65  1  0.63997000  0.17461500  0.05114500  1
  Cl  Cl66  1  0.45575700  0.45575700  0.14545300  1
  Cl  Cl67  1  0.64314700  0.64314700  0.05111500  1
