# generated using pymatgen
data_LiNdGeO4
_symmetry_space_group_name_H-M   'P 1'
_cell_length_a   5.15458200
_cell_length_b   5.45643500
_cell_length_c   12.04876600
_cell_angle_alpha   90.00000000
_cell_angle_beta   90.00000000
_cell_angle_gamma   90.00000000
_symmetry_Int_Tables_number   1
_chemical_formula_structural   LiNdGeO4
_chemical_formula_sum   'Li4 Nd4 Ge4 O16'
_cell_volume   338.87927466
_cell_formula_units_Z   4
loop_
 _symmetry_equiv_pos_site_id
 _symmetry_equiv_pos_as_xyz
  1  'x, y, z'
loop_
 _atom_site_type_symbol
 _atom_site_label
 _atom_site_symmetry_multiplicity
 _atom_site_fract_x
 _atom_site_fract_y
 _atom_site_fract_z
 _atom_site_occupancy
  Li  Li0  1  0.50000000  0.25000000  0.73301400  1
  Li  Li1  1  0.50000000  0.75000000  0.26698600  1
  Li  Li2  1  0.00000000  0.75000000  0.76698600  1
  Li  Li3  1  0.00000000  0.25000000  0.23301400  1
  Nd  Nd4  1  0.50000000  0.25000000  0.38747100  1
  Nd  Nd5  1  0.50000000  0.75000000  0.61252900  1
  Nd  Nd6  1  0.00000000  0.25000000  0.88747100  1
  Nd  Nd7  1  0.00000000  0.75000000  0.11252900  1
  Ge  Ge8  1  0.50000000  0.75000000  0.88952900  1
  Ge  Ge9  1  0.50000000  0.25000000  0.11047100  1
  Ge  Ge10  1  0.00000000  0.75000000  0.38952900  1
  Ge  Ge11  1  0.00000000  0.25000000  0.61047100  1
  O  O12  1  0.24914800  0.58515300  0.95708400  1
  O  O13  1  0.25085200  0.58515300  0.45708400  1
  O  O14  1  0.67616400  0.54714800  0.79752500  1
  O  O15  1  0.67616400  0.04714800  0.20247500  1
  O  O16  1  0.82383600  0.04714800  0.70247500  1
  O  O17  1  0.32383600  0.45285200  0.20247500  1
  O  O18  1  0.32383600  0.95285200  0.79752500  1
  O  O19  1  0.74914800  0.91484700  0.45708400  1
  O  O20  1  0.82383600  0.54714800  0.29752500  1
  O  O21  1  0.25085200  0.08515300  0.54291600  1
  O  O22  1  0.24914800  0.08515300  0.04291600  1
  O  O23  1  0.17616400  0.95285200  0.29752500  1
  O  O24  1  0.75085200  0.91484700  0.95708400  1
  O  O25  1  0.75085200  0.41484700  0.04291600  1
  O  O26  1  0.74914800  0.41484700  0.54291600  1
  O  O27  1  0.17616400  0.45285200  0.70247500  1
