# generated using pymatgen
data_Li10Mn23O48
_symmetry_space_group_name_H-M   'P 1'
_cell_length_a   5.91441601
_cell_length_b   5.91441601
_cell_length_c   28.87628542
_cell_angle_alpha   88.99321494
_cell_angle_beta   88.99321494
_cell_angle_gamma   60.22342347
_symmetry_Int_Tables_number   1
_chemical_formula_structural   Li10Mn23O48
_chemical_formula_sum   'Li10 Mn23 O48'
_cell_volume   876.55555345
_cell_formula_units_Z   1
loop_
 _symmetry_equiv_pos_site_id
 _symmetry_equiv_pos_as_xyz
  1  'x, y, z'
loop_
 _atom_site_type_symbol
 _atom_site_label
 _atom_site_symmetry_multiplicity
 _atom_site_fract_x
 _atom_site_fract_y
 _atom_site_fract_z
 _atom_site_occupancy
  Li  Li0  1  0.83993900  0.83993900  0.97836900  1
  Li  Li1  1  0.51060600  0.51060600  0.81579300  1
  Li  Li2  1  0.16720500  0.16720500  0.64785600  1
  Li  Li3  1  0.83921100  0.83921100  0.47693000  1
  Li  Li4  1  0.50083100  0.50083100  0.31624600  1
  Li  Li5  1  0.16846500  0.16846500  0.51670300  1
  Li  Li6  1  0.16166600  0.16166600  0.14364900  1
  Li  Li7  1  0.82712100  0.82712100  0.35598000  1
  Li  Li8  1  0.50468800  0.50468800  0.18998500  1
  Li  Li9  1  0.16521900  0.16521900  0.01754800  1
  Mn  Mn10  1  0.49794500  0.49794500  0.99739400  1
  Mn  Mn11  1  0.33385700  0.83254500  0.91748500  1
  Mn  Mn12  1  0.83254500  0.33385700  0.91748500  1
  Mn  Mn13  1  0.16433500  0.16433500  0.83228200  1
  Mn  Mn14  1  0.66787900  0.66787900  0.58200900  1
  Mn  Mn15  1  0.00115200  0.49091700  0.75080400  1
  Mn  Mn16  1  0.82064000  0.82064000  0.85226300  1
  Mn  Mn17  1  0.49091700  0.00115200  0.75080400  1
  Mn  Mn18  1  0.83369800  0.83369800  0.66705000  1
  Mn  Mn19  1  0.66803400  0.16568700  0.58169100  1
  Mn  Mn20  1  0.49323000  0.49323000  0.69002400  1
  Mn  Mn21  1  0.50060100  0.50060100  0.49694700  1
  Mn  Mn22  1  0.16568700  0.66803400  0.58169100  1
  Mn  Mn23  1  0.33323800  0.83285900  0.41653900  1
  Mn  Mn24  1  0.00238500  0.00238500  0.25106400  1
  Mn  Mn25  1  0.16720100  0.16720100  0.33648400  1
  Mn  Mn26  1  0.83285900  0.33323800  0.41653900  1
  Mn  Mn27  1  0.00519800  0.50020700  0.25146100  1
  Mn  Mn28  1  0.66371600  0.66371600  0.08258300  1
  Mn  Mn29  1  0.83318900  0.83318900  0.16685600  1
  Mn  Mn30  1  0.50020700  0.00519800  0.25146100  1
  Mn  Mn31  1  0.66106000  0.16576700  0.08226800  1
  Mn  Mn32  1  0.16576700  0.66106000  0.08226800  1
  O  O33  1  0.67433600  0.20828000  0.96167200  1
  O  O34  1  0.52128000  0.52128000  0.88294600  1
  O  O35  1  0.20828000  0.67433600  0.96167200  1
  O  O36  1  0.65175900  0.65175900  0.95614600  1
  O  O37  1  0.01209700  0.01209700  0.87732200  1
  O  O38  1  0.33855600  0.87291100  0.79329600  1
  O  O39  1  0.14751400  0.14751400  0.95113900  1
  O  O40  1  0.45787800  0.00560300  0.87487500  1
  O  O41  1  0.87291100  0.33855600  0.79329600  1
  O  O42  1  0.18492600  0.18492600  0.71504300  1
  O  O43  1  0.00560300  0.45787800  0.87487500  1
  O  O44  1  0.31738600  0.31738600  0.78900300  1
  O  O45  1  0.68114700  0.68114700  0.71105000  1
  O  O46  1  0.97772100  0.53679200  0.62113300  1
  O  O47  1  0.12126100  0.66491300  0.70571900  1
  O  O48  1  0.81976900  0.81976900  0.78433200  1
  O  O49  1  0.82628600  0.82628600  0.54574500  1
  O  O50  1  0.53679200  0.97772100  0.62113300  1
  O  O51  1  0.66491300  0.12126100  0.70571900  1
  O  O52  1  0.98030300  0.98030300  0.62195700  1
  O  O53  1  0.35437600  0.35437600  0.54346700  1
  O  O54  1  0.67644100  0.20977300  0.46172300  1
  O  O55  1  0.50751700  0.50751700  0.61981200  1
  O  O56  1  0.79852300  0.35731700  0.54459500  1
  O  O57  1  0.51613200  0.51613200  0.38293000  1
  O  O58  1  0.20977300  0.67644100  0.46172300  1
  O  O59  1  0.35731700  0.79852300  0.54459500  1
  O  O60  1  0.65225500  0.65225500  0.45494800  1
  O  O61  1  0.31259500  0.87089300  0.28864600  1
  O  O62  1  0.01428200  0.01428200  0.37792600  1
  O  O63  1  0.45770900  0.98967100  0.37158900  1
  O  O64  1  0.15008200  0.15008200  0.45007000  1
  O  O65  1  0.16495700  0.16495700  0.21418300  1
  O  O66  1  0.87089300  0.31259500  0.28864600  1
  O  O67  1  0.31470600  0.31470600  0.29083100  1
  O  O68  1  0.98967100  0.45770900  0.37158900  1
  O  O69  1  0.98058600  0.52483900  0.11937400  1
  O  O70  1  0.68958800  0.68958800  0.21170000  1
  O  O71  1  0.14146400  0.68540000  0.21427300  1
  O  O72  1  0.83876800  0.83876800  0.28646100  1
  O  O73  1  0.82716300  0.82716300  0.04718100  1
  O  O74  1  0.52483900  0.98058600  0.11937400  1
  O  O75  1  0.97680100  0.97680100  0.12213100  1
  O  O76  1  0.68540000  0.14146400  0.21427300  1
  O  O77  1  0.35099200  0.35099200  0.04268300  1
  O  O78  1  0.79479900  0.35331700  0.04492200  1
  O  O79  1  0.50146300  0.50146300  0.11951400  1
  O  O80  1  0.35331700  0.79479900  0.04492200  1
