# generated using pymatgen
data_Li3In(BO3)2
_symmetry_space_group_name_H-M   'P 1'
_cell_length_a   9.04691400
_cell_length_b   5.25334100
_cell_length_c   11.46927123
_cell_angle_alpha   63.86965443
_cell_angle_beta   90.00000000
_cell_angle_gamma   90.00000000
_symmetry_Int_Tables_number   1
_chemical_formula_structural   Li3In(BO3)2
_chemical_formula_sum   'Li12 In4 B8 O24'
_cell_volume   489.38290137
_cell_formula_units_Z   4
loop_
 _symmetry_equiv_pos_site_id
 _symmetry_equiv_pos_as_xyz
  1  'x, y, z'
loop_
 _atom_site_type_symbol
 _atom_site_label
 _atom_site_symmetry_multiplicity
 _atom_site_fract_x
 _atom_site_fract_y
 _atom_site_fract_z
 _atom_site_occupancy
  Li  Li0  1  0.52519100  0.51485800  0.82679300  1
  Li  Li1  1  0.84298600  0.44865000  0.88234300  1
  Li  Li2  1  0.47480900  0.48514200  0.17320700  1
  Li  Li3  1  0.02519100  0.48514200  0.67320700  1
  Li  Li4  1  0.48613700  0.07792400  0.59616700  1
  Li  Li5  1  0.15701400  0.55135000  0.11765700  1
  Li  Li6  1  0.98613700  0.92207600  0.90383300  1
  Li  Li7  1  0.65701400  0.44865000  0.38234300  1
  Li  Li8  1  0.97480900  0.51485800  0.32679300  1
  Li  Li9  1  0.51386300  0.92207600  0.40383300  1
  Li  Li10  1  0.01386300  0.07792400  0.09616700  1
  Li  Li11  1  0.34298600  0.55135000  0.61765700  1
  In  In12  1  0.17214900  0.97325500  0.37682600  1
  In  In13  1  0.32785100  0.97325500  0.87682600  1
  In  In14  1  0.82785100  0.02674500  0.62317400  1
  In  In15  1  0.67214900  0.02674500  0.12317400  1
  B  B16  1  0.67295000  0.54420500  0.61948600  1
  B  B17  1  0.33093300  0.03526600  0.13084800  1
  B  B18  1  0.66906700  0.96473400  0.86915200  1
  B  B19  1  0.82705000  0.54420500  0.11948600  1
  B  B20  1  0.83093300  0.96473400  0.36915200  1
  B  B21  1  0.32705000  0.45579500  0.38051400  1
  B  B22  1  0.17295000  0.45579500  0.88051400  1
  B  B23  1  0.16906700  0.03526600  0.63084800  1
  O  O24  1  0.79954200  0.87047200  0.83600200  1
  O  O25  1  0.05235000  0.29614200  0.88069800  1
  O  O26  1  0.03882400  0.16123300  0.64060000  1
  O  O27  1  0.66966000  0.18094400  0.90922900  1
  O  O28  1  0.83034000  0.18094400  0.40922900  1
  O  O29  1  0.81497700  0.60118100  0.65149800  1
  O  O30  1  0.29954200  0.12952800  0.66399800  1
  O  O31  1  0.70045800  0.87047200  0.33600200  1
  O  O32  1  0.96117600  0.83876700  0.35940000  1
  O  O33  1  0.55235000  0.70385800  0.61930200  1
  O  O34  1  0.20045800  0.12952800  0.16399800  1
  O  O35  1  0.68502300  0.60118100  0.15149800  1
  O  O36  1  0.18502300  0.39881900  0.34850200  1
  O  O37  1  0.53882400  0.83876700  0.85940000  1
  O  O38  1  0.15454700  0.68204900  0.91222800  1
  O  O39  1  0.31497700  0.39881900  0.84850200  1
  O  O40  1  0.34545300  0.68204900  0.41222800  1
  O  O41  1  0.44765000  0.29614200  0.38069800  1
  O  O42  1  0.33034000  0.81905600  0.09077100  1
  O  O43  1  0.46117600  0.16123300  0.14060000  1
  O  O44  1  0.94765000  0.70385800  0.11930200  1
  O  O45  1  0.16966000  0.81905600  0.59077100  1
  O  O46  1  0.65454700  0.31795100  0.58777200  1
  O  O47  1  0.84545300  0.31795100  0.08777200  1
