# generated using pymatgen
data_LiBeH8CNOF4
_symmetry_space_group_name_H-M   'P 1'
_cell_length_a   4.92041100
_cell_length_b   10.13217000
_cell_length_c   12.67915464
_cell_angle_alpha   79.48790535
_cell_angle_beta   90.00000000
_cell_angle_gamma   90.00000000
_symmetry_Int_Tables_number   1
_chemical_formula_structural   LiBeH8CNOF4
_chemical_formula_sum   'Li4 Be4 H32 C4 N4 O4 F16'
_cell_volume   621.50305666
_cell_formula_units_Z   4
loop_
 _symmetry_equiv_pos_site_id
 _symmetry_equiv_pos_as_xyz
  1  'x, y, z'
loop_
 _atom_site_type_symbol
 _atom_site_label
 _atom_site_symmetry_multiplicity
 _atom_site_fract_x
 _atom_site_fract_y
 _atom_site_fract_z
 _atom_site_occupancy
  Li  Li0  1  0.31514000  0.85309800  0.49586000  1
  Li  Li1  1  0.68486000  0.14690200  0.50414000  1
  Li  Li2  1  0.81514000  0.64690200  0.50414000  1
  Li  Li3  1  0.18486000  0.35309800  0.49586000  1
  Be  Be4  1  0.19263100  0.12691900  0.36813800  1
  Be  Be5  1  0.69263100  0.37308100  0.63186200  1
  Be  Be6  1  0.80736900  0.87308100  0.63186200  1
  Be  Be7  1  0.30736900  0.62691900  0.36813800  1
  H  H8  1  0.75624600  0.92382000  0.09987500  1
  H  H9  1  0.93559000  0.05176700  0.15158500  1
  H  H10  1  0.24375400  0.07618000  0.90012500  1
  H  H11  1  0.38525200  0.16833400  0.71738600  1
  H  H12  1  0.57226400  0.04376100  0.15971300  1
  H  H13  1  0.95601600  0.83884100  0.27621100  1
  H  H14  1  0.77826000  0.95470300  0.32883800  1
  H  H15  1  0.90024100  0.24948500  0.98633800  1
  H  H16  1  0.42773600  0.95623900  0.84028700  1
  H  H17  1  0.88525200  0.33166600  0.28261400  1
  H  H18  1  0.45601600  0.66115900  0.72378900  1
  H  H19  1  0.27826000  0.54529700  0.67116200  1
  H  H20  1  0.73665900  0.25757800  0.87676600  1
  H  H21  1  0.25624600  0.57618000  0.90012500  1
  H  H22  1  0.54398400  0.33884100  0.27621100  1
  H  H23  1  0.56441000  0.55176700  0.15158500  1
  H  H24  1  0.26334100  0.74242200  0.12323400  1
  H  H25  1  0.92773600  0.54376100  0.15971300  1
  H  H26  1  0.11474800  0.66833400  0.71738600  1
  H  H27  1  0.59975900  0.74948500  0.98633800  1
  H  H28  1  0.74375400  0.42382000  0.09987500  1
  H  H29  1  0.43559000  0.44823300  0.84841500  1
  H  H30  1  0.23665900  0.24242200  0.12323400  1
  H  H31  1  0.04398400  0.16115900  0.72378900  1
  H  H32  1  0.22174000  0.04529700  0.67116200  1
  H  H33  1  0.72174000  0.45470300  0.32883800  1
  H  H34  1  0.06441000  0.94823300  0.84841500  1
  H  H35  1  0.40024100  0.25051500  0.01366200  1
  H  H36  1  0.76334100  0.75757800  0.87676600  1
  H  H37  1  0.09975900  0.75051500  0.01366200  1
  H  H38  1  0.61474800  0.83166600  0.28261400  1
  H  H39  1  0.07226400  0.45623900  0.84028700  1
  C  C40  1  0.75932400  0.98496100  0.16261900  1
  C  C41  1  0.24067600  0.01503900  0.83738100  1
  C  C42  1  0.74067600  0.48496100  0.16261900  1
  C  C43  1  0.25932400  0.51503900  0.83738100  1
  N  N44  1  0.72126500  0.39615600  0.26976600  1
  N  N45  1  0.27873500  0.60384400  0.73023400  1
  N  N46  1  0.77873500  0.89615600  0.26976600  1
  N  N47  1  0.22126500  0.10384400  0.73023400  1
  O  O48  1  0.71473000  0.25022200  0.95482700  1
  O  O49  1  0.28527000  0.74977800  0.04517300  1
  O  O50  1  0.78527000  0.75022200  0.95482700  1
  O  O51  1  0.21473000  0.24977800  0.04517300  1
  F  F52  1  0.69382200  0.01548200  0.62954700  1
  F  F53  1  0.74335100  0.76997400  0.73787100  1
  F  F54  1  0.25664900  0.23002600  0.26212900  1
  F  F55  1  0.68321100  0.81300200  0.53533700  1
  F  F56  1  0.75664900  0.26997400  0.73787100  1
  F  F57  1  0.62450600  0.61794100  0.38168200  1
  F  F58  1  0.18321100  0.68699800  0.46466300  1
  F  F59  1  0.87549400  0.11794100  0.38168200  1
  F  F60  1  0.30617800  0.98451800  0.37045300  1
  F  F61  1  0.37549400  0.38205900  0.61831800  1
  F  F62  1  0.12450600  0.88205900  0.61831800  1
  F  F63  1  0.24335100  0.73002600  0.26212900  1
  F  F64  1  0.31678900  0.18699800  0.46466300  1
  F  F65  1  0.80617800  0.51548200  0.62954700  1
  F  F66  1  0.81678900  0.31300200  0.53533700  1
  F  F67  1  0.19382200  0.48451800  0.37045300  1
