# generated using pymatgen
data_LiPWO4
_symmetry_space_group_name_H-M   'P 1'
_cell_length_a   4.68951600
_cell_length_b   6.12403400
_cell_length_c   11.21722700
_cell_angle_alpha   90.00000000
_cell_angle_beta   90.00000000
_cell_angle_gamma   90.00000000
_symmetry_Int_Tables_number   1
_chemical_formula_structural   LiPWO4
_chemical_formula_sum   'Li4 P4 W4 O16'
_cell_volume   322.14479879
_cell_formula_units_Z   4
loop_
 _symmetry_equiv_pos_site_id
 _symmetry_equiv_pos_as_xyz
  1  'x, y, z'
loop_
 _atom_site_type_symbol
 _atom_site_label
 _atom_site_symmetry_multiplicity
 _atom_site_fract_x
 _atom_site_fract_y
 _atom_site_fract_z
 _atom_site_occupancy
  Li  Li0  1  0.00000000  0.00000000  0.00000000  1
  Li  Li1  1  0.50000000  0.00000000  0.50000000  1
  Li  Li2  1  0.00000000  0.50000000  0.00000000  1
  Li  Li3  1  0.50000000  0.50000000  0.50000000  1
  P  P4  1  0.57650500  0.75000000  0.08333700  1
  P  P5  1  0.92349500  0.75000000  0.58333700  1
  P  P6  1  0.42349500  0.25000000  0.91666300  1
  P  P7  1  0.07650500  0.25000000  0.41666300  1
  W  W8  1  0.00812200  0.75000000  0.27124500  1
  W  W9  1  0.49187800  0.75000000  0.77124500  1
  W  W10  1  0.99187800  0.25000000  0.72875500  1
  W  W11  1  0.50812200  0.25000000  0.22875500  1
  O  O12  1  0.75146300  0.25000000  0.91234500  1
  O  O13  1  0.21877600  0.45342700  0.35228600  1
  O  O14  1  0.71877600  0.54657300  0.14771400  1
  O  O15  1  0.78122400  0.95342700  0.64771400  1
  O  O16  1  0.28122400  0.04657300  0.85228600  1
  O  O17  1  0.78122400  0.54657300  0.64771400  1
  O  O18  1  0.28122400  0.45342700  0.85228600  1
  O  O19  1  0.21877600  0.04657300  0.35228600  1
  O  O20  1  0.24853700  0.75000000  0.08765500  1
  O  O21  1  0.74853700  0.25000000  0.41234500  1
  O  O22  1  0.71877600  0.95342700  0.14771400  1
  O  O23  1  0.25146300  0.75000000  0.58765500  1
  O  O24  1  0.70087800  0.75000000  0.95533100  1
  O  O25  1  0.29912200  0.25000000  0.04466900  1
  O  O26  1  0.20087800  0.25000000  0.54466900  1
  O  O27  1  0.79912200  0.75000000  0.45533100  1
