# generated using pymatgen
data_Cs3Li2Ga(MoO4)4
_symmetry_space_group_name_H-M   'P 1'
_cell_length_a   10.82439169
_cell_length_b   10.82439169
_cell_length_c   10.82439169
_cell_angle_alpha   109.35100317
_cell_angle_beta   109.35100317
_cell_angle_gamma   109.71192404
_symmetry_Int_Tables_number   1
_chemical_formula_structural   Cs3Li2Ga(MoO4)4
_chemical_formula_sum   'Cs6 Li4 Ga2 Mo8 O32'
_cell_volume   976.29902334
_cell_formula_units_Z   2
loop_
 _symmetry_equiv_pos_site_id
 _symmetry_equiv_pos_as_xyz
  1  'x, y, z'
loop_
 _atom_site_type_symbol
 _atom_site_label
 _atom_site_symmetry_multiplicity
 _atom_site_fract_x
 _atom_site_fract_y
 _atom_site_fract_z
 _atom_site_occupancy
  Cs  Cs0  1  0.12500000  0.51543800  0.89043800  1
  Cs  Cs1  1  0.62500000  0.23456200  0.10956200  1
  Cs  Cs2  1  0.48456200  0.37500000  0.60956200  1
  Cs  Cs3  1  0.76543800  0.87500000  0.39043800  1
  Cs  Cs4  1  0.25000000  0.75000000  0.50000000  1
  Cs  Cs5  1  0.00000000  0.00000000  0.00000000  1
  Li  Li6  1  0.62500000  0.75065500  0.62565500  1
  Li  Li7  1  0.24934500  0.87500000  0.87434500  1
  Li  Li8  1  0.12500000  0.99934500  0.37434500  1
  Li  Li9  1  0.00065500  0.37500000  0.12565500  1
  Ga  Ga10  1  0.75000000  0.25000000  0.50000000  1
  Ga  Ga11  1  0.50000000  0.50000000  0.00000000  1
  Mo  Mo12  1  0.68141900  0.12594200  0.74715700  1
  Mo  Mo13  1  0.06573800  0.31858100  0.44452300  1
  Mo  Mo14  1  0.87121500  0.62405800  0.05547700  1
  Mo  Mo15  1  0.37878500  0.93426200  0.25284300  1
  Mo  Mo16  1  0.87405800  0.62121500  0.55547700  1
  Mo  Mo17  1  0.56858100  0.81573800  0.94452300  1
  Mo  Mo18  1  0.18426200  0.12878500  0.75284300  1
  Mo  Mo19  1  0.37594200  0.43141900  0.24715700  1
  O  O20  1  0.42935200  0.86578000  0.87765500  1
  O  O21  1  0.24815700  0.05483200  0.86930100  1
  O  O22  1  0.32871200  0.33117400  0.82935900  1
  O  O23  1  0.74818500  0.41882600  0.49753800  1
  O  O24  1  0.01898500  0.12410200  0.74872800  1
  O  O25  1  0.37410200  0.76898500  0.24872800  1
  O  O26  1  0.23101500  0.47974300  0.60511800  1
  O  O27  1  0.50064700  0.67128800  0.00246200  1
  O  O28  1  0.30483200  0.99815700  0.36930100  1
  O  O29  1  0.26187500  0.88422000  0.06357200  1
  O  O30  1  0.94516800  0.81446900  0.19332500  1
  O  O31  1  0.82064800  0.19830300  0.93642800  1
  O  O32  1  0.87462600  0.62589800  0.39488200  1
  O  O33  1  0.80169700  0.73812500  0.62234500  1
  O  O34  1  0.74935300  0.25181500  0.67064100  1
  O  O35  1  0.87589800  0.62462600  0.89488200  1
  O  O36  1  0.13422000  0.01187500  0.56357200  1
  O  O37  1  0.62114400  0.75184300  0.80667500  1
  O  O38  1  0.37537400  0.27025700  0.25127200  1
  O  O39  1  0.44830300  0.57064800  0.43642800  1
  O  O40  1  0.62885600  0.93553100  0.63069900  1
  O  O41  1  0.58117400  0.07871200  0.32935900  1
  O  O42  1  0.11578000  0.17935200  0.37765500  1
  O  O43  1  0.06446900  0.69516800  0.69332500  1
  O  O44  1  0.52025700  0.12537400  0.75127200  1
  O  O45  1  0.66882600  0.49818500  0.99753800  1
  O  O46  1  0.98812500  0.55169700  0.12234500  1
  O  O47  1  0.00184300  0.37114400  0.30667500  1
  O  O48  1  0.92128800  0.25064700  0.50246200  1
  O  O49  1  0.50181500  0.49935300  0.17064100  1
  O  O50  1  0.18553100  0.37885600  0.13069900  1
  O  O51  1  0.72974300  0.98101500  0.10511800  1
