# generated using pymatgen
data_Li2V2(SO4)3
_symmetry_space_group_name_H-M   'P 1'
_cell_length_a   8.01328731
_cell_length_b   8.01328731
_cell_length_c   8.85351474
_cell_angle_alpha   68.34611274
_cell_angle_beta   68.34611274
_cell_angle_gamma   66.68716731
_symmetry_Int_Tables_number   1
_chemical_formula_structural   Li2V2(SO4)3
_chemical_formula_sum   'Li4 V4 S6 O24'
_cell_volume   468.40144134
_cell_formula_units_Z   2
loop_
 _symmetry_equiv_pos_site_id
 _symmetry_equiv_pos_as_xyz
  1  'x, y, z'
loop_
 _atom_site_type_symbol
 _atom_site_label
 _atom_site_symmetry_multiplicity
 _atom_site_fract_x
 _atom_site_fract_y
 _atom_site_fract_z
 _atom_site_occupancy
  Li  Li0  1  0.13020600  0.32504500  0.45234500  1
  Li  Li1  1  0.32504500  0.13020600  0.95234500  1
  Li  Li2  1  0.67495500  0.86979400  0.04765500  1
  Li  Li3  1  0.86979400  0.67495500  0.54765500  1
  V  V4  1  0.62841500  0.12804100  0.51552500  1
  V  V5  1  0.12804100  0.62841400  0.01552500  1
  V  V6  1  0.37158600  0.87195900  0.48447500  1
  V  V7  1  0.87195900  0.37158500  0.98447500  1
  S  S8  1  0.06264900  0.93735100  0.25000000  1
  S  S9  1  0.24811300  0.45737800  0.67965000  1
  S  S10  1  0.75188700  0.54262200  0.32035000  1
  S  S11  1  0.45737800  0.24811300  0.17965000  1
  S  S12  1  0.54262200  0.75188700  0.82035000  1
  S  S13  1  0.93735100  0.06264900  0.75000000  1
  O  O14  1  0.12188100  0.05326600  0.61749400  1
  O  O15  1  0.50487300  0.87707200  0.92410800  1
  O  O16  1  0.78563600  0.10171400  0.67545400  1
  O  O17  1  0.65415100  0.40176800  0.38062900  1
  O  O18  1  0.87707200  0.50487300  0.42410800  1
  O  O19  1  0.61886600  0.73758200  0.30799000  1
  O  O20  1  0.10171400  0.78563600  0.17545400  1
  O  O21  1  0.54494600  0.86706300  0.63797700  1
  O  O22  1  0.49512700  0.12292800  0.07589200  1
  O  O23  1  0.26241800  0.38113400  0.19201000  1
  O  O24  1  0.87811900  0.94673400  0.38250600  1
  O  O25  1  0.86706300  0.54494600  0.13797700  1
  O  O26  1  0.12292800  0.49512700  0.57589200  1
  O  O27  1  0.21436400  0.89828600  0.32454600  1
  O  O28  1  0.45505400  0.13293700  0.36202300  1
  O  O29  1  0.34584900  0.59823200  0.61937100  1
  O  O30  1  0.73758200  0.61886600  0.80799000  1
  O  O31  1  0.59823200  0.34584900  0.11937100  1
  O  O32  1  0.13293700  0.45505400  0.86202300  1
  O  O33  1  0.38113400  0.26241800  0.69201000  1
  O  O34  1  0.89828600  0.21436400  0.82454600  1
  O  O35  1  0.94673400  0.87811900  0.88250600  1
  O  O36  1  0.05326600  0.12188100  0.11749400  1
  O  O37  1  0.40176800  0.65415100  0.88062900  1
