# generated using pymatgen
data_Li14Ni9(P2O7)8
_symmetry_space_group_name_H-M   'P 1'
_cell_length_a   10.69446432
_cell_length_b   9.57745241
_cell_length_c   12.71343843
_cell_angle_alpha   69.67726647
_cell_angle_beta   116.23440896
_cell_angle_gamma   108.64101104
_symmetry_Int_Tables_number   1
_chemical_formula_structural   Li14Ni9(P2O7)8
_chemical_formula_sum   'Li14 Ni9 P16 O56'
_cell_volume   1073.76881373
_cell_formula_units_Z   1
loop_
 _symmetry_equiv_pos_site_id
 _symmetry_equiv_pos_as_xyz
  1  'x, y, z'
loop_
 _atom_site_type_symbol
 _atom_site_label
 _atom_site_symmetry_multiplicity
 _atom_site_fract_x
 _atom_site_fract_y
 _atom_site_fract_z
 _atom_site_occupancy
  Li  Li0  1  0.02573898  0.13632430  0.90223353  1
  Li  Li1  1  0.10057717  0.91758475  0.57054015  1
  Li  Li2  1  0.38175818  0.05329082  0.89763907  1
  Li  Li3  1  0.10483971  0.41899303  0.07274381  1
  Li  Li4  1  0.49767390  0.37616819  0.81840905  1
  Li  Li5  1  0.38227250  0.55008956  0.39995945  1
  Li  Li6  1  0.46458730  0.87732166  0.32614748  1
  Li  Li7  1  0.53541270  0.12267834  0.67385252  1
  Li  Li8  1  0.61772750  0.44991044  0.60004055  1
  Li  Li9  1  0.50232610  0.62383181  0.18159095  1
  Li  Li10  1  0.89516029  0.58100697  0.92725619  1
  Li  Li11  1  0.61824182  0.94670918  0.10236093  1
  Li  Li12  1  0.89942283  0.08241525  0.42945985  1
  Li  Li13  1  0.97426102  0.86367570  0.09776647  1
  Ni  Ni14  1  0.22117524  0.70150579  0.91905626  1
  Ni  Ni15  1  0.00000000  0.50000000  0.50000000  1
  Ni  Ni16  1  0.25861685  0.56809532  0.70056438  1
  Ni  Ni17  1  0.21910870  0.19776567  0.42053412  1
  Ni  Ni18  1  0.74957205  0.93244420  0.80561365  1
  Ni  Ni19  1  0.25042795  0.06755580  0.19438635  1
  Ni  Ni20  1  0.78089130  0.80223433  0.57946588  1
  Ni  Ni21  1  0.74138315  0.43190468  0.29943562  1
  Ni  Ni22  1  0.77882476  0.29849421  0.08094374  1
  O  O23  1  0.01982512  0.60059916  0.83284985  1
  O  O24  1  0.19649063  0.91921324  0.85897328  1
  O  O25  1  0.04264402  0.55670637  0.65523265  1
  O  O26  1  0.08924151  0.14841651  0.72809786  1
  O  O27  1  0.31242693  0.73885881  0.79066089  1
  O  O28  1  0.46124913  0.84407091  0.97338632  1
  O  O29  1  0.26496992  0.98461458  0.51243209  1
  O  O30  1  0.19673296  0.70340301  0.51737606  1
  O  O31  1  0.29455503  0.40535619  0.85759926  1
  O  O32  1  0.17130336  0.39917161  0.60615935  1
  O  O33  1  0.09199491  0.64980399  0.22728671  1
  O  O34  1  0.01613601  0.10499277  0.33319940  1
  O  O35  1  0.13714127  0.15544046  0.55030275  1
  O  O36  1  0.29480229  0.89603062  0.35627490  1
  O  O37  1  0.17465580  0.89487895  0.10722300  1
  O  O38  1  0.54837166  0.92801007  0.79751086  1
  O  O39  1  0.19622712  0.41885610  0.35985297  1
  O  O40  1  0.54014868  0.65656966  0.92520119  1
  O  O41  1  0.34637584  0.21803624  0.74034355  1
  O  O42  1  0.45317401  0.84190074  0.57463555  1
  O  O43  1  0.13864624  0.65238768  0.04960544  1
  O  O44  1  0.04236123  0.05476144  0.15773091  1
  O  O45  1  0.45663918  0.57126735  0.70209682  1
  O  O46  1  0.35099104  0.70944074  0.23896461  1
  O  O47  1  0.71348577  0.49939691  0.97823569  1
  O  O48  1  0.80053519  0.77721705  0.98116796  1
  O  O49  1  0.31222819  0.23236106  0.29437518  1
  O  O50  1  0.53871892  0.66339121  0.52263974  1
  O  O51  1  0.46128108  0.33660879  0.47736026  1
  O  O52  1  0.68777181  0.76763894  0.70562482  1
  O  O53  1  0.19946481  0.22278295  0.01883204  1
  O  O54  1  0.28651423  0.50060309  0.02176431  1
  O  O55  1  0.64900896  0.29055926  0.76103539  1
  O  O56  1  0.54336082  0.42873265  0.29790318  1
  O  O57  1  0.95763877  0.94523856  0.84226909  1
  O  O58  1  0.86135376  0.34761232  0.95039456  1
  O  O59  1  0.54682599  0.15809926  0.42536445  1
  O  O60  1  0.65362416  0.78196376  0.25965645  1
  O  O61  1  0.45985032  0.34343034  0.07479881  1
  O  O62  1  0.80377288  0.58114390  0.64014703  1
  O  O63  1  0.45162834  0.07198993  0.20248914  1
  O  O64  1  0.82534420  0.10512105  0.89277700  1
  O  O65  1  0.70519771  0.10396938  0.64372510  1
  O  O66  1  0.86285873  0.84455954  0.44969725  1
  O  O67  1  0.98386399  0.89500723  0.66680060  1
  O  O68  1  0.90800509  0.35019601  0.77271329  1
  O  O69  1  0.82869664  0.60082839  0.39384065  1
  O  O70  1  0.70544497  0.59464381  0.14240074  1
  O  O71  1  0.80326704  0.29659699  0.48262394  1
  O  O72  1  0.73503008  0.01538542  0.48756791  1
  O  O73  1  0.53875087  0.15592909  0.02661368  1
  O  O74  1  0.68757307  0.26114119  0.20933911  1
  O  O75  1  0.91075849  0.85158349  0.27190214  1
  O  O76  1  0.95735598  0.44329363  0.34476735  1
  O  O77  1  0.80350937  0.08078676  0.14102672  1
  O  O78  1  0.98017488  0.39940084  0.16715015  1
  P  P79  1  0.05253078  0.96405609  0.77599553  1
  P  P80  1  0.30072706  0.37054901  0.98525928  1
  P  P81  1  0.05371191  0.46703337  0.27726859  1
  P  P82  1  0.19526729  0.23510933  0.65367696  1
  P  P83  1  0.46694442  0.80147682  0.86890147  1
  P  P84  1  0.29012031  0.85699126  0.48137441  1
  P  P85  1  0.20017486  0.73317593  0.15276761  1
  P  P86  1  0.53351933  0.70259637  0.62928191  1
  P  P87  1  0.46648067  0.29740363  0.37071809  1
  P  P88  1  0.79982514  0.26682407  0.84723239  1
  P  P89  1  0.70987969  0.14300874  0.51862559  1
  P  P90  1  0.53305558  0.19852318  0.13109853  1
  P  P91  1  0.80473271  0.76489067  0.34632304  1
  P  P92  1  0.94628809  0.53296663  0.72273141  1
  P  P93  1  0.69927294  0.62945099  0.01474072  1
  P  P94  1  0.94746922  0.03594391  0.22400447  1
