# generated using pymatgen
data_LiCrPO4
_symmetry_space_group_name_H-M   'P 1'
_cell_length_a   5.20418581
_cell_length_b   9.71061000
_cell_length_c   7.06597916
_cell_angle_alpha   90.00290563
_cell_angle_beta   88.19486078
_cell_angle_gamma   90.00058702
_symmetry_Int_Tables_number   1
_chemical_formula_structural   LiCrPO4
_chemical_formula_sum   'Li4 Cr4 P4 O16'
_cell_volume   356.90783437
_cell_formula_units_Z   4
loop_
 _symmetry_equiv_pos_site_id
 _symmetry_equiv_pos_as_xyz
  1  'x, y, z'
loop_
 _atom_site_type_symbol
 _atom_site_label
 _atom_site_symmetry_multiplicity
 _atom_site_fract_x
 _atom_site_fract_y
 _atom_site_fract_z
 _atom_site_occupancy
  Li  Li0  1  0.20278300  0.17964000  0.52568700  1
  Li  Li1  1  0.79720800  0.82036400  0.47433600  1
  Li  Li2  1  0.70281300  0.32037000  0.02566200  1
  Li  Li3  1  0.29722000  0.67963800  0.97431200  1
  Cr  Cr4  1  0.25834500  0.61301400  0.47771200  1
  Cr  Cr5  1  0.24167400  0.11301200  0.02229500  1
  Cr  Cr6  1  0.75842400  0.88698600  0.97765400  1
  Cr  Cr7  1  0.74143100  0.38698800  0.52233600  1
  P  P8  1  0.19000100  0.40560100  0.23279600  1
  P  P9  1  0.31000100  0.90560200  0.26720500  1
  P  P10  1  0.69002700  0.09439500  0.73278100  1
  P  P11  1  0.80997600  0.59439200  0.76721400  1
  O  O12  1  0.33035100  0.31317000  0.08564500  1
  O  O13  1  0.83032100  0.18683200  0.58560700  1
  O  O14  1  0.16966800  0.81317100  0.41436100  1
  O  O15  1  0.66969700  0.68685100  0.91439100  1
  O  O16  1  0.74199000  0.93981300  0.69154400  1
  O  O17  1  0.75801300  0.43980300  0.80844600  1
  O  O18  1  0.24198500  0.56017200  0.19152800  1
  O  O19  1  0.25803700  0.06017000  0.30848200  1
  O  O20  1  0.79377100  0.11259700  0.94113100  1
  O  O21  1  0.20628900  0.88741700  0.05889900  1
  O  O22  1  0.29373500  0.38740900  0.44110500  1
  O  O23  1  0.70622600  0.61258600  0.55886000  1
  O  O24  1  0.10140500  0.63008500  0.75560500  1
  O  O25  1  0.39861200  0.13009100  0.74439100  1
  O  O26  1  0.60140800  0.86991900  0.25561400  1
  O  O27  1  0.89859000  0.36991100  0.24440100  1
