# generated using pymatgen
data_Li22Si5
_symmetry_space_group_name_H-M   'P 1'
_cell_length_a   13.13891798
_cell_length_b   13.13891798
_cell_length_c   13.13891798
_cell_angle_alpha   60.00000000
_cell_angle_beta   60.00000000
_cell_angle_gamma   60.00000000
_symmetry_Int_Tables_number   1
_chemical_formula_structural   Li22Si5
_chemical_formula_sum   'Li88 Si20'
_cell_volume   1603.85021489
_cell_formula_units_Z   4
loop_
 _symmetry_equiv_pos_site_id
 _symmetry_equiv_pos_as_xyz
  1  'x, y, z'
loop_
 _atom_site_type_symbol
 _atom_site_label
 _atom_site_symmetry_multiplicity
 _atom_site_fract_x
 _atom_site_fract_y
 _atom_site_fract_z
 _atom_site_occupancy
  Li  Li0  1  0.00000000  0.00000000  0.00000000  1
  Li  Li1  1  0.82680000  0.82680000  0.82680000  1
  Li  Li2  1  0.82680000  0.51959900  0.82680000  1
  Li  Li3  1  0.82680000  0.82680000  0.51959900  1
  Li  Li4  1  0.51959900  0.82680000  0.82680000  1
  Li  Li5  1  0.17233700  0.82766300  0.17233700  1
  Li  Li6  1  0.17233700  0.17233700  0.82766300  1
  Li  Li7  1  0.82766300  0.17233700  0.17233700  1
  Li  Li8  1  0.17233700  0.82766300  0.82766300  1
  Li  Li9  1  0.82766300  0.82766300  0.17233700  1
  Li  Li10  1  0.82766300  0.17233700  0.82766300  1
  Li  Li11  1  0.58306900  0.91693100  0.58306900  1
  Li  Li12  1  0.58306900  0.58306900  0.91693100  1
  Li  Li13  1  0.91693100  0.58306900  0.58306900  1
  Li  Li14  1  0.58306900  0.91693100  0.91693100  1
  Li  Li15  1  0.91693100  0.91693100  0.58306900  1
  Li  Li16  1  0.91693100  0.58306900  0.91693100  1
  Li  Li17  1  0.00587600  0.31944500  0.66880300  1
  Li  Li18  1  0.66880300  0.00587600  0.31944500  1
  Li  Li19  1  0.31944500  0.66880300  0.00587600  1
  Li  Li20  1  0.00587600  0.00587600  0.31944500  1
  Li  Li21  1  0.00587600  0.66880300  0.00587600  1
  Li  Li22  1  0.31944500  0.00587600  0.66880300  1
  Li  Li23  1  0.00587600  0.00587600  0.66880300  1
  Li  Li24  1  0.00587600  0.31944500  0.00587600  1
  Li  Li25  1  0.66880300  0.31944500  0.00587600  1
  Li  Li26  1  0.31944500  0.00587600  0.00587600  1
  Li  Li27  1  0.66880300  0.00587600  0.00587600  1
  Li  Li28  1  0.00587600  0.66880300  0.31944500  1
  Li  Li29  1  0.81636600  0.50641200  0.50641200  1
  Li  Li30  1  0.50641200  0.81636600  0.50641200  1
  Li  Li31  1  0.50641200  0.50641200  0.81636600  1
  Li  Li32  1  0.81636600  0.17081000  0.50641200  1
  Li  Li33  1  0.81636600  0.50641200  0.17081000  1
  Li  Li34  1  0.50641200  0.17081000  0.50641200  1
  Li  Li35  1  0.17081000  0.81636600  0.50641200  1
  Li  Li36  1  0.17081000  0.50641200  0.81636600  1
  Li  Li37  1  0.50641200  0.50641200  0.17081000  1
  Li  Li38  1  0.50641200  0.81636600  0.17081000  1
  Li  Li39  1  0.50641200  0.17081000  0.81636600  1
  Li  Li40  1  0.17081000  0.50641200  0.50641200  1
  Li  Li41  1  0.25850300  0.92262900  0.25850300  1
  Li  Li42  1  0.25850300  0.25850300  0.92262900  1
  Li  Li43  1  0.92262900  0.25850300  0.25850300  1
  Li  Li44  1  0.25850300  0.56036400  0.92262900  1
  Li  Li45  1  0.25850300  0.25850300  0.56036400  1
  Li  Li46  1  0.92262900  0.56036400  0.25850300  1
  Li  Li47  1  0.56036400  0.25850300  0.25850300  1
  Li  Li48  1  0.56036400  0.92262900  0.25850300  1
  Li  Li49  1  0.25850300  0.92262900  0.56036400  1
  Li  Li50  1  0.92262900  0.25850300  0.56036400  1
  Li  Li51  1  0.25850300  0.56036400  0.25850300  1
  Li  Li52  1  0.56036400  0.25850300  0.92262900  1
  Li  Li53  1  0.74989400  0.42143300  0.74989400  1
  Li  Li54  1  0.74989400  0.74989400  0.42143300  1
  Li  Li55  1  0.42143300  0.74989400  0.74989400  1
  Li  Li56  1  0.74989400  0.07877900  0.42143300  1
  Li  Li57  1  0.74989400  0.74989400  0.07877900  1
  Li  Li58  1  0.42143300  0.07877900  0.74989400  1
  Li  Li59  1  0.07877900  0.74989400  0.74989400  1
  Li  Li60  1  0.07877900  0.42143300  0.74989400  1
  Li  Li61  1  0.74989400  0.42143300  0.07877900  1
  Li  Li62  1  0.42143300  0.74989400  0.07877900  1
  Li  Li63  1  0.74989400  0.07877900  0.74989400  1
  Li  Li64  1  0.07877900  0.74989400  0.42143300  1
  Li  Li65  1  0.50000000  0.50000000  0.50000000  1
  Li  Li66  1  0.25000000  0.25000000  0.25000000  1
  Li  Li67  1  0.75000000  0.75000000  0.75000000  1
  Li  Li68  1  0.07148500  0.07148500  0.07148500  1
  Li  Li69  1  0.07148500  0.78554400  0.07148500  1
  Li  Li70  1  0.07148500  0.07148500  0.78554400  1
  Li  Li71  1  0.78554400  0.07148500  0.07148500  1
  Li  Li72  1  0.16793000  0.16793000  0.16793000  1
  Li  Li73  1  0.16793000  0.49621100  0.16793000  1
  Li  Li74  1  0.16793000  0.16793000  0.49621100  1
  Li  Li75  1  0.49621100  0.16793000  0.16793000  1
  Li  Li76  1  0.32494100  0.32494200  0.32494100  1
  Li  Li77  1  0.32494100  0.02517600  0.32494100  1
  Li  Li78  1  0.32494100  0.32494200  0.02517600  1
  Li  Li79  1  0.02517600  0.32494200  0.32494100  1
  Li  Li80  1  0.42326400  0.42326400  0.42326400  1
  Li  Li81  1  0.42326400  0.73020700  0.42326400  1
  Li  Li82  1  0.42326400  0.42326400  0.73020700  1
  Li  Li83  1  0.73020700  0.42326400  0.42326400  1
  Li  Li84  1  0.58282000  0.58282000  0.58282000  1
  Li  Li85  1  0.58282000  0.25154000  0.58282000  1
  Li  Li86  1  0.58282000  0.58282000  0.25154000  1
  Li  Li87  1  0.25154000  0.58282000  0.58282000  1
  Si  Si88  1  0.91154500  0.91154500  0.91154500  1
  Si  Si89  1  0.91154500  0.26536600  0.91154500  1
  Si  Si90  1  0.91154500  0.91154500  0.26536600  1
  Si  Si91  1  0.26536600  0.91154500  0.91154500  1
  Si  Si92  1  0.66666900  0.66666900  0.66666900  1
  Si  Si93  1  0.66666900  0.99999400  0.66666900  1
  Si  Si94  1  0.66666900  0.66666900  0.99999400  1
  Si  Si95  1  0.99999400  0.66666900  0.66666900  1
  Si  Si96  1  0.32417700  0.67582300  0.32417700  1
  Si  Si97  1  0.32417700  0.32417700  0.67582300  1
  Si  Si98  1  0.67582300  0.32417700  0.32417700  1
  Si  Si99  1  0.32417700  0.67582300  0.67582300  1
  Si  Si100  1  0.67582300  0.67582300  0.32417700  1
  Si  Si101  1  0.67582300  0.32417700  0.67582300  1
  Si  Si102  1  0.07409200  0.42590800  0.07409200  1
  Si  Si103  1  0.07409200  0.07409200  0.42590800  1
  Si  Si104  1  0.42590800  0.07409200  0.07409200  1
  Si  Si105  1  0.07409200  0.42590800  0.42590800  1
  Si  Si106  1  0.42590800  0.42590800  0.07409200  1
  Si  Si107  1  0.42590800  0.07409200  0.42590800  1
