# generated using pymatgen
data_Li3Mo2P5O18
_symmetry_space_group_name_H-M   'P 1'
_cell_length_a   6.64260100
_cell_length_b   9.56500206
_cell_length_c   10.66950240
_cell_angle_alpha   96.59671124
_cell_angle_beta   92.49590328
_cell_angle_gamma   92.45094564
_symmetry_Int_Tables_number   1
_chemical_formula_structural   Li3Mo2P5O18
_chemical_formula_sum   'Li6 Mo4 P10 O36'
_cell_volume   671.99604392
_cell_formula_units_Z   2
loop_
 _symmetry_equiv_pos_site_id
 _symmetry_equiv_pos_as_xyz
  1  'x, y, z'
loop_
 _atom_site_type_symbol
 _atom_site_label
 _atom_site_symmetry_multiplicity
 _atom_site_fract_x
 _atom_site_fract_y
 _atom_site_fract_z
 _atom_site_occupancy
  Li  Li0  1  0.98008800  0.06777100  0.86334100  1
  Li  Li1  1  0.12671900  0.19475600  0.66761900  1
  Li  Li2  1  0.54631400  0.24890400  0.59307100  1
  Li  Li3  1  0.45368600  0.75109600  0.40692900  1
  Li  Li4  1  0.87328100  0.80524400  0.33238100  1
  Li  Li5  1  0.01991200  0.93222900  0.13665900  1
  Mo  Mo6  1  0.67014800  0.23170000  0.04729900  1
  Mo  Mo7  1  0.22892900  0.35585400  0.40709800  1
  Mo  Mo8  1  0.77107100  0.64414600  0.59290200  1
  Mo  Mo9  1  0.32985200  0.76830000  0.95270100  1
  P  P10  1  0.48414800  0.03798700  0.79328000  1
  P  P11  1  0.22349600  0.01584600  0.39946600  1
  P  P12  1  0.16548100  0.27892900  0.09764800  1
  P  P13  1  0.82765000  0.41659200  0.82146300  1
  P  P14  1  0.72415300  0.40834500  0.35576800  1
  P  P15  1  0.27584700  0.59165500  0.64423200  1
  P  P16  1  0.17235000  0.58340800  0.17853700  1
  P  P17  1  0.83451900  0.72107100  0.90235200  1
  P  P18  1  0.77650400  0.98415400  0.60053400  1
  P  P19  1  0.51585200  0.96201300  0.20672000  1
  O  O20  1  0.96311000  0.01669900  0.68768800  1
  O  O21  1  0.66045600  0.08051300  0.89692000  1
  O  O22  1  0.41171900  0.05727700  0.31218700  1
  O  O23  1  0.71402000  0.10168700  0.52879100  1
  O  O24  1  0.66946900  0.06302800  0.15157200  1
  O  O25  1  0.39538600  0.16273900  0.74248100  1
  O  O26  1  0.21747800  0.16327700  0.48360200  1
  O  O27  1  0.98651000  0.18299200  0.03714900  1
  O  O28  1  0.99511700  0.31860300  0.80114200  1
  O  O29  1  0.19973100  0.25315800  0.23615200  1
  O  O30  1  0.35601100  0.25369200  0.02778700  1
  O  O31  1  0.67341100  0.36954600  0.91717200  1
  O  O32  1  0.92200700  0.35280900  0.40881900  1
  O  O33  1  0.53987500  0.34349100  0.41857300  1
  O  O34  1  0.69889000  0.37318300  0.21121000  1
  O  O35  1  0.26600300  0.42964100  0.59864400  1
  O  O36  1  0.72382000  0.45642900  0.69794500  1
  O  O37  1  0.08658100  0.43361100  0.09906400  1
  O  O38  1  0.91341900  0.56638900  0.90093600  1
  O  O39  1  0.27618000  0.54357100  0.30205500  1
  O  O40  1  0.73399700  0.57035900  0.40135600  1
  O  O41  1  0.30111000  0.62681700  0.78879000  1
  O  O42  1  0.46012500  0.65650900  0.58142700  1
  O  O43  1  0.07799300  0.64719100  0.59118100  1
  O  O44  1  0.32658900  0.63045400  0.08282800  1
  O  O45  1  0.64398900  0.74630800  0.97221300  1
  O  O46  1  0.80026900  0.74684200  0.76384800  1
  O  O47  1  0.00488300  0.68139700  0.19885800  1
  O  O48  1  0.01349000  0.81700800  0.96285100  1
  O  O49  1  0.78252200  0.83672300  0.51639800  1
  O  O50  1  0.60461400  0.83726100  0.25751900  1
  O  O51  1  0.33053100  0.93697200  0.84842800  1
  O  O52  1  0.28598000  0.89831300  0.47120900  1
  O  O53  1  0.58828100  0.94272300  0.68781300  1
  O  O54  1  0.33954400  0.91948700  0.10308000  1
  O  O55  1  0.03689000  0.98330100  0.31231200  1
