# generated using pymatgen
data_LiCr(SiO3)2
_symmetry_space_group_name_H-M   'P 1'
_cell_length_a   8.73808600
_cell_length_b   5.33247600
_cell_length_c   9.31256263
_cell_angle_alpha   77.80420105
_cell_angle_beta   90.00000000
_cell_angle_gamma   90.00000000
_symmetry_Int_Tables_number   1
_chemical_formula_structural   LiCr(SiO3)2
_chemical_formula_sum   'Li4 Cr4 Si8 O24'
_cell_volume   424.13167848
_cell_formula_units_Z   4
loop_
 _symmetry_equiv_pos_site_id
 _symmetry_equiv_pos_as_xyz
  1  'x, y, z'
loop_
 _atom_site_type_symbol
 _atom_site_label
 _atom_site_symmetry_multiplicity
 _atom_site_fract_x
 _atom_site_fract_y
 _atom_site_fract_z
 _atom_site_occupancy
  Li  Li0  1  0.00822200  0.48969900  0.74785300  1
  Li  Li1  1  0.50822200  0.01030100  0.25214700  1
  Li  Li2  1  0.99177800  0.51030100  0.25214700  1
  Li  Li3  1  0.49177800  0.98969900  0.74785300  1
  Cr  Cr4  1  0.65633000  0.48638400  0.75028000  1
  Cr  Cr5  1  0.84367000  0.98638400  0.75028000  1
  Cr  Cr6  1  0.34367000  0.51361600  0.24972000  1
  Cr  Cr7  1  0.15633000  0.01361600  0.24972000  1
  Si  Si8  1  0.65994300  0.27586000  0.45059100  1
  Si  Si9  1  0.65959500  0.70375700  0.04936900  1
  Si  Si10  1  0.15959500  0.79624300  0.95063100  1
  Si  Si11  1  0.34040500  0.29624300  0.95063100  1
  Si  Si12  1  0.84040500  0.20375700  0.04936900  1
  Si  Si13  1  0.15994300  0.22414000  0.54940900  1
  Si  Si14  1  0.34005700  0.72414000  0.54940900  1
  Si  Si15  1  0.84005700  0.77586000  0.45059100  1
  O  O16  1  0.26751000  0.96988100  0.60841000  1
  O  O17  1  0.16639500  0.29465500  0.36670700  1
  O  O18  1  0.66639500  0.20534500  0.63329300  1
  O  O19  1  0.83360500  0.70534500  0.63329300  1
  O  O20  1  0.33360500  0.79465500  0.36670700  1
  O  O21  1  0.66439100  0.77034000  0.86623000  1
  O  O22  1  0.16439100  0.72966000  0.13377000  1
  O  O23  1  0.33560900  0.22966000  0.13377000  1
  O  O24  1  0.83560900  0.27034000  0.86623000  1
  O  O25  1  0.99037800  0.19505100  0.61770600  1
  O  O26  1  0.49037800  0.30494900  0.38229400  1
  O  O27  1  0.00962200  0.80494900  0.38229400  1
  O  O28  1  0.72772600  0.41217300  0.10469000  1
  O  O29  1  0.22772600  0.08782700  0.89531000  1
  O  O30  1  0.27227400  0.58782700  0.89531000  1
  O  O31  1  0.77227400  0.91217300  0.10469000  1
  O  O32  1  0.50962200  0.69505100  0.61770600  1
  O  O33  1  0.76751000  0.53011900  0.39159000  1
  O  O34  1  0.49480600  0.72869700  0.12318200  1
  O  O35  1  0.23249000  0.46988100  0.60841000  1
  O  O36  1  0.00519400  0.22869700  0.12318200  1
  O  O37  1  0.50519400  0.27130300  0.87681800  1
  O  O38  1  0.99480600  0.77130300  0.87681800  1
  O  O39  1  0.73249000  0.03011900  0.39159000  1
