# generated using pymatgen
data_LiCrPO4
_symmetry_space_group_name_H-M   'P 1'
_cell_length_a   5.60158100
_cell_length_b   6.31073037
_cell_length_c   9.35155334
_cell_angle_alpha   75.90983904
_cell_angle_beta   83.06743185
_cell_angle_gamma   76.67395917
_symmetry_Int_Tables_number   1
_chemical_formula_structural   LiCrPO4
_chemical_formula_sum   'Li4 Cr4 P4 O16'
_cell_volume   311.26749779
_cell_formula_units_Z   4
loop_
 _symmetry_equiv_pos_site_id
 _symmetry_equiv_pos_as_xyz
  1  'x, y, z'
loop_
 _atom_site_type_symbol
 _atom_site_label
 _atom_site_symmetry_multiplicity
 _atom_site_fract_x
 _atom_site_fract_y
 _atom_site_fract_z
 _atom_site_occupancy
  Li  Li0  1  0.35386700  0.00568700  0.75742300  1
  Li  Li1  1  0.80807600  0.15375300  0.56959100  1
  Li  Li2  1  0.19192400  0.84624700  0.43040900  1
  Li  Li3  1  0.64613300  0.99431300  0.24257700  1
  Cr  Cr4  1  0.69013600  0.34994000  0.89489800  1
  Cr  Cr5  1  0.18602500  0.52993600  0.72573100  1
  Cr  Cr6  1  0.81397500  0.47006400  0.27426900  1
  Cr  Cr7  1  0.30986400  0.65006000  0.10510200  1
  P  P8  1  0.80848000  0.80570200  0.94668400  1
  P  P9  1  0.68376000  0.68254900  0.57032800  1
  P  P10  1  0.31624000  0.31745100  0.42967200  1
  P  P11  1  0.19152000  0.19429800  0.05331600  1
  O  O12  1  0.61612000  0.66749100  0.93117300  1
  O  O13  1  0.06954400  0.71502100  0.88184900  1
  O  O14  1  0.16528700  0.21525300  0.88633300  1
  O  O15  1  0.70285700  0.04450800  0.86219600  1
  O  O16  1  0.86680600  0.82538300  0.58367300  1
  O  O17  1  0.78034800  0.43923200  0.66105400  1
  O  O18  1  0.41434100  0.77135200  0.63013400  1
  O  O19  1  0.33458300  0.31162100  0.59535600  1
  O  O20  1  0.66541700  0.68837900  0.40464400  1
  O  O21  1  0.58565900  0.22864800  0.36986600  1
  O  O22  1  0.21965200  0.56076800  0.33894600  1
  O  O23  1  0.13319400  0.17461700  0.41632700  1
  O  O24  1  0.29714300  0.95549200  0.13780400  1
  O  O25  1  0.83471300  0.78474700  0.11366700  1
  O  O26  1  0.93045600  0.28497900  0.11815100  1
  O  O27  1  0.38388000  0.33250900  0.06882700  1
