# generated using pymatgen
data_LiCu(PO3)3
_symmetry_space_group_name_H-M   'P 1'
_cell_length_a   9.59125100
_cell_length_b   9.60524417
_cell_length_c   9.62705193
_cell_angle_alpha   105.86045228
_cell_angle_beta   106.85713477
_cell_angle_gamma   112.67707531
_symmetry_Int_Tables_number   1
_chemical_formula_structural   LiCu(PO3)3
_chemical_formula_sum   'Li4 Cu4 P12 O36'
_cell_volume   704.77955372
_cell_formula_units_Z   4
loop_
 _symmetry_equiv_pos_site_id
 _symmetry_equiv_pos_as_xyz
  1  'x, y, z'
loop_
 _atom_site_type_symbol
 _atom_site_label
 _atom_site_symmetry_multiplicity
 _atom_site_fract_x
 _atom_site_fract_y
 _atom_site_fract_z
 _atom_site_occupancy
  Li  Li0  1  0.65226100  0.06828400  0.50134700  1
  Li  Li1  1  0.63823100  0.83310400  0.68116800  1
  Li  Li2  1  0.36176900  0.16689600  0.31883200  1
  Li  Li3  1  0.34773900  0.93171600  0.49865300  1
  Cu  Cu4  1  0.10235700  0.29293800  0.21374500  1
  Cu  Cu5  1  0.89764300  0.70706200  0.78625500  1
  Cu  Cu6  1  0.25814100  0.76955800  0.71818000  1
  Cu  Cu7  1  0.74185900  0.23044200  0.28182000  1
  P  P8  1  0.42410400  0.66442800  0.29581900  1
  P  P9  1  0.01325100  0.39507600  0.64674500  1
  P  P10  1  0.81277600  0.91627900  0.07638400  1
  P  P11  1  0.98674900  0.60492400  0.35325500  1
  P  P12  1  0.68320900  0.56947100  0.41119900  1
  P  P13  1  0.18722400  0.08372100  0.92361600  1
  P  P14  1  0.31679100  0.43052900  0.58880100  1
  P  P15  1  0.95331100  0.21284400  0.84361500  1
  P  P16  1  0.51281400  0.14831200  0.89927800  1
  P  P17  1  0.48718600  0.85168800  0.10072200  1
  P  P18  1  0.57589600  0.33557200  0.70418100  1
  P  P19  1  0.04668900  0.78715600  0.15638500  1
  O  O20  1  0.50573200  0.17631500  0.55670300  1
  O  O21  1  0.21159700  0.92700300  0.29461900  1
  O  O22  1  0.94459100  0.42837700  0.32508000  1
  O  O23  1  0.43320800  0.38522800  0.70450400  1
  O  O24  1  0.43767000  0.98562300  0.74987800  1
  O  O25  1  0.96038100  0.26944900  0.00786400  1
  O  O26  1  0.78840300  0.07299700  0.70538100  1
  O  O27  1  0.39543600  0.61527300  0.64175200  1
  O  O28  1  0.84127100  0.63965200  0.37017200  1
  O  O29  1  0.10453200  0.17746700  0.84530900  1
  O  O30  1  0.98465000  0.62397600  0.19357700  1
  O  O31  1  0.63409200  0.17265200  0.05323500  1
  O  O32  1  0.26205000  0.31295700  0.41641400  1
  O  O33  1  0.26438200  0.51762600  0.25854800  1
  O  O34  1  0.89546800  0.82253300  0.15469100  1
  O  O35  1  0.05540900  0.57162300  0.67492000  1
  O  O36  1  0.78672300  0.86996500  0.90578900  1
  O  O37  1  0.36501500  0.17767900  0.91891500  1
  O  O38  1  0.36590800  0.82734800  0.94676500  1
  O  O39  1  0.09300600  0.90116600  0.80273300  1
  O  O40  1  0.15467400  0.74362300  0.49428200  1
  O  O41  1  0.60456400  0.38472700  0.35824800  1
  O  O42  1  0.03961900  0.73055100  0.99213600  1
  O  O43  1  0.49426800  0.82368500  0.44329700  1
  O  O44  1  0.60822600  0.30183800  0.86303100  1
  O  O45  1  0.21327700  0.13003500  0.09421100  1
  O  O46  1  0.56233000  0.01437700  0.25012200  1
  O  O47  1  0.63498500  0.82232100  0.08108500  1
  O  O48  1  0.15872900  0.36034800  0.62982800  1
  O  O49  1  0.01535000  0.37602400  0.80642300  1
  O  O50  1  0.56679200  0.61477200  0.29549600  1
  O  O51  1  0.90699400  0.09883400  0.19726700  1
  O  O52  1  0.84532600  0.25637700  0.50571800  1
  O  O53  1  0.73561800  0.48237400  0.74145200  1
  O  O54  1  0.73795000  0.68704300  0.58358600  1
  O  O55  1  0.39177400  0.69816200  0.13696900  1
