# generated using pymatgen
data_LiCuPO4
_symmetry_space_group_name_H-M   'P 1'
_cell_length_a   9.25373100
_cell_length_b   4.87457900
_cell_length_c   7.60903236
_cell_angle_alpha   57.37572370
_cell_angle_beta   90.00000000
_cell_angle_gamma   90.00000000
_symmetry_Int_Tables_number   1
_chemical_formula_structural   LiCuPO4
_chemical_formula_sum   'Li4 Cu4 P4 O16'
_cell_volume   289.07534339
_cell_formula_units_Z   4
loop_
 _symmetry_equiv_pos_site_id
 _symmetry_equiv_pos_as_xyz
  1  'x, y, z'
loop_
 _atom_site_type_symbol
 _atom_site_label
 _atom_site_symmetry_multiplicity
 _atom_site_fract_x
 _atom_site_fract_y
 _atom_site_fract_z
 _atom_site_occupancy
  Li  Li0  1  0.35140100  0.34454800  0.68143200  1
  Li  Li1  1  0.85140100  0.65545200  0.81856800  1
  Li  Li2  1  0.14859900  0.34454800  0.18143200  1
  Li  Li3  1  0.64859900  0.65545200  0.31856800  1
  Cu  Cu4  1  0.00000000  0.50000000  0.50000000  1
  Cu  Cu5  1  0.50000000  0.00000000  0.50000000  1
  Cu  Cu6  1  0.00000000  0.00000000  0.00000000  1
  Cu  Cu7  1  0.50000000  0.50000000  0.00000000  1
  P  P8  1  0.17435800  0.85405600  0.68132100  1
  P  P9  1  0.67435800  0.14594400  0.81867900  1
  P  P10  1  0.32564200  0.85405600  0.18132100  1
  P  P11  1  0.82564200  0.14594400  0.31867900  1
  O  O12  1  0.11869200  0.17641400  0.48930000  1
  O  O13  1  0.59530200  0.23143600  0.61406800  1
  O  O14  1  0.15394100  0.55350100  0.66325600  1
  O  O15  1  0.33997900  0.90414100  0.70013900  1
  O  O16  1  0.83997900  0.09585900  0.79986100  1
  O  O17  1  0.65394100  0.44649900  0.83674400  1
  O  O18  1  0.09530200  0.76856400  0.88593200  1
  O  O19  1  0.38130800  0.17641400  0.98930000  1
  O  O20  1  0.61869200  0.82358600  0.01070000  1
  O  O21  1  0.90469800  0.23143600  0.11406800  1
  O  O22  1  0.34605900  0.55350100  0.16325600  1
  O  O23  1  0.16002100  0.90414100  0.20013900  1
  O  O24  1  0.66002100  0.09585900  0.29986100  1
  O  O25  1  0.84605900  0.44649900  0.33674400  1
  O  O26  1  0.40469800  0.76856400  0.38593200  1
  O  O27  1  0.88130800  0.82358600  0.51070000  1
