# generated using pymatgen
data_LiTa3O8
_symmetry_space_group_name_H-M   'P 1'
_cell_length_a   7.73683100
_cell_length_b   9.04683400
_cell_length_c   16.86539300
_cell_angle_alpha   90.00000000
_cell_angle_beta   90.00000000
_cell_angle_gamma   90.00000000
_symmetry_Int_Tables_number   1
_chemical_formula_structural   LiTa3O8
_chemical_formula_sum   'Li8 Ta24 O64'
_cell_volume   1180.47337873
_cell_formula_units_Z   8
loop_
 _symmetry_equiv_pos_site_id
 _symmetry_equiv_pos_as_xyz
  1  'x, y, z'
loop_
 _atom_site_type_symbol
 _atom_site_label
 _atom_site_symmetry_multiplicity
 _atom_site_fract_x
 _atom_site_fract_y
 _atom_site_fract_z
 _atom_site_occupancy
  Li  Li0  1  0.50000000  0.45972700  0.75588200  1
  Li  Li1  1  0.50000000  0.45972700  0.24411800  1
  Li  Li2  1  0.50000000  0.90866100  0.83403700  1
  Li  Li3  1  0.00000000  0.54027300  0.74411800  1
  Li  Li4  1  0.00000000  0.54027300  0.25588200  1
  Li  Li5  1  0.50000000  0.90866100  0.16596300  1
  Li  Li6  1  0.00000000  0.09133900  0.66596300  1
  Li  Li7  1  0.00000000  0.09133900  0.33403700  1
  Ta  Ta8  1  0.74951900  0.18819200  0.81036300  1
  Ta  Ta9  1  0.74808100  0.60660600  0.11723300  1
  Ta  Ta10  1  0.75048100  0.81180800  0.68963700  1
  Ta  Ta11  1  0.75048100  0.81180800  0.31036300  1
  Ta  Ta12  1  0.75152000  0.31242200  0.00000000  1
  Ta  Ta13  1  0.25152000  0.68757800  0.50000000  1
  Ta  Ta14  1  0.24848000  0.31242200  0.00000000  1
  Ta  Ta15  1  0.74951900  0.18819200  0.18963700  1
  Ta  Ta16  1  0.74848000  0.68757800  0.50000000  1
  Ta  Ta17  1  0.25048100  0.18819200  0.18963700  1
  Ta  Ta18  1  0.75191900  0.39339400  0.38276700  1
  Ta  Ta19  1  0.24951900  0.81180800  0.68963700  1
  Ta  Ta20  1  0.25001000  0.94668800  0.00000000  1
  Ta  Ta21  1  0.75001000  0.05331200  0.50000000  1
  Ta  Ta22  1  0.24999000  0.05331200  0.50000000  1
  Ta  Ta23  1  0.24808100  0.39339400  0.61723300  1
  Ta  Ta24  1  0.74999000  0.94668800  0.00000000  1
  Ta  Ta25  1  0.25191900  0.60660600  0.88276700  1
  Ta  Ta26  1  0.24808100  0.39339400  0.38276700  1
  Ta  Ta27  1  0.25191900  0.60660600  0.11723300  1
  Ta  Ta28  1  0.74808100  0.60660600  0.88276700  1
  Ta  Ta29  1  0.25048100  0.18819200  0.81036300  1
  Ta  Ta30  1  0.24951900  0.81180800  0.31036300  1
  Ta  Ta31  1  0.75191900  0.39339400  0.61723300  1
  O  O32  1  0.00000000  0.60198300  0.88949200  1
  O  O33  1  0.75142800  0.38009900  0.11841900  1
  O  O34  1  0.74857200  0.61990100  0.61841900  1
  O  O35  1  0.50000000  0.58358800  0.14731100  1
  O  O36  1  0.72292900  0.87590400  0.42477500  1
  O  O37  1  0.77707100  0.12409600  0.07522500  1
  O  O38  1  0.20811600  0.66020600  0.77000800  1
  O  O39  1  0.00000000  0.41641200  0.35268900  1
  O  O40  1  0.25142800  0.61990100  0.38158100  1
  O  O41  1  0.22486500  0.45162700  0.50000000  1
  O  O42  1  0.20896700  0.18885300  0.58843900  1
  O  O43  1  0.22292900  0.12409600  0.92477500  1
  O  O44  1  0.00000000  0.84869300  0.67686800  1
  O  O45  1  0.50000000  0.98241800  0.00000000  1
  O  O46  1  0.24857200  0.38009900  0.11841900  1
  O  O47  1  0.75142800  0.38009900  0.88158100  1
  O  O48  1  0.00000000  0.33111600  0.00000000  1
  O  O49  1  0.27513500  0.54837300  0.00000000  1
  O  O50  1  0.79188400  0.66020600  0.77000800  1
  O  O51  1  0.29103300  0.81114700  0.91156100  1
  O  O52  1  0.70896700  0.81114700  0.08843900  1
  O  O53  1  0.50000000  0.58358800  0.85268900  1
  O  O54  1  0.20896700  0.18885300  0.41156100  1
  O  O55  1  0.25142800  0.61990100  0.61841900  1
  O  O56  1  0.77513500  0.45162700  0.50000000  1
  O  O57  1  0.24857200  0.38009900  0.88158100  1
  O  O58  1  0.50000000  0.39801700  0.38949200  1
  O  O59  1  0.50000000  0.39801700  0.61050800  1
  O  O60  1  0.00000000  0.19393300  0.78857500  1
  O  O61  1  0.00000000  0.41641200  0.64731100  1
  O  O62  1  0.74857200  0.61990100  0.38158100  1
  O  O63  1  0.25000000  0.00000000  0.75000000  1
  O  O64  1  0.20811600  0.66020600  0.22999200  1
  O  O65  1  0.29188400  0.33979400  0.27000800  1
  O  O66  1  0.72292900  0.87590400  0.57522500  1
  O  O67  1  0.70896700  0.81114700  0.91156100  1
  O  O68  1  0.72486500  0.54837300  0.00000000  1
  O  O69  1  0.79103300  0.18885300  0.41156100  1
  O  O70  1  0.00000000  0.19393300  0.21142500  1
  O  O71  1  0.50000000  0.80606700  0.71142500  1
  O  O72  1  0.50000000  0.08838100  0.50000000  1
  O  O73  1  0.50000000  0.15130700  0.82313200  1
  O  O74  1  0.27707100  0.87590400  0.57522500  1
  O  O75  1  0.50000000  0.29782300  0.00000000  1
  O  O76  1  0.29103300  0.81114700  0.08843900  1
  O  O77  1  0.77707100  0.12409600  0.92477500  1
  O  O78  1  0.70811600  0.33979400  0.72999200  1
  O  O79  1  0.25000000  0.00000000  0.25000000  1
  O  O80  1  0.22292900  0.12409600  0.07522500  1
  O  O81  1  0.75000000  0.00000000  0.25000000  1
  O  O82  1  0.00000000  0.60198300  0.11050800  1
  O  O83  1  0.70811600  0.33979400  0.27000800  1
  O  O84  1  0.00000000  0.91161900  0.00000000  1
  O  O85  1  0.00000000  0.01758200  0.50000000  1
  O  O86  1  0.50000000  0.66888400  0.50000000  1
  O  O87  1  0.27707100  0.87590400  0.42477500  1
  O  O88  1  0.50000000  0.80606700  0.28857500  1
  O  O89  1  0.79188400  0.66020600  0.22999200  1
  O  O90  1  0.00000000  0.70217700  0.50000000  1
  O  O91  1  0.75000000  0.00000000  0.75000000  1
  O  O92  1  0.79103300  0.18885300  0.58843900  1
  O  O93  1  0.00000000  0.84869300  0.32313200  1
  O  O94  1  0.29188400  0.33979400  0.72999200  1
  O  O95  1  0.50000000  0.15130700  0.17686800  1
