# generated using pymatgen
data_Li7Nb8O24
_symmetry_space_group_name_H-M   'P 1'
_cell_length_a   7.67655200
_cell_length_b   9.29253967
_cell_length_c   13.86456408
_cell_angle_alpha   89.98521453
_cell_angle_beta   104.96089022
_cell_angle_gamma   109.28112677
_symmetry_Int_Tables_number   1
_chemical_formula_structural   Li7Nb8O24
_chemical_formula_sum   'Li14 Nb16 O48'
_cell_volume   897.97890150
_cell_formula_units_Z   2
loop_
 _symmetry_equiv_pos_site_id
 _symmetry_equiv_pos_as_xyz
  1  'x, y, z'
loop_
 _atom_site_type_symbol
 _atom_site_label
 _atom_site_symmetry_multiplicity
 _atom_site_fract_x
 _atom_site_fract_y
 _atom_site_fract_z
 _atom_site_occupancy
  Li  Li0  1  0.49883400  0.35749800  0.06922600  1
  Li  Li1  1  0.24417000  0.60150600  0.32124900  1
  Li  Li2  1  0.87360500  0.97833700  0.19438400  1
  Li  Li3  1  0.99182000  0.35217200  0.06998300  1
  Li  Li4  1  0.99302600  0.85152700  0.57121300  1
  Li  Li5  1  0.11990500  0.22948800  0.44471000  1
  Li  Li6  1  0.62012100  0.22992400  0.44726100  1
  Li  Li7  1  0.74172200  0.60298600  0.32184900  1
  Li  Li8  1  0.74002900  0.10343900  0.82150000  1
  Li  Li9  1  0.87347100  0.47758900  0.69690600  1
  Li  Li10  1  0.49722300  0.85582000  0.56839200  1
  Li  Li11  1  0.62015700  0.73165000  0.94744400  1
  Li  Li12  1  0.11990600  0.72751100  0.94530300  1
  Li  Li13  1  0.24602600  0.10034800  0.82019100  1
  Nb  Nb14  1  0.99776800  0.99939100  0.99894900  1
  Nb  Nb15  1  0.74993900  0.25149400  0.24983600  1
  Nb  Nb16  1  0.87777400  0.62572800  0.12525600  1
  Nb  Nb17  1  0.37532500  0.62239400  0.12480400  1
  Nb  Nb18  1  0.50057600  0.50061500  0.50496000  1
  Nb  Nb19  1  0.62420300  0.87975900  0.37167100  1
  Nb  Nb20  1  0.12179600  0.87378200  0.37553500  1
  Nb  Nb21  1  0.25628300  0.24697700  0.24902200  1
  Nb  Nb22  1  0.25556600  0.74689800  0.74788300  1
  Nb  Nb23  1  0.37407300  0.12179300  0.62586000  1
  Nb  Nb24  1  0.87771800  0.12586200  0.62505200  1
  Nb  Nb25  1  0.99408600  0.49807100  0.49843100  1
  Nb  Nb26  1  0.12277000  0.37299000  0.87539100  1
  Nb  Nb27  1  0.62310800  0.37929000  0.87300800  1
  Nb  Nb28  1  0.75085700  0.75175000  0.74989700  1
  Nb  Nb29  1  0.49988800  0.00144200  0.00475200  1
  O  O30  1  0.75973000  0.42961800  0.01293500  1
  O  O31  1  0.93233900  0.76077000  0.02451700  1
  O  O32  1  0.10975400  0.58150800  0.16591700  1
  O  O33  1  0.36683900  0.81054700  0.07496200  1
  O  O34  1  0.55221900  0.15582700  0.10758000  1
  O  O35  1  0.51115500  0.68216700  0.26255100  1
  O  O36  1  0.73075400  0.95445900  0.04112500  1
  O  O37  1  0.69562400  0.01310200  0.27556900  1
  O  O38  1  0.95758300  0.24600900  0.20066600  1
  O  O39  1  0.85600200  0.83070900  0.41559300  1
  O  O40  1  0.11895300  0.06192100  0.13689600  1
  O  O41  1  0.12456200  0.07104700  0.33629300  1
  O  O42  1  0.31089700  0.38320900  0.14867100  1
  O  O43  1  0.29715800  0.39710900  0.35520800  1
  O  O44  1  0.25717500  0.92795100  0.51438300  1
  O  O45  1  0.57937800  0.61063500  0.07370700  1
  O  O46  1  0.49131600  0.21275900  0.29435200  1
  O  O47  1  0.43156300  0.25948600  0.52694100  1
  O  O48  1  0.74809700  0.44928500  0.21246300  1
  O  O49  1  0.69920000  0.48406600  0.44817400  1
  O  O50  1  0.60920300  0.08052100  0.66394000  1
  O  O51  1  0.92042900  0.77384400  0.23197200  1
  O  O52  1  0.88292300  0.30282600  0.38895800  1
  O  O53  1  0.86951500  0.32134100  0.58627300  1
  O  O54  1  0.04622400  0.63272400  0.39761900  1
  O  O55  1  0.04529400  0.64490000  0.60711800  1
  O  O56  1  0.01269900  0.18079200  0.76332100  1
  O  O57  1  0.32934400  0.85171100  0.33375300  1
  O  O58  1  0.22817200  0.45502500  0.52785600  1
  O  O59  1  0.16713000  0.51627300  0.77888700  1
  O  O60  1  0.50197300  0.69568700  0.46412000  1
  O  O61  1  0.45959200  0.74735200  0.69601000  1
  O  O62  1  0.35895900  0.33511500  0.91509000  1
  O  O63  1  0.66985500  0.02349900  0.48167100  1
  O  O64  1  0.65026500  0.55920600  0.63934900  1
  O  O65  1  0.63052700  0.57793900  0.84008200  1
  O  O66  1  0.80929600  0.88710800  0.64933600  1
  O  O67  1  0.79326800  0.89973700  0.85755600  1
  O  O68  1  0.07872900  0.11468300  0.57244300  1
  O  O69  1  0.98702200  0.71545900  0.79219400  1
  O  O70  1  0.23806600  0.94148000  0.70834000  1
  O  O71  1  0.20476600  0.99018800  0.95027200  1
  O  O72  1  0.42172500  0.25698900  0.73922800  1
  O  O73  1  0.39102400  0.80847400  0.88518500  1
  O  O74  1  0.55790900  0.13319700  0.90275500  1
  O  O75  1  0.82373400  0.36068700  0.82258400  1
  O  O76  1  0.99027900  0.19519000  0.95877700  1
  O  O77  1  0.16393500  0.51633800  0.98458900  1
