# generated using pymatgen
data_Li3TaO4
_symmetry_space_group_name_H-M   'P 1'
_cell_length_a   6.05772100
_cell_length_b   6.08017700
_cell_length_c   12.95621986
_cell_angle_alpha   76.55539843
_cell_angle_beta   90.00000000
_cell_angle_gamma   90.00000000
_symmetry_Int_Tables_number   1
_chemical_formula_structural   Li3TaO4
_chemical_formula_sum   'Li18 Ta6 O24'
_cell_volume   464.12601494
_cell_formula_units_Z   6
loop_
 _symmetry_equiv_pos_site_id
 _symmetry_equiv_pos_as_xyz
  1  'x, y, z'
loop_
 _atom_site_type_symbol
 _atom_site_label
 _atom_site_symmetry_multiplicity
 _atom_site_fract_x
 _atom_site_fract_y
 _atom_site_fract_z
 _atom_site_occupancy
  Li  Li0  1  0.12215400  0.82734900  0.09080000  1
  Li  Li1  1  0.62410500  0.12860200  0.41704500  1
  Li  Li2  1  0.87784600  0.17265100  0.90920000  1
  Li  Li3  1  0.62514300  0.67436100  0.42357300  1
  Li  Li4  1  0.12215400  0.17265100  0.40920000  1
  Li  Li5  1  0.61154300  0.00000000  0.75000000  1
  Li  Li6  1  0.37589500  0.87139800  0.58295500  1
  Li  Li7  1  0.62410500  0.87139800  0.08295500  1
  Li  Li8  1  0.62514300  0.32563900  0.07642700  1
  Li  Li9  1  0.16424800  0.00000000  0.75000000  1
  Li  Li10  1  0.37485700  0.32563900  0.57642700  1
  Li  Li11  1  0.37485700  0.67436100  0.92357300  1
  Li  Li12  1  0.38845700  0.00000000  0.25000000  1
  Li  Li13  1  0.37589500  0.12860200  0.91704500  1
  Li  Li14  1  0.87784600  0.82734900  0.59080000  1
  Li  Li15  1  0.87760900  0.50000000  0.25000000  1
  Li  Li16  1  0.83575200  0.00000000  0.25000000  1
  Li  Li17  1  0.12239100  0.50000000  0.75000000  1
  Ta  Ta18  1  0.87730900  0.30211600  0.58349200  1
  Ta  Ta19  1  0.40714300  0.50000000  0.25000000  1
  Ta  Ta20  1  0.12269100  0.69788400  0.41650800  1
  Ta  Ta21  1  0.12269100  0.30211600  0.08349200  1
  Ta  Ta22  1  0.59285700  0.50000000  0.75000000  1
  Ta  Ta23  1  0.87730900  0.69788400  0.91650800  1
  O  O24  1  0.64010500  0.09795100  0.57914300  1
  O  O25  1  0.35762100  0.43479800  0.40741500  1
  O  O26  1  0.88694600  0.09358500  0.08823800  1
  O  O27  1  0.64237900  0.56520200  0.59258500  1
  O  O28  1  0.13744100  0.27179900  0.24090100  1
  O  O29  1  0.88710400  0.42895500  0.42608000  1
  O  O30  1  0.35989500  0.09795100  0.07914300  1
  O  O31  1  0.35762100  0.56520200  0.09258500  1
  O  O32  1  0.64010500  0.90204900  0.92085700  1
  O  O33  1  0.35989500  0.90204900  0.42085700  1
  O  O34  1  0.61159800  0.26064100  0.25492300  1
  O  O35  1  0.38840200  0.26064100  0.75492300  1
  O  O36  1  0.11289600  0.42895500  0.92608000  1
  O  O37  1  0.13744100  0.72820100  0.25909900  1
  O  O38  1  0.61159800  0.73935900  0.24507700  1
  O  O39  1  0.11305400  0.90641500  0.91176200  1
  O  O40  1  0.86255900  0.27179900  0.74090100  1
  O  O41  1  0.88710400  0.57104500  0.07392000  1
  O  O42  1  0.64237900  0.43479800  0.90741500  1
  O  O43  1  0.11305400  0.09358500  0.58823800  1
  O  O44  1  0.11289600  0.57104500  0.57392000  1
  O  O45  1  0.88694600  0.90641500  0.41176200  1
  O  O46  1  0.38840200  0.73935900  0.74507700  1
  O  O47  1  0.86255900  0.72820100  0.75909900  1
