# generated using pymatgen
data_Li9Co3P8O29
_symmetry_space_group_name_H-M   'P 1'
_cell_length_a   9.66487811
_cell_length_b   9.66487811
_cell_length_c   13.68650500
_cell_angle_alpha   90.00000000
_cell_angle_beta   90.00000000
_cell_angle_gamma   120.00000076
_symmetry_Int_Tables_number   1
_chemical_formula_structural   Li9Co3P8O29
_chemical_formula_sum   'Li18 Co6 P16 O58'
_cell_volume   1107.17418532
_cell_formula_units_Z   2
loop_
 _symmetry_equiv_pos_site_id
 _symmetry_equiv_pos_as_xyz
  1  'x, y, z'
loop_
 _atom_site_type_symbol
 _atom_site_label
 _atom_site_symmetry_multiplicity
 _atom_site_fract_x
 _atom_site_fract_y
 _atom_site_fract_z
 _atom_site_occupancy
  Li  Li0  1  0.10018600  0.76346200  0.93598800  1
  Li  Li1  1  0.76346200  0.10018600  0.56401200  1
  Li  Li2  1  0.66327600  0.89981400  0.93598800  1
  Li  Li3  1  0.33672400  0.10018600  0.06401200  1
  Li  Li4  1  0.33333300  0.66666700  0.11971200  1
  Li  Li5  1  0.33672400  0.23653800  0.56401200  1
  Li  Li6  1  0.66666700  0.33333300  0.88028800  1
  Li  Li7  1  0.23653800  0.33672400  0.93598800  1
  Li  Li8  1  0.10018600  0.33672400  0.43598800  1
  Li  Li9  1  0.00000000  0.00000000  0.50000000  1
  Li  Li10  1  0.76346200  0.66327600  0.06401200  1
  Li  Li11  1  0.00000000  0.00000000  0.00000000  1
  Li  Li12  1  0.66666700  0.33333300  0.38028800  1
  Li  Li13  1  0.66327600  0.76346200  0.43598800  1
  Li  Li14  1  0.23653800  0.89981400  0.43598800  1
  Li  Li15  1  0.89981400  0.66327600  0.56401200  1
  Li  Li16  1  0.33333300  0.66666700  0.61971200  1
  Li  Li17  1  0.89981400  0.23653800  0.06401200  1
  Co  Co18  1  0.43378900  0.43378900  0.75000000  1
  Co  Co19  1  0.56621100  0.56621100  0.25000000  1
  Co  Co20  1  0.56621100  0.00000000  0.75000000  1
  Co  Co21  1  0.43378900  0.00000000  0.25000000  1
  Co  Co22  1  0.00000000  0.56621100  0.75000000  1
  Co  Co23  1  0.00000000  0.43378900  0.25000000  1
  P  P24  1  0.67893800  0.90772800  0.15742100  1
  P  P25  1  0.66666700  0.33333300  0.12883500  1
  P  P26  1  0.09227200  0.32106200  0.65742100  1
  P  P27  1  0.32106200  0.09227200  0.84257900  1
  P  P28  1  0.77121000  0.67893800  0.84257900  1
  P  P29  1  0.22879000  0.32106200  0.15742100  1
  P  P30  1  0.33333300  0.66666700  0.37116500  1
  P  P31  1  0.90772800  0.22879000  0.84257900  1
  P  P32  1  0.66666700  0.33333300  0.62883500  1
  P  P33  1  0.67893800  0.77121000  0.65742100  1
  P  P34  1  0.09227200  0.77121000  0.15742100  1
  P  P35  1  0.22879000  0.90772800  0.65742100  1
  P  P36  1  0.33333300  0.66666700  0.87116500  1
  P  P37  1  0.32106200  0.22879000  0.34257900  1
  P  P38  1  0.90772800  0.67893800  0.34257900  1
  P  P39  1  0.77121000  0.09227200  0.34257900  1
  O  O40  1  0.89248800  0.51363600  0.33203800  1
  O  O41  1  0.25851800  0.33601500  0.65767900  1
  O  O42  1  0.74148200  0.07749800  0.84232100  1
  O  O43  1  0.21245700  0.21245700  0.25000000  1
  O  O44  1  0.37885200  0.89248800  0.66796200  1
  O  O45  1  0.00000000  0.21245700  0.75000000  1
  O  O46  1  0.22834300  0.00263300  0.93318800  1
  O  O47  1  0.67702500  0.49141900  0.16574600  1
  O  O48  1  0.78754300  0.78754300  0.75000000  1
  O  O49  1  0.48636400  0.37885200  0.33203800  1
  O  O50  1  0.99736700  0.22571000  0.93318800  1
  O  O51  1  0.22571000  0.99736700  0.56681200  1
  O  O52  1  0.32297500  0.81439400  0.33425400  1
  O  O53  1  0.89248800  0.37885200  0.83203800  1
  O  O54  1  0.99736700  0.77165700  0.43318800  1
  O  O55  1  0.77429000  0.77165700  0.93318800  1
  O  O56  1  0.81439400  0.49141900  0.66574600  1
  O  O57  1  0.48636400  0.10751200  0.83203800  1
  O  O58  1  0.78754300  0.00000000  0.25000000  1
  O  O59  1  0.49141900  0.67702500  0.33425400  1
  O  O60  1  0.92250200  0.25851800  0.34232100  1
  O  O61  1  0.66398500  0.92250200  0.65767900  1
  O  O62  1  0.25851800  0.92250200  0.15767900  1
  O  O63  1  0.22834300  0.22571000  0.43318800  1
  O  O64  1  0.33333300  0.66666700  0.48217000  1
  O  O65  1  0.00263300  0.77429000  0.06681200  1
  O  O66  1  0.07749800  0.33601500  0.15767900  1
  O  O67  1  0.37885200  0.48636400  0.16796200  1
  O  O68  1  0.50858100  0.32297500  0.66574600  1
  O  O69  1  0.21245700  0.00000000  0.75000000  1
  O  O70  1  0.62114800  0.10751200  0.33203800  1
  O  O71  1  0.66666700  0.33333300  0.51783000  1
  O  O72  1  0.66398500  0.74148200  0.15767900  1
  O  O73  1  0.33333300  0.66666700  0.98217000  1
  O  O74  1  0.18560600  0.67702500  0.83425400  1
  O  O75  1  0.51363600  0.62114800  0.66796200  1
  O  O76  1  0.67702500  0.18560600  0.66574600  1
  O  O77  1  0.00263300  0.22834300  0.56681200  1
  O  O78  1  0.22571000  0.22834300  0.06681200  1
  O  O79  1  0.81439400  0.32297500  0.16574600  1
  O  O80  1  0.74148200  0.66398500  0.34232100  1
  O  O81  1  0.77165700  0.77429000  0.56681200  1
  O  O82  1  0.62114800  0.51363600  0.83203800  1
  O  O83  1  0.51363600  0.89248800  0.16796200  1
  O  O84  1  0.77429000  0.00263300  0.43318800  1
  O  O85  1  0.07749800  0.74148200  0.65767900  1
  O  O86  1  0.10751200  0.48636400  0.66796200  1
  O  O87  1  0.50858100  0.18560600  0.16574600  1
  O  O88  1  0.32297500  0.50858100  0.83425400  1
  O  O89  1  0.77165700  0.99736700  0.06681200  1
  O  O90  1  0.18560600  0.50858100  0.33425400  1
  O  O91  1  0.10751200  0.62114800  0.16796200  1
  O  O92  1  0.33601500  0.25851800  0.84232100  1
  O  O93  1  0.66666700  0.33333300  0.01783000  1
  O  O94  1  0.00000000  0.78754300  0.25000000  1
  O  O95  1  0.33601500  0.07749800  0.34232100  1
  O  O96  1  0.49141900  0.81439400  0.83425400  1
  O  O97  1  0.92250200  0.66398500  0.84232100  1
