# generated using pymatgen
data_LiMo4(P2O11)2
_symmetry_space_group_name_H-M   'P 1'
_cell_length_a   6.47368700
_cell_length_b   7.57435677
_cell_length_c   9.09566452
_cell_angle_alpha   105.72879999
_cell_angle_beta   90.24924914
_cell_angle_gamma   90.54508676
_symmetry_Int_Tables_number   1
_chemical_formula_structural   LiMo4(P2O11)2
_chemical_formula_sum   'Li1 Mo4 P4 O22'
_cell_volume   429.26631314
_cell_formula_units_Z   1
loop_
 _symmetry_equiv_pos_site_id
 _symmetry_equiv_pos_as_xyz
  1  'x, y, z'
loop_
 _atom_site_type_symbol
 _atom_site_label
 _atom_site_symmetry_multiplicity
 _atom_site_fract_x
 _atom_site_fract_y
 _atom_site_fract_z
 _atom_site_occupancy
  Li  Li0  1  0.00000000  0.50000000  0.00000000  1
  Mo  Mo1  1  0.74516000  0.83145100  0.14739500  1
  Mo  Mo2  1  0.75313200  0.60934900  0.70323500  1
  Mo  Mo3  1  0.24686800  0.39065100  0.29676500  1
  Mo  Mo4  1  0.25484000  0.16854900  0.85260500  1
  P  P5  1  0.24742700  0.92383400  0.11663700  1
  P  P6  1  0.75088700  0.49036500  0.32537900  1
  P  P7  1  0.24911300  0.50963500  0.67462100  1
  P  P8  1  0.75257300  0.07616600  0.88336300  1
  O  O9  1  0.75875700  0.96714000  0.32814800  1
  O  O10  1  0.44141600  0.80313400  0.11658000  1
  O  O11  1  0.05982400  0.79197000  0.11007300  1
  O  O12  1  0.75699800  0.90757200  0.74900700  1
  O  O13  1  0.25038000  0.97380200  0.96045800  1
  O  O14  1  0.76551200  0.58238400  0.19040800  1
  O  O15  1  0.24414200  0.62444300  0.36175900  1
  O  O16  1  0.74715000  0.63720400  0.47861800  1
  O  O17  1  0.06299400  0.63970100  0.69004900  1
  O  O18  1  0.44533700  0.63350700  0.70009700  1
  O  O19  1  0.23280700  0.36085900  0.09221300  1
  O  O20  1  0.76719300  0.63914100  0.90778700  1
  O  O21  1  0.55466300  0.36649300  0.29990300  1
  O  O22  1  0.93700600  0.36029900  0.30995100  1
  O  O23  1  0.25285000  0.36279600  0.52138200  1
  O  O24  1  0.75585800  0.37555700  0.63824100  1
  O  O25  1  0.23448800  0.41761600  0.80959200  1
  O  O26  1  0.74962000  0.02619800  0.03954200  1
  O  O27  1  0.24300200  0.09242800  0.25099300  1
  O  O28  1  0.94017600  0.20803000  0.88992700  1
  O  O29  1  0.55858400  0.19686600  0.88342000  1
  O  O30  1  0.24124300  0.03286000  0.67185200  1
