# generated using pymatgen
data_BaLiZr2F11
_symmetry_space_group_name_H-M   'P 1'
_cell_length_a   8.21993472
_cell_length_b   8.21993472
_cell_length_c   8.21993472
_cell_angle_alpha   119.05130169
_cell_angle_beta   119.05130169
_cell_angle_gamma   91.65120120
_symmetry_Int_Tables_number   1
_chemical_formula_structural   BaLiZr2F11
_chemical_formula_sum   'Ba2 Li2 Zr4 F22'
_cell_volume   398.17900758
_cell_formula_units_Z   2
loop_
 _symmetry_equiv_pos_site_id
 _symmetry_equiv_pos_as_xyz
  1  'x, y, z'
loop_
 _atom_site_type_symbol
 _atom_site_label
 _atom_site_symmetry_multiplicity
 _atom_site_fract_x
 _atom_site_fract_y
 _atom_site_fract_z
 _atom_site_occupancy
  Ba  Ba0  1  0.19324400  0.19324400  0.00000000  1
  Ba  Ba1  1  0.80675600  0.80675600  0.00000000  1
  Li  Li2  1  0.75000000  0.25000000  0.50000000  1
  Li  Li3  1  0.25000000  0.75000000  0.50000000  1
  Zr  Zr4  1  0.63653500  0.21502100  0.85155600  1
  Zr  Zr5  1  0.78497900  0.63653500  0.42151500  1
  Zr  Zr6  1  0.36346500  0.78497900  0.14844400  1
  Zr  Zr7  1  0.21502100  0.36346500  0.57848500  1
  F  F8  1  0.80954900  0.53171200  0.13246500  1
  F  F9  1  0.81398400  0.87880600  0.69279000  1
  F  F10  1  0.05240000  0.83811400  0.56388700  1
  F  F11  1  0.16188600  0.72577300  0.21428500  1
  F  F12  1  0.53171200  0.39924700  0.72216200  1
  F  F13  1  0.67708400  0.80954900  0.27783800  1
  F  F14  1  0.48851200  0.05240000  0.21428500  1
  F  F15  1  0.60075300  0.32291600  0.13246500  1
  F  F16  1  0.51148800  0.94760000  0.78571500  1
  F  F17  1  0.12119400  0.81398400  0.93517800  1
  F  F18  1  0.50000000  0.00000000  0.50000000  1
  F  F19  1  0.87880600  0.18601600  0.06482200  1
  F  F20  1  0.94760000  0.16188600  0.43611300  1
  F  F21  1  0.46828800  0.60075300  0.27783800  1
  F  F22  1  0.39924700  0.67708400  0.86753500  1
  F  F23  1  0.19045100  0.46828800  0.86753500  1
  F  F24  1  0.32291600  0.19045100  0.72216200  1
  F  F25  1  0.83811400  0.27422700  0.78571500  1
  F  F26  1  0.00000000  0.50000000  0.50000000  1
  F  F27  1  0.72577300  0.51148800  0.56388700  1
  F  F28  1  0.18601600  0.12119400  0.30721000  1
  F  F29  1  0.27422700  0.48851200  0.43611300  1
