# generated using pymatgen
data_Na2LiFeO4
_symmetry_space_group_name_H-M   'P 1'
_cell_length_a   6.33711000
_cell_length_b   7.74026700
_cell_length_c   8.53815800
_cell_angle_alpha   90.00000000
_cell_angle_beta   90.00000000
_cell_angle_gamma   90.00000000
_symmetry_Int_Tables_number   1
_chemical_formula_structural   Na2LiFeO4
_chemical_formula_sum   'Na8 Li4 Fe4 O16'
_cell_volume   418.80453411
_cell_formula_units_Z   4
loop_
 _symmetry_equiv_pos_site_id
 _symmetry_equiv_pos_as_xyz
  1  'x, y, z'
loop_
 _atom_site_type_symbol
 _atom_site_label
 _atom_site_symmetry_multiplicity
 _atom_site_fract_x
 _atom_site_fract_y
 _atom_site_fract_z
 _atom_site_occupancy
  Na  Na0  1  0.73856300  0.50000000  0.00000000  1
  Na  Na1  1  0.00000000  0.75884500  0.24152200  1
  Na  Na2  1  0.50000000  0.25884500  0.25847800  1
  Na  Na3  1  0.23856300  0.00000000  0.50000000  1
  Na  Na4  1  0.76143700  0.00000000  0.50000000  1
  Na  Na5  1  0.50000000  0.74115500  0.74152200  1
  Na  Na6  1  0.00000000  0.24115500  0.75847800  1
  Na  Na7  1  0.26143700  0.50000000  0.00000000  1
  Li  Li8  1  0.50000000  0.83825000  0.08492500  1
  Li  Li9  1  0.00000000  0.33825000  0.41507500  1
  Li  Li10  1  0.00000000  0.66175000  0.58492500  1
  Li  Li11  1  0.50000000  0.16175000  0.91507500  1
  Fe  Fe12  1  0.00000000  0.21086900  0.13139400  1
  Fe  Fe13  1  0.50000000  0.71086900  0.36860600  1
  Fe  Fe14  1  0.50000000  0.28913100  0.63139400  1
  Fe  Fe15  1  0.00000000  0.78913100  0.86860600  1
  O  O16  1  0.75566700  0.20121100  0.03477700  1
  O  O17  1  0.24433300  0.20121100  0.03477700  1
  O  O18  1  0.50000000  0.58058800  0.20286800  1
  O  O19  1  0.00000000  0.42516600  0.19893400  1
  O  O20  1  0.50000000  0.92516600  0.30106600  1
  O  O21  1  0.00000000  0.08058800  0.29713200  1
  O  O22  1  0.25566700  0.70121100  0.46522300  1
  O  O23  1  0.74433300  0.70121100  0.46522300  1
  O  O24  1  0.74433300  0.29878900  0.53477700  1
  O  O25  1  0.25566700  0.29878900  0.53477700  1
  O  O26  1  0.00000000  0.91941200  0.70286800  1
  O  O27  1  0.50000000  0.07483400  0.69893400  1
  O  O28  1  0.00000000  0.57483400  0.80106600  1
  O  O29  1  0.50000000  0.41941200  0.79713200  1
  O  O30  1  0.75566700  0.79878900  0.96522300  1
  O  O31  1  0.24433300  0.79878900  0.96522300  1
