# generated using pymatgen
data_Li4SiO4
_symmetry_space_group_name_H-M   'P 1'
_cell_length_a   6.12778800
_cell_length_b   11.64405100
_cell_length_c   16.83604301
_cell_angle_alpha   81.03006278
_cell_angle_beta   90.00000000
_cell_angle_gamma   90.00000000
_symmetry_Int_Tables_number   1
_chemical_formula_structural   Li4SiO4
_chemical_formula_sum   'Li56 Si14 O56'
_cell_volume   1186.59855308
_cell_formula_units_Z   14
loop_
 _symmetry_equiv_pos_site_id
 _symmetry_equiv_pos_as_xyz
  1  'x, y, z'
loop_
 _atom_site_type_symbol
 _atom_site_label
 _atom_site_symmetry_multiplicity
 _atom_site_fract_x
 _atom_site_fract_y
 _atom_site_fract_z
 _atom_site_occupancy
  Li  Li0  1  0.25000000  0.02743000  0.42982600  1
  Li  Li1  1  0.49432300  0.47693700  0.11719300  1
  Li  Li2  1  0.00655900  0.33668600  0.82683300  1
  Li  Li3  1  0.03925900  0.76206300  0.59811700  1
  Li  Li4  1  0.98592600  0.07932700  0.13285700  1
  Li  Li5  1  0.75000000  0.87334800  0.71141900  1
  Li  Li6  1  0.53058400  0.80705500  0.01488600  1
  Li  Li7  1  0.25000000  0.72544500  0.85974700  1
  Li  Li8  1  0.02938300  0.05084700  0.70709800  1
  Li  Li9  1  0.03058400  0.19294500  0.98511400  1
  Li  Li10  1  0.97061700  0.94915300  0.29290200  1
  Li  Li11  1  0.99635300  0.38341400  0.59181400  1
  Li  Li12  1  0.53461400  0.66588000  0.73240300  1
  Li  Li13  1  0.25000000  0.99448900  0.01061300  1
  Li  Li14  1  0.25000000  0.85993100  0.73241700  1
  Li  Li15  1  0.75000000  0.27455500  0.14025300  1
  Li  Li16  1  0.46074100  0.76206300  0.59811700  1
  Li  Li17  1  0.00364700  0.61658600  0.40818600  1
  Li  Li18  1  0.51407400  0.07932700  0.13285700  1
  Li  Li19  1  0.99678800  0.81212500  0.45453200  1
  Li  Li20  1  0.25000000  0.87135100  0.14646500  1
  Li  Li21  1  0.96074100  0.23793700  0.40188300  1
  Li  Li22  1  0.49678800  0.18787500  0.54546800  1
  Li  Li23  1  0.50364700  0.38341400  0.59181400  1
  Li  Li24  1  0.03461400  0.33412000  0.26759700  1
  Li  Li25  1  0.25000000  0.41048200  0.98328100  1
  Li  Li26  1  0.75000000  0.72806400  0.30416300  1
  Li  Li27  1  0.47061700  0.05084700  0.70709800  1
  Li  Li28  1  0.53925900  0.23793700  0.40188300  1
  Li  Li29  1  0.49635300  0.61658600  0.40818600  1
  Li  Li30  1  0.52938300  0.94915300  0.29290200  1
  Li  Li31  1  0.50655900  0.66331400  0.17316700  1
  Li  Li32  1  0.99344100  0.66331400  0.17316700  1
  Li  Li33  1  0.00567700  0.47693700  0.11719300  1
  Li  Li34  1  0.25000000  0.54718000  0.27736800  1
  Li  Li35  1  0.25000000  0.12665200  0.28858100  1
  Li  Li36  1  0.00321200  0.18787500  0.54546800  1
  Li  Li37  1  0.48592600  0.92067300  0.86714300  1
  Li  Li38  1  0.75000000  0.14006900  0.26758300  1
  Li  Li39  1  0.25000000  0.27193600  0.69583700  1
  Li  Li40  1  0.75000000  0.00551100  0.98938700  1
  Li  Li41  1  0.75000000  0.97257000  0.57017400  1
  Li  Li42  1  0.25000000  0.58273200  0.55011100  1
  Li  Li43  1  0.46538600  0.33412000  0.26759700  1
  Li  Li44  1  0.01407400  0.92067300  0.86714300  1
  Li  Li45  1  0.75000000  0.41726800  0.44988900  1
  Li  Li46  1  0.75000000  0.12864900  0.85353500  1
  Li  Li47  1  0.99432300  0.52306300  0.88280700  1
  Li  Li48  1  0.96538600  0.66588000  0.73240300  1
  Li  Li49  1  0.75000000  0.45282000  0.72263200  1
  Li  Li50  1  0.96941600  0.80705500  0.01488600  1
  Li  Li51  1  0.49344100  0.33668600  0.82683300  1
  Li  Li52  1  0.50567700  0.52306300  0.88280700  1
  Li  Li53  1  0.46941600  0.19294500  0.98511400  1
  Li  Li54  1  0.75000000  0.58951800  0.01671900  1
  Li  Li55  1  0.50321200  0.81212500  0.45453200  1
  Si  Si56  1  0.25000000  0.52272700  0.71387500  1
  Si  Si57  1  0.25000000  0.24787300  0.13789200  1
  Si  Si58  1  0.75000000  0.47727300  0.28612500  1
  Si  Si59  1  0.75000000  0.61583700  0.57118000  1
  Si  Si60  1  0.75000000  0.89543300  0.14360000  1
  Si  Si61  1  0.75000000  0.34112900  0.99384200  1
  Si  Si62  1  0.25000000  0.65887100  0.00615800  1
  Si  Si63  1  0.75000000  0.75212700  0.86210800  1
  Si  Si64  1  0.25000000  0.38416300  0.42882000  1
  Si  Si65  1  0.25000000  0.10456700  0.85640000  1
  Si  Si66  1  0.75000000  0.04012000  0.42118700  1
  Si  Si67  1  0.25000000  0.79816400  0.29247200  1
  Si  Si68  1  0.75000000  0.20183600  0.70752800  1
  Si  Si69  1  0.25000000  0.95988000  0.57881300  1
  O  O70  1  0.25000000  0.66627000  0.67580800  1
  O  O71  1  0.25000000  0.09140300  0.52959000  1
  O  O72  1  0.75000000  0.76189900  0.18738000  1
  O  O73  1  0.25000000  0.71761900  0.22065900  1
  O  O74  1  0.52596600  0.35759900  0.93948700  1
  O  O75  1  0.75000000  0.69602800  0.64709600  1
  O  O76  1  0.75000000  0.61649200  0.90150600  1
  O  O77  1  0.52773800  0.65512200  0.51849300  1
  O  O78  1  0.46903700  0.21475100  0.19623000  1
  O  O79  1  0.96903700  0.78524900  0.80377000  1
  O  O80  1  0.25000000  0.38350800  0.09849400  1
  O  O81  1  0.53201600  0.92757400  0.08383800  1
  O  O82  1  0.52799500  0.49799100  0.23003000  1
  O  O83  1  0.25000000  0.00759900  0.79307800  1
  O  O84  1  0.97509800  0.21759200  0.65375000  1
  O  O85  1  0.75000000  0.99240100  0.20692200  1
  O  O86  1  0.97403400  0.35759900  0.93948700  1
  O  O87  1  0.25000000  0.93757000  0.24607900  1
  O  O88  1  0.02799500  0.50200900  0.76997000  1
  O  O89  1  0.25000000  0.44419200  0.64089000  1
  O  O90  1  0.52490200  0.21759200  0.65375000  1
  O  O91  1  0.75000000  0.13291700  0.48576500  1
  O  O92  1  0.47226200  0.34487800  0.48150700  1
  O  O93  1  0.53144200  0.06937200  0.36175900  1
  O  O94  1  0.97226200  0.65512200  0.51849300  1
  O  O95  1  0.25000000  0.23810100  0.81262000  1
  O  O96  1  0.02490200  0.78240800  0.34625000  1
  O  O97  1  0.96855800  0.06937200  0.36175900  1
  O  O98  1  0.97200500  0.49799100  0.23003000  1
  O  O99  1  0.03144200  0.93062800  0.63824100  1
  O  O100  1  0.75000000  0.33373000  0.32419200  1
  O  O101  1  0.47200500  0.50200900  0.76997000  1
  O  O102  1  0.75000000  0.47656700  0.60498100  1
  O  O103  1  0.53096300  0.78524900  0.80377000  1
  O  O104  1  0.25000000  0.57900900  0.93371400  1
  O  O105  1  0.46798400  0.07242600  0.91616200  1
  O  O106  1  0.47509800  0.78240800  0.34625000  1
  O  O107  1  0.25000000  0.30397200  0.35290400  1
  O  O108  1  0.96798400  0.92757400  0.08383800  1
  O  O109  1  0.47403400  0.64240100  0.06051300  1
  O  O110  1  0.25000000  0.52343300  0.39501900  1
  O  O111  1  0.75000000  0.28238100  0.77934100  1
  O  O112  1  0.75000000  0.42099100  0.06628600  1
  O  O113  1  0.25000000  0.86708300  0.51423500  1
  O  O114  1  0.02773800  0.34487800  0.48150700  1
  O  O115  1  0.75000000  0.84425500  0.92911400  1
  O  O116  1  0.75000000  0.55580800  0.35911000  1
  O  O117  1  0.25000000  0.15574500  0.07088600  1
  O  O118  1  0.75000000  0.06243000  0.75392100  1
  O  O119  1  0.75000000  0.90859700  0.47041000  1
  O  O120  1  0.02596600  0.64240100  0.06051300  1
  O  O121  1  0.46855800  0.93062800  0.63824100  1
  O  O122  1  0.03096300  0.21475100  0.19623000  1
  O  O123  1  0.75000000  0.20019600  0.03966700  1
  O  O124  1  0.03201600  0.07242600  0.91616200  1
  O  O125  1  0.25000000  0.79980400  0.96033300  1
