# generated using pymatgen
data_LiScGeO4
_symmetry_space_group_name_H-M   'P 1'
_cell_length_a   5.02410600
_cell_length_b   6.05707800
_cell_length_c   10.77110800
_cell_angle_alpha   90.00000000
_cell_angle_beta   90.00000000
_cell_angle_gamma   90.00000000
_symmetry_Int_Tables_number   1
_chemical_formula_structural   LiScGeO4
_chemical_formula_sum   'Li4 Sc4 Ge4 O16'
_cell_volume   327.77991670
_cell_formula_units_Z   4
loop_
 _symmetry_equiv_pos_site_id
 _symmetry_equiv_pos_as_xyz
  1  'x, y, z'
loop_
 _atom_site_type_symbol
 _atom_site_label
 _atom_site_symmetry_multiplicity
 _atom_site_fract_x
 _atom_site_fract_y
 _atom_site_fract_z
 _atom_site_occupancy
  Li  Li0  1  0.00000000  0.00000000  0.00000000  1
  Li  Li1  1  0.50000000  0.00000000  0.50000000  1
  Li  Li2  1  0.00000000  0.50000000  0.00000000  1
  Li  Li3  1  0.50000000  0.50000000  0.50000000  1
  Sc  Sc4  1  0.99624100  0.75000000  0.27184500  1
  Sc  Sc5  1  0.49624100  0.25000000  0.22815500  1
  Sc  Sc6  1  0.00375900  0.25000000  0.72815500  1
  Sc  Sc7  1  0.50375900  0.75000000  0.77184500  1
  Ge  Ge8  1  0.55030700  0.75000000  0.09006800  1
  Ge  Ge9  1  0.05030700  0.25000000  0.40993200  1
  Ge  Ge10  1  0.44969300  0.25000000  0.90993200  1
  Ge  Ge11  1  0.94969300  0.75000000  0.59006800  1
  O  O12  1  0.20362900  0.75000000  0.09715000  1
  O  O13  1  0.70362900  0.25000000  0.40285000  1
  O  O14  1  0.79637100  0.25000000  0.90285000  1
  O  O15  1  0.29637100  0.75000000  0.59715000  1
  O  O16  1  0.80047400  0.75000000  0.44187900  1
  O  O17  1  0.30047400  0.25000000  0.05812100  1
  O  O18  1  0.19952600  0.25000000  0.55812100  1
  O  O19  1  0.69952600  0.75000000  0.94187900  1
  O  O20  1  0.71493800  0.97023400  0.17312100  1
  O  O21  1  0.21493800  0.02976600  0.32687900  1
  O  O22  1  0.28506200  0.47023400  0.82687900  1
  O  O23  1  0.78506200  0.52976600  0.67312100  1
  O  O24  1  0.28506200  0.02976600  0.82687900  1
  O  O25  1  0.78506200  0.97023400  0.67312100  1
  O  O26  1  0.71493800  0.52976600  0.17312100  1
  O  O27  1  0.21493800  0.47023400  0.32687900  1
