# generated using pymatgen
data_Li2GeF6
_symmetry_space_group_name_H-M   'P 1'
_cell_length_a   8.56255822
_cell_length_b   8.56255822
_cell_length_c   4.69465200
_cell_angle_alpha   90.00000000
_cell_angle_beta   90.00000000
_cell_angle_gamma   120.00000168
_symmetry_Int_Tables_number   1
_chemical_formula_structural   Li2GeF6
_chemical_formula_sum   'Li6 Ge3 F18'
_cell_volume   298.08567365
_cell_formula_units_Z   3
loop_
 _symmetry_equiv_pos_site_id
 _symmetry_equiv_pos_as_xyz
  1  'x, y, z'
loop_
 _atom_site_type_symbol
 _atom_site_label
 _atom_site_symmetry_multiplicity
 _atom_site_fract_x
 _atom_site_fract_y
 _atom_site_fract_z
 _atom_site_occupancy
  Li  Li0  1  0.70192300  0.00000000  0.50000000  1
  Li  Li1  1  0.63342200  0.63342200  0.00000000  1
  Li  Li2  1  0.00000000  0.36657800  0.00000000  1
  Li  Li3  1  0.36657800  0.00000000  0.00000000  1
  Li  Li4  1  0.00000000  0.70192300  0.50000000  1
  Li  Li5  1  0.29807700  0.29807700  0.50000000  1
  Ge  Ge6  1  0.66666700  0.33333300  0.51232100  1
  Ge  Ge7  1  0.33333300  0.66666700  0.48767900  1
  Ge  Ge8  1  0.00000000  0.00000000  0.00000000  1
  F  F9  1  0.09603200  0.20417700  0.21892400  1
  F  F10  1  0.10814500  0.90396800  0.21892400  1
  F  F11  1  0.79582300  0.89185500  0.21892400  1
  F  F12  1  0.46227900  0.22415800  0.29234300  1
  F  F13  1  0.77584200  0.23812100  0.29234300  1
  F  F14  1  0.76187900  0.53772100  0.29234300  1
  F  F15  1  0.23812100  0.77584200  0.70765700  1
  F  F16  1  0.53772100  0.76187900  0.70765700  1
  F  F17  1  0.22415800  0.46227900  0.70765700  1
  F  F18  1  0.42046500  0.55032400  0.26710200  1
  F  F19  1  0.44967600  0.87014100  0.26710200  1
  F  F20  1  0.12985900  0.57953500  0.26710200  1
  F  F21  1  0.87014100  0.44967600  0.73289800  1
  F  F22  1  0.57953500  0.12985900  0.73289800  1
  F  F23  1  0.55032400  0.42046500  0.73289800  1
  F  F24  1  0.20417700  0.09603200  0.78107600  1
  F  F25  1  0.90396800  0.10814500  0.78107600  1
  F  F26  1  0.89185500  0.79582300  0.78107600  1
