# generated using pymatgen
data_LiCoP2O7
_symmetry_space_group_name_H-M   'P 1'
_cell_length_a   6.23603972
_cell_length_b   10.34382803
_cell_length_c   9.05089099
_cell_angle_alpha   64.70023612
_cell_angle_beta   106.64718282
_cell_angle_gamma   94.58830081
_symmetry_Int_Tables_number   1
_chemical_formula_structural   LiCoP2O7
_chemical_formula_sum   'Li4 Co4 P8 O28'
_cell_volume   505.09568360
_cell_formula_units_Z   4
loop_
 _symmetry_equiv_pos_site_id
 _symmetry_equiv_pos_as_xyz
  1  'x, y, z'
loop_
 _atom_site_type_symbol
 _atom_site_label
 _atom_site_symmetry_multiplicity
 _atom_site_fract_x
 _atom_site_fract_y
 _atom_site_fract_z
 _atom_site_occupancy
  Li  Li0  1  0.53515018  0.01829470  0.49774793  1
  Li  Li1  1  0.35799961  0.61783468  0.92509223  1
  Li  Li2  1  0.02504220  0.51149759  0.17361304  1
  Li  Li3  1  0.93456646  0.47265148  0.84414994  1
  Co  Co4  1  0.70962680  0.77770008  0.09960813  1
  Co  Co5  1  0.62681929  0.75389977  0.48086438  1
  Co  Co6  1  0.29282598  0.22629420  0.89621498  1
  Co  Co7  1  0.37301512  0.25354137  0.51035423  1
  P  P8  1  0.29937622  0.96408820  0.80777627  1
  P  P9  1  0.41573587  0.46657695  0.69174519  1
  P  P10  1  0.70410507  0.04349557  0.18174455  1
  P  P11  1  0.89284247  0.29772867  0.56134703  1
  P  P12  1  0.10386159  0.21184337  0.18580881  1
  P  P13  1  0.90633269  0.79258181  0.80615709  1
  P  P14  1  0.10704770  0.70759701  0.42986432  1
  P  P15  1  0.57889313  0.54029236  0.30178149  1
  O  O16  1  0.63572634  0.57321951  0.13305249  1
  O  O17  1  0.31651500  0.18875259  0.33658469  1
  O  O18  1  0.62297470  0.55268210  0.66239063  1
  O  O19  1  0.56062703  0.69580415  0.28928528  1
  O  O20  1  0.31371454  0.79453830  0.45267419  1
  O  O21  1  0.05501445  0.28147409  0.47077762  1
  O  O22  1  0.43757419  0.31174255  0.70388259  1
  O  O23  1  0.15469189  0.15304139  0.07047462  1
  O  O24  1  0.94459382  0.72921755  0.51654850  1
  O  O25  1  0.02883533  0.64562636  0.89029054  1
  O  O26  1  0.37248518  0.45436781  0.33007566  1
  O  O27  1  0.99651795  0.29187056  0.73884348  1
  O  O28  1  0.93437542  0.09624032  0.27213067  1
  O  O29  1  0.06586843  0.91464564  0.71636721  1
  O  O30  1  0.35290260  0.44055583  0.85487337  1
  O  O31  1  0.68885323  0.81356299  0.66018686  1
  O  O32  1  0.20691875  0.54184660  0.53394270  1
  O  O33  1  0.60754899  0.95356350  0.33208333  1
  O  O34  1  0.00033395  0.70868725  0.25402977  1
  O  O35  1  0.75193820  0.96232478  0.08797294  1
  O  O36  1  0.42923455  0.81852246  0.92611797  1
  O  O37  1  0.99934106  0.36245236  0.09464969  1
  O  O38  1  0.68662463  0.21006349  0.53716199  1
  O  O39  1  0.57249642  0.18596811  0.05915327  1
  O  O40  1  0.78968078  0.46343853  0.45545638  1
  O  O41  1  0.85615382  0.84180527  0.92902824  1
  O  O42  1  0.25690334  0.04059011  0.90709085  1
  O  O43  1  0.39868502  0.05434199  0.66064587  1
