# generated using pymatgen
data_LiSn2(PO4)3
_symmetry_space_group_name_H-M   'P 1'
_cell_length_a   8.55016036
_cell_length_b   8.56403514
_cell_length_c   9.02612132
_cell_angle_alpha   118.04231440
_cell_angle_beta   90.30425946
_cell_angle_gamma   119.49173194
_symmetry_Int_Tables_number   1
_chemical_formula_structural   LiSn2(PO4)3
_chemical_formula_sum   'Li2 Sn4 P6 O24'
_cell_volume   483.03829720
_cell_formula_units_Z   2
loop_
 _symmetry_equiv_pos_site_id
 _symmetry_equiv_pos_as_xyz
  1  'x, y, z'
loop_
 _atom_site_type_symbol
 _atom_site_label
 _atom_site_symmetry_multiplicity
 _atom_site_fract_x
 _atom_site_fract_y
 _atom_site_fract_z
 _atom_site_occupancy
  Li  Li0  1  0.77312095  0.24773036  0.42374736  1
  Li  Li1  1  0.22687905  0.75226964  0.57625264  1
  Sn  Sn2  1  0.64484783  0.79373217  0.44104414  1
  Sn  Sn3  1  0.86414863  0.21015397  0.06673558  1
  Sn  Sn4  1  0.13585137  0.78984603  0.93326442  1
  Sn  Sn5  1  0.35515217  0.20626783  0.55895586  1
  P  P6  1  0.03910863  0.00656598  0.75268843  1
  P  P7  1  0.46315346  0.71710292  0.75011540  1
  P  P8  1  0.96089137  0.99343402  0.24731157  1
  P  P9  1  0.53684654  0.28289708  0.24988460  1
  P  P10  1  0.74967450  0.29138146  0.74568815  1
  P  P11  1  0.25032550  0.70861854  0.25431185  1
  O  O12  1  0.25368566  0.88158731  0.43005890  1
  O  O13  1  0.82909388  0.83839293  0.29891583  1
  O  O14  1  0.88430301  0.12623365  0.24729000  1
  O  O15  1  0.73562973  0.33618200  0.23320306  1
  O  O16  1  0.38073785  0.08847031  0.07642265  1
  O  O17  1  0.74631434  0.11841269  0.56994110  1
  O  O18  1  0.26437027  0.66381800  0.76679694  1
  O  O19  1  0.16272055  0.15594629  0.37780236  1
  O  O20  1  0.61926215  0.91152969  0.92357735  1
  O  O21  1  0.55203530  0.25219949  0.73399758  1
  O  O22  1  0.96154745  0.86087979  0.05893860  1
  O  O23  1  0.03845255  0.13912021  0.94106140  1
  O  O24  1  0.83727945  0.84405371  0.62219764  1
  O  O25  1  0.44796470  0.74780051  0.26600242  1
  O  O26  1  0.17090612  0.16160707  0.70108417  1
  O  O27  1  0.11024405  0.50075718  0.24801705  1
  O  O28  1  0.47828417  0.52860585  0.69731196  1
  O  O29  1  0.47043399  0.76512787  0.60109682  1
  O  O30  1  0.88975595  0.49924282  0.75198295  1
  O  O31  1  0.11569699  0.87376635  0.75271000  1
  O  O32  1  0.52171583  0.47139415  0.30268804  1
  O  O33  1  0.52956601  0.23487213  0.39890318  1
  O  O34  1  0.81591892  0.29867241  0.90696165  1
  O  O35  1  0.18408108  0.70132759  0.09303835  1
