# generated using pymatgen
data_LiV(PO3)5
_symmetry_space_group_name_H-M   'P 1'
_cell_length_a   13.66816700
_cell_length_b   8.86658900
_cell_length_c   10.40422236
_cell_angle_alpha   79.37727372
_cell_angle_beta   90.00000000
_cell_angle_gamma   90.00000000
_symmetry_Int_Tables_number   1
_chemical_formula_structural   LiV(PO3)5
_chemical_formula_sum   'Li4 V4 P20 O60'
_cell_volume   1239.27919848
_cell_formula_units_Z   4
loop_
 _symmetry_equiv_pos_site_id
 _symmetry_equiv_pos_as_xyz
  1  'x, y, z'
loop_
 _atom_site_type_symbol
 _atom_site_label
 _atom_site_symmetry_multiplicity
 _atom_site_fract_x
 _atom_site_fract_y
 _atom_site_fract_z
 _atom_site_occupancy
  Li  Li0  1  0.62533800  0.07485500  0.23185600  1
  Li  Li1  1  0.12533800  0.92514500  0.26814400  1
  Li  Li2  1  0.87466200  0.07485500  0.73185600  1
  Li  Li3  1  0.37466200  0.92514500  0.76814400  1
  V  V4  1  0.00000000  0.50000000  0.00000000  1
  V  V5  1  0.50000000  0.50000000  0.50000000  1
  V  V6  1  0.00000000  0.50000000  0.50000000  1
  V  V7  1  0.50000000  0.50000000  0.00000000  1
  P  P8  1  0.91346900  0.81899900  0.57096100  1
  P  P9  1  0.08653100  0.18100100  0.42903900  1
  P  P10  1  0.85737100  0.52375200  0.74456800  1
  P  P11  1  0.92587700  0.81430600  0.08771500  1
  P  P12  1  0.36001600  0.47944800  0.25098700  1
  P  P13  1  0.63998400  0.52055200  0.74901300  1
  P  P14  1  0.13998400  0.47944800  0.75098700  1
  P  P15  1  0.58653100  0.81899900  0.07096100  1
  P  P16  1  0.75079000  0.01478300  0.97864600  1
  P  P17  1  0.64262900  0.52375200  0.24456800  1
  P  P18  1  0.25079000  0.98521700  0.52135400  1
  P  P19  1  0.07412300  0.18569400  0.91228500  1
  P  P20  1  0.41346900  0.18100100  0.92903900  1
  P  P21  1  0.35737100  0.47624800  0.75543200  1
  P  P22  1  0.42587700  0.18569400  0.41228500  1
  P  P23  1  0.57412300  0.81430600  0.58771500  1
  P  P24  1  0.86001600  0.52055200  0.24901300  1
  P  P25  1  0.74921000  0.01478300  0.47864600  1
  P  P26  1  0.14262900  0.47624800  0.25543200  1
  P  P27  1  0.24921000  0.98521700  0.02135400  1
  O  O28  1  0.35922100  0.30079100  0.30545300  1
  O  O29  1  0.46238600  0.06766700  0.86435200  1
  O  O30  1  0.14841600  0.29946200  0.31670300  1
  O  O31  1  0.62091300  0.49737200  0.38920000  1
  O  O32  1  0.23294300  0.88358000  0.14899600  1
  O  O33  1  0.14077900  0.30079100  0.80545300  1
  O  O34  1  0.74860700  0.46661100  0.72626500  1
  O  O35  1  0.57681100  0.44034400  0.16321000  1
  O  O36  1  0.07681100  0.55965600  0.33679000  1
  O  O37  1  0.24860700  0.53338900  0.77373500  1
  O  O38  1  0.03761400  0.06766700  0.36435200  1
  O  O39  1  0.96238600  0.93233300  0.63564800  1
  O  O40  1  0.73049200  0.06693500  0.10301400  1
  O  O41  1  0.16607000  0.11905000  0.53676900  1
  O  O42  1  0.62153100  0.49349400  0.89490300  1
  O  O43  1  0.02252400  0.29243600  0.49291700  1
  O  O44  1  0.85158400  0.70053800  0.68329700  1
  O  O45  1  0.64077900  0.69920900  0.69454700  1
  O  O46  1  0.33393000  0.11905000  0.03676900  1
  O  O47  1  0.76950800  0.06693500  0.60301400  1
  O  O48  1  0.97747600  0.70756400  0.50708300  1
  O  O49  1  0.87846900  0.49349400  0.39490300  1
  O  O50  1  0.25139300  0.53338900  0.27373500  1
  O  O51  1  0.99110500  0.90722100  0.15353100  1
  O  O52  1  0.92601100  0.43962300  0.16686200  1
  O  O53  1  0.42601100  0.56037700  0.33313800  1
  O  O54  1  0.66607000  0.88095000  0.96323100  1
  O  O55  1  0.76705700  0.11642000  0.85100400  1
  O  O56  1  0.42318900  0.55965600  0.83679000  1
  O  O57  1  0.07398900  0.56037700  0.83313800  1
  O  O58  1  0.12153100  0.50650600  0.60509700  1
  O  O59  1  0.64841600  0.70053800  0.18329700  1
  O  O60  1  0.50889500  0.90722100  0.65353100  1
  O  O61  1  0.35158400  0.29946200  0.81670300  1
  O  O62  1  0.85922100  0.69920900  0.19454700  1
  O  O63  1  0.53761400  0.93233300  0.13564800  1
  O  O64  1  0.00889500  0.09277900  0.84646900  1
  O  O65  1  0.47631200  0.29575700  0.49322600  1
  O  O66  1  0.02368800  0.29575700  0.99322600  1
  O  O67  1  0.12091300  0.50262800  0.11080000  1
  O  O68  1  0.37908700  0.50262800  0.61080000  1
  O  O69  1  0.87908700  0.49737200  0.88920000  1
  O  O70  1  0.92318900  0.44034400  0.66321000  1
  O  O71  1  0.52252400  0.70756400  0.00708300  1
  O  O72  1  0.75139300  0.46661100  0.22626500  1
  O  O73  1  0.15384700  0.10455700  0.00798200  1
  O  O74  1  0.47747600  0.29243600  0.99291700  1
  O  O75  1  0.83393000  0.88095000  0.46323100  1
  O  O76  1  0.57398900  0.43962300  0.66686200  1
  O  O77  1  0.26950800  0.93306500  0.89698600  1
  O  O78  1  0.23049200  0.93306500  0.39698600  1
  O  O79  1  0.26705700  0.88358000  0.64899600  1
  O  O80  1  0.37846900  0.50650600  0.10509700  1
  O  O81  1  0.34615300  0.10455700  0.50798200  1
  O  O82  1  0.52368800  0.70424300  0.50677400  1
  O  O83  1  0.49110500  0.09277900  0.34646900  1
  O  O84  1  0.73294300  0.11642000  0.35100400  1
  O  O85  1  0.97631200  0.70424300  0.00677400  1
  O  O86  1  0.84615300  0.89544300  0.99201800  1
  O  O87  1  0.65384700  0.89544300  0.49201800  1
