# generated using pymatgen
data_LiBi2(PO4)3
_symmetry_space_group_name_H-M   'P 1'
_cell_length_a   9.31979300
_cell_length_b   8.98111900
_cell_length_c   15.46029436
_cell_angle_alpha   55.68534516
_cell_angle_beta   90.00000000
_cell_angle_gamma   90.00000000
_symmetry_Int_Tables_number   1
_chemical_formula_structural   LiBi2(PO4)3
_chemical_formula_sum   'Li4 Bi8 P12 O48'
_cell_volume   1068.83435745
_cell_formula_units_Z   4
loop_
 _symmetry_equiv_pos_site_id
 _symmetry_equiv_pos_as_xyz
  1  'x, y, z'
loop_
 _atom_site_type_symbol
 _atom_site_label
 _atom_site_symmetry_multiplicity
 _atom_site_fract_x
 _atom_site_fract_y
 _atom_site_fract_z
 _atom_site_occupancy
  Li  Li0  1  0.27761900  0.03013900  0.68234200  1
  Li  Li1  1  0.77761900  0.96986100  0.81765800  1
  Li  Li2  1  0.22238100  0.03013900  0.18234200  1
  Li  Li3  1  0.72238100  0.96986100  0.31765800  1
  Bi  Bi4  1  0.45747400  0.85372900  0.89419700  1
  Bi  Bi5  1  0.54252600  0.14627100  0.10580300  1
  Bi  Bi6  1  0.95747400  0.14627100  0.60580300  1
  Bi  Bi7  1  0.96161600  0.37337700  0.87891300  1
  Bi  Bi8  1  0.04252600  0.85372900  0.39419700  1
  Bi  Bi9  1  0.46161600  0.62662300  0.62108700  1
  Bi  Bi10  1  0.03838400  0.62662300  0.12108700  1
  Bi  Bi11  1  0.53838400  0.37337700  0.37891300  1
  P  P12  1  0.75589500  0.54734100  0.99483100  1
  P  P13  1  0.12977600  0.74294000  0.66099200  1
  P  P14  1  0.59719000  0.95987100  0.64470800  1
  P  P15  1  0.74410500  0.54734100  0.49483100  1
  P  P16  1  0.40281000  0.04012900  0.35529200  1
  P  P17  1  0.90281000  0.95987100  0.14470800  1
  P  P18  1  0.87022400  0.25706000  0.33900800  1
  P  P19  1  0.25589500  0.45265900  0.50516900  1
  P  P20  1  0.62977600  0.25706000  0.83900800  1
  P  P21  1  0.24410500  0.45265900  0.00516900  1
  P  P22  1  0.37022400  0.74294000  0.16099200  1
  P  P23  1  0.09719000  0.04012900  0.85529200  1
  O  O24  1  0.38430100  0.21954200  0.35083200  1
  O  O25  1  0.97250700  0.05764900  0.78449400  1
  O  O26  1  0.24210900  0.01660400  0.81535400  1
  O  O27  1  0.11719500  0.48986000  0.92968600  1
  O  O28  1  0.61569900  0.78045800  0.64916800  1
  O  O29  1  0.88430100  0.78045800  0.14916800  1
  O  O30  1  0.51223000  0.40717400  0.78117900  1
  O  O31  1  0.63796100  0.41204900  0.06256100  1
  O  O32  1  0.43437500  0.88410400  0.46969900  1
  O  O33  1  0.78530400  0.33521500  0.80098100  1
  O  O34  1  0.38592300  0.88748800  0.18435500  1
  O  O35  1  0.48777000  0.59282600  0.21882100  1
  O  O36  1  0.86203900  0.41204900  0.56256100  1
  O  O37  1  0.74210900  0.98339600  0.68464600  1
  O  O38  1  0.60908000  0.17620600  0.95551100  1
  O  O39  1  0.21469600  0.66478500  0.19901900  1
  O  O40  1  0.06562500  0.88410400  0.96969900  1
  O  O41  1  0.36203900  0.58795100  0.93743900  1
  O  O42  1  0.93437500  0.11589600  0.03030100  1
  O  O43  1  0.47250700  0.94235100  0.71550600  1
  O  O44  1  0.80542800  0.52543900  0.90532500  1
  O  O45  1  0.89092000  0.17620600  0.45551100  1
  O  O46  1  0.02749300  0.94235100  0.21550600  1
  O  O47  1  0.70059400  0.74305000  0.93708800  1
  O  O48  1  0.38280500  0.48986000  0.42968600  1
  O  O49  1  0.56562500  0.11589600  0.53030100  1
  O  O50  1  0.25789100  0.01660400  0.31535400  1
  O  O51  1  0.39092000  0.82379400  0.04448900  1
  O  O52  1  0.75789100  0.98339600  0.18464600  1
  O  O53  1  0.52749300  0.05764900  0.28449400  1
  O  O54  1  0.69457200  0.52543900  0.40532500  1
  O  O55  1  0.01223000  0.59282600  0.71882100  1
  O  O56  1  0.30542800  0.47456100  0.59467500  1
  O  O57  1  0.19457200  0.47456100  0.09467500  1
  O  O58  1  0.11569900  0.21954200  0.85083200  1
  O  O59  1  0.88280500  0.51014000  0.07031400  1
  O  O60  1  0.79940600  0.74305000  0.43708800  1
  O  O61  1  0.61407700  0.11251200  0.81564500  1
  O  O62  1  0.13796100  0.58795100  0.43743900  1
  O  O63  1  0.11407700  0.88748800  0.68435500  1
  O  O64  1  0.10908000  0.82379400  0.54448900  1
  O  O65  1  0.88592300  0.11251200  0.31564500  1
  O  O66  1  0.28530400  0.66478500  0.69901900  1
  O  O67  1  0.61719500  0.51014000  0.57031400  1
  O  O68  1  0.20059400  0.25695000  0.56291200  1
  O  O69  1  0.71469600  0.33521500  0.30098100  1
  O  O70  1  0.29940600  0.25695000  0.06291200  1
  O  O71  1  0.98777000  0.40717400  0.28117900  1
