# generated using pymatgen
data_Li8Bi2(MoO4)7
_symmetry_space_group_name_H-M   'P 1'
_cell_length_a   15.44339073
_cell_length_b   15.44339073
_cell_length_c   15.44339073
_cell_angle_alpha   91.73865224
_cell_angle_beta   91.73865224
_cell_angle_gamma   159.93748761
_symmetry_Int_Tables_number   1
_chemical_formula_structural   Li8Bi2(MoO4)7
_chemical_formula_sum   'Li16 Bi4 Mo14 O56'
_cell_volume   1244.19636550
_cell_formula_units_Z   2
loop_
 _symmetry_equiv_pos_site_id
 _symmetry_equiv_pos_as_xyz
  1  'x, y, z'
loop_
 _atom_site_type_symbol
 _atom_site_label
 _atom_site_symmetry_multiplicity
 _atom_site_fract_x
 _atom_site_fract_y
 _atom_site_fract_z
 _atom_site_occupancy
  Li  Li0  1  0.41975900  0.91541900  0.99988500  1
  Li  Li1  1  0.42382900  0.11973700  0.55597300  1
  Li  Li2  1  0.50146300  0.74615100  0.24226300  1
  Li  Li3  1  0.57389300  0.12914300  0.69322100  1
  Li  Li4  1  0.74080000  0.49853700  0.24468700  1
  Li  Li5  1  0.11932700  0.42610700  0.55524900  1
  Li  Li6  1  0.13214400  0.57617100  0.69590700  1
  Li  Li7  1  0.25384900  0.49611200  0.75531300  1
  Li  Li8  1  0.56376300  0.86785600  0.44402700  1
  Li  Li9  1  0.91553300  0.41987300  0.00011500  1
  Li  Li10  1  0.88026300  0.43623700  0.30409300  1
  Li  Li11  1  0.87085700  0.56407800  0.44475100  1
  Li  Li12  1  0.50388800  0.25920000  0.75773700  1
  Li  Li13  1  0.43592200  0.88067300  0.30677900  1
  Li  Li14  1  0.58012700  0.58024100  0.49566000  1
  Li  Li15  1  0.08458100  0.08446700  0.50434000  1
  Bi  Bi16  1  0.99899200  0.13958000  0.14111900  1
  Bi  Bi17  1  0.14212700  0.00100800  0.14058900  1
  Bi  Bi18  1  0.86042000  0.00153900  0.85941100  1
  Bi  Bi19  1  0.99846100  0.85787300  0.85888100  1
  Mo  Mo20  1  0.29763300  0.10971300  0.37927300  1
  Mo  Mo21  1  0.10919100  0.29824300  0.37910900  1
  Mo  Mo22  1  0.70175700  0.08086600  0.81094700  1
  Mo  Mo23  1  0.08164000  0.70236700  0.81208100  1
  Mo  Mo24  1  0.37059800  0.63148900  0.00119200  1
  Mo  Mo25  1  0.36851100  0.36970300  0.73910900  1
  Mo  Mo26  1  0.63059400  0.62940200  0.26089100  1
  Mo  Mo27  1  0.50000000  0.50000000  0.00000000  1
  Mo  Mo28  1  0.89028700  0.26956000  0.18791900  1
  Mo  Mo29  1  0.63029700  0.36940600  0.99880800  1
  Mo  Mo30  1  0.26991800  0.89080900  0.18905300  1
  Mo  Mo31  1  0.25000000  0.75000000  0.50000000  1
  Mo  Mo32  1  0.91913400  0.73008200  0.62089100  1
  Mo  Mo33  1  0.73044000  0.91836000  0.62072700  1
  O  O34  1  0.09395900  0.65477200  0.90944800  1
  O  O35  1  0.23328300  0.60593900  0.00072000  1
  O  O36  1  0.76286000  0.40610400  0.75060100  1
  O  O37  1  0.33906200  0.33777800  0.09281000  1
  O  O38  1  0.39406100  0.39478200  0.62734400  1
  O  O39  1  0.13065200  0.31907800  0.00012300  1
  O  O40  1  0.39247700  0.11507800  0.16799400  1
  O  O41  1  0.49162000  0.39009200  0.24239300  1
  O  O42  1  0.05300700  0.88527300  0.27724500  1
  O  O43  1  0.24851000  0.34073400  0.44064200  1
  O  O44  1  0.19213200  0.75149000  0.09222400  1
  O  O45  1  0.90009200  0.80786800  0.55935800  1
  O  O46  1  0.24387200  0.14611800  0.75736100  1
  O  O47  1  0.92615300  0.18737100  0.44682700  1
  O  O48  1  0.07505700  0.52418300  0.25573400  1
  O  O49  1  0.44329500  0.87366900  0.43300500  1
  O  O50  1  0.81548900  0.90604100  0.56081400  1
  O  O51  1  0.51348900  0.75612800  0.90224500  1
  O  O52  1  0.94708400  0.22448300  0.83200600  1
  O  O53  1  0.77551700  0.60752300  0.72260100  1
  O  O54  1  0.68092200  0.68104500  0.81157300  1
  O  O55  1  0.35016800  0.59638600  0.35454900  1
  O  O56  1  0.60990800  0.85230100  0.10152700  1
  O  O57  1  0.74054400  0.47932600  0.55317300  1
  O  O58  1  0.38875600  0.48651100  0.24263900  1
  O  O59  1  0.44066400  0.01028900  0.56699500  1
  O  O60  1  0.66222200  0.75503200  0.00128400  1
  O  O61  1  0.31895500  0.13052800  0.99987700  1
  O  O62  1  0.75077300  0.50838000  0.89847300  1
  O  O63  1  0.98774100  0.23714000  0.64324300  1
  O  O64  1  0.81262900  0.25945600  0.73878200  1
  O  O65  1  0.74532400  0.18451100  0.09055200  1
  O  O66  1  0.00438100  0.64983200  0.24621800  1
  O  O67  1  0.76743800  0.76671700  0.37265600  1
  O  O68  1  0.86947200  0.86934800  0.18842700  1
  O  O69  1  0.40361400  0.75816300  0.75378200  1
  O  O70  1  0.24183700  0.99561900  0.64545100  1
  O  O71  1  0.12633100  0.55933600  0.56962600  1
  O  O72  1  0.22423800  0.94699300  0.83226600  1
  O  O73  1  0.18067700  0.92494300  0.44912600  1
  O  O74  1  0.24496800  0.24625200  0.90719000  1
  O  O75  1  0.52067400  0.07384700  0.26121800  1
  O  O76  1  0.75374800  0.66093800  0.99871600  1
  O  O77  1  0.88492200  0.05291600  0.27739900  1
  O  O78  1  0.11472700  0.39197200  0.16773400  1
  O  O79  1  0.65550300  0.01225900  0.24939900  1
  O  O80  1  0.60521800  0.23256200  0.99928000  1
  O  O81  1  0.26844900  0.81932300  0.74426600  1
  O  O82  1  0.47581700  0.73155100  0.55087400  1
  O  O83  1  0.14769900  0.24922700  0.75760700  1
  O  O84  1  0.98971100  0.55670500  0.43037400  1
  O  O85  1  0.60802800  0.77576200  0.72275500  1
  O  O86  1  0.85388200  0.61124400  0.09775500  1
  O  O87  1  0.65926600  0.09990800  0.90777600  1
  O  O88  1  0.59389600  0.34449700  0.35675700  1
  O  O89  1  0.34522800  0.25467600  0.43918600  1
