# generated using pymatgen
data_Li9Mn15O32
_symmetry_space_group_name_H-M   'P 1'
_cell_length_a   5.87102200
_cell_length_b   8.43774456
_cell_length_c   11.79305866
_cell_angle_alpha   89.97562755
_cell_angle_beta   89.26563268
_cell_angle_gamma   89.93422124
_symmetry_Int_Tables_number   1
_chemical_formula_structural   Li9Mn15O32
_chemical_formula_sum   'Li9 Mn15 O32'
_cell_volume   584.15828902
_cell_formula_units_Z   1
loop_
 _symmetry_equiv_pos_site_id
 _symmetry_equiv_pos_as_xyz
  1  'x, y, z'
loop_
 _atom_site_type_symbol
 _atom_site_label
 _atom_site_symmetry_multiplicity
 _atom_site_fract_x
 _atom_site_fract_y
 _atom_site_fract_z
 _atom_site_occupancy
  Li  Li0  1  0.75591000  0.63027600  0.75598200  1
  Li  Li1  1  0.25385800  0.11751200  0.49661800  1
  Li  Li2  1  0.75227400  0.25462100  0.87229100  1
  Li  Li3  1  0.73597600  0.62376300  0.25356800  1
  Li  Li4  1  0.25276500  0.36702400  0.74488800  1
  Li  Li5  1  0.49981800  0.99717800  0.25275900  1
  Li  Li6  1  0.73891000  0.87727500  0.49287600  1
  Li  Li7  1  0.25927400  0.37567600  0.25162600  1
  Li  Li8  1  0.75563600  0.87718300  0.99859300  1
  Mn  Mn9  1  0.00120700  0.00860600  0.74912000  1
  Mn  Mn10  1  0.25798600  0.74892200  0.87488400  1
  Mn  Mn11  1  0.50938900  0.00603600  0.74967400  1
  Mn  Mn12  1  0.49422900  0.49734300  0.49876400  1
  Mn  Mn13  1  0.75542800  0.24641400  0.62466400  1
  Mn  Mn14  1  0.99540700  0.99895000  0.25027100  1
  Mn  Mn15  1  0.99523000  0.49857400  0.49774700  1
  Mn  Mn16  1  0.23513600  0.75195100  0.37200000  1
  Mn  Mn17  1  0.24556900  0.75696600  0.62208100  1
  Mn  Mn18  1  0.24911800  0.12949500  0.00632600  1
  Mn  Mn19  1  0.50483800  0.49785300  0.00314000  1
  Mn  Mn20  1  0.75179900  0.24971600  0.13037900  1
  Mn  Mn21  1  0.75158600  0.24213800  0.37486800  1
  Mn  Mn22  1  0.99873500  0.49878900  0.00112800  1
  Mn  Mn23  1  0.24907400  0.74753600  0.12756900  1
  O  O24  1  0.75222500  0.50064200  0.89775100  1
  O  O25  1  0.03295500  0.77177200  0.75103300  1
  O  O26  1  0.25700800  0.49139100  0.89552700  1
  O  O27  1  0.25233100  0.01163900  0.85714200  1
  O  O28  1  0.25670600  0.99116800  0.63957900  1
  O  O29  1  0.48868400  0.77455600  0.75833000  1
  O  O30  1  0.52531300  0.23127600  0.73658500  1
  O  O31  1  0.53919400  0.24468200  0.49892900  1
  O  O32  1  0.75353600  0.00731900  0.85536800  1
  O  O33  1  0.75858300  0.01241900  0.63657400  1
  O  O34  1  0.75579300  0.47760500  0.61477000  1
  O  O35  1  0.74792000  0.48016000  0.39014800  1
  O  O36  1  0.98282600  0.23168000  0.73663100  1
  O  O37  1  0.98012500  0.26518700  0.49715300  1
  O  O38  1  0.99702500  0.72559100  0.48996100  1
  O  O39  1  0.01345200  0.76484600  0.24692700  1
  O  O40  1  0.23332900  0.51577500  0.38464600  1
  O  O41  1  0.22193400  0.97464100  0.36436100  1
  O  O42  1  0.24310500  0.51359100  0.60680200  1
  O  O43  1  0.23857200  0.97436800  0.13431900  1
  O  O44  1  0.45276200  0.75125000  0.49237600  1
  O  O45  1  0.45186700  0.74503200  0.25039600  1
  O  O46  1  0.54172700  0.25147000  0.25497400  1
  O  O47  1  0.52276800  0.27093100  0.01630500  1
  O  O48  1  0.76451900  0.02005800  0.36380800  1
  O  O49  1  0.77093600  0.02649000  0.13205600  1
  O  O50  1  0.75112800  0.48932400  0.11423000  1
  O  O51  1  0.98251200  0.23262300  0.25125400  1
  O  O52  1  0.97944600  0.27379000  0.01090900  1
  O  O53  1  0.03072000  0.73219900  0.00027000  1
  O  O54  1  0.24599400  0.51453300  0.11361600  1
  O  O55  1  0.47584900  0.73219700  0.00545400  1
