# generated using pymatgen
data_Li3Fe5O8
_symmetry_space_group_name_H-M   'P 1'
_cell_length_a   8.56040987
_cell_length_b   8.56040987
_cell_length_c   8.32208600
_cell_angle_alpha   90.00000000
_cell_angle_beta   90.00000000
_cell_angle_gamma   90.67933268
_symmetry_Int_Tables_number   1
_chemical_formula_structural   Li3Fe5O8
_chemical_formula_sum   'Li12 Fe20 O32'
_cell_volume   609.80473237
_cell_formula_units_Z   4
loop_
 _symmetry_equiv_pos_site_id
 _symmetry_equiv_pos_as_xyz
  1  'x, y, z'
loop_
 _atom_site_type_symbol
 _atom_site_label
 _atom_site_symmetry_multiplicity
 _atom_site_fract_x
 _atom_site_fract_y
 _atom_site_fract_z
 _atom_site_occupancy
  Li  Li0  1  0.87086300  0.63241400  0.75000000  1
  Li  Li1  1  0.87144500  0.87144500  0.50000000  1
  Li  Li2  1  0.87144500  0.87144500  0.00000000  1
  Li  Li3  1  0.12855500  0.12855500  0.50000000  1
  Li  Li4  1  0.12913700  0.36758600  0.25000000  1
  Li  Li5  1  0.12855500  0.12855500  0.00000000  1
  Li  Li6  1  0.36758600  0.12913700  0.75000000  1
  Li  Li7  1  0.37915700  0.62084300  0.25000000  1
  Li  Li8  1  0.37906700  0.62093300  0.75000000  1
  Li  Li9  1  0.62084300  0.37915700  0.75000000  1
  Li  Li10  1  0.62093300  0.37906700  0.25000000  1
  Li  Li11  1  0.63241400  0.87086300  0.25000000  1
  Fe  Fe12  1  0.87976100  0.12023900  0.75000000  1
  Fe  Fe13  1  0.86956800  0.63175300  0.25000000  1
  Fe  Fe14  1  0.87784800  0.12215200  0.25000000  1
  Fe  Fe15  1  0.87582300  0.37721400  0.50032400  1
  Fe  Fe16  1  0.87582300  0.37721400  0.99967600  1
  Fe  Fe17  1  0.13043200  0.36824700  0.75000000  1
  Fe  Fe18  1  0.12417700  0.62278600  0.49967600  1
  Fe  Fe19  1  0.12417700  0.62278600  0.00032400  1
  Fe  Fe20  1  0.12023900  0.87976100  0.25000000  1
  Fe  Fe21  1  0.12215200  0.87784800  0.75000000  1
  Fe  Fe22  1  0.36824700  0.13043200  0.25000000  1
  Fe  Fe23  1  0.38154000  0.38154000  0.50000000  1
  Fe  Fe24  1  0.37721400  0.87582300  0.49967600  1
  Fe  Fe25  1  0.38154000  0.38154000  0.00000000  1
  Fe  Fe26  1  0.37721400  0.87582300  0.00032400  1
  Fe  Fe27  1  0.62278600  0.12417700  0.50032400  1
  Fe  Fe28  1  0.61846000  0.61846000  0.50000000  1
  Fe  Fe29  1  0.61846000  0.61846000  0.00000000  1
  Fe  Fe30  1  0.63175300  0.86956800  0.75000000  1
  Fe  Fe31  1  0.62278600  0.12417700  0.99967600  1
  O  O32  1  0.87607100  0.36373500  0.75000000  1
  O  O33  1  0.87448700  0.88760500  0.75000000  1
  O  O34  1  0.88760500  0.87448700  0.25000000  1
  O  O35  1  0.86232400  0.13767600  0.50554500  1
  O  O36  1  0.87478400  0.37723200  0.25000000  1
  O  O37  1  0.86232400  0.13767600  0.99445500  1
  O  O38  1  0.87901900  0.61353300  0.50584400  1
  O  O39  1  0.87901900  0.61353300  0.99415600  1
  O  O40  1  0.12521600  0.62276800  0.75000000  1
  O  O41  1  0.12392900  0.63626500  0.25000000  1
  O  O42  1  0.13767600  0.86232400  0.49445500  1
  O  O43  1  0.12098100  0.38646700  0.49415600  1
  O  O44  1  0.11239500  0.12551300  0.75000000  1
  O  O45  1  0.13767600  0.86232400  0.00554500  1
  O  O46  1  0.12098100  0.38646700  0.00584400  1
  O  O47  1  0.12551300  0.11239500  0.25000000  1
  O  O48  1  0.36998800  0.63001200  0.50041000  1
  O  O49  1  0.37466700  0.37704400  0.25000000  1
  O  O50  1  0.38646700  0.12098100  0.50584400  1
  O  O51  1  0.37704400  0.37466700  0.75000000  1
  O  O52  1  0.36998800  0.63001200  0.99959000  1
  O  O53  1  0.38646700  0.12098100  0.99415600  1
  O  O54  1  0.36373500  0.87607100  0.25000000  1
  O  O55  1  0.37723200  0.87478400  0.75000000  1
  O  O56  1  0.62276800  0.12521600  0.25000000  1
  O  O57  1  0.63626500  0.12392900  0.75000000  1
  O  O58  1  0.63001200  0.36998800  0.49959000  1
  O  O59  1  0.62295600  0.62533300  0.25000000  1
  O  O60  1  0.62533300  0.62295600  0.75000000  1
  O  O61  1  0.63001200  0.36998800  0.00041000  1
  O  O62  1  0.61353300  0.87901900  0.49415600  1
  O  O63  1  0.61353300  0.87901900  0.00584400  1
