# generated using pymatgen
data_Li3(CuO2)2
_symmetry_space_group_name_H-M   'P 1'
_cell_length_a   5.19758499
_cell_length_b   5.19758499
_cell_length_c   7.27331700
_cell_angle_alpha   63.35114280
_cell_angle_beta   63.35114280
_cell_angle_gamma   31.18838054
_symmetry_Int_Tables_number   1
_chemical_formula_structural   Li3(CuO2)2
_chemical_formula_sum   'Li3 Cu2 O4'
_cell_volume   90.04663176
_cell_formula_units_Z   1
loop_
 _symmetry_equiv_pos_site_id
 _symmetry_equiv_pos_as_xyz
  1  'x, y, z'
loop_
 _atom_site_type_symbol
 _atom_site_label
 _atom_site_symmetry_multiplicity
 _atom_site_fract_x
 _atom_site_fract_y
 _atom_site_fract_z
 _atom_site_occupancy
  Li  Li0  1  0.36150000  0.36150000  0.87193400  1
  Li  Li1  1  0.00000000  0.00000000  0.50000000  1
  Li  Li2  1  0.63850000  0.63850000  0.12806600  1
  Cu  Cu3  1  0.84141800  0.84141800  0.26918500  1
  Cu  Cu4  1  0.15858200  0.15858200  0.73081500  1
  O  O5  1  0.74381300  0.74381300  0.82067500  1
  O  O6  1  0.25618700  0.25618700  0.17932500  1
  O  O7  1  0.43501800  0.43501800  0.34471700  1
  O  O8  1  0.56498200  0.56498200  0.65528300  1
