# generated using pymatgen
data_Li47Mn5As19
_symmetry_space_group_name_H-M   'P 1'
_cell_length_a   4.31762910
_cell_length_b   4.31762896
_cell_length_c   82.12767063
_cell_angle_alpha   60.03952609
_cell_angle_beta   60.03952716
_cell_angle_gamma   59.98603027
_symmetry_Int_Tables_number   1
_chemical_formula_structural   Li47Mn5As19
_chemical_formula_sum   'Li47 Mn5 As19'
_cell_volume   1083.12464774
_cell_formula_units_Z   1
loop_
 _symmetry_equiv_pos_site_id
 _symmetry_equiv_pos_as_xyz
  1  'x, y, z'
loop_
 _atom_site_type_symbol
 _atom_site_label
 _atom_site_symmetry_multiplicity
 _atom_site_fract_x
 _atom_site_fract_y
 _atom_site_fract_z
 _atom_site_occupancy
  As  As0  1  0.00885204  0.00885204  0.99860055  1
  As  As1  1  0.98662454  0.98662454  0.05468409  1
  As  As2  1  0.99407708  0.99407708  0.10612609  1
  As  As3  1  -0.00376514  -0.00376514  0.15843801  1
  As  As4  1  1.00155449  1.00155449  0.21023461  1
  As  As5  1  1.00065385  1.00065385  0.26299695  1
  As  As6  1  1.00117347  1.00117347  0.31557503  1
  As  As7  1  0.99810235  0.99810235  0.36878280  1
  As  As8  1  0.99753967  0.99753967  0.42149348  1
  As  As9  1  0.99587706  0.99587706  0.47429793  1
  As  As10  1  0.99769850  0.99769850  0.52667146  1
  As  As11  1  1.00280747  1.00280747  0.63108220  1
  As  As12  1  1.00259836  1.00259836  0.57848052  1
  As  As13  1  0.00398430  0.00398430  0.68359677  1
  As  As14  1  0.00437952  0.00437952  0.73622395  1
  As  As15  1  0.00437787  0.00437787  0.78884888  1
  As  As16  1  1.00471519  1.00471519  0.84143641  1
  As  As17  1  1.00503225  1.00503225  0.89397582  1
  As  As18  1  0.00443311  0.00443311  0.94662196  1
  Li  Li19  1  0.24296188  0.24296188  0.01423454  1
  Li  Li20  1  0.76202239  0.76202239  0.03752486  1
  Li  Li21  1  0.74453220  0.74453220  0.09294975  1
  Li  Li22  1  0.74452606  0.74452606  0.14555975  1
  Li  Li23  1  0.27247303  0.27247303  0.27271459  1
  Li  Li24  1  0.74777506  0.74777506  0.19776164  1
  Li  Li25  1  0.25379643  0.25379643  0.32835360  1
  Li  Li26  1  0.75752500  0.75752500  0.24880218  1
  Li  Li27  1  0.50937743  0.50937743  0.28798928  1
  Li  Li28  1  0.25178204  0.25178204  0.38135578  1
  Li  Li29  1  0.75325890  0.75325890  0.30209483  1
  Li  Li30  1  0.50639622  0.50639622  0.34110673  1
  Li  Li31  1  0.50542367  0.50542367  0.39391672  1
  Li  Li32  1  0.75214596  0.75214596  0.35494353  1
  Li  Li33  1  0.25101736  0.25101736  0.43409167  1
  Li  Li34  1  0.75102735  0.75102735  0.40776875  1
  Li  Li35  1  0.50499771  0.50499771  0.44659610  1
  Li  Li36  1  0.25131344  0.25131344  0.48663005  1
  Li  Li37  1  0.51321908  0.51321908  0.49788780  1
  Li  Li38  1  0.75280480  0.75280480  0.46007713  1
  Li  Li39  1  0.48508712  0.48508712  0.55493105  1
  Li  Li40  1  0.24641807  0.24641807  0.59263577  1
  Li  Li41  1  0.74395321  0.74395321  0.51410027  1
  Li  Li42  1  0.25005155  0.25005155  0.64471408  1
  Li  Li43  1  0.49732648  0.49732648  0.60566764  1
  Li  Li44  1  0.75241856  0.75241856  0.56536557  1
  Li  Li45  1  0.49532589  0.49532589  0.65862871  1
  Li  Li46  1  0.25011436  0.25011436  0.69737701  1
  Li  Li47  1  0.74860449  0.74860449  0.61859185  1
  Li  Li48  1  0.74945603  0.74945603  0.67112382  1
  Li  Li49  1  0.49580803  0.49580803  0.71120464  1
  Li  Li50  1  0.25038982  0.25038982  0.74998901  1
  Li  Li51  1  0.49579436  0.49579436  0.76383961  1
  Li  Li52  1  0.74994987  0.74994987  0.72371925  1
  Li  Li53  1  0.25043202  0.25043202  0.80261258  1
  Li  Li54  1  0.49598851  0.49598851  0.81643912  1
  Li  Li55  1  0.25081507  0.25081507  0.85518408  1
  Li  Li56  1  0.75005170  0.75005170  0.77633392  1
  Li  Li57  1  0.75017154  0.75017154  0.82895035  1
  Li  Li58  1  0.25089473  0.25089473  0.90777554  1
  Li  Li59  1  0.49596365  0.49596365  0.86905625  1
  Li  Li60  1  0.49595087  0.49595087  0.92168134  1
  Li  Li61  1  0.25054581  0.25054581  0.96041878  1
  Li  Li62  1  0.75054359  0.75054359  0.88152412  1
  Li  Li63  1  0.75020239  0.75020239  0.93422080  1
  Li  Li64  1  0.49132506  0.49132506  0.97507970  1
  Li  Li65  1  0.73534927  0.73534927  0.98916773  1
  Mn  Mn66  1  0.24713956  0.24713956  0.06628025  1
  Mn  Mn67  1  0.24461491  0.24461491  0.11926209  1
  Mn  Mn68  1  0.24192842  0.24192842  0.17231886  1
  Mn  Mn69  1  0.24408806  0.24408806  0.22462954  1
  Mn  Mn70  1  0.25420501  0.25420501  0.53875491  1
