# generated using pymatgen
data_Li3VO4
_symmetry_space_group_name_H-M   'P 1'
_cell_length_a   5.17564200
_cell_length_b   6.40942000
_cell_length_c   11.01479400
_cell_angle_alpha   90.00000000
_cell_angle_beta   90.00000000
_cell_angle_gamma   90.00000000
_symmetry_Int_Tables_number   1
_chemical_formula_structural   Li3VO4
_chemical_formula_sum   'Li12 V4 O16'
_cell_volume   365.39225616
_cell_formula_units_Z   4
loop_
 _symmetry_equiv_pos_site_id
 _symmetry_equiv_pos_as_xyz
  1  'x, y, z'
loop_
 _atom_site_type_symbol
 _atom_site_label
 _atom_site_symmetry_multiplicity
 _atom_site_fract_x
 _atom_site_fract_y
 _atom_site_fract_z
 _atom_site_occupancy
  Li  Li0  1  0.19121600  0.99627000  0.66579500  1
  Li  Li1  1  0.80878400  0.49627000  0.33420500  1
  Li  Li2  1  0.30878400  0.99627000  0.16579500  1
  Li  Li3  1  0.80878400  0.00373000  0.33420500  1
  Li  Li4  1  0.30633000  0.75000000  0.92181700  1
  Li  Li5  1  0.19367000  0.75000000  0.42181700  1
  Li  Li6  1  0.69121600  0.00373000  0.83420500  1
  Li  Li7  1  0.80633000  0.25000000  0.57818300  1
  Li  Li8  1  0.69121600  0.49627000  0.83420500  1
  Li  Li9  1  0.19121600  0.50373000  0.66579500  1
  Li  Li10  1  0.30878400  0.50373000  0.16579500  1
  Li  Li11  1  0.69367000  0.25000000  0.07818300  1
  V  V12  1  0.18683600  0.25000000  0.91317700  1
  V  V13  1  0.81316400  0.75000000  0.08682300  1
  V  V14  1  0.68683600  0.75000000  0.58682300  1
  V  V15  1  0.31316400  0.25000000  0.41317700  1
  O  O16  1  0.70177700  0.75000000  0.93777100  1
  O  O17  1  0.34842700  0.75000000  0.58668900  1
  O  O18  1  0.20302700  0.47257100  0.33756800  1
  O  O19  1  0.20302700  0.02742900  0.33756800  1
  O  O20  1  0.20177700  0.25000000  0.56222900  1
  O  O21  1  0.70302700  0.52742900  0.16243200  1
  O  O22  1  0.79697300  0.97257100  0.66243200  1
  O  O23  1  0.70302700  0.97257100  0.16243200  1
  O  O24  1  0.29822300  0.25000000  0.06222900  1
  O  O25  1  0.79822300  0.75000000  0.43777100  1
  O  O26  1  0.29697300  0.02742900  0.83756800  1
  O  O27  1  0.79697300  0.52742900  0.66243200  1
  O  O28  1  0.65157300  0.25000000  0.41331100  1
  O  O29  1  0.15157300  0.75000000  0.08668900  1
  O  O30  1  0.84842700  0.25000000  0.91331100  1
  O  O31  1  0.29697300  0.47257100  0.83756800  1
