# generated using pymatgen
data_LiV6O13
_symmetry_space_group_name_H-M   'P 1'
_cell_length_a   11.37579651
_cell_length_b   11.37579651
_cell_length_c   12.01010363
_cell_angle_alpha   69.68584958
_cell_angle_beta   69.68584958
_cell_angle_gamma   19.03617685
_symmetry_Int_Tables_number   1
_chemical_formula_structural   LiV6O13
_chemical_formula_sum   'Li2 V12 O26'
_cell_volume   474.48380924
_cell_formula_units_Z   2
loop_
 _symmetry_equiv_pos_site_id
 _symmetry_equiv_pos_as_xyz
  1  'x, y, z'
loop_
 _atom_site_type_symbol
 _atom_site_label
 _atom_site_symmetry_multiplicity
 _atom_site_fract_x
 _atom_site_fract_y
 _atom_site_fract_z
 _atom_site_occupancy
  Li  Li0  1  0.81529600  0.81529600  0.75984200  1
  Li  Li1  1  0.18470400  0.18470400  0.24015800  1
  V  V2  1  0.77496000  0.77496000  0.07452700  1
  V  V3  1  0.22504000  0.22504000  0.92547300  1
  V  V4  1  0.24797400  0.24797400  0.60470600  1
  V  V5  1  0.75202600  0.75202600  0.39529400  1
  V  V6  1  0.94815700  0.94815700  0.96350200  1
  V  V7  1  0.05184300  0.05184300  0.03649800  1
  V  V8  1  0.42929100  0.42929100  0.48313000  1
  V  V9  1  0.57070900  0.57070900  0.51687000  1
  V  V10  1  0.92730000  0.92730000  0.28701300  1
  V  V11  1  0.07270000  0.07270000  0.71298700  1
  V  V12  1  0.43580000  0.43580000  0.77395400  1
  V  V13  1  0.56420000  0.56420000  0.22604600  1
  O  O14  1  0.75285600  0.75285600  0.92710300  1
  O  O15  1  0.24714400  0.24714400  0.07289700  1
  O  O16  1  0.24854200  0.24854200  0.43752200  1
  O  O17  1  0.75145800  0.75145800  0.56247800  1
  O  O18  1  0.93882600  0.93882600  0.44340600  1
  O  O19  1  0.06117400  0.06117400  0.55659400  1
  O  O20  1  0.44687000  0.44687000  0.93366200  1
  O  O21  1  0.55313000  0.55313000  0.06633800  1
  O  O22  1  0.95784100  0.95784100  0.78692600  1
  O  O23  1  0.04215900  0.04215900  0.21307400  1
  O  O24  1  0.44951000  0.44951000  0.30411100  1
  O  O25  1  0.55049000  0.55049000  0.69588900  1
  O  O26  1  0.74914900  0.74914900  0.24844600  1
  O  O27  1  0.25085100  0.25085100  0.75155400  1
  O  O28  1  0.85515700  0.85515700  0.02635100  1
  O  O29  1  0.14484300  0.14484300  0.97364900  1
  O  O30  1  0.34929500  0.34929500  0.54791600  1
  O  O31  1  0.65070500  0.65070500  0.45208400  1
  O  O32  1  0.84688000  0.84688000  0.32778500  1
  O  O33  1  0.15312000  0.15312000  0.67221500  1
  O  O34  1  0.35645900  0.35645900  0.80627200  1
  O  O35  1  0.64354100  0.64354100  0.19372800  1
  O  O36  1  0.95565700  0.95565700  0.11014800  1
  O  O37  1  0.04434300  0.04434300  0.88985200  1
  O  O38  1  0.45807000  0.45807000  0.60188300  1
  O  O39  1  0.54193000  0.54193000  0.39811700  1
