# generated using pymatgen
data_LiWCl6
_symmetry_space_group_name_H-M   'P 1'
_cell_length_a   9.58889477
_cell_length_b   9.58889477
_cell_length_c   9.58889549
_cell_angle_alpha   83.21429153
_cell_angle_beta   83.21429153
_cell_angle_gamma   83.21429427
_symmetry_Int_Tables_number   1
_chemical_formula_structural   LiWCl6
_chemical_formula_sum   'Li4 W4 Cl24'
_cell_volume   864.49295598
_cell_formula_units_Z   4
loop_
 _symmetry_equiv_pos_site_id
 _symmetry_equiv_pos_as_xyz
  1  'x, y, z'
loop_
 _atom_site_type_symbol
 _atom_site_label
 _atom_site_symmetry_multiplicity
 _atom_site_fract_x
 _atom_site_fract_y
 _atom_site_fract_z
 _atom_site_occupancy
  Li  Li0  1  0.34002900  0.34002900  0.34002900  1
  Li  Li1  1  0.16814100  0.66910300  0.16846500  1
  Li  Li2  1  0.16846500  0.16814100  0.66910300  1
  Li  Li3  1  0.66910300  0.16846500  0.16814100  1
  W  W4  1  0.50395000  0.99019000  0.50348100  1
  W  W5  1  0.99901600  0.99901600  0.99901600  1
  W  W6  1  0.50348100  0.50395000  0.99019000  1
  W  W7  1  0.99019000  0.50348100  0.50395000  1
  Cl  Cl8  1  0.93365900  0.27227300  0.57204600  1
  Cl  Cl9  1  0.42408200  0.77563500  0.56708600  1
  Cl  Cl10  1  0.07760200  0.22092000  0.91982300  1
  Cl  Cl11  1  0.56708600  0.42408200  0.77563500  1
  Cl  Cl12  1  0.91982300  0.07760200  0.22092000  1
  Cl  Cl13  1  0.42172000  0.07265300  0.72260800  1
  Cl  Cl14  1  0.57204600  0.93365900  0.27227300  1
  Cl  Cl15  1  0.08599900  0.43000700  0.27422000  1
  Cl  Cl16  1  0.22571400  0.41965500  0.57458000  1
  Cl  Cl17  1  0.22092000  0.91982300  0.07760200  1
  Cl  Cl18  1  0.57458000  0.22571400  0.41965500  1
  Cl  Cl19  1  0.93489500  0.77036300  0.07132000  1
  Cl  Cl20  1  0.77563500  0.56708600  0.42408200  1
  Cl  Cl21  1  0.72192300  0.92479200  0.57401200  1
  Cl  Cl22  1  0.43000700  0.27422000  0.08599900  1
  Cl  Cl23  1  0.27422000  0.08599900  0.43000700  1
  Cl  Cl24  1  0.41965500  0.57458000  0.22571400  1
  Cl  Cl25  1  0.77036300  0.07132000  0.93489500  1
  Cl  Cl26  1  0.07265300  0.72260800  0.42172000  1
  Cl  Cl27  1  0.57401200  0.72192300  0.92479200  1
  Cl  Cl28  1  0.92479100  0.57401200  0.72192300  1
  Cl  Cl29  1  0.72260800  0.42172000  0.07265300  1
  Cl  Cl30  1  0.27227300  0.57204600  0.93365900  1
  Cl  Cl31  1  0.07132000  0.93489500  0.77036300  1
