# generated using pymatgen
data_Li2MnP2O7
_symmetry_space_group_name_H-M   'P 1'
_cell_length_a   5.11176700
_cell_length_b   8.65797400
_cell_length_c   14.27717272
_cell_angle_alpha   64.42507220
_cell_angle_beta   90.00000000
_cell_angle_gamma   90.00000000
_symmetry_Int_Tables_number   1
_chemical_formula_structural   Li2MnP2O7
_chemical_formula_sum   'Li8 Mn4 P8 O28'
_cell_volume   569.96270420
_cell_formula_units_Z   4
loop_
 _symmetry_equiv_pos_site_id
 _symmetry_equiv_pos_as_xyz
  1  'x, y, z'
loop_
 _atom_site_type_symbol
 _atom_site_label
 _atom_site_symmetry_multiplicity
 _atom_site_fract_x
 _atom_site_fract_y
 _atom_site_fract_z
 _atom_site_occupancy
  Li  Li0  1  0.71191900  0.49869400  0.92310800  1
  Li  Li1  1  0.23382200  0.05135500  0.82607500  1
  Li  Li2  1  0.73382200  0.94864500  0.67392500  1
  Li  Li3  1  0.21191900  0.50130600  0.57689200  1
  Li  Li4  1  0.78808100  0.49869400  0.42310800  1
  Li  Li5  1  0.26617800  0.05135500  0.32607500  1
  Li  Li6  1  0.76617800  0.94864500  0.17392500  1
  Li  Li7  1  0.28808100  0.50130600  0.07689200  1
  Mn  Mn8  1  0.76083700  0.77767900  0.98334300  1
  Mn  Mn9  1  0.73916300  0.77767900  0.48334300  1
  Mn  Mn10  1  0.26083700  0.22232100  0.51665700  1
  Mn  Mn11  1  0.23916300  0.22232100  0.01665700  1
  P  P12  1  0.73410300  0.19654500  0.87567200  1
  P  P13  1  0.22415300  0.67994200  0.85280200  1
  P  P14  1  0.23410300  0.80345500  0.62432800  1
  P  P15  1  0.72415300  0.32005800  0.64719800  1
  P  P16  1  0.27584700  0.67994200  0.35280200  1
  P  P17  1  0.76589700  0.19654500  0.37567200  1
  P  P18  1  0.77584700  0.32005800  0.14719800  1
  P  P19  1  0.26589700  0.80345500  0.12432800  1
  O  O20  1  0.86200500  0.28626700  0.93559300  1
  O  O21  1  0.43950300  0.16818400  0.89762200  1
  O  O22  1  0.31945200  0.50324500  0.93301800  1
  O  O23  1  0.92896600  0.70621300  0.86119200  1
  O  O24  1  0.39278400  0.82533400  0.85416000  1
  O  O25  1  0.77163400  0.33440500  0.75551900  1
  O  O26  1  0.87786200  0.03412200  0.88675100  1
  O  O27  1  0.27163400  0.66559500  0.74448100  1
  O  O28  1  0.81945200  0.49675500  0.56698200  1
  O  O29  1  0.93950300  0.83181600  0.60237800  1
  O  O30  1  0.37786200  0.96587800  0.61324900  1
  O  O31  1  0.36200500  0.71373300  0.56440700  1
  O  O32  1  0.89278400  0.17466600  0.64584000  1
  O  O33  1  0.42896600  0.29378700  0.63880800  1
  O  O34  1  0.57103400  0.70621300  0.36119200  1
  O  O35  1  0.10721600  0.82533400  0.35416000  1
  O  O36  1  0.63799500  0.28626700  0.43559300  1
  O  O37  1  0.62213800  0.03412200  0.38675100  1
  O  O38  1  0.06049700  0.16818400  0.39762200  1
  O  O39  1  0.18054800  0.50324500  0.43301800  1
  O  O40  1  0.72836600  0.33440500  0.25551900  1
  O  O41  1  0.12213800  0.96587800  0.11324900  1
  O  O42  1  0.22836600  0.66559500  0.24448100  1
  O  O43  1  0.60721600  0.17466600  0.14584000  1
  O  O44  1  0.07103400  0.29378700  0.13880800  1
  O  O45  1  0.68054800  0.49675500  0.06698200  1
  O  O46  1  0.56049700  0.83181600  0.10237800  1
  O  O47  1  0.13799500  0.71373300  0.06440700  1
