# generated using pymatgen
data_Li2Yb5B3O13
_symmetry_space_group_name_H-M   'P 1'
_cell_length_a   3.52269400
_cell_length_b   10.53635300
_cell_length_c   15.91847393
_cell_angle_alpha   71.90738259
_cell_angle_beta   90.00000000
_cell_angle_gamma   90.00000000
_symmetry_Int_Tables_number   1
_chemical_formula_structural   Li2Yb5B3O13
_chemical_formula_sum   'Li4 Yb10 B6 O26'
_cell_volume   561.62218914
_cell_formula_units_Z   2
loop_
 _symmetry_equiv_pos_site_id
 _symmetry_equiv_pos_as_xyz
  1  'x, y, z'
loop_
 _atom_site_type_symbol
 _atom_site_label
 _atom_site_symmetry_multiplicity
 _atom_site_fract_x
 _atom_site_fract_y
 _atom_site_fract_z
 _atom_site_occupancy
  Li  Li0  1  0.25000000  0.75281500  0.75381700  1
  Li  Li1  1  0.25000000  0.38976100  0.05010100  1
  Li  Li2  1  0.75000000  0.61023900  0.94989900  1
  Li  Li3  1  0.75000000  0.24718500  0.24618300  1
  Yb  Yb4  1  0.75000000  0.80960600  0.20536900  1
  Yb  Yb5  1  0.25000000  0.84080700  0.99580500  1
  Yb  Yb6  1  0.75000000  0.02928200  0.61937600  1
  Yb  Yb7  1  0.25000000  0.47252800  0.30070100  1
  Yb  Yb8  1  0.75000000  0.66063000  0.44185400  1
  Yb  Yb9  1  0.75000000  0.15919300  0.00419500  1
  Yb  Yb10  1  0.25000000  0.33937000  0.55814600  1
  Yb  Yb11  1  0.25000000  0.19039400  0.79463100  1
  Yb  Yb12  1  0.25000000  0.97071800  0.38062400  1
  Yb  Yb13  1  0.75000000  0.52747200  0.69929900  1
  B  B14  1  0.25000000  0.58201500  0.11376400  1
  B  B15  1  0.75000000  0.90328900  0.81954600  1
  B  B16  1  0.75000000  0.41798500  0.88623600  1
  B  B17  1  0.25000000  0.78515400  0.57603500  1
  B  B18  1  0.25000000  0.09671100  0.18045400  1
  B  B19  1  0.75000000  0.21484600  0.42396500  1
  O  O20  1  0.25000000  0.14689100  0.24997400  1
  O  O21  1  0.75000000  0.08480500  0.42284200  1
  O  O22  1  0.25000000  0.68696900  0.15098700  1
  O  O23  1  0.25000000  0.39578800  0.68609800  1
  O  O24  1  0.25000000  0.95906400  0.19642300  1
  O  O25  1  0.75000000  0.86211400  0.33777800  1
  O  O26  1  0.75000000  0.54994600  0.83651400  1
  O  O27  1  0.75000000  0.31772100  0.34550200  1
  O  O28  1  0.25000000  0.06807500  0.94747100  1
  O  O29  1  0.25000000  0.45005400  0.16348600  1
  O  O30  1  0.75000000  0.31303100  0.84901300  1
  O  O31  1  0.75000000  0.85310900  0.75002600  1
  O  O32  1  0.25000000  0.17984200  0.09492000  1
  O  O33  1  0.75000000  0.04093600  0.80357700  1
  O  O34  1  0.25000000  0.52254100  0.42996800  1
  O  O35  1  0.25000000  0.76159600  0.49557700  1
  O  O36  1  0.75000000  0.47745900  0.57003200  1
  O  O37  1  0.25000000  0.68227900  0.65449800  1
  O  O38  1  0.25000000  0.60995600  0.02226900  1
  O  O39  1  0.25000000  0.91519500  0.57715800  1
  O  O40  1  0.75000000  0.39004400  0.97773100  1
  O  O41  1  0.75000000  0.93192500  0.05252900  1
  O  O42  1  0.75000000  0.60421200  0.31390200  1
  O  O43  1  0.75000000  0.23840400  0.50442300  1
  O  O44  1  0.25000000  0.13788600  0.66222200  1
  O  O45  1  0.75000000  0.82015800  0.90508000  1
