# generated using pymatgen
data_Li2U4W4O25
_symmetry_space_group_name_H-M   'P 1'
_cell_length_a   7.77273192
_cell_length_b   7.77273192
_cell_length_c   22.50348338
_cell_angle_alpha   81.61609568
_cell_angle_beta   81.61609568
_cell_angle_gamma   49.14045140
_symmetry_Int_Tables_number   1
_chemical_formula_structural   Li2U4W4O25
_chemical_formula_sum   'Li4 U8 W8 O50'
_cell_volume   1014.95270676
_cell_formula_units_Z   2
loop_
 _symmetry_equiv_pos_site_id
 _symmetry_equiv_pos_as_xyz
  1  'x, y, z'
loop_
 _atom_site_type_symbol
 _atom_site_label
 _atom_site_symmetry_multiplicity
 _atom_site_fract_x
 _atom_site_fract_y
 _atom_site_fract_z
 _atom_site_occupancy
  Li  Li0  1  0.35547200  0.43171800  0.44630800  1
  Li  Li1  1  0.56828200  0.64452800  0.05369200  1
  Li  Li2  1  0.64452800  0.56828200  0.55369200  1
  Li  Li3  1  0.43171800  0.35547200  0.94630800  1
  U  U4  1  0.25415200  0.16156300  0.84514800  1
  U  U5  1  0.83843700  0.74584800  0.65485200  1
  U  U6  1  0.96437600  0.03562400  0.75000000  1
  U  U7  1  0.03562400  0.96437600  0.25000000  1
  U  U8  1  0.00000000  0.00000000  0.00000000  1
  U  U9  1  0.16156300  0.25415200  0.34514800  1
  U  U10  1  0.74584800  0.83843700  0.15485200  1
  U  U11  1  0.00000000  0.00000000  0.50000000  1
  W  W12  1  0.41909000  0.41234600  0.69002700  1
  W  W13  1  0.58091000  0.58765400  0.30997300  1
  W  W14  1  0.22441400  0.21240700  0.58978900  1
  W  W15  1  0.58765400  0.58091000  0.80997300  1
  W  W16  1  0.21240700  0.22441400  0.08978900  1
  W  W17  1  0.41234600  0.41909000  0.19002700  1
  W  W18  1  0.78759300  0.77558600  0.91021100  1
  W  W19  1  0.77558600  0.78759300  0.41021100  1
  O  O20  1  0.74241300  0.28758100  0.51771400  1
  O  O21  1  0.03792900  0.18428200  0.05592100  1
  O  O22  1  0.23617600  0.37883300  0.65219700  1
  O  O23  1  0.81571800  0.96207100  0.44407900  1
  O  O24  1  0.37883300  0.23617600  0.15219700  1
  O  O25  1  0.84059800  0.93592700  0.08598700  1
  O  O26  1  0.12631000  0.70025600  0.71290900  1
  O  O27  1  0.50707100  0.95408200  0.62392400  1
  O  O28  1  0.90830700  0.30891100  0.80846900  1
  O  O29  1  0.50350100  0.48324600  0.37286500  1
  O  O30  1  0.25758700  0.71241900  0.48228600  1
  O  O31  1  0.71241900  0.25758700  0.98228600  1
  O  O32  1  0.28919700  0.32388400  0.02511200  1
  O  O33  1  0.12357600  0.06116300  0.18202400  1
  O  O34  1  0.62116700  0.76382400  0.84780300  1
  O  O35  1  0.30891100  0.90830700  0.30846900  1
  O  O36  1  0.93883700  0.87642400  0.31797600  1
  O  O37  1  0.87369000  0.29974400  0.28709100  1
  O  O38  1  0.29974400  0.87369000  0.78709100  1
  O  O39  1  0.57378300  0.42621700  0.75000000  1
  O  O40  1  0.06407300  0.15940200  0.41401300  1
  O  O41  1  0.95408200  0.50707100  0.12392400  1
  O  O42  1  0.71080300  0.67611600  0.97488800  1
  O  O43  1  0.48574300  0.91118900  0.09827700  1
  O  O44  1  0.32388400  0.28919700  0.52511200  1
  O  O45  1  0.09169300  0.69108900  0.19153100  1
  O  O46  1  0.74040500  0.66302400  0.72571200  1
  O  O47  1  0.49649900  0.51675400  0.62713500  1
  O  O48  1  0.49292900  0.04591800  0.37607600  1
  O  O49  1  0.91118900  0.48574300  0.59827700  1
  O  O50  1  0.76382400  0.62116700  0.34780300  1
  O  O51  1  0.15940200  0.06407300  0.91401300  1
  O  O52  1  0.18428200  0.03792900  0.55592100  1
  O  O53  1  0.08881100  0.51425700  0.40172300  1
  O  O54  1  0.93592700  0.84059800  0.58598700  1
  O  O55  1  0.28758100  0.74241300  0.01771400  1
  O  O56  1  0.04591800  0.49292900  0.87607600  1
  O  O57  1  0.66302400  0.74040500  0.22571200  1
  O  O58  1  0.25959500  0.33697600  0.27428800  1
  O  O59  1  0.51675400  0.49649900  0.12713500  1
  O  O60  1  0.70025600  0.12631000  0.21290900  1
  O  O61  1  0.87642400  0.93883700  0.81797600  1
  O  O62  1  0.51425700  0.08881100  0.90172300  1
  O  O63  1  0.96207100  0.81571800  0.94407900  1
  O  O64  1  0.42621700  0.57378300  0.25000000  1
  O  O65  1  0.48324600  0.50350100  0.87286500  1
  O  O66  1  0.69108900  0.09169300  0.69153100  1
  O  O67  1  0.06116300  0.12357600  0.68202400  1
  O  O68  1  0.33697600  0.25959500  0.77428800  1
  O  O69  1  0.67611600  0.71080300  0.47488800  1
