# generated using pymatgen
data_Li5ReO6
_symmetry_space_group_name_H-M   'P 1'
_cell_length_a   5.10430183
_cell_length_b   5.10430183
_cell_length_c   14.32822000
_cell_angle_alpha   90.00000000
_cell_angle_beta   90.00000000
_cell_angle_gamma   119.99999775
_symmetry_Int_Tables_number   1
_chemical_formula_structural   Li5ReO6
_chemical_formula_sum   'Li15 Re3 O18'
_cell_volume   323.29246073
_cell_formula_units_Z   3
loop_
 _symmetry_equiv_pos_site_id
 _symmetry_equiv_pos_as_xyz
  1  'x, y, z'
loop_
 _atom_site_type_symbol
 _atom_site_label
 _atom_site_symmetry_multiplicity
 _atom_site_fract_x
 _atom_site_fract_y
 _atom_site_fract_z
 _atom_site_occupancy
  Li  Li0  1  0.77757900  0.22242100  0.33333300  1
  Li  Li1  1  0.11921600  0.88078400  0.83333300  1
  Li  Li2  1  0.44416500  0.88833000  0.16666700  1
  Li  Li3  1  0.11167000  0.55583500  0.50000000  1
  Li  Li4  1  0.11921600  0.23843200  0.16666700  1
  Li  Li5  1  0.77757900  0.55515800  0.66666700  1
  Li  Li6  1  0.76989200  0.23010800  0.83333300  1
  Li  Li7  1  0.11153600  0.55576800  0.00000000  1
  Li  Li8  1  0.44416500  0.55583500  0.83333300  1
  Li  Li9  1  0.44423200  0.88846400  0.66666700  1
  Li  Li10  1  0.76989200  0.53978400  0.16666700  1
  Li  Li11  1  0.44484200  0.22242100  0.00000000  1
  Li  Li12  1  0.44423200  0.55576800  0.33333300  1
  Li  Li13  1  0.76156800  0.88078400  0.50000000  1
  Li  Li14  1  0.46021600  0.23010800  0.50000000  1
  Re  Re15  1  0.11056900  0.88943100  0.33333300  1
  Re  Re16  1  0.11056900  0.22113700  0.66666700  1
  Re  Re17  1  0.77886300  0.88943100  0.00000000  1
  O  O18  1  0.41625100  0.52771100  0.58922300  1
  O  O19  1  0.41670900  0.19286500  0.25568000  1
  O  O20  1  0.77615600  0.19286500  0.07765300  1
  O  O21  1  0.80713500  0.58329100  0.41098600  1
  O  O22  1  0.47228900  0.88854000  0.92255600  1
  O  O23  1  0.77615600  0.58329100  0.92234700  1
  O  O24  1  0.41670900  0.22384400  0.74432000  1
  O  O25  1  0.80626000  0.91879800  0.74275700  1
  O  O26  1  0.11146000  0.58374900  0.25589000  1
  O  O27  1  0.08120200  0.19374000  0.92390900  1
  O  O28  1  0.11146000  0.52771100  0.74411000  1
  O  O29  1  0.08120200  0.88746200  0.07609100  1
  O  O30  1  0.80713500  0.22384400  0.58901400  1
  O  O31  1  0.11253800  0.19374000  0.40942400  1
  O  O32  1  0.47228900  0.58374900  0.07744400  1
  O  O33  1  0.41625100  0.88854000  0.41077700  1
  O  O34  1  0.80626000  0.88746200  0.25724300  1
  O  O35  1  0.11253800  0.91879800  0.59057600  1
