# generated using pymatgen
data_Li4Mo5O17
_symmetry_space_group_name_H-M   'P 1'
_cell_length_a   6.90489200
_cell_length_b   9.64299191
_cell_length_c   11.08071549
_cell_angle_alpha   106.95325934
_cell_angle_beta   88.54111259
_cell_angle_gamma   110.35702920
_symmetry_Int_Tables_number   1
_chemical_formula_structural   Li4Mo5O17
_chemical_formula_sum   'Li8 Mo10 O34'
_cell_volume   659.27724134
_cell_formula_units_Z   2
loop_
 _symmetry_equiv_pos_site_id
 _symmetry_equiv_pos_as_xyz
  1  'x, y, z'
loop_
 _atom_site_type_symbol
 _atom_site_label
 _atom_site_symmetry_multiplicity
 _atom_site_fract_x
 _atom_site_fract_y
 _atom_site_fract_z
 _atom_site_occupancy
  Li  Li0  1  0.74479500  0.05052100  0.63883800  1
  Li  Li1  1  0.25520500  0.94947900  0.36116200  1
  Li  Li2  1  0.20018900  0.28356900  0.56539300  1
  Li  Li3  1  0.79981100  0.71643100  0.43460700  1
  Li  Li4  1  0.80690000  0.59634100  0.68827200  1
  Li  Li5  1  0.19310000  0.40365900  0.31172800  1
  Li  Li6  1  0.03157400  0.78487100  0.06558500  1
  Li  Li7  1  0.96842600  0.21512900  0.93441500  1
  Mo  Mo8  1  0.63803200  0.87859200  0.97627000  1
  Mo  Mo9  1  0.36196800  0.12140800  0.02373000  1
  Mo  Mo10  1  0.26121800  0.54379200  0.85259700  1
  Mo  Mo11  1  0.73878200  0.45620800  0.14740300  1
  Mo  Mo12  1  0.47953600  0.71036000  0.20305800  1
  Mo  Mo13  1  0.52046400  0.28964000  0.79694200  1
  Mo  Mo14  1  0.38357900  0.69318300  0.61150900  1
  Mo  Mo15  1  0.61642100  0.30681700  0.38849100  1
  Mo  Mo16  1  0.84670300  0.05745200  0.33645300  1
  Mo  Mo17  1  0.15329700  0.94254800  0.66354700  1
  O  O18  1  0.69032200  0.06863800  0.96445000  1
  O  O19  1  0.30967800  0.93136200  0.03555000  1
  O  O20  1  0.65753500  0.82931300  0.34971000  1
  O  O21  1  0.34246500  0.17068700  0.65029000  1
  O  O22  1  0.65856100  0.91760300  0.15791700  1
  O  O23  1  0.34143900  0.08239700  0.84208300  1
  O  O24  1  0.86312900  0.83908400  0.94187200  1
  O  O25  1  0.13687100  0.16091600  0.05812800  1
  O  O26  1  0.21136600  0.35208200  0.86362100  1
  O  O27  1  0.78863400  0.64791800  0.13637900  1
  O  O28  1  0.04570900  0.58917700  0.90420700  1
  O  O29  1  0.95429100  0.41082300  0.09579300  1
  O  O30  1  0.44740700  0.66436400  0.01232500  1
  O  O31  1  0.55259300  0.33563600  0.98767500  1
  O  O32  1  0.24766600  0.59856200  0.46231000  1
  O  O33  1  0.75233400  0.40143800  0.53769000  1
  O  O34  1  0.05034400  0.99670200  0.27105500  1
  O  O35  1  0.94965600  0.00329800  0.72894500  1
  O  O36  1  0.25450300  0.75321500  0.23650200  1
  O  O37  1  0.74549700  0.24678500  0.76349800  1
  O  O38  1  0.41528900  0.51638500  0.20956900  1
  O  O39  1  0.58471100  0.48361500  0.79043100  1
  O  O40  1  0.91505600  0.11860800  0.50285400  1
  O  O41  1  0.08494400  0.88139200  0.49714600  1
  O  O42  1  0.45931600  0.75214400  0.82313100  1
  O  O43  1  0.54068400  0.24785600  0.17686900  1
  O  O44  1  0.45244000  0.90229300  0.62718300  1
  O  O45  1  0.54756000  0.09770700  0.37281700  1
  O  O46  1  0.23229500  0.50180500  0.67406000  1
  O  O47  1  0.76770500  0.49819500  0.32594000  1
  O  O48  1  0.90226300  0.24491800  0.30803000  1
  O  O49  1  0.09773700  0.75508200  0.69197000  1
  O  O50  1  0.63093400  0.67577000  0.58588900  1
  O  O51  1  0.36906600  0.32423000  0.41411100  1
