# generated using pymatgen
data_LiMn(PO3)3
_symmetry_space_group_name_H-M   'P 1'
_cell_length_a   7.54282289
_cell_length_b   9.11385648
_cell_length_c   10.86285101
_cell_angle_alpha   93.52587144
_cell_angle_beta   97.37400644
_cell_angle_gamma   90.79103572
_symmetry_Int_Tables_number   1
_chemical_formula_structural   LiMn(PO3)3
_chemical_formula_sum   'Li4 Mn4 P12 O36'
_cell_volume   739.00254024
_cell_formula_units_Z   4
loop_
 _symmetry_equiv_pos_site_id
 _symmetry_equiv_pos_as_xyz
  1  'x, y, z'
loop_
 _atom_site_type_symbol
 _atom_site_label
 _atom_site_symmetry_multiplicity
 _atom_site_fract_x
 _atom_site_fract_y
 _atom_site_fract_z
 _atom_site_occupancy
  Li  Li0  1  0.29610500  0.50297600  0.36832000  1
  Li  Li1  1  0.29618000  0.00297800  0.86835600  1
  Li  Li2  1  0.70388600  0.49703400  0.63168400  1
  Li  Li3  1  0.70383600  0.99702400  0.13163900  1
  Mn  Mn4  1  0.17248300  0.79349600  0.63523500  1
  Mn  Mn5  1  0.82751200  0.20646700  0.36476000  1
  Mn  Mn6  1  0.17258800  0.29336800  0.13523200  1
  Mn  Mn7  1  0.82741500  0.70663100  0.86476800  1
  P  P8  1  0.15794300  0.65571000  0.11317400  1
  P  P9  1  0.15798300  0.15574000  0.61320300  1
  P  P10  1  0.84206600  0.34429300  0.88682700  1
  P  P11  1  0.84200800  0.84425500  0.38680100  1
  P  P12  1  0.29145400  0.46103500  0.68437500  1
  P  P13  1  0.29145500  0.96096700  0.18440600  1
  P  P14  1  0.70854200  0.53895800  0.31562400  1
  P  P15  1  0.70855600  0.03903800  0.81559000  1
  P  P16  1  0.37102800  0.67150900  0.89990200  1
  P  P17  1  0.37107700  0.17146200  0.39992300  1
  P  P18  1  0.62897300  0.32849100  0.10009700  1
  P  P19  1  0.62891300  0.82854600  0.60007900  1
  O  O20  1  0.01123800  0.32504700  0.97126700  1
  O  O21  1  0.01118800  0.82508500  0.47124800  1
  O  O22  1  0.98877400  0.67496200  0.02873300  1
  O  O23  1  0.98879600  0.17491400  0.52876700  1
  O  O24  1  0.16768100  0.52928400  0.19742800  1
  O  O25  1  0.16772500  0.02935000  0.69749600  1
  O  O26  1  0.83232300  0.47072100  0.80257300  1
  O  O27  1  0.83227500  0.97064100  0.30250900  1
  O  O28  1  0.15183900  0.55824600  0.62099400  1
  O  O29  1  0.15183800  0.05817800  0.12103000  1
  O  O30  1  0.84815200  0.44174000  0.37900100  1
  O  O31  1  0.84816800  0.94182100  0.87896300  1
  O  O32  1  0.24237100  0.78258800  0.84095900  1
  O  O33  1  0.24241200  0.28254000  0.34097700  1
  O  O34  1  0.75762800  0.21741200  0.15904200  1
  O  O35  1  0.75757300  0.71746400  0.65902600  1
  O  O36  1  0.20436400  0.30137000  0.70250400  1
  O  O37  1  0.20436100  0.80131900  0.20253000  1
  O  O38  1  0.79564300  0.69862200  0.29750100  1
  O  O39  1  0.79565700  0.19868500  0.79746800  1
  O  O40  1  0.32693600  0.64051600  0.03632800  1
  O  O41  1  0.32697000  0.14049900  0.53635700  1
  O  O42  1  0.67307200  0.35948100  0.96367200  1
  O  O43  1  0.67301400  0.85949500  0.46364000  1
  O  O44  1  0.32591600  0.51168000  0.83142500  1
  O  O45  1  0.32592800  0.01163100  0.33146100  1
  O  O46  1  0.67407900  0.48832100  0.16857300  1
  O  O47  1  0.67407800  0.98837800  0.66853500  1
  O  O48  1  0.43374300  0.29405700  0.09051600  1
  O  O49  1  0.43368100  0.79414700  0.59051500  1
  O  O50  1  0.56625800  0.70594300  0.90948000  1
  O  O51  1  0.56630700  0.20587200  0.40949000  1
  O  O52  1  0.53807900  0.55811100  0.36971300  1
  O  O53  1  0.53811300  0.05817800  0.86970600  1
  O  O54  1  0.46191800  0.44188900  0.63028500  1
  O  O55  1  0.46190000  0.94183300  0.13029300  1
