# generated using pymatgen
data_LiMgAl3(SeO4)6
_symmetry_space_group_name_H-M   'P 1'
_cell_length_a   8.53038800
_cell_length_b   9.09120049
_cell_length_c   12.46604854
_cell_angle_alpha   84.95497978
_cell_angle_beta   89.93202298
_cell_angle_gamma   89.74295215
_symmetry_Int_Tables_number   1
_chemical_formula_structural   LiMgAl3(SeO4)6
_chemical_formula_sum   'Li2 Mg2 Al6 Se12 O48'
_cell_volume   963.00504499
_cell_formula_units_Z   2
loop_
 _symmetry_equiv_pos_site_id
 _symmetry_equiv_pos_as_xyz
  1  'x, y, z'
loop_
 _atom_site_type_symbol
 _atom_site_label
 _atom_site_symmetry_multiplicity
 _atom_site_fract_x
 _atom_site_fract_y
 _atom_site_fract_z
 _atom_site_occupancy
  Li  Li0  1  0.77564100  0.59850900  0.03006500  1
  Li  Li1  1  0.33150900  0.72627100  0.90722100  1
  Mg  Mg2  1  0.49727400  0.78901300  0.14587000  1
  Mg  Mg3  1  0.99861200  0.70740300  0.84567800  1
  Al  Al4  1  0.50153700  0.79934800  0.64615400  1
  Al  Al5  1  0.49916500  0.21738000  0.85564700  1
  Al  Al6  1  0.99763500  0.28817600  0.64132800  1
  Al  Al7  1  0.00202200  0.29673300  0.15206600  1
  Al  Al8  1  0.00165400  0.71368600  0.36029700  1
  Al  Al9  1  0.49835200  0.19479400  0.35133800  1
  Se  Se10  1  0.85691000  0.64100400  0.60340700  1
  Se  Se11  1  0.79052500  0.00016100  0.25191600  1
  Se  Se12  1  0.64830800  0.13683700  0.60672300  1
  Se  Se13  1  0.35654000  0.15206300  0.10535600  1
  Se  Se14  1  0.85465400  0.35178100  0.89510700  1
  Se  Se15  1  0.29279500  0.50094400  0.74793400  1
  Se  Se16  1  0.71393900  0.49144400  0.25113700  1
  Se  Se17  1  0.13396600  0.63886600  0.11127200  1
  Se  Se18  1  0.64115900  0.86290600  0.88527300  1
  Se  Se19  1  0.35188400  0.85661100  0.39775700  1
  Se  Se20  1  0.22224400  0.00982400  0.74603300  1
  Se  Se21  1  0.14304300  0.35609000  0.39480900  1
  O  O22  1  0.81317600  0.60780400  0.32007500  1
  O  O23  1  0.67119900  0.65890800  0.64383500  1
  O  O24  1  0.98740200  0.70342000  0.68556300  1
  O  O25  1  0.87962200  0.73529900  0.48394200  1
  O  O26  1  0.93855300  0.91513700  0.31882600  1
  O  O27  1  0.65477400  0.95274600  0.63383600  1
  O  O28  1  0.66791500  0.05737500  0.34593800  1
  O  O29  1  0.58621600  0.03152400  0.90779900  1
  O  O30  1  0.85619300  0.14152500  0.16972200  1
  O  O31  1  0.30996400  0.13455200  0.81533600  1
  O  O32  1  0.52617800  0.19188300  0.50623100  1
  O  O33  1  0.83050500  0.18711300  0.57576300  1
  O  O34  1  0.16923800  0.16559700  0.14293800  1
  O  O35  1  0.58890900  0.21837400  0.71375500  1
  O  O36  1  0.47825900  0.21527700  0.19716200  1
  O  O37  1  0.92152200  0.27964800  0.78644700  1
  O  O38  1  0.39081600  0.25279900  0.98945000  1
  O  O39  1  0.67503000  0.29259200  0.92678900  1
  O  O40  1  0.97815400  0.29907600  0.99501900  1
  O  O41  1  0.65130800  0.35549400  0.33843600  1
  O  O42  1  0.44650100  0.41548200  0.80820900  1
  O  O43  1  0.88200700  0.46011300  0.59292200  1
  O  O44  1  0.83299300  0.43677100  0.15084200  1
  O  O45  1  0.14973200  0.45558900  0.13782700  1
  O  O46  1  0.83770500  0.53603900  0.88019900  1
  O  O47  1  0.19512100  0.57003500  0.84925900  1
  O  O48  1  0.11356500  0.53547300  0.40573200  1
  O  O49  1  0.57363600  0.57331000  0.17701900  1
  O  O50  1  0.35681000  0.63630300  0.65996400  1
  O  O51  1  0.99838900  0.68795700  0.01833300  1
  O  O52  1  0.30774600  0.69515600  0.06400900  1
  O  O53  1  0.61297800  0.75192500  0.99748200  1
  O  O54  1  0.09092800  0.72420900  0.22007900  1
  O  O55  1  0.50941300  0.78945600  0.80190400  1
  O  O56  1  0.41613000  0.76871400  0.29710400  1
  O  O57  1  0.82369900  0.86228700  0.84468100  1
  O  O58  1  0.16929700  0.80784100  0.43202700  1
  O  O59  1  0.47703100  0.80804100  0.49771000  1
  O  O60  1  0.70444100  0.88891900  0.17337400  1
  O  O61  1  0.16919700  0.87302300  0.83683300  1
  O  O62  1  0.38161000  0.97530200  0.09325800  1
  O  O63  1  0.33590600  0.94659000  0.65027300  1
  O  O64  1  0.34706000  0.04137200  0.36945700  1
  O  O65  1  0.06674700  0.08809800  0.68530900  1
  O  O66  1  0.10961500  0.26029100  0.51207200  1
  O  O67  1  0.01877800  0.28989000  0.30681400  1
  O  O68  1  0.33169400  0.33912700  0.36144300  1
  O  O69  1  0.18647000  0.39120300  0.67811500  1
