# generated using pymatgen
data_LiCrPO4
_symmetry_space_group_name_H-M   'P 1'
_cell_length_a   5.99065665
_cell_length_b   6.50136152
_cell_length_c   9.71304419
_cell_angle_alpha   109.59024451
_cell_angle_beta   92.81074292
_cell_angle_gamma   98.74819776
_symmetry_Int_Tables_number   1
_chemical_formula_structural   LiCrPO4
_chemical_formula_sum   'Li4 Cr4 P4 O16'
_cell_volume   350.21530292
_cell_formula_units_Z   4
loop_
 _symmetry_equiv_pos_site_id
 _symmetry_equiv_pos_as_xyz
  1  'x, y, z'
loop_
 _atom_site_type_symbol
 _atom_site_label
 _atom_site_symmetry_multiplicity
 _atom_site_fract_x
 _atom_site_fract_y
 _atom_site_fract_z
 _atom_site_occupancy
  Li  Li0  1  0.41715300  0.03760900  0.67551000  1
  Li  Li1  1  0.58284900  0.96238700  0.32448600  1
  Li  Li2  1  0.40917600  0.53887800  0.70485700  1
  Li  Li3  1  0.59083300  0.46112000  0.29514200  1
  Cr  Cr4  1  0.01501900  0.17608300  0.27578800  1
  Cr  Cr5  1  0.98498400  0.82393500  0.72421900  1
  Cr  Cr6  1  0.79480200  0.28910400  0.92687600  1
  Cr  Cr7  1  0.20516000  0.71088600  0.07311000  1
  P  P8  1  0.70781100  0.80204600  0.98592900  1
  P  P9  1  0.29218600  0.19795900  0.01407700  1
  P  P10  1  0.84501500  0.33818000  0.61079000  1
  P  P11  1  0.15499300  0.66182100  0.38920900  1
  O  O12  1  0.09585500  0.41083700  0.66970200  1
  O  O13  1  0.90415500  0.58915800  0.33029600  1
  O  O14  1  0.20751100  0.04636000  0.10504000  1
  O  O15  1  0.79248500  0.95364400  0.89496300  1
  O  O16  1  0.73058800  0.94464900  0.15154100  1
  O  O17  1  0.26942100  0.05535100  0.84846300  1
  O  O18  1  0.28718600  0.80732000  0.30843000  1
  O  O19  1  0.71282100  0.19267800  0.69156800  1
  O  O20  1  0.86518700  0.62559100  0.96101600  1
  O  O21  1  0.13480500  0.37440200  0.03897700  1
  O  O22  1  0.19108900  0.80421800  0.55702600  1
  O  O23  1  0.80890700  0.19578200  0.44297700  1
  O  O24  1  0.53722700  0.31526600  0.07414500  1
  O  O25  1  0.46277200  0.68472700  0.92585900  1
  O  O26  1  0.27139600  0.45231900  0.36540900  1
  O  O27  1  0.72861600  0.54769200  0.63459600  1
