# generated using pymatgen
data_Li2Cd(PO3)4
_symmetry_space_group_name_H-M   'P 1'
_cell_length_a   9.52829600
_cell_length_b   9.65557500
_cell_length_c   10.33420800
_cell_angle_alpha   90.00000000
_cell_angle_beta   90.00000000
_cell_angle_gamma   90.00000000
_symmetry_Int_Tables_number   1
_chemical_formula_structural   Li2Cd(PO3)4
_chemical_formula_sum   'Li8 Cd4 P16 O48'
_cell_volume   950.75929575
_cell_formula_units_Z   4
loop_
 _symmetry_equiv_pos_site_id
 _symmetry_equiv_pos_as_xyz
  1  'x, y, z'
loop_
 _atom_site_type_symbol
 _atom_site_label
 _atom_site_symmetry_multiplicity
 _atom_site_fract_x
 _atom_site_fract_y
 _atom_site_fract_z
 _atom_site_occupancy
  Li  Li0  1  0.10529000  0.49726100  0.32336000  1
  Li  Li1  1  0.89471000  0.50273900  0.67664000  1
  Li  Li2  1  0.89471000  0.00273900  0.82336000  1
  Li  Li3  1  0.10529000  0.99726100  0.17664000  1
  Li  Li4  1  0.39471000  0.99726100  0.17664000  1
  Li  Li5  1  0.60529000  0.00273900  0.82336000  1
  Li  Li6  1  0.60529000  0.50273900  0.67664000  1
  Li  Li7  1  0.39471000  0.49726100  0.32336000  1
  Cd  Cd8  1  0.25000000  0.48846300  0.69363100  1
  Cd  Cd9  1  0.75000000  0.51153700  0.30636900  1
  Cd  Cd10  1  0.25000000  0.98846300  0.80636900  1
  Cd  Cd11  1  0.75000000  0.01153700  0.19363100  1
  P  P12  1  0.75000000  0.30382200  0.90000400  1
  P  P13  1  0.53153100  0.79291200  0.38806200  1
  P  P14  1  0.46846900  0.70708800  0.88806200  1
  P  P15  1  0.75000000  0.80382200  0.59999600  1
  P  P16  1  0.75000000  0.23012000  0.48468100  1
  P  P17  1  0.25000000  0.26988000  0.98468100  1
  P  P18  1  0.25000000  0.69617800  0.09999600  1
  P  P19  1  0.53153100  0.29291200  0.11193800  1
  P  P20  1  0.96846900  0.29291200  0.11193800  1
  P  P21  1  0.25000000  0.76988000  0.51531900  1
  P  P22  1  0.03153100  0.70708800  0.88806200  1
  P  P23  1  0.75000000  0.73012000  0.01531900  1
  P  P24  1  0.03153100  0.20708800  0.61193800  1
  P  P25  1  0.46846900  0.20708800  0.61193800  1
  P  P26  1  0.96846900  0.79291200  0.38806200  1
  P  P27  1  0.25000000  0.19617800  0.40000400  1
  O  O28  1  0.37498600  0.83143800  0.42834900  1
  O  O29  1  0.37498600  0.33143800  0.07165100  1
  O  O30  1  0.25000000  0.61346200  0.50808500  1
  O  O31  1  0.55975600  0.88442000  0.27282200  1
  O  O32  1  0.75000000  0.88653800  0.00808500  1
  O  O33  1  0.45158300  0.36206600  0.62304300  1
  O  O34  1  0.45158300  0.86206600  0.87695700  1
  O  O35  1  0.75000000  0.89941100  0.71416700  1
  O  O36  1  0.87498600  0.66856200  0.92834900  1
  O  O37  1  0.95158300  0.63793400  0.37695700  1
  O  O38  1  0.88167800  0.85012600  0.51069000  1
  O  O39  1  0.75000000  0.16189300  0.35608000  1
  O  O40  1  0.04841700  0.36206600  0.62304300  1
  O  O41  1  0.05975600  0.61558000  0.77282200  1
  O  O42  1  0.04841700  0.86206600  0.87695700  1
  O  O43  1  0.25000000  0.33810700  0.85608000  1
  O  O44  1  0.62501400  0.66856200  0.92834900  1
  O  O45  1  0.05975600  0.11558000  0.72717800  1
  O  O46  1  0.75000000  0.38653800  0.49191500  1
  O  O47  1  0.11832200  0.14987400  0.48931000  1
  O  O48  1  0.12501400  0.33143800  0.07165100  1
  O  O49  1  0.94024400  0.38442000  0.22717800  1
  O  O50  1  0.62501400  0.16856200  0.57165100  1
  O  O51  1  0.25000000  0.10058900  0.28583300  1
  O  O52  1  0.38167800  0.64987400  0.01069000  1
  O  O53  1  0.95158300  0.13793400  0.12304300  1
  O  O54  1  0.88167800  0.35012600  0.98931000  1
  O  O55  1  0.75000000  0.64994300  0.62040300  1
  O  O56  1  0.55975600  0.38442000  0.22717800  1
  O  O57  1  0.94024400  0.88442000  0.27282200  1
  O  O58  1  0.25000000  0.83810700  0.64392000  1
  O  O59  1  0.25000000  0.60058900  0.21416700  1
  O  O60  1  0.54841700  0.63793400  0.37695700  1
  O  O61  1  0.38167800  0.14987400  0.48931000  1
  O  O62  1  0.25000000  0.11346200  0.99191500  1
  O  O63  1  0.12501400  0.83143800  0.42834900  1
  O  O64  1  0.75000000  0.66189300  0.14392000  1
  O  O65  1  0.44024400  0.11558000  0.72717800  1
  O  O66  1  0.11832200  0.64987400  0.01069000  1
  O  O67  1  0.87498600  0.16856200  0.57165100  1
  O  O68  1  0.75000000  0.14994300  0.87959700  1
  O  O69  1  0.61832200  0.85012600  0.51069000  1
  O  O70  1  0.44024400  0.61558000  0.77282200  1
  O  O71  1  0.25000000  0.35005700  0.37959700  1
  O  O72  1  0.25000000  0.85005700  0.12040300  1
  O  O73  1  0.61832200  0.35012600  0.98931000  1
  O  O74  1  0.75000000  0.39941100  0.78583300  1
  O  O75  1  0.54841700  0.13793400  0.12304300  1
