# generated using pymatgen
data_Li2CoP2O7
_symmetry_space_group_name_H-M   'P 1'
_cell_length_a   5.18807224
_cell_length_b   13.46853913
_cell_length_c   8.22754592
_cell_angle_alpha   99.83817809
_cell_angle_beta   94.22022620
_cell_angle_gamma   96.81700010
_symmetry_Int_Tables_number   1
_chemical_formula_structural   Li2CoP2O7
_chemical_formula_sum   'Li8 Co4 P8 O28'
_cell_volume   559.85182568
_cell_formula_units_Z   4
loop_
 _symmetry_equiv_pos_site_id
 _symmetry_equiv_pos_as_xyz
  1  'x, y, z'
loop_
 _atom_site_type_symbol
 _atom_site_label
 _atom_site_symmetry_multiplicity
 _atom_site_fract_x
 _atom_site_fract_y
 _atom_site_fract_z
 _atom_site_occupancy
  Li  Li0  1  0.70408200  0.09060400  0.53113200  1
  Li  Li1  1  0.70419400  0.59038600  0.03082100  1
  Li  Li2  1  0.29592300  0.40939600  0.96884800  1
  Li  Li3  1  0.29580900  0.90961600  0.46920000  1
  Li  Li4  1  0.29548200  0.43333700  0.42762500  1
  Li  Li5  1  0.29602700  0.93341900  0.92760800  1
  Li  Li6  1  0.70447700  0.06665900  0.07238500  1
  Li  Li7  1  0.70399700  0.56658400  0.57240000  1
  Co  Co8  1  0.18248800  0.63569600  0.36306300  1
  Co  Co9  1  0.81752500  0.86430900  0.13693900  1
  Co  Co10  1  0.18323700  0.13559600  0.86293800  1
  Co  Co11  1  0.81672800  0.36439900  0.63706800  1
  P  P12  1  0.73472900  0.27259500  0.96755500  1
  P  P13  1  0.73417500  0.77260700  0.46745300  1
  P  P14  1  0.26527200  0.22741200  0.53244100  1
  P  P15  1  0.26582800  0.72739000  0.03254800  1
  P  P16  1  0.77107000  0.43049000  0.25631000  1
  P  P17  1  0.77131000  0.93056400  0.75635000  1
  P  P18  1  0.22889400  0.06951000  0.24369600  1
  P  P19  1  0.22872300  0.56943400  0.74364500  1
  O  O20  1  0.17045300  0.33247200  0.55318800  1
  O  O21  1  0.17120000  0.83251500  0.05321200  1
  O  O22  1  0.82953500  0.16753000  0.94681400  1
  O  O23  1  0.82879000  0.66748100  0.44678300  1
  O  O24  1  0.89984300  0.34716000  0.88248400  1
  O  O25  1  0.89950900  0.84711300  0.38235300  1
  O  O26  1  0.10020400  0.15283600  0.61751600  1
  O  O27  1  0.10049300  0.65288500  0.11765000  1
  O  O28  1  0.94458700  0.01841100  0.21992800  1
  O  O29  1  0.94428100  0.51840100  0.71996100  1
  O  O30  1  0.05537100  0.48159400  0.28008900  1
  O  O31  1  0.05575900  0.98159100  0.78003400  1
  O  O32  1  0.43888900  0.26727400  0.92420200  1
  O  O33  1  0.43829900  0.76742000  0.42428800  1
  O  O34  1  0.56112300  0.23273300  0.57576700  1
  O  O35  1  0.56170100  0.73258000  0.07572200  1
  O  O36  1  0.58900300  0.97808200  0.64935800  1
  O  O37  1  0.58887300  0.47785200  0.14904900  1
  O  O38  1  0.41104500  0.52192000  0.85063000  1
  O  O39  1  0.41109700  0.02214500  0.35094700  1
  O  O40  1  0.21344300  0.18594100  0.33293200  1
  O  O41  1  0.21362900  0.68593400  0.83296000  1
  O  O42  1  0.78653100  0.31405800  0.16706900  1
  O  O43  1  0.78638900  0.81406300  0.66704100  1
  O  O44  1  0.33495000  0.07854400  0.07450500  1
  O  O45  1  0.33445700  0.57849700  0.57435500  1
  O  O46  1  0.66500200  0.42145300  0.42549500  1
  O  O47  1  0.66557600  0.92151000  0.92564400  1
