# generated using pymatgen
data_Li2TeO3
_symmetry_space_group_name_H-M   'P 1'
_cell_length_a   5.47641043
_cell_length_b   5.47641043
_cell_length_c   13.68186801
_cell_angle_alpha   87.85946414
_cell_angle_beta   87.85946414
_cell_angle_gamma   123.48849711
_symmetry_Int_Tables_number   1
_chemical_formula_structural   Li2TeO3
_chemical_formula_sum   'Li4 Te2 O6'
_cell_volume   341.15028267
_cell_formula_units_Z   2
loop_
 _symmetry_equiv_pos_site_id
 _symmetry_equiv_pos_as_xyz
  1  'x, y, z'
loop_
 _atom_site_type_symbol
 _atom_site_label
 _atom_site_symmetry_multiplicity
 _atom_site_fract_x
 _atom_site_fract_y
 _atom_site_fract_z
 _atom_site_occupancy
  Li  Li0  1  0.95336000  0.63904800  0.06795900  1
  Li  Li1  1  0.63904800  0.95336000  0.06795900  1
  Li  Li2  1  0.36095200  0.04664000  0.93204100  1
  Li  Li3  1  0.04664000  0.36095200  0.93204100  1
  Te  Te4  1  0.27001000  0.27001000  0.16052000  1
  Te  Te5  1  0.72999000  0.72999000  0.83948000  1
  O  O6  1  0.36855000  0.36855000  0.86349000  1
  O  O7  1  0.63145000  0.63145000  0.13651000  1
  O  O8  1  0.32782800  0.02906000  0.08084400  1
  O  O9  1  0.97094000  0.67217200  0.91915600  1
  O  O10  1  0.02906000  0.32782800  0.08084400  1
  O  O11  1  0.67217200  0.97094000  0.91915600  1
