# generated using pymatgen
data_Li2Ca2Si5O13
_symmetry_space_group_name_H-M   'P 1'
_cell_length_a   7.58673900
_cell_length_b   7.85068355
_cell_length_c   10.30638509
_cell_angle_alpha   83.21769583
_cell_angle_beta   68.82669943
_cell_angle_gamma   75.76770662
_symmetry_Int_Tables_number   1
_chemical_formula_structural   Li2Ca2Si5O13
_chemical_formula_sum   'Li4 Ca4 Si10 O26'
_cell_volume   554.55836050
_cell_formula_units_Z   2
loop_
 _symmetry_equiv_pos_site_id
 _symmetry_equiv_pos_as_xyz
  1  'x, y, z'
loop_
 _atom_site_type_symbol
 _atom_site_label
 _atom_site_symmetry_multiplicity
 _atom_site_fract_x
 _atom_site_fract_y
 _atom_site_fract_z
 _atom_site_occupancy
  Li  Li0  1  0.16227000  0.40749300  0.74767700  1
  Li  Li1  1  0.83773000  0.59250700  0.25232300  1
  Li  Li2  1  0.17738700  0.07827100  0.87266000  1
  Li  Li3  1  0.82261300  0.92172900  0.12734000  1
  Ca  Ca4  1  0.45094500  0.85244600  0.39127900  1
  Ca  Ca5  1  0.54905500  0.14755400  0.60872100  1
  Ca  Ca6  1  0.97610800  0.83295300  0.39399000  1
  Ca  Ca7  1  0.02389200  0.16704700  0.60601000  1
  Si  Si8  1  0.73526200  0.23194400  0.26605100  1
  Si  Si9  1  0.63563300  0.69887000  0.03887300  1
  Si  Si10  1  0.78210500  0.30756900  0.96209100  1
  Si  Si11  1  0.26473800  0.76805600  0.73394900  1
  Si  Si12  1  0.68476300  0.55080500  0.59186800  1
  Si  Si13  1  0.36436700  0.30113000  0.96112700  1
  Si  Si14  1  0.31523700  0.44919500  0.40813200  1
  Si  Si15  1  0.85392000  0.77142100  0.73603500  1
  Si  Si16  1  0.14608000  0.22857900  0.26396500  1
  Si  Si17  1  0.21789500  0.69243100  0.03790900  1
  O  O18  1  0.28897900  0.17846300  0.10362900  1
  O  O19  1  0.77890100  0.50196400  0.00664500  1
  O  O20  1  0.07653900  0.69143500  0.74116900  1
  O  O21  1  0.29769600  0.94241000  0.63596600  1
  O  O22  1  0.74585600  0.34045000  0.57743500  1
  O  O23  1  0.78159200  0.17541900  0.10322900  1
  O  O24  1  0.65275100  0.77441300  0.17073500  1
  O  O25  1  0.34724900  0.22558700  0.82926500  1
  O  O26  1  0.92346100  0.30856500  0.25883100  1
  O  O27  1  0.02804900  0.76440400  0.16734600  1
  O  O28  1  0.84120500  0.94163000  0.63194800  1
  O  O29  1  0.70230400  0.05759000  0.36403400  1
  O  O30  1  0.71102100  0.82153700  0.89637100  1
  O  O31  1  0.25414400  0.65955000  0.42256500  1
  O  O32  1  0.97195100  0.23559600  0.83265400  1
  O  O33  1  0.21840800  0.82458100  0.89677100  1
  O  O34  1  0.41427200  0.68815600  0.06715300  1
  O  O35  1  0.19602200  0.39460800  0.31623000  1
  O  O36  1  0.44913900  0.60214800  0.68863800  1
  O  O37  1  0.15879500  0.05837000  0.36805200  1
  O  O38  1  0.80397800  0.60539200  0.68377000  1
  O  O39  1  0.58572800  0.31184400  0.93284700  1
  O  O40  1  0.27715300  0.32916200  0.55189800  1
  O  O41  1  0.72284700  0.67083800  0.44810200  1
  O  O42  1  0.55086100  0.39785200  0.31136200  1
  O  O43  1  0.22109900  0.49803600  0.99335500  1
