# generated using pymatgen
data_LiCdPO4
_symmetry_space_group_name_H-M   'P 1'
_cell_length_a   4.86632900
_cell_length_b   6.38626200
_cell_length_c   10.91432500
_cell_angle_alpha   90.00000000
_cell_angle_beta   90.00000000
_cell_angle_gamma   90.00000000
_symmetry_Int_Tables_number   1
_chemical_formula_structural   LiCdPO4
_chemical_formula_sum   'Li4 Cd4 P4 O16'
_cell_volume   339.19159386
_cell_formula_units_Z   4
loop_
 _symmetry_equiv_pos_site_id
 _symmetry_equiv_pos_as_xyz
  1  'x, y, z'
loop_
 _atom_site_type_symbol
 _atom_site_label
 _atom_site_symmetry_multiplicity
 _atom_site_fract_x
 _atom_site_fract_y
 _atom_site_fract_z
 _atom_site_occupancy
  Li  Li0  1  0.01268300  0.00677700  0.49708500  1
  Li  Li1  1  0.98731700  0.50677700  0.50291500  1
  Li  Li2  1  0.51268300  0.50677700  0.00291500  1
  Li  Li3  1  0.48731700  0.00677700  0.99708500  1
  Cd  Cd4  1  0.45613700  0.25192000  0.71601500  1
  Cd  Cd5  1  0.54386300  0.75192000  0.28398500  1
  Cd  Cd6  1  0.04386300  0.25192000  0.21601500  1
  Cd  Cd7  1  0.95613700  0.75192000  0.78398500  1
  P  P8  1  0.10435300  0.74906000  0.08858400  1
  P  P9  1  0.89564700  0.24906000  0.91141600  1
  P  P10  1  0.60435300  0.24906000  0.41141600  1
  P  P11  1  0.39564700  0.74906000  0.58858400  1
  O  O12  1  0.77370300  0.25153700  0.04357300  1
  O  O13  1  0.78872700  0.74597700  0.09232300  1
  O  O14  1  0.22629700  0.75153700  0.95642700  1
  O  O15  1  0.73303900  0.44429000  0.34427600  1
  O  O16  1  0.28872700  0.24597700  0.40767700  1
  O  O17  1  0.23303900  0.94429000  0.15572400  1
  O  O18  1  0.27370300  0.75153700  0.45642700  1
  O  O19  1  0.26696100  0.94429000  0.65572400  1
  O  O20  1  0.76048800  0.05453900  0.84604200  1
  O  O21  1  0.71127300  0.74597700  0.59232300  1
  O  O22  1  0.23951200  0.55453900  0.15395800  1
  O  O23  1  0.72629700  0.25153700  0.54357300  1
  O  O24  1  0.76696100  0.44429000  0.84427600  1
  O  O25  1  0.26048800  0.55453900  0.65395800  1
  O  O26  1  0.21127300  0.24597700  0.90767700  1
  O  O27  1  0.73951200  0.05453900  0.34604200  1
