# generated using pymatgen
data_Li3Cu(PO4)2
_symmetry_space_group_name_H-M   'P 1'
_cell_length_a   5.07101400
_cell_length_b   6.87087336
_cell_length_c   9.83741267
_cell_angle_alpha   89.59231403
_cell_angle_beta   89.63246254
_cell_angle_gamma   89.77419768
_symmetry_Int_Tables_number   1
_chemical_formula_structural   Li3Cu(PO4)2
_chemical_formula_sum   'Li6 Cu2 P4 O16'
_cell_volume   342.73970498
_cell_formula_units_Z   2
loop_
 _symmetry_equiv_pos_site_id
 _symmetry_equiv_pos_as_xyz
  1  'x, y, z'
loop_
 _atom_site_type_symbol
 _atom_site_label
 _atom_site_symmetry_multiplicity
 _atom_site_fract_x
 _atom_site_fract_y
 _atom_site_fract_z
 _atom_site_occupancy
  Li  Li0  1  0.67712500  0.24536700  0.75144500  1
  Li  Li1  1  0.69045800  0.73844200  0.73913900  1
  Li  Li2  1  0.32303300  0.24825900  0.00413400  1
  Li  Li3  1  0.68534100  0.26366900  0.24878700  1
  Li  Li4  1  0.30883700  0.75445900  0.50663300  1
  Li  Li5  1  0.31507600  0.25187500  0.49977600  1
  Cu  Cu6  1  0.70050800  0.76176200  0.27578900  1
  Cu  Cu7  1  0.30228400  0.75554200  0.99436800  1
  P  P8  1  0.17741100  0.48515600  0.74802800  1
  P  P9  1  0.81877100  0.00388600  0.49845000  1
  P  P10  1  0.19316200  0.50362200  0.24452700  1
  P  P11  1  0.80390000  0.00159400  0.99926800  1
  O  O12  1  0.89110100  0.51405500  0.27802700  1
  O  O13  1  0.31333000  0.30676100  0.81181400  1
  O  O14  1  0.23487700  0.50974500  0.08601700  1
  O  O15  1  0.32708700  0.68687700  0.30559000  1
  O  O16  1  0.31066000  0.31451400  0.29875100  1
  O  O17  1  0.31785700  0.67111300  0.81406100  1
  O  O18  1  0.10905700  0.98758900  0.03031700  1
  O  O19  1  0.66620800  0.82068600  0.07541000  1
  O  O20  1  0.67735100  0.18272400  0.55462300  1
  O  O21  1  0.24164000  0.50395300  0.59574800  1
  O  O22  1  0.78588500  0.01142500  0.33555600  1
  O  O23  1  0.69681900  0.19075700  0.05791900  1
  O  O24  1  0.88185000  0.49472100  0.77808300  1
  O  O25  1  0.74787200  0.97851000  0.84814500  1
  O  O26  1  0.68563500  0.81041000  0.54099300  1
  O  O27  1  0.11585900  0.00315400  0.52484500  1
