# generated using pymatgen
data_LiMnO2
_symmetry_space_group_name_H-M   'P 1'
_cell_length_a   5.75779073
_cell_length_b   6.18461864
_cell_length_c   5.75778948
_cell_angle_alpha   62.29337946
_cell_angle_beta   90.06646240
_cell_angle_gamma   62.29226603
_symmetry_Int_Tables_number   1
_chemical_formula_structural   LiMnO2
_chemical_formula_sum   'Li4 Mn4 O8'
_cell_volume   154.40724122
_cell_formula_units_Z   4
loop_
 _symmetry_equiv_pos_site_id
 _symmetry_equiv_pos_as_xyz
  1  'x, y, z'
loop_
 _atom_site_type_symbol
 _atom_site_label
 _atom_site_symmetry_multiplicity
 _atom_site_fract_x
 _atom_site_fract_y
 _atom_site_fract_z
 _atom_site_occupancy
  Li  Li0  1  0.00000000  0.00000000  0.50000000  1
  Li  Li1  1  0.00000000  0.50000000  0.00000000  1
  Li  Li2  1  0.50000000  0.00000000  0.50000000  1
  Li  Li3  1  0.00000000  0.50000000  0.50000000  1
  Mn  Mn4  1  0.50000000  0.50000000  0.00000000  1
  Mn  Mn5  1  0.00000000  0.00000000  0.00000000  1
  Mn  Mn6  1  0.49999900  0.50000000  0.50000000  1
  Mn  Mn7  1  0.50000100  0.00000000  0.00000000  1
  O  O8  1  0.26861200  0.50149900  0.74935500  1
  O  O9  1  0.24914500  0.00149900  0.22988900  1
  O  O10  1  0.73138800  0.49850100  0.25064500  1
  O  O11  1  0.27011000  0.49850100  0.25085300  1
  O  O12  1  0.75064700  0.99850100  0.23138900  1
  O  O13  1  0.75085500  0.99850100  0.77011100  1
  O  O14  1  0.24935300  0.00149900  0.76861100  1
  O  O15  1  0.72989000  0.50149900  0.74914800  1
