# generated using pymatgen
data_Li5V5Cl16
_symmetry_space_group_name_H-M   'P 1'
_cell_length_a   12.74943518
_cell_length_b   12.74943518
_cell_length_c   7.36286200
_cell_angle_alpha   90.00000000
_cell_angle_beta   90.00000000
_cell_angle_gamma   109.54370111
_symmetry_Int_Tables_number   1
_chemical_formula_structural   Li5V5Cl16
_chemical_formula_sum   'Li10 V10 Cl32'
_cell_volume   1127.86640170
_cell_formula_units_Z   2
loop_
 _symmetry_equiv_pos_site_id
 _symmetry_equiv_pos_as_xyz
  1  'x, y, z'
loop_
 _atom_site_type_symbol
 _atom_site_label
 _atom_site_symmetry_multiplicity
 _atom_site_fract_x
 _atom_site_fract_y
 _atom_site_fract_z
 _atom_site_occupancy
  Li  Li0  1  0.99160200  0.50839800  0.00902200  1
  Li  Li1  1  0.69016500  0.80983500  0.76260800  1
  Li  Li2  1  0.19052800  0.80940500  0.26372100  1
  Li  Li3  1  0.69059500  0.30947200  0.26372100  1
  Li  Li4  1  0.99781400  0.00218600  0.50000000  1
  Li  Li5  1  0.19059500  0.80947200  0.73627900  1
  Li  Li6  1  0.69052800  0.30940500  0.73627900  1
  Li  Li7  1  0.49160200  0.00839800  0.99097800  1
  Li  Li8  1  0.19016500  0.30983500  0.23739200  1
  Li  Li9  1  0.49781400  0.50218600  0.50000000  1
  V  V10  1  0.68845400  0.56471300  0.99867900  1
  V  V11  1  0.93528700  0.81154600  0.99867900  1
  V  V12  1  0.68844300  0.81155700  0.24448800  1
  V  V13  1  0.18913600  0.56843300  0.49911300  1
  V  V14  1  0.43156700  0.81086400  0.50088700  1
  V  V15  1  0.68913600  0.06843300  0.50088700  1
  V  V16  1  0.93156700  0.31086400  0.49911300  1
  V  V17  1  0.18844300  0.31155700  0.75551200  1
  V  V18  1  0.43528700  0.31154600  0.00132100  1
  V  V19  1  0.18845400  0.06471300  0.00132100  1
  Cl  Cl20  1  0.81164600  0.68835400  0.77728800  1
  Cl  Cl21  1  0.57675200  0.68873500  0.01132800  1
  Cl  Cl22  1  0.81126500  0.92324800  0.01132800  1
  Cl  Cl23  1  0.80758700  0.69241300  0.23216300  1
  Cl  Cl24  1  0.56730900  0.93269100  0.26670000  1
  Cl  Cl25  1  0.81407300  0.18621000  0.27485300  1
  Cl  Cl26  1  0.31379000  0.68592700  0.27485300  1
  Cl  Cl27  1  0.79750400  0.93406600  0.49297900  1
  Cl  Cl28  1  0.56593400  0.70249700  0.49297900  1
  Cl  Cl29  1  0.07589800  0.68364500  0.50108900  1
  Cl  Cl30  1  0.57589800  0.18364500  0.49891100  1
  Cl  Cl31  1  0.81635500  0.42410200  0.50108900  1
  Cl  Cl32  1  0.31635500  0.92410200  0.49891100  1
  Cl  Cl33  1  0.31407300  0.68621000  0.72514700  1
  Cl  Cl34  1  0.81379000  0.18592700  0.72514700  1
  Cl  Cl35  1  0.56457700  0.93542300  0.72596400  1
  Cl  Cl36  1  0.06197400  0.93727900  0.77243900  1
  Cl  Cl37  1  0.56272100  0.43802600  0.77243900  1
  Cl  Cl38  1  0.30758700  0.19241300  0.76783700  1
  Cl  Cl39  1  0.29719600  0.93817000  0.99850900  1
  Cl  Cl40  1  0.79719600  0.43817000  0.00149100  1
  Cl  Cl41  1  0.06183000  0.70280400  0.00149100  1
  Cl  Cl42  1  0.56183000  0.20280400  0.99850900  1
  Cl  Cl43  1  0.07675200  0.18873500  0.98867200  1
  Cl  Cl44  1  0.31126500  0.42324800  0.98867200  1
  Cl  Cl45  1  0.31164600  0.18835400  0.22271200  1
  Cl  Cl46  1  0.06272100  0.93802600  0.22756100  1
  Cl  Cl47  1  0.56197400  0.43727900  0.22756100  1
  Cl  Cl48  1  0.06457700  0.43542300  0.27403600  1
  Cl  Cl49  1  0.29750400  0.43406600  0.50702100  1
  Cl  Cl50  1  0.06593400  0.20249700  0.50702100  1
  Cl  Cl51  1  0.06730900  0.43269100  0.73330000  1
