# generated using pymatgen
data_Li5La3Ta2O12
_symmetry_space_group_name_H-M   'P 1'
_cell_length_a   11.35146782
_cell_length_b   11.35146782
_cell_length_c   11.35146782
_cell_angle_alpha   109.47122063
_cell_angle_beta   109.47122063
_cell_angle_gamma   109.47122063
_symmetry_Int_Tables_number   1
_chemical_formula_structural   Li5La3Ta2O12
_chemical_formula_sum   'Li20 La12 Ta8 O48'
_cell_volume   1125.98907272
_cell_formula_units_Z   4
loop_
 _symmetry_equiv_pos_site_id
 _symmetry_equiv_pos_as_xyz
  1  'x, y, z'
loop_
 _atom_site_type_symbol
 _atom_site_label
 _atom_site_symmetry_multiplicity
 _atom_site_fract_x
 _atom_site_fract_y
 _atom_site_fract_z
 _atom_site_occupancy
  Li  Li0  1  0.75000000  0.37500000  0.62500000  1
  Li  Li1  1  0.25000000  0.12500000  0.87500000  1
  Li  Li2  1  0.62500000  0.37500000  0.25000000  1
  Li  Li3  1  0.75000000  0.87500000  0.12500000  1
  Li  Li4  1  0.12500000  0.87500000  0.25000000  1
  Li  Li5  1  0.12500000  0.75000000  0.87500000  1
  Li  Li6  1  0.25000000  0.25000000  0.25000000  1
  Li  Li7  1  0.75000000  0.50000000  0.00000000  1
  Li  Li8  1  0.87500000  0.12500000  0.75000000  1
  Li  Li9  1  0.00000000  0.25000000  0.50000000  1
  Li  Li10  1  0.25000000  0.50000000  0.00000000  1
  Li  Li11  1  0.62500000  0.75000000  0.37500000  1
  Li  Li12  1  0.00000000  0.75000000  0.50000000  1
  Li  Li13  1  0.37500000  0.25000000  0.62500000  1
  Li  Li14  1  0.25000000  0.62500000  0.37500000  1
  Li  Li15  1  0.37500000  0.62500000  0.75000000  1
  Li  Li16  1  0.87500000  0.25000000  0.12500000  1
  Li  Li17  1  0.50000000  0.00000000  0.25000000  1
  Li  Li18  1  0.50000000  0.00000000  0.75000000  1
  Li  Li19  1  0.75000000  0.75000000  0.75000000  1
  La  La20  1  0.87500000  0.75000000  0.62500000  1
  La  La21  1  0.12500000  0.25000000  0.37500000  1
  La  La22  1  0.87500000  0.62500000  0.25000000  1
  La  La23  1  0.12500000  0.37500000  0.75000000  1
  La  La24  1  0.75000000  0.12500000  0.37500000  1
  La  La25  1  0.62500000  0.25000000  0.87500000  1
  La  La26  1  0.75000000  0.62500000  0.87500000  1
  La  La27  1  0.25000000  0.87500000  0.62500000  1
  La  La28  1  0.37500000  0.12500000  0.25000000  1
  La  La29  1  0.62500000  0.87500000  0.75000000  1
  La  La30  1  0.37500000  0.75000000  0.12500000  1
  La  La31  1  0.25000000  0.37500000  0.12500000  1
  Ta  Ta32  1  0.50000000  0.50000000  0.50000000  1
  Ta  Ta33  1  0.50000000  0.00000000  0.50000000  1
  Ta  Ta34  1  0.00000000  0.00000000  0.00000000  1
  Ta  Ta35  1  0.00000000  0.50000000  0.50000000  1
  Ta  Ta36  1  0.50000000  0.50000000  0.00000000  1
  Ta  Ta37  1  0.00000000  0.00000000  0.50000000  1
  Ta  Ta38  1  0.00000000  0.50000000  0.00000000  1
  Ta  Ta39  1  0.50000000  0.00000000  0.00000000  1
  O  O40  1  0.16522600  0.46716600  0.59014900  1
  O  O41  1  0.92492300  0.12298300  0.59014900  1
  O  O42  1  0.33477400  0.90985100  0.03283400  1
  O  O43  1  0.59014900  0.92492300  0.12298300  1
  O  O44  1  0.42492300  0.83477400  0.80194000  1
  O  O45  1  0.83477400  0.80194000  0.42492300  1
  O  O46  1  0.37701700  0.30194000  0.46716600  1
  O  O47  1  0.96716600  0.80194000  0.87701700  1
  O  O48  1  0.90985100  0.37701700  0.57507700  1
  O  O49  1  0.62298300  0.69806000  0.53283400  1
  O  O50  1  0.09014900  0.96716600  0.66522600  1
  O  O51  1  0.69806000  0.53283400  0.62298300  1
  O  O52  1  0.53283400  0.62298300  0.69806000  1
  O  O53  1  0.90985100  0.03283400  0.33477400  1
  O  O54  1  0.62298300  0.42492300  0.09014900  1
  O  O55  1  0.12298300  0.03283400  0.19806000  1
  O  O56  1  0.42492300  0.09014900  0.62298300  1
  O  O57  1  0.16522600  0.19806000  0.57507700  1
  O  O58  1  0.03283400  0.33477400  0.90985100  1
  O  O59  1  0.12298300  0.59014900  0.92492300  1
  O  O60  1  0.19806000  0.57507700  0.16522600  1
  O  O61  1  0.80194000  0.42492300  0.83477400  1
  O  O62  1  0.07507700  0.87701700  0.40985100  1
  O  O63  1  0.59014900  0.16522600  0.46716600  1
  O  O64  1  0.37701700  0.57507700  0.90985100  1
  O  O65  1  0.40985100  0.83477400  0.53283400  1
  O  O66  1  0.03283400  0.19806000  0.12298300  1
  O  O67  1  0.66522600  0.07507700  0.69806000  1
  O  O68  1  0.30194000  0.33477400  0.92492300  1
  O  O69  1  0.53283400  0.40985100  0.83477400  1
  O  O70  1  0.66522600  0.09014900  0.96716600  1
  O  O71  1  0.69806000  0.66522600  0.07507700  1
  O  O72  1  0.92492300  0.30194000  0.33477400  1
  O  O73  1  0.40985100  0.07507700  0.87701700  1
  O  O74  1  0.07507700  0.69806000  0.66522600  1
  O  O75  1  0.87701700  0.40985100  0.07507700  1
  O  O76  1  0.87701700  0.96716600  0.80194000  1
  O  O77  1  0.09014900  0.62298300  0.42492300  1
  O  O78  1  0.30194000  0.46716600  0.37701700  1
  O  O79  1  0.57507700  0.90985100  0.37701700  1
  O  O80  1  0.57507700  0.16522600  0.19806000  1
  O  O81  1  0.46716600  0.59014900  0.16522600  1
  O  O82  1  0.83477400  0.53283400  0.40985100  1
  O  O83  1  0.19806000  0.12298300  0.03283400  1
  O  O84  1  0.46716600  0.37701700  0.30194000  1
  O  O85  1  0.33477400  0.92492300  0.30194000  1
  O  O86  1  0.96716600  0.66522600  0.09014900  1
  O  O87  1  0.80194000  0.87701700  0.96716600  1
