# generated using pymatgen
data_Li5VP2O9
_symmetry_space_group_name_H-M   'P 1'
_cell_length_a   7.71654885
_cell_length_b   7.71654885
_cell_length_c   7.71654885
_cell_angle_alpha   105.38788558
_cell_angle_beta   105.38788558
_cell_angle_gamma   117.98857348
_symmetry_Int_Tables_number   1
_chemical_formula_structural   Li5VP2O9
_chemical_formula_sum   'Li10 V2 P4 O18'
_cell_volume   347.76820161
_cell_formula_units_Z   2
loop_
 _symmetry_equiv_pos_site_id
 _symmetry_equiv_pos_as_xyz
  1  'x, y, z'
loop_
 _atom_site_type_symbol
 _atom_site_label
 _atom_site_symmetry_multiplicity
 _atom_site_fract_x
 _atom_site_fract_y
 _atom_site_fract_z
 _atom_site_occupancy
  Li  Li0  1  0.75000000  0.25000000  0.50000000  1
  Li  Li1  1  0.75000000  0.52532700  0.77532700  1
  Li  Li2  1  0.97467300  0.75000000  0.22467300  1
  Li  Li3  1  0.52532700  0.75000000  0.77532700  1
  Li  Li4  1  0.25000000  0.02532700  0.77532700  1
  Li  Li5  1  0.02532700  0.25000000  0.77532700  1
  Li  Li6  1  0.25000000  0.75000000  0.50000000  1
  Li  Li7  1  0.25000000  0.47467300  0.22467300  1
  Li  Li8  1  0.75000000  0.97467300  0.22467300  1
  Li  Li9  1  0.47467300  0.25000000  0.22467300  1
  V  V10  1  0.50000000  0.50000000  0.00000000  1
  V  V11  1  0.00000000  0.00000000  0.00000000  1
  P  P12  1  0.79300200  0.29300200  0.08600300  1
  P  P13  1  0.20699800  0.70699800  0.91399700  1
  P  P14  1  0.29300200  0.20699800  0.50000000  1
  P  P15  1  0.70699800  0.79300200  0.50000000  1
  O  O16  1  0.87247000  0.81865100  0.69112100  1
  O  O17  1  0.51950400  0.29994500  0.50000000  1
  O  O18  1  0.01950400  0.51950400  0.21955900  1
  O  O19  1  0.37247000  0.68134900  0.05382000  1
  O  O20  1  0.31865100  0.37247000  0.69112100  1
  O  O21  1  0.70005500  0.20005500  0.21955900  1
  O  O22  1  0.48049600  0.70005500  0.50000000  1
  O  O23  1  0.12753000  0.18134900  0.30887900  1
  O  O24  1  0.18134900  0.87247000  0.05382000  1
  O  O25  1  0.20005500  0.98049600  0.50000000  1
  O  O26  1  0.25000000  0.25000000  0.00000000  1
  O  O27  1  0.98049600  0.48049600  0.78044100  1
  O  O28  1  0.68134900  0.62753000  0.30887900  1
  O  O29  1  0.81865100  0.12753000  0.94618000  1
  O  O30  1  0.75000000  0.75000000  0.00000000  1
  O  O31  1  0.29994500  0.79994500  0.78044100  1
  O  O32  1  0.79994500  0.01950400  0.50000000  1
  O  O33  1  0.62753000  0.31865100  0.94618000  1
