# generated using pymatgen
data_LiCo5(P2O7)4
_symmetry_space_group_name_H-M   'P 1'
_cell_length_a   9.18492400
_cell_length_b   10.49604903
_cell_length_c   12.41098233
_cell_angle_alpha   80.16653866
_cell_angle_beta   72.90927001
_cell_angle_gamma   64.65182632
_symmetry_Int_Tables_number   1
_chemical_formula_structural   LiCo5(P2O7)4
_chemical_formula_sum   'Li2 Co10 P16 O56'
_cell_volume   1032.14113692
_cell_formula_units_Z   2
loop_
 _symmetry_equiv_pos_site_id
 _symmetry_equiv_pos_as_xyz
  1  'x, y, z'
loop_
 _atom_site_type_symbol
 _atom_site_label
 _atom_site_symmetry_multiplicity
 _atom_site_fract_x
 _atom_site_fract_y
 _atom_site_fract_z
 _atom_site_occupancy
  Li  Li0  1  0.00000000  0.50000000  0.50000000  1
  Li  Li1  1  0.00000000  0.50000000  0.00000000  1
  Co  Co2  1  0.18848100  0.98505500  0.24191200  1
  Co  Co3  1  0.39081300  0.71987900  0.39375700  1
  Co  Co4  1  0.74252400  0.75515300  0.43589800  1
  Co  Co5  1  0.26152500  0.24163000  0.06463700  1
  Co  Co6  1  0.62232600  0.28684600  0.11200300  1
  Co  Co7  1  0.37767400  0.71315400  0.88799700  1
  Co  Co8  1  0.25747600  0.24484700  0.56410200  1
  Co  Co9  1  0.60918700  0.28012100  0.60624300  1
  Co  Co10  1  0.73847500  0.75837000  0.93536300  1
  Co  Co11  1  0.81151900  0.01494500  0.75808800  1
  P  P12  1  0.91003600  0.28744300  0.21185500  1
  P  P13  1  0.35477400  0.19976800  0.30527000  1
  P  P14  1  0.12090500  0.70661900  0.30049700  1
  P  P15  1  0.27493600  0.53632600  0.09905400  1
  P  P16  1  0.72506400  0.46367400  0.90094600  1
  P  P17  1  0.35565300  0.20276000  0.80683600  1
  P  P18  1  0.35090200  0.96060700  0.45717200  1
  P  P19  1  0.87909500  0.29338100  0.69950300  1
  P  P20  1  0.73108900  0.46511500  0.40180500  1
  P  P21  1  0.64434700  0.79724000  0.19316400  1
  P  P22  1  0.26891100  0.53488500  0.59819500  1
  P  P23  1  0.34934100  0.95227200  0.96360800  1
  P  P24  1  0.64909800  0.03939300  0.54282800  1
  P  P25  1  0.65065900  0.04772800  0.03639200  1
  P  P26  1  0.64522600  0.80023200  0.69473000  1
  P  P27  1  0.08996400  0.71255700  0.78814500  1
  O  O28  1  0.21513700  0.43979600  0.06159900  1
  O  O29  1  0.50144800  0.81372400  0.97623400  1
  O  O30  1  0.24699500  0.67310500  0.02440200  1
  O  O31  1  0.23517400  0.28182100  0.40923600  1
  O  O32  1  0.25934000  0.19312300  0.22411400  1
  O  O33  1  0.43747700  0.03811000  0.35389900  1
  O  O34  1  0.01790600  0.30730800  0.59770100  1
  O  O35  1  0.76872300  0.07804700  0.58682900  1
  O  O36  1  0.71948700  0.95126300  0.44090500  1
  O  O37  1  0.75342400  0.70746900  0.09096300  1
  O  O38  1  0.88123500  0.40827700  0.29210000  1
  O  O39  1  0.28051300  0.04873700  0.55909500  1
  O  O40  1  0.26123700  0.67472300  0.80222800  1
  O  O41  1  0.74728100  0.77101700  0.27713000  1
  O  O42  1  0.28896500  0.63838100  0.33200600  1
  O  O43  1  0.56252300  0.96189000  0.64610100  1
  O  O44  1  0.72345800  0.95628900  0.93128000  1
  O  O45  1  0.41385200  0.04190100  0.85963200  1
  O  O46  1  0.85871400  0.40533500  0.78410800  1
  O  O47  1  0.25271900  0.22898300  0.72287000  1
  O  O48  1  0.78486300  0.56020400  0.93840100  1
  O  O49  1  0.54921800  0.53200400  0.88452800  1
  O  O50  1  0.23127700  0.92195300  0.41317100  1
  O  O51  1  0.24657600  0.29253100  0.90903700  1
  O  O52  1  0.27654200  0.04371100  0.06872000  1
  O  O53  1  0.77121300  0.09200700  0.06603100  1
  O  O54  1  0.75300500  0.32689500  0.97559800  1
  O  O55  1  0.43046100  0.45172700  0.63579300  1
  O  O56  1  0.76482600  0.71817900  0.59076400  1
  O  O57  1  0.14128600  0.59466500  0.21589200  1
  O  O58  1  0.49811900  0.76204500  0.74832500  1
  O  O59  1  0.08993100  0.85194500  0.24215100  1
  O  O60  1  0.91006900  0.14805500  0.75784900  1
  O  O61  1  0.02508000  0.31197700  0.09924500  1
  O  O62  1  0.71103500  0.36161900  0.66799400  1
  O  O63  1  0.72326400  0.32834200  0.46607100  1
  O  O64  1  0.53082100  0.20578400  0.75511800  1
  O  O65  1  0.45078200  0.46799600  0.11547200  1
  O  O66  1  0.98209400  0.69269200  0.40229900  1
  O  O67  1  0.22878700  0.90799300  0.93396900  1
  O  O68  1  0.01985100  0.85516500  0.72685900  1
  O  O69  1  0.97492000  0.68802300  0.90075500  1
  O  O70  1  0.73876300  0.32527700  0.19777200  1
  O  O71  1  0.46917900  0.79421600  0.24488200  1
  O  O72  1  0.56953900  0.54827300  0.36420700  1
  O  O73  1  0.49855200  0.18627600  0.02376600  1
  O  O74  1  0.78358700  0.55431100  0.45553100  1
  O  O75  1  0.11876500  0.59172300  0.70790000  1
  O  O76  1  0.21641300  0.44568900  0.54446900  1
  O  O77  1  0.98014900  0.14483500  0.27314100  1
  O  O78  1  0.58614800  0.95809900  0.14036800  1
  O  O79  1  0.27673600  0.67165800  0.53392900  1
  O  O80  1  0.74066000  0.80687700  0.77588600  1
  O  O81  1  0.50878000  0.19087300  0.53115000  1
  O  O82  1  0.50188100  0.23795500  0.25167500  1
  O  O83  1  0.49122000  0.80912700  0.46885000  1
