# generated using pymatgen
data_Li20(CoO2)21
_symmetry_space_group_name_H-M   'P 1'
_cell_length_a   8.58143000
_cell_length_b   9.52037743
_cell_length_c   10.29829975
_cell_angle_alpha   97.16759054
_cell_angle_beta   108.85161103
_cell_angle_gamma   113.87899761
_symmetry_Int_Tables_number   1
_chemical_formula_structural   Li20(CoO2)21
_chemical_formula_sum   'Li20 Co21 O42'
_cell_volume   695.59152006
_cell_formula_units_Z   1
loop_
 _symmetry_equiv_pos_site_id
 _symmetry_equiv_pos_as_xyz
  1  'x, y, z'
loop_
 _atom_site_type_symbol
 _atom_site_label
 _atom_site_symmetry_multiplicity
 _atom_site_fract_x
 _atom_site_fract_y
 _atom_site_fract_z
 _atom_site_occupancy
  Li  Li0  1  0.14289300  0.57151900  0.14287900  1
  Li  Li1  1  0.36857200  0.18427100  0.04618900  1
  Li  Li2  1  0.27642900  0.13816800  0.27632200  1
  Li  Li3  1  0.52472500  0.76275900  0.19027600  1
  Li  Li4  1  0.43001300  0.71506800  0.42979800  1
  Li  Li5  1  0.76047900  0.38031000  0.09497600  1
  Li  Li6  1  0.66510900  0.33277400  0.33279700  1
  Li  Li7  1  0.56998700  0.28493200  0.57020200  1
  Li  Li8  1  0.90792300  0.95398300  0.23047800  1
  Li  Li9  1  0.80999400  0.90522000  0.47620600  1
  Li  Li10  1  0.72357100  0.86183200  0.72367800  1
  Li  Li11  1  0.04771900  0.52376900  0.38089900  1
  Li  Li12  1  0.95228100  0.47623100  0.61910100  1
  Li  Li13  1  0.85710700  0.42848100  0.85712100  1
  Li  Li14  1  0.19000600  0.09478000  0.52379400  1
  Li  Li15  1  0.09207700  0.04601700  0.76952200  1
  Li  Li16  1  0.33489100  0.66722600  0.66720300  1
  Li  Li17  1  0.23952100  0.61969000  0.90502400  1
  Li  Li18  1  0.47527500  0.23724100  0.80972400  1
  Li  Li19  1  0.63142800  0.81572900  0.95381100  1
  Co  Co20  1  0.26082100  0.88116700  0.09488200  1
  Co  Co21  1  0.40484400  0.45408600  0.23834800  1
  Co  Co22  1  0.64219600  0.07257200  0.14285000  1
  Co  Co23  1  0.54721300  0.02412100  0.38070600  1
  Co  Co24  1  0.88134400  0.69109000  0.04739800  1
  Co  Co25  1  0.78590900  0.64334300  0.28579900  1
  Co  Co26  1  0.69067400  0.59563600  0.52402100  1
  Co  Co27  1  0.02361300  0.26138400  0.18972700  1
  Co  Co28  1  0.92828600  0.21438900  0.42822400  1
  Co  Co29  1  0.83305800  0.16795700  0.66649800  1
  Co  Co30  1  0.16694200  0.83204300  0.33350200  1
  Co  Co31  1  0.07171400  0.78561100  0.57177600  1
  Co  Co32  1  0.97638700  0.73861600  0.81027300  1
  Co  Co33  1  0.30932600  0.40436400  0.47597900  1
  Co  Co34  1  0.21409100  0.35665700  0.71420100  1
  Co  Co35  1  0.11865600  0.30891000  0.95260200  1
  Co  Co36  1  0.45278700  0.97587900  0.61929400  1
  Co  Co37  1  0.35780400  0.92742800  0.85715000  1
  Co  Co38  1  0.59515600  0.54591400  0.76165200  1
  Co  Co39  1  0.50000000  0.50000000  0.00000000  1
  Co  Co40  1  0.73917900  0.11883300  0.90511800  1
  O  O41  1  0.20263900  0.24842500  0.12229900  1
  O  O42  1  0.43883800  0.86127200  0.02546300  1
  O  O43  1  0.34320500  0.81284900  0.26323600  1
  O  O44  1  0.32448500  0.52129500  0.07017800  1
  O  O45  1  0.58023500  0.43308000  0.16809300  1
  O  O46  1  0.48524800  0.38549700  0.40545000  1
  O  O47  1  0.46425200  0.09153700  0.21322100  1
  O  O48  1  0.81546600  0.05464600  0.07397200  1
  O  O49  1  0.72315800  0.00455000  0.31017600  1
  O  O50  1  0.62892500  0.95718400  0.54875500  1
  O  O51  1  0.70544000  0.71087200  0.11768000  1
  O  O52  1  0.61198900  0.66560300  0.35739500  1
  O  O53  1  0.96119200  0.62175100  0.21546300  1
  O  O54  1  0.86628300  0.57541600  0.45343700  1
  O  O55  1  0.77104600  0.52654800  0.69100300  1
  O  O56  1  0.94311900  0.33002800  0.02270900  1
  O  O57  1  0.84774700  0.28290100  0.26093400  1
  O  O58  1  0.75173100  0.23533400  0.49723700  1
  O  O59  1  0.10398200  0.19389200  0.35746900  1
  O  O60  1  0.00828300  0.14666500  0.59616600  1
  O  O61  1  0.91256200  0.10320400  0.83189400  1
  O  O62  1  0.08743800  0.89679600  0.16810600  1
  O  O63  1  0.99171700  0.85333500  0.40383400  1
  O  O64  1  0.89601800  0.80610800  0.64253100  1
  O  O65  1  0.24826900  0.76466600  0.50276300  1
  O  O66  1  0.15225300  0.71709900  0.73906600  1
  O  O67  1  0.05688100  0.66997200  0.97729100  1
  O  O68  1  0.22895400  0.47345200  0.30899700  1
  O  O69  1  0.13371700  0.42458400  0.54656300  1
  O  O70  1  0.03880800  0.37824900  0.78453700  1
  O  O71  1  0.38801100  0.33439700  0.64260500  1
  O  O72  1  0.29456000  0.28912800  0.88232000  1
  O  O73  1  0.37107500  0.04281600  0.45124500  1
  O  O74  1  0.27684200  0.99545000  0.68982400  1
  O  O75  1  0.18453400  0.94535400  0.92602800  1
  O  O76  1  0.53574800  0.90846300  0.78677900  1
  O  O77  1  0.51475200  0.61450300  0.59455000  1
  O  O78  1  0.41976500  0.56692000  0.83190700  1
  O  O79  1  0.67551500  0.47870500  0.92982200  1
  O  O80  1  0.65679500  0.18715100  0.73676400  1
  O  O81  1  0.56116200  0.13872800  0.97453700  1
  O  O82  1  0.79736100  0.75157500  0.87770100  1
