# generated using pymatgen
data_Ba38Na58Li26N
_symmetry_space_group_name_H-M   'P 1'
_cell_length_a   19.30775126
_cell_length_b   19.30775130
_cell_length_c   19.30775102
_cell_angle_alpha   59.99999881
_cell_angle_beta   59.99999874
_cell_angle_gamma   60.00000022
_symmetry_Int_Tables_number   1
_chemical_formula_structural   Ba38Na58Li26N
_chemical_formula_sum   'Ba38 Na58 Li26 N1'
_cell_volume   5089.55809615
_cell_formula_units_Z   1
loop_
 _symmetry_equiv_pos_site_id
 _symmetry_equiv_pos_as_xyz
  1  'x, y, z'
loop_
 _atom_site_type_symbol
 _atom_site_label
 _atom_site_symmetry_multiplicity
 _atom_site_fract_x
 _atom_site_fract_y
 _atom_site_fract_z
 _atom_site_occupancy
  Ba  Ba0  1  0.53272230  0.15575923  0.15575923  1
  Ba  Ba1  1  0.37951336  0.62665920  0.99691372  1
  Ba  Ba2  1  0.90567951  0.28296147  0.90567951  1
  Ba  Ba3  1  0.77357101  0.54456538  0.54456538  1
  Ba  Ba4  1  0.54456538  0.13729824  0.54456538  1
  Ba  Ba5  1  0.99691372  0.99691372  0.37951336  1
  Ba  Ba6  1  0.99691372  0.99691372  0.62665920  1
  Ba  Ba7  1  0.37951336  0.99691372  0.62665920  1
  Ba  Ba8  1  0.90567951  0.90567951  0.90567951  1
  Ba  Ba9  1  0.54456538  0.77357101  0.13729824  1
  Ba  Ba10  1  0.99691372  0.62665920  0.37951336  1
  Ba  Ba11  1  0.77357101  0.13729824  0.54456538  1
  Ba  Ba12  1  0.40691197  0.40691197  0.77926410  1
  Ba  Ba13  1  0.25000000  0.25000000  0.25000000  1
  Ba  Ba14  1  0.62665920  0.99691372  0.99691372  1
  Ba  Ba15  1  0.54456538  0.54456538  0.77357101  1
  Ba  Ba16  1  0.15575923  0.53272230  0.15575923  1
  Ba  Ba17  1  0.90567951  0.90567951  0.28296147  1
  Ba  Ba18  1  0.40691197  0.40691197  0.40691197  1
  Ba  Ba19  1  0.15575923  0.15575923  0.53272230  1
  Ba  Ba20  1  0.54456538  0.54456538  0.13729824  1
  Ba  Ba21  1  0.28296147  0.90567951  0.90567951  1
  Ba  Ba22  1  0.40691197  0.77926410  0.40691197  1
  Ba  Ba23  1  0.13729824  0.54456538  0.77357101  1
  Ba  Ba24  1  0.54456538  0.13729824  0.77357101  1
  Ba  Ba25  1  0.99691372  0.62665920  0.99691372  1
  Ba  Ba26  1  0.77357101  0.54456538  0.13729824  1
  Ba  Ba27  1  0.99691372  0.37951336  0.99691372  1
  Ba  Ba28  1  0.15575923  0.15575923  0.15575923  1
  Ba  Ba29  1  0.77926410  0.40691197  0.40691197  1
  Ba  Ba30  1  0.62665920  0.37951336  0.99691372  1
  Ba  Ba31  1  0.62665920  0.99691372  0.37951336  1
  Ba  Ba32  1  0.00000000  0.00000000  0.00000000  1
  Ba  Ba33  1  0.99691372  0.37951336  0.62665920  1
  Ba  Ba34  1  0.54456538  0.77357101  0.54456538  1
  Ba  Ba35  1  0.37951336  0.99691372  0.99691372  1
  Ba  Ba36  1  0.13729824  0.54456538  0.54456538  1
  Ba  Ba37  1  0.13729824  0.77357101  0.54456538  1
  Na  Na38  1  0.13925308  0.95503653  0.76645731  1
  Na  Na39  1  0.19860126  0.01238816  0.39450529  1
  Na  Na40  1  0.89307306  0.58114635  0.26289030  1
  Na  Na41  1  0.54984305  0.54984305  0.54984305  1
  Na  Na42  1  0.95503653  0.13925308  0.13925308  1
  Na  Na43  1  0.13199442  0.76764591  0.76764591  1
  Na  Na44  1  0.76764591  0.13199442  0.76764591  1
  Na  Na45  1  0.26289030  0.89307306  0.26289030  1
  Na  Na46  1  0.39450529  0.01238816  0.39450529  1
  Na  Na47  1  0.26289030  0.26289030  0.89307306  1
  Na  Na48  1  0.19860126  0.39450529  0.01238816  1
  Na  Na49  1  0.13199442  0.76764591  0.33271376  1
  Na  Na50  1  0.39450529  0.39450529  0.19860126  1
  Na  Na51  1  0.76764591  0.13199442  0.33271376  1
  Na  Na52  1  0.58114635  0.26289030  0.26289030  1
  Na  Na53  1  0.65968567  0.34031433  0.34031433  1
  Na  Na54  1  0.34031433  0.65968567  0.34031433  1
  Na  Na55  1  0.26289030  0.26289030  0.58114635  1
  Na  Na56  1  0.19860126  0.39450529  0.39450529  1
  Na  Na57  1  0.95503653  0.13925308  0.76645731  1
  Na  Na58  1  0.39450529  0.39450529  0.01238816  1
  Na  Na59  1  0.39450529  0.19860126  0.01238816  1
  Na  Na60  1  0.26289030  0.58114635  0.26289030  1
  Na  Na61  1  0.34031433  0.34031433  0.65968567  1
  Na  Na62  1  0.35047086  0.54984305  0.54984305  1
  Na  Na63  1  0.33271376  0.76764591  0.76764591  1
  Na  Na64  1  0.13925308  0.13925308  0.95503653  1
  Na  Na65  1  0.76764591  0.33271376  0.13199442  1
  Na  Na66  1  0.65968567  0.34031433  0.65968567  1
  Na  Na67  1  0.76764591  0.76764591  0.13199442  1
  Na  Na68  1  0.58114635  0.26289030  0.89307306  1
  Na  Na69  1  0.76764591  0.76764591  0.33271376  1
  Na  Na70  1  0.33271376  0.76764591  0.13199442  1
  Na  Na71  1  0.01238816  0.39450529  0.19860126  1
  Na  Na72  1  0.39450529  0.19860126  0.39450529  1
  Na  Na73  1  0.76645731  0.13925308  0.95503653  1
  Na  Na74  1  0.76645731  0.95503653  0.13925308  1
  Na  Na75  1  0.26289030  0.58114635  0.89307306  1
  Na  Na76  1  0.54984305  0.54984305  0.35047086  1
  Na  Na77  1  0.95503653  0.76645731  0.13925308  1
  Na  Na78  1  0.76764591  0.33271376  0.76764591  1
  Na  Na79  1  0.13925308  0.76645731  0.13925308  1
  Na  Na80  1  0.34031433  0.65968567  0.65968567  1
  Na  Na81  1  0.26289030  0.89307306  0.58114635  1
  Na  Na82  1  0.01238816  0.19860126  0.39450529  1
  Na  Na83  1  0.13925308  0.76645731  0.95503653  1
  Na  Na84  1  0.13199442  0.33271376  0.76764591  1
  Na  Na85  1  0.65968567  0.65968567  0.34031433  1
  Na  Na86  1  0.58114635  0.89307306  0.26289030  1
  Na  Na87  1  0.54984305  0.35047086  0.54984305  1
  Na  Na88  1  0.13925308  0.13925308  0.76645731  1
  Na  Na89  1  0.33271376  0.13199442  0.76764591  1
  Na  Na90  1  0.89307306  0.26289030  0.26289030  1
  Na  Na91  1  0.39450529  0.01238816  0.19860126  1
  Na  Na92  1  0.89307306  0.26289030  0.58114635  1
  Na  Na93  1  0.01238816  0.39450529  0.39450529  1
  Na  Na94  1  0.76645731  0.13925308  0.13925308  1
  Na  Na95  1  0.13925308  0.95503653  0.13925308  1
  Li  Li96  1  0.63092599  0.78969134  0.78969134  1
  Li  Li97  1  0.77598726  0.95478225  0.77598726  1
  Li  Li98  1  0.78969134  0.78969134  0.63092599  1
  Li  Li99  1  0.69207156  0.92378531  0.69207156  1
  Li  Li100  1  0.77598726  0.77598726  0.95478225  1
  Li  Li101  1  0.61061850  0.61061850  0.88938150  1
  Li  Li102  1  0.95478225  0.49324324  0.77598726  1
  Li  Li103  1  0.95478225  0.77598726  0.49324324  1
  Li  Li104  1  0.77598726  0.95478225  0.49324324  1
  Li  Li105  1  0.88938150  0.61061850  0.88938150  1
  Li  Li106  1  0.88938150  0.61061850  0.61061850  1
  Li  Li107  1  0.77598726  0.49324324  0.77598726  1
  Li  Li108  1  0.77598726  0.49324324  0.95478225  1
  Li  Li109  1  0.69207156  0.69207156  0.69207156  1
  Li  Li110  1  0.78969134  0.63092599  0.78969134  1
  Li  Li111  1  0.61061850  0.88938150  0.61061850  1
  Li  Li112  1  0.69207156  0.69207156  0.92378531  1
  Li  Li113  1  0.95478225  0.77598726  0.77598726  1
  Li  Li114  1  0.49324324  0.77598726  0.77598726  1
  Li  Li115  1  0.78969134  0.78969134  0.78969134  1
  Li  Li116  1  0.49324324  0.77598726  0.95478225  1
  Li  Li117  1  0.49324324  0.95478225  0.77598726  1
  Li  Li118  1  0.92378531  0.69207156  0.69207156  1
  Li  Li119  1  0.77598726  0.77598726  0.49324324  1
  Li  Li120  1  0.88938150  0.88938150  0.61061850  1
  Li  Li121  1  0.61061850  0.88938150  0.88938150  1
  N  N122  1  0.75000000  0.75000000  0.75000000  1
