# generated using pymatgen
data_LiMn4(PO4)3
_symmetry_space_group_name_H-M   'P 1'
_cell_length_a   10.92098210
_cell_length_b   10.92098210
_cell_length_c   10.92098210
_cell_angle_alpha   143.56217922
_cell_angle_beta   143.56217922
_cell_angle_gamma   52.48249283
_symmetry_Int_Tables_number   1
_chemical_formula_structural   LiMn4(PO4)3
_chemical_formula_sum   'Li2 Mn8 P6 O24'
_cell_volume   456.79479247
_cell_formula_units_Z   2
loop_
 _symmetry_equiv_pos_site_id
 _symmetry_equiv_pos_as_xyz
  1  'x, y, z'
loop_
 _atom_site_type_symbol
 _atom_site_label
 _atom_site_symmetry_multiplicity
 _atom_site_fract_x
 _atom_site_fract_y
 _atom_site_fract_z
 _atom_site_occupancy
  Li  Li0  1  0.50000000  0.50000000  0.00000000  1
  Li  Li1  1  0.25000000  0.75000000  0.50000000  1
  Mn  Mn2  1  0.37500000  0.88948900  0.01448900  1
  Mn  Mn3  1  0.51843900  0.01843900  0.50000000  1
  Mn  Mn4  1  0.76843900  0.76843900  0.00000000  1
  Mn  Mn5  1  0.98156100  0.48156100  0.50000000  1
  Mn  Mn6  1  0.11051100  0.12500000  0.48551100  1
  Mn  Mn7  1  0.87500000  0.36051100  0.98551100  1
  Mn  Mn8  1  0.23156100  0.23156100  0.00000000  1
  Mn  Mn9  1  0.63948900  0.62500000  0.51448900  1
  P  P10  1  0.00000000  0.00000000  0.00000000  1
  P  P11  1  0.37500000  0.47252000  0.59752000  1
  P  P12  1  0.75000000  0.25000000  0.50000000  1
  P  P13  1  0.87500000  0.77748000  0.40248000  1
  P  P14  1  0.22252000  0.62500000  0.09752000  1
  P  P15  1  0.52748000  0.12500000  0.90248000  1
  O  O16  1  0.22893400  0.98732900  0.13429000  1
  O  O17  1  0.28045600  0.55148000  0.70786700  1
  O  O18  1  0.46954400  0.67741100  0.77102400  1
  O  O19  1  0.52106600  0.15535600  0.25839400  1
  O  O20  1  0.53965300  0.33335000  0.66219000  1
  O  O21  1  0.73732900  0.47893400  0.63429000  1
  O  O22  1  0.84464400  0.10303800  0.36571000  1
  O  O23  1  0.01267100  0.14696200  0.24160600  1
  O  O24  1  0.67116000  0.87746300  0.33781000  1
  O  O25  1  0.89696200  0.26267100  0.74160600  1
  O  O26  1  0.90638700  0.69852000  0.22897600  1
  O  O27  1  0.08335000  0.78965300  0.16219000  1
  O  O28  1  0.12253700  0.46034700  0.79369700  1
  O  O29  1  0.84361300  0.57258900  0.29213300  1
  O  O30  1  0.85303800  0.09464400  0.86571000  1
  O  O31  1  0.07884000  0.91665000  0.70630300  1
  O  O32  1  0.30148000  0.53045600  0.20786700  1
  O  O33  1  0.42741100  0.71954400  0.27102400  1
  O  O34  1  0.32258900  0.09361300  0.79213300  1
  O  O35  1  0.44852000  0.15638700  0.72897600  1
  O  O36  1  0.21034700  0.37253700  0.29369700  1
  O  O37  1  0.62746300  0.92116000  0.83781000  1
  O  O38  1  0.66665000  0.32884000  0.20630300  1
  O  O39  1  0.90535600  0.77106600  0.75839400  1
