# generated using pymatgen
data_LiAlS3(Cl2O3)2
_symmetry_space_group_name_H-M   'P 1'
_cell_length_a   9.75969600
_cell_length_b   10.24860900
_cell_length_c   13.69713400
_cell_angle_alpha   90.00000000
_cell_angle_beta   90.00000000
_cell_angle_gamma   90.00000000
_symmetry_Int_Tables_number   1
_chemical_formula_structural   LiAlS3(Cl2O3)2
_chemical_formula_sum   'Li4 Al4 S12 Cl16 O24'
_cell_volume   1370.03265640
_cell_formula_units_Z   4
loop_
 _symmetry_equiv_pos_site_id
 _symmetry_equiv_pos_as_xyz
  1  'x, y, z'
loop_
 _atom_site_type_symbol
 _atom_site_label
 _atom_site_symmetry_multiplicity
 _atom_site_fract_x
 _atom_site_fract_y
 _atom_site_fract_z
 _atom_site_occupancy
  Li  Li0  1  0.37541400  0.75000000  0.24591100  1
  Li  Li1  1  0.87541400  0.75000000  0.25408900  1
  Li  Li2  1  0.62458600  0.25000000  0.75408900  1
  Li  Li3  1  0.12458600  0.25000000  0.74591100  1
  Al  Al4  1  0.76122400  0.75000000  0.87123200  1
  Al  Al5  1  0.23877600  0.25000000  0.12876800  1
  Al  Al6  1  0.26122400  0.75000000  0.62876800  1
  Al  Al7  1  0.73877600  0.25000000  0.37123200  1
  S  S8  1  0.87249700  0.04268600  0.64603000  1
  S  S9  1  0.62750300  0.54268600  0.14603000  1
  S  S10  1  0.37523100  0.25000000  0.56566500  1
  S  S11  1  0.62476900  0.75000000  0.43433500  1
  S  S12  1  0.37249700  0.45731400  0.85397000  1
  S  S13  1  0.37249700  0.04268600  0.85397000  1
  S  S14  1  0.12750300  0.95731400  0.35397000  1
  S  S15  1  0.62750300  0.95731400  0.14603000  1
  S  S16  1  0.12750300  0.54268600  0.35397000  1
  S  S17  1  0.12476900  0.75000000  0.06566500  1
  S  S18  1  0.87523100  0.25000000  0.93433500  1
  S  S19  1  0.87249700  0.45731400  0.64603000  1
  Cl  Cl20  1  0.87658100  0.57805300  0.90945300  1
  Cl  Cl21  1  0.21902300  0.75000000  0.78319100  1
  Cl  Cl22  1  0.28097700  0.25000000  0.28319100  1
  Cl  Cl23  1  0.07214800  0.75000000  0.54456300  1
  Cl  Cl24  1  0.71902300  0.75000000  0.71680900  1
  Cl  Cl25  1  0.12341900  0.07805300  0.09054700  1
  Cl  Cl26  1  0.62341900  0.07805300  0.40945300  1
  Cl  Cl27  1  0.78097700  0.25000000  0.21680900  1
  Cl  Cl28  1  0.87658100  0.92194700  0.90945300  1
  Cl  Cl29  1  0.92785200  0.25000000  0.45543700  1
  Cl  Cl30  1  0.62341900  0.42194700  0.40945300  1
  Cl  Cl31  1  0.57214800  0.75000000  0.95543700  1
  Cl  Cl32  1  0.12341900  0.42194700  0.09054700  1
  Cl  Cl33  1  0.37658100  0.92194700  0.59054700  1
  Cl  Cl34  1  0.42785200  0.25000000  0.04456300  1
  Cl  Cl35  1  0.37658100  0.57805300  0.59054700  1
  O  O36  1  0.75878200  0.75000000  0.38815400  1
  O  O37  1  0.25878200  0.75000000  0.11184600  1
  O  O38  1  0.99652300  0.59162400  0.31940000  1
  O  O39  1  0.00644000  0.75000000  0.12946700  1
  O  O40  1  0.25039800  0.10618500  0.81674600  1
  O  O41  1  0.49356000  0.25000000  0.62946700  1
  O  O42  1  0.50347700  0.40837600  0.81940000  1
  O  O43  1  0.49652300  0.59162400  0.18060000  1
  O  O44  1  0.00347700  0.09162400  0.68060000  1
  O  O45  1  0.24960200  0.89381500  0.31674600  1
  O  O46  1  0.99356000  0.25000000  0.87053300  1
  O  O47  1  0.00347700  0.40837600  0.68060000  1
  O  O48  1  0.50644000  0.75000000  0.37053300  1
  O  O49  1  0.74960200  0.89381500  0.18325400  1
  O  O50  1  0.24121800  0.25000000  0.61184600  1
  O  O51  1  0.74960200  0.60618500  0.18325400  1
  O  O52  1  0.50347700  0.09162400  0.81940000  1
  O  O53  1  0.49652300  0.90837600  0.18060000  1
  O  O54  1  0.75039800  0.10618500  0.68325400  1
  O  O55  1  0.75039800  0.39381500  0.68325400  1
  O  O56  1  0.74121800  0.25000000  0.88815400  1
  O  O57  1  0.25039800  0.39381500  0.81674600  1
  O  O58  1  0.24960200  0.60618500  0.31674600  1
  O  O59  1  0.99652300  0.90837600  0.31940000  1
