# generated using pymatgen
data_LiZnPO4
_symmetry_space_group_name_H-M   'P 1'
_cell_length_a   5.03622100
_cell_length_b   6.77431900
_cell_length_c   10.17240200
_cell_angle_alpha   90.00000000
_cell_angle_beta   90.00000000
_cell_angle_gamma   90.00000000
_symmetry_Int_Tables_number   1
_chemical_formula_structural   LiZnPO4
_chemical_formula_sum   'Li4 Zn4 P4 O16'
_cell_volume   347.05150953
_cell_formula_units_Z   4
loop_
 _symmetry_equiv_pos_site_id
 _symmetry_equiv_pos_as_xyz
  1  'x, y, z'
loop_
 _atom_site_type_symbol
 _atom_site_label
 _atom_site_symmetry_multiplicity
 _atom_site_fract_x
 _atom_site_fract_y
 _atom_site_fract_z
 _atom_site_occupancy
  Li  Li0  1  0.18618200  0.71372200  0.65346700  1
  Li  Li1  1  0.68618200  0.21372200  0.84653300  1
  Li  Li2  1  0.81381800  0.21372200  0.34653300  1
  Li  Li3  1  0.31381800  0.71372200  0.15346700  1
  Zn  Zn4  1  0.81388800  0.71304400  0.34539800  1
  Zn  Zn5  1  0.18611200  0.21304400  0.65460200  1
  Zn  Zn6  1  0.68611200  0.71304400  0.84539800  1
  Zn  Zn7  1  0.31388800  0.21304400  0.15460200  1
  P  P8  1  0.81567200  0.46300500  0.09449500  1
  P  P9  1  0.31567200  0.96300500  0.40550500  1
  P  P10  1  0.18432800  0.96300500  0.90550500  1
  P  P11  1  0.68432800  0.46300500  0.59449500  1
  O  O12  1  0.19992400  0.77297700  0.34106600  1
  O  O13  1  0.29984400  0.15102900  0.83876200  1
  O  O14  1  0.69992400  0.27297700  0.15893400  1
  O  O15  1  0.79984400  0.65102900  0.66123800  1
  O  O16  1  0.75697000  0.46619800  0.44610900  1
  O  O17  1  0.12206100  0.46102500  0.11538900  1
  O  O18  1  0.20015600  0.15102900  0.33876200  1
  O  O19  1  0.80007600  0.27297700  0.65893400  1
  O  O20  1  0.37793900  0.46102500  0.61538900  1
  O  O21  1  0.87793900  0.96102500  0.88461100  1
  O  O22  1  0.25697000  0.96619800  0.05389100  1
  O  O23  1  0.70015600  0.65102900  0.16123800  1
  O  O24  1  0.74303000  0.46619800  0.94610900  1
  O  O25  1  0.62206100  0.96102500  0.38461100  1
  O  O26  1  0.24303000  0.96619800  0.55389100  1
  O  O27  1  0.30007600  0.77297700  0.84106600  1
