# generated using pymatgen
data_Li3Ni3(PO4)4
_symmetry_space_group_name_H-M   'P 1'
_cell_length_a   8.02762500
_cell_length_b   8.91297543
_cell_length_c   13.03138217
_cell_angle_alpha   86.23829482
_cell_angle_beta   89.77761163
_cell_angle_gamma   89.91663705
_symmetry_Int_Tables_number   1
_chemical_formula_structural   Li3Ni3(PO4)4
_chemical_formula_sum   'Li9 Ni9 P12 O48'
_cell_volume   930.37922290
_cell_formula_units_Z   3
loop_
 _symmetry_equiv_pos_site_id
 _symmetry_equiv_pos_as_xyz
  1  'x, y, z'
loop_
 _atom_site_type_symbol
 _atom_site_label
 _atom_site_symmetry_multiplicity
 _atom_site_fract_x
 _atom_site_fract_y
 _atom_site_fract_z
 _atom_site_occupancy
  Li  Li0  1  0.86440400  0.77111000  0.83692300  1
  Li  Li1  1  0.13699900  0.89822400  0.50020700  1
  Li  Li2  1  0.63732000  0.26450200  0.83207800  1
  Li  Li3  1  0.63424200  0.59660300  0.50491800  1
  Li  Li4  1  0.63943400  0.93403700  0.16658000  1
  Li  Li5  1  0.36797300  0.06923200  0.82813500  1
  Li  Li6  1  0.36380200  0.40477700  0.50067800  1
  Li  Li7  1  0.86376600  0.42954000  0.16532800  1
  Li  Li8  1  0.13310800  0.23798100  0.16667200  1
  Ni  Ni9  1  0.50782600  0.67075600  0.83398200  1
  Ni  Ni10  1  0.49281800  0.99622200  0.49961400  1
  Ni  Ni11  1  0.13990600  0.55988500  0.84064700  1
  Ni  Ni12  1  0.00055400  0.15969700  0.83006900  1
  Ni  Ni13  1  0.00261700  0.50759200  0.50422000  1
  Ni  Ni14  1  0.99461000  0.83563600  0.16664800  1
  Ni  Ni15  1  0.36027600  0.72720000  0.17210900  1
  Ni  Ni16  1  0.85963100  0.10861100  0.49337900  1
  Ni  Ni17  1  0.50235400  0.32636500  0.16379900  1
  P  P18  1  0.80405600  0.13750600  0.05051200  1
  P  P19  1  0.29990900  0.02641000  0.27941300  1
  P  P20  1  0.69177600  0.63805300  0.05405400  1
  P  P21  1  0.69229400  0.31473100  0.38325100  1
  P  P22  1  0.19147700  0.52191200  0.28362100  1
  P  P23  1  0.19161100  0.19434100  0.61181400  1
  P  P24  1  0.79956900  0.80746700  0.38763700  1
  P  P25  1  0.80914600  0.47492700  0.72213100  1
  P  P26  1  0.30012400  0.69409800  0.61671000  1
  P  P27  1  0.20488100  0.85901400  0.94662000  1
  P  P28  1  0.30701100  0.35099200  0.94875700  1
  P  P29  1  0.70244800  0.97334500  0.71744200  1
  O  O30  1  0.92009300  0.91744700  0.43714100  1
  O  O31  1  0.62782200  0.15153700  0.09816100  1
  O  O32  1  0.92528900  0.24837200  0.09456800  1
  O  O33  1  0.29787900  0.32226300  0.06536400  1
  O  O34  1  0.36048000  0.19032600  0.25936700  1
  O  O35  1  0.63599600  0.47325200  0.07236000  1
  O  O36  1  0.65630600  0.14133500  0.41392400  1
  O  O37  1  0.70341500  0.00786300  0.59780900  1
  O  O38  1  0.07003900  0.41830200  0.23653100  1
  O  O39  1  0.87846200  0.98560100  0.76448100  1
  O  O40  1  0.38080100  0.84638100  0.89935700  1
  O  O41  1  0.08176200  0.74984800  0.89893500  1
  O  O42  1  0.69929500  0.68010600  0.93694500  1
  O  O43  1  0.65017300  0.80762500  0.73918100  1
  O  O44  1  0.34286800  0.52508500  0.92062400  1
  O  O45  1  0.35231200  0.86004400  0.59525700  1
  O  O46  1  0.29828500  0.65933000  0.73638400  1
  O  O47  1  0.93424700  0.58396900  0.76950400  1
  O  O48  1  0.29910500  0.98659400  0.39693500  1
  O  O49  1  0.12363300  0.01552200  0.23251900  1
  O  O50  1  0.63499500  0.49134500  0.77233600  1
  O  O51  1  0.12793400  0.34774900  0.89551700  1
  O  O52  1  0.62268700  0.81894800  0.43450400  1
  O  O53  1  0.12419100  0.68223500  0.56978900  1
  O  O54  1  0.42799400  0.24950700  0.89859600  1
  O  O55  1  0.80253800  0.16976800  0.93184000  1
  O  O56  1  0.42279900  0.58400700  0.57277600  1
  O  O57  1  0.80394400  0.51428200  0.60498900  1
  O  O58  1  0.42105200  0.91839000  0.22780000  1
  O  O59  1  0.79935600  0.84342300  0.26976300  1
  O  O60  1  0.86011700  0.30880600  0.74302400  1
  O  O61  1  0.86025000  0.64395200  0.40999800  1
  O  O62  1  0.85450600  0.97121600  0.07368200  1
  O  O63  1  0.14644800  0.02284600  0.92434000  1
  O  O64  1  0.14100600  0.36066800  0.59224700  1
  O  O65  1  0.19735600  0.15321000  0.72884800  1
  O  O66  1  0.15634700  0.69525400  0.25255100  1
  O  O67  1  0.58039600  0.08367200  0.76169600  1
  O  O68  1  0.20058600  0.49786500  0.40072000  1
  O  O69  1  0.57198100  0.41883600  0.43159900  1
  O  O70  1  0.20370600  0.82313900  0.06577800  1
  O  O71  1  0.56683700  0.74827200  0.10136700  1
  O  O72  1  0.87130300  0.31891900  0.43666300  1
  O  O73  1  0.36508100  0.17719400  0.56118100  1
  O  O74  1  0.86522300  0.65301600  0.10402500  1
  O  O75  1  0.37066500  0.51634200  0.23028600  1
  O  O76  1  0.06529900  0.08631400  0.56450700  1
  O  O77  1  0.70118300  0.33925900  0.26627800  1
