# generated using pymatgen
data_LiUAsO6
_symmetry_space_group_name_H-M   'P 1'
_cell_length_a   5.23643600
_cell_length_b   10.29102395
_cell_length_c   11.21215439
_cell_angle_alpha   65.09361733
_cell_angle_beta   76.78021746
_cell_angle_gamma   76.47871547
_symmetry_Int_Tables_number   1
_chemical_formula_structural   LiUAsO6
_chemical_formula_sum   'Li4 U4 As4 O24'
_cell_volume   526.98059847
_cell_formula_units_Z   4
loop_
 _symmetry_equiv_pos_site_id
 _symmetry_equiv_pos_as_xyz
  1  'x, y, z'
loop_
 _atom_site_type_symbol
 _atom_site_label
 _atom_site_symmetry_multiplicity
 _atom_site_fract_x
 _atom_site_fract_y
 _atom_site_fract_z
 _atom_site_occupancy
  Li  Li0  1  0.54577700  0.37678000  0.76876900  1
  Li  Li1  1  0.45422300  0.62322000  0.23123100  1
  Li  Li2  1  0.45825100  0.09250900  0.29469100  1
  Li  Li3  1  0.54174900  0.90749100  0.70530900  1
  U  U4  1  0.49874300  0.28038500  0.47930800  1
  U  U5  1  0.98198200  0.79798000  0.98227400  1
  U  U6  1  0.50125700  0.71961500  0.52069200  1
  U  U7  1  0.01801800  0.20202000  0.01772600  1
  As  As8  1  0.93387200  0.10828500  0.72847000  1
  As  As9  1  0.93859900  0.58202700  0.78346400  1
  As  As10  1  0.06140100  0.41797300  0.21653600  1
  As  As11  1  0.06612800  0.89171500  0.27153000  1
  O  O12  1  0.28385000  0.87844900  0.53867500  1
  O  O13  1  0.73238600  0.71207900  0.67510200  1
  O  O14  1  0.69165900  0.17996500  0.11883600  1
  O  O15  1  0.26761400  0.28792100  0.32489800  1
  O  O16  1  0.72561900  0.56344100  0.50459400  1
  O  O17  1  0.93579100  0.09600000  0.88646100  1
  O  O18  1  0.27438100  0.43655900  0.49540600  1
  O  O19  1  0.17559200  0.05187900  0.23022900  1
  O  O20  1  0.34152200  0.22726400  0.91353000  1
  O  O21  1  0.73850100  0.43929700  0.29563400  1
  O  O22  1  0.82440800  0.94812100  0.76977100  1
  O  O23  1  0.74981200  0.88706100  0.35908500  1
  O  O24  1  0.07599000  0.35759100  0.09411300  1
  O  O25  1  0.92401000  0.64240900  0.90588700  1
  O  O26  1  0.28524100  0.74224800  0.35070500  1
  O  O27  1  0.06420900  0.90400000  0.11353900  1
  O  O28  1  0.82774400  0.41688200  0.84939200  1
  O  O29  1  0.71475900  0.25775200  0.64929500  1
  O  O30  1  0.65847800  0.77273600  0.08647000  1
  O  O31  1  0.26149900  0.56070300  0.70436600  1
  O  O32  1  0.25018800  0.11293900  0.64091500  1
  O  O33  1  0.17225600  0.58311800  0.15060800  1
  O  O34  1  0.30834100  0.82003500  0.88116400  1
  O  O35  1  0.71615000  0.12155100  0.46132500  1
