# generated using pymatgen
data_Li3Fe2(AsO4)3
_symmetry_space_group_name_H-M   'P 1'
_cell_length_a   9.09356800
_cell_length_b   8.76483400
_cell_length_c   15.13379885
_cell_angle_alpha   55.38220762
_cell_angle_beta   90.00000000
_cell_angle_gamma   90.00000000
_symmetry_Int_Tables_number   1
_chemical_formula_structural   Li3Fe2(AsO4)3
_chemical_formula_sum   'Li12 Fe8 As12 O48'
_cell_volume   992.66953715
_cell_formula_units_Z   4
loop_
 _symmetry_equiv_pos_site_id
 _symmetry_equiv_pos_as_xyz
  1  'x, y, z'
loop_
 _atom_site_type_symbol
 _atom_site_label
 _atom_site_symmetry_multiplicity
 _atom_site_fract_x
 _atom_site_fract_y
 _atom_site_fract_z
 _atom_site_occupancy
  Li  Li0  1  0.72065100  0.99954700  0.31875200  1
  Li  Li1  1  0.22065100  0.00045300  0.18124800  1
  Li  Li2  1  0.27934900  0.00045300  0.68124800  1
  Li  Li3  1  0.77934900  0.99954700  0.81875200  1
  Li  Li4  1  0.58715100  0.37665200  0.19659800  1
  Li  Li5  1  0.08715100  0.62334800  0.30340200  1
  Li  Li6  1  0.41284900  0.62334800  0.80340200  1
  Li  Li7  1  0.91284900  0.37665200  0.69659800  1
  Li  Li8  1  0.49134200  0.72032900  0.34309700  1
  Li  Li9  1  0.99134200  0.27967100  0.15690300  1
  Li  Li10  1  0.50865800  0.27967100  0.65690300  1
  Li  Li11  1  0.00865800  0.72032900  0.84309700  1
  Fe  Fe12  1  0.53276000  0.13446300  0.11151100  1
  Fe  Fe13  1  0.03276000  0.86553700  0.38848900  1
  Fe  Fe14  1  0.46724000  0.86553700  0.88848900  1
  Fe  Fe15  1  0.96724000  0.13446300  0.61151100  1
  Fe  Fe16  1  0.52341100  0.34967700  0.39548600  1
  Fe  Fe17  1  0.02341100  0.65032300  0.10451400  1
  Fe  Fe18  1  0.47658900  0.65032300  0.60451400  1
  Fe  Fe19  1  0.97658900  0.34967700  0.89548600  1
  As  As20  1  0.88496600  0.96977100  0.14332000  1
  As  As21  1  0.38496600  0.03022900  0.35668000  1
  As  As22  1  0.11503400  0.03022900  0.85668000  1
  As  As23  1  0.61503400  0.96977100  0.64332000  1
  As  As24  1  0.87923900  0.26485000  0.35070100  1
  As  As25  1  0.37923900  0.73515000  0.14929900  1
  As  As26  1  0.12076100  0.73515000  0.64929900  1
  As  As27  1  0.62076100  0.26485000  0.85070100  1
  As  As28  1  0.75180600  0.54751900  0.49106500  1
  As  As29  1  0.25180600  0.45248100  0.00893500  1
  As  As30  1  0.24819400  0.45248100  0.50893500  1
  As  As31  1  0.74819400  0.54751900  0.99106500  1
  O  O32  1  0.92047200  0.12105200  0.30861000  1
  O  O33  1  0.42047200  0.87894800  0.19139000  1
  O  O34  1  0.07952800  0.87894800  0.69139000  1
  O  O35  1  0.57952800  0.12105200  0.80861000  1
  O  O36  1  0.88667700  0.84207400  0.09103600  1
  O  O37  1  0.38667700  0.15792600  0.40896400  1
  O  O38  1  0.11332300  0.15792600  0.90896400  1
  O  O39  1  0.61332300  0.84207400  0.59103600  1
  O  O40  1  0.51376800  0.11836800  0.25402200  1
  O  O41  1  0.01376800  0.88163200  0.24597800  1
  O  O42  1  0.48623200  0.88163200  0.74597800  1
  O  O43  1  0.98623200  0.11836800  0.75402200  1
  O  O44  1  0.47720900  0.53347400  0.22636000  1
  O  O45  1  0.97720900  0.46652600  0.27364000  1
  O  O46  1  0.52279100  0.46652600  0.77364000  1
  O  O47  1  0.02279100  0.53347400  0.72636000  1
  O  O48  1  0.94835700  0.19559900  0.05635200  1
  O  O49  1  0.44835700  0.80440100  0.44364800  1
  O  O50  1  0.05164300  0.80440100  0.94364800  1
  O  O51  1  0.55164300  0.19559900  0.55635200  1
  O  O52  1  0.91279200  0.15340200  0.48368400  1
  O  O53  1  0.41279200  0.84659800  0.01631600  1
  O  O54  1  0.08720800  0.84659800  0.51631600  1
  O  O55  1  0.58720800  0.15340200  0.98368400  1
  O  O56  1  0.61653800  0.38248500  0.06489700  1
  O  O57  1  0.11653800  0.61751500  0.43510300  1
  O  O58  1  0.38346200  0.61751500  0.93510300  1
  O  O59  1  0.88346200  0.38248500  0.56489700  1
  O  O60  1  0.66363800  0.54528600  0.39141500  1
  O  O61  1  0.16363800  0.45471400  0.10858500  1
  O  O62  1  0.33636200  0.45471400  0.60858500  1
  O  O63  1  0.83636200  0.54528600  0.89141500  1
  O  O64  1  0.82430700  0.76618700  0.43109100  1
  O  O65  1  0.32430700  0.23381300  0.06890900  1
  O  O66  1  0.17569300  0.23381300  0.56890900  1
  O  O67  1  0.67569300  0.76618700  0.93109100  1
  O  O68  1  0.86542500  0.50437500  0.09283800  1
  O  O69  1  0.36542500  0.49562500  0.40716200  1
  O  O70  1  0.13457500  0.49562500  0.90716200  1
  O  O71  1  0.63457500  0.50437500  0.59283800  1
  O  O72  1  0.71805200  0.98261200  0.19189200  1
  O  O73  1  0.21805200  0.01738800  0.30810800  1
  O  O74  1  0.28194800  0.01738800  0.80810800  1
  O  O75  1  0.78194800  0.98261200  0.69189200  1
  O  O76  1  0.69021500  0.28285300  0.33472300  1
  O  O77  1  0.19021500  0.71714700  0.16527700  1
  O  O78  1  0.30978500  0.71714700  0.66527700  1
  O  O79  1  0.80978500  0.28285300  0.83472300  1
