# generated using pymatgen
data_Li(CuO)2
_symmetry_space_group_name_H-M   'P 1'
_cell_length_a   5.75816200
_cell_length_b   5.75816200
_cell_length_c   12.55863200
_cell_angle_alpha   90.00000000
_cell_angle_beta   90.00000000
_cell_angle_gamma   90.00000000
_symmetry_Int_Tables_number   1
_chemical_formula_structural   Li(CuO)2
_chemical_formula_sum   'Li8 Cu16 O16'
_cell_volume   416.39939801
_cell_formula_units_Z   8
loop_
 _symmetry_equiv_pos_site_id
 _symmetry_equiv_pos_as_xyz
  1  'x, y, z'
loop_
 _atom_site_type_symbol
 _atom_site_label
 _atom_site_symmetry_multiplicity
 _atom_site_fract_x
 _atom_site_fract_y
 _atom_site_fract_z
 _atom_site_occupancy
  Li  Li0  1  0.75648300  0.50000000  0.42771800  1
  Li  Li1  1  0.74351700  0.00000000  0.07228200  1
  Li  Li2  1  0.00000000  0.74351700  0.92771800  1
  Li  Li3  1  0.00000000  0.25648300  0.92771800  1
  Li  Li4  1  0.25648300  0.00000000  0.07228200  1
  Li  Li5  1  0.50000000  0.24351700  0.57228200  1
  Li  Li6  1  0.50000000  0.75648300  0.57228200  1
  Li  Li7  1  0.24351700  0.50000000  0.42771800  1
  Cu  Cu8  1  0.74793800  0.50000000  0.74329400  1
  Cu  Cu9  1  0.75195900  0.00000000  0.40049500  1
  Cu  Cu10  1  0.50000000  0.25206200  0.25670600  1
  Cu  Cu11  1  0.25195900  0.50000000  0.09950500  1
  Cu  Cu12  1  0.00000000  0.24793800  0.24329400  1
  Cu  Cu13  1  0.50000000  0.74804100  0.90049500  1
  Cu  Cu14  1  0.50000000  0.74793800  0.25670600  1
  Cu  Cu15  1  0.24804100  0.00000000  0.40049500  1
  Cu  Cu16  1  0.75206200  0.00000000  0.75670600  1
  Cu  Cu17  1  0.25206200  0.50000000  0.74329400  1
  Cu  Cu18  1  0.74804100  0.50000000  0.09950500  1
  Cu  Cu19  1  0.50000000  0.25195900  0.90049500  1
  Cu  Cu20  1  0.24793800  0.00000000  0.75670600  1
  Cu  Cu21  1  0.00000000  0.75206200  0.24329400  1
  Cu  Cu22  1  0.00000000  0.24804100  0.59950500  1
  Cu  Cu23  1  0.00000000  0.75195900  0.59950500  1
  O  O24  1  0.00000000  0.75938500  0.39145500  1
  O  O25  1  0.50000000  0.74061500  0.10854500  1
  O  O26  1  0.25923700  0.00000000  0.90628700  1
  O  O27  1  0.75938500  0.00000000  0.60854500  1
  O  O28  1  0.00000000  0.25923700  0.09371300  1
  O  O29  1  0.50000000  0.25938500  0.10854500  1
  O  O30  1  0.25938500  0.50000000  0.89145500  1
  O  O31  1  0.74061500  0.50000000  0.89145500  1
  O  O32  1  0.00000000  0.74076300  0.09371300  1
  O  O33  1  0.75923700  0.50000000  0.59371300  1
  O  O34  1  0.24061500  0.00000000  0.60854500  1
  O  O35  1  0.74076300  0.00000000  0.90628700  1
  O  O36  1  0.50000000  0.24076300  0.40628700  1
  O  O37  1  0.50000000  0.75923700  0.40628700  1
  O  O38  1  0.24076300  0.50000000  0.59371300  1
  O  O39  1  0.00000000  0.24061500  0.39145500  1
