# generated using pymatgen
data_Li17Nb18O54
_symmetry_space_group_name_H-M   'P 1'
_cell_length_a   9.05703900
_cell_length_b   9.89748953
_cell_length_c   11.86365319
_cell_angle_alpha   79.38883780
_cell_angle_beta   75.25808636
_cell_angle_gamma   81.23066304
_symmetry_Int_Tables_number   1
_chemical_formula_structural   Li17Nb18O54
_chemical_formula_sum   'Li17 Nb18 O54'
_cell_volume   1004.62837990
_cell_formula_units_Z   1
loop_
 _symmetry_equiv_pos_site_id
 _symmetry_equiv_pos_as_xyz
  1  'x, y, z'
loop_
 _atom_site_type_symbol
 _atom_site_label
 _atom_site_symmetry_multiplicity
 _atom_site_fract_x
 _atom_site_fract_y
 _atom_site_fract_z
 _atom_site_occupancy
  Li  Li0  1  0.42726500  0.29019900  0.57269500  1
  Li  Li1  1  0.64888600  0.73434600  0.68451000  1
  Li  Li2  1  0.48572300  0.40137600  0.84985700  1
  Li  Li3  1  0.76079600  0.95726800  0.23924400  1
  Li  Li4  1  0.87141600  0.17939500  0.79501400  1
  Li  Li5  1  0.70532100  0.84596800  0.96068300  1
  Li  Li6  1  0.98402500  0.40182700  0.34978500  1
  Li  Li7  1  0.81637500  0.06786800  0.51704200  1
  Li  Li8  1  0.20632200  0.84516200  0.46182000  1
  Li  Li9  1  0.03753300  0.51134700  0.62711000  1
  Li  Li10  1  0.31641400  0.06839600  0.01664700  1
  Li  Li11  1  0.14919600  0.73417100  0.18414900  1
  Li  Li12  1  0.26135200  0.95635500  0.73935500  1
  Li  Li13  1  0.53787300  0.51202800  0.12741100  1
  Li  Li14  1  0.37169500  0.18045100  0.29426000  1
  Li  Li15  1  0.59320500  0.62414000  0.40679400  1
  Li  Li16  1  0.92728300  0.28804800  0.07331800  1
  Nb  Nb17  1  0.00030700  0.99851700  0.99937600  1
  Nb  Nb18  1  0.32911300  0.66315400  0.67026300  1
  Nb  Nb19  1  0.16661200  0.33274200  0.83327600  1
  Nb  Nb20  1  0.55530400  0.11085500  0.77711500  1
  Nb  Nb21  1  0.38844000  0.77714100  0.94421500  1
  Nb  Nb22  1  0.66719400  0.33295900  0.33290500  1
  Nb  Nb23  1  0.50044200  0.99902400  0.49919700  1
  Nb  Nb24  1  0.78383900  0.55380100  0.88915400  1
  Nb  Nb25  1  0.88870900  0.77738400  0.44477500  1
  Nb  Nb26  1  0.72219400  0.44377900  0.61115400  1
  Nb  Nb27  1  0.83399200  0.66638100  0.16668200  1
  Nb  Nb28  1  0.11134600  0.22087500  0.55560800  1
  Nb  Nb29  1  0.94407000  0.88832300  0.72243700  1
  Nb  Nb30  1  0.22160500  0.44508600  0.10655600  1
  Nb  Nb31  1  0.05629400  0.11053300  0.27714100  1
  Nb  Nb32  1  0.44499400  0.88816500  0.22190200  1
  Nb  Nb33  1  0.27880500  0.55476200  0.38970100  1
  Nb  Nb34  1  0.61024800  0.22285300  0.05516000  1
  O  O35  1  0.26109000  0.42221900  0.94720900  1
  O  O36  1  0.12887600  0.17543300  0.95325600  1
  O  O37  1  0.37329500  0.27468700  0.75642300  1
  O  O38  1  0.40706200  0.98394400  0.84405900  1
  O  O39  1  0.29394400  0.74232400  0.82944800  1
  O  O40  1  0.58887100  0.09719100  0.61417000  1
  O  O41  1  0.59369400  0.71886400  0.86914700  1
  O  O42  1  0.46448800  0.84388200  0.61789500  1
  O  O43  1  0.62994200  0.42843000  0.95458200  1
  O  O44  1  0.51156700  0.55359800  0.70074900  1
  O  O45  1  0.70698500  0.94371500  0.42253800  1
  O  O46  1  0.50635600  0.18086700  0.94756300  1
  O  O47  1  0.81130300  0.54119600  0.72605600  1
  O  O48  1  0.81675200  0.16390200  0.97975100  1
  O  O49  1  0.74043100  0.64963800  0.51025500  1
  O  O50  1  0.68413300  0.28905800  0.73224000  1
  O  O51  1  0.61703900  0.40279700  0.50375400  1
  O  O52  1  0.92090600  0.76572300  0.28188800  1
  O  O53  1  0.73450400  0.00065800  0.81154500  1
  O  O54  1  0.92876800  0.38754400  0.53486200  1
  O  O55  1  0.03286100  0.98562300  0.83640200  1
  O  O56  1  0.79349900  0.51145100  0.28858500  1
  O  O57  1  0.96203100  0.09433100  0.62053100  1
  O  O58  1  0.89358300  0.73651600  0.84084900  1
  O  O59  1  0.84582700  0.22103400  0.36736500  1
  O  O60  1  0.04052900  0.60642200  0.10125500  1
  O  O61  1  0.83943100  0.84921500  0.61275700  1
  O  O62  1  0.14404200  0.20833500  0.39233700  1
  O  O63  1  0.95496500  0.43422900  0.92330100  1
  O  O64  1  0.15024100  0.83021100  0.64649900  1
  O  O65  1  0.07423800  0.31620500  0.17602900  1
  O  O66  1  0.01858700  0.95551100  0.39798600  1
  O  O67  1  0.18651300  0.53229600  0.72699300  1
  O  O68  1  0.95071000  0.06959900  0.16954400  1
  O  O69  1  0.06751500  0.66528200  0.47857900  1
  O  O70  1  0.26216100  0.05414100  0.20064500  1
  O  O71  1  0.06211300  0.28988300  0.72521200  1
  O  O72  1  0.36582000  0.65456000  0.50439800  1
  O  O73  1  0.29610200  0.76105400  0.28749800  1
  O  O74  1  0.24045900  0.39892300  0.50979500  1
  O  O75  1  0.17852300  0.88721000  0.03450700  1
  O  O76  1  0.17498600  0.51197100  0.28310100  1
  O  O77  1  0.47836600  0.87518900  0.05885700  1
  O  O78  1  0.28995500  0.10906600  0.58958900  1
  O  O79  1  0.48515600  0.49894900  0.31260900  1
  O  O80  1  0.34981200  0.62122400  0.06475300  1
  O  O81  1  0.51799200  0.20633500  0.39860800  1
  O  O82  1  0.40087600  0.33372800  0.14519200  1
  O  O83  1  0.39452900  0.95945500  0.39123400  1
  O  O84  1  0.70050000  0.31945800  0.17027900  1
  O  O85  1  0.57265800  0.06731600  0.17625000  1
  O  O86  1  0.62301700  0.77673500  0.25694600  1
  O  O87  1  0.85124000  0.87118500  0.06580000  1
  O  O88  1  0.73030200  0.62367400  0.05868700  1
