# generated using pymatgen
data_LiCr6P7O24
_symmetry_space_group_name_H-M   'P 1'
_cell_length_a   27.92118300
_cell_length_b   5.43891300
_cell_length_c   6.48120637
_cell_angle_alpha   72.65775412
_cell_angle_beta   90.00000000
_cell_angle_gamma   90.00000000
_symmetry_Int_Tables_number   1
_chemical_formula_structural   LiCr6P7O24
_chemical_formula_sum   'Li2 Cr12 P14 O48'
_cell_volume   939.49936326
_cell_formula_units_Z   2
loop_
 _symmetry_equiv_pos_site_id
 _symmetry_equiv_pos_as_xyz
  1  'x, y, z'
loop_
 _atom_site_type_symbol
 _atom_site_label
 _atom_site_symmetry_multiplicity
 _atom_site_fract_x
 _atom_site_fract_y
 _atom_site_fract_z
 _atom_site_occupancy
  Li  Li0  1  0.25000000  0.06796100  0.55435100  1
  Li  Li1  1  0.75000000  0.93203900  0.44564900  1
  Cr  Cr2  1  0.18075900  0.85933800  0.28349200  1
  Cr  Cr3  1  0.68075900  0.14066200  0.71650800  1
  Cr  Cr4  1  0.59684200  0.80414800  0.07831700  1
  Cr  Cr5  1  0.54593400  0.19793100  0.30704000  1
  Cr  Cr6  1  0.09684200  0.19585200  0.92168300  1
  Cr  Cr7  1  0.90315800  0.80414800  0.07831700  1
  Cr  Cr8  1  0.04593400  0.80206900  0.69296000  1
  Cr  Cr9  1  0.95406600  0.19793100  0.30704000  1
  Cr  Cr10  1  0.45406600  0.80206900  0.69296000  1
  Cr  Cr11  1  0.31924100  0.85933800  0.28349200  1
  Cr  Cr12  1  0.40315800  0.19585200  0.92168300  1
  Cr  Cr13  1  0.81924100  0.14066200  0.71650800  1
  P  P14  1  0.10914700  0.29919300  0.38897000  1
  P  P15  1  0.75000000  0.54796000  0.89291300  1
  P  P16  1  0.16935600  0.71955400  0.82278100  1
  P  P17  1  0.83064400  0.28044600  0.17721900  1
  P  P18  1  0.47239600  0.69215200  0.21030700  1
  P  P19  1  0.60914700  0.70080700  0.61103000  1
  P  P20  1  0.02760400  0.69215200  0.21030700  1
  P  P21  1  0.66935600  0.28044600  0.17721900  1
  P  P22  1  0.25000000  0.45204000  0.10708700  1
  P  P23  1  0.39085300  0.29919300  0.38897000  1
  P  P24  1  0.89085300  0.70080700  0.61103000  1
  P  P25  1  0.33064400  0.71955400  0.82278100  1
  P  P26  1  0.97239600  0.30784800  0.78969300  1
  P  P27  1  0.52760400  0.30784800  0.78969300  1
  O  O28  1  0.16721300  0.90488600  0.96024500  1
  O  O29  1  0.75000000  0.82734700  0.75694500  1
  O  O30  1  0.29427900  0.48543700  0.94597300  1
  O  O31  1  0.90827600  0.86961300  0.38635500  1
  O  O32  1  0.69243700  0.14330100  0.39681700  1
  O  O33  1  0.59172400  0.86961300  0.38635500  1
  O  O34  1  0.87700300  0.42255900  0.18889200  1
  O  O35  1  0.37848800  0.13079700  0.24102100  1
  O  O36  1  0.45121700  0.86815300  0.99592300  1
  O  O37  1  0.75000000  0.34763400  0.77213300  1
  O  O38  1  0.62151200  0.86920300  0.75897900  1
  O  O39  1  0.62299700  0.42255900  0.18889200  1
  O  O40  1  0.02774800  0.83317100  0.38048600  1
  O  O41  1  0.52774800  0.16682900  0.61951400  1
  O  O42  1  0.85198700  0.51622900  0.59924500  1
  O  O43  1  0.64801300  0.51622900  0.59924500  1
  O  O44  1  0.33278700  0.90488600  0.96024500  1
  O  O45  1  0.37700300  0.57744100  0.81110800  1
  O  O46  1  0.30756300  0.85669900  0.60318300  1
  O  O47  1  0.56130200  0.55760200  0.72306500  1
  O  O48  1  0.93869800  0.55760200  0.72306500  1
  O  O49  1  0.79427900  0.51456300  0.05402700  1
  O  O50  1  0.20572100  0.48543700  0.94597300  1
  O  O51  1  0.47225200  0.83317100  0.38048600  1
  O  O52  1  0.83278700  0.09511400  0.03975500  1
  O  O53  1  0.25000000  0.17265300  0.24305500  1
  O  O54  1  0.14801300  0.48377100  0.40075500  1
  O  O55  1  0.54878300  0.13184700  0.00407700  1
  O  O56  1  0.66721300  0.09511400  0.03975500  1
  O  O57  1  0.09172400  0.13038700  0.61364500  1
  O  O58  1  0.97225200  0.16682900  0.61951400  1
  O  O59  1  0.47890900  0.42257100  0.81880500  1
  O  O60  1  0.12151200  0.13079700  0.24102100  1
  O  O61  1  0.04878300  0.86815300  0.99592300  1
  O  O62  1  0.02109100  0.42257100  0.81880500  1
  O  O63  1  0.12299700  0.57744100  0.81110800  1
  O  O64  1  0.80756300  0.14330100  0.39681700  1
  O  O65  1  0.87848800  0.86920300  0.75897900  1
  O  O66  1  0.52109100  0.57742900  0.18119500  1
  O  O67  1  0.95121700  0.13184700  0.00407700  1
  O  O68  1  0.25000000  0.65236600  0.22786700  1
  O  O69  1  0.70572100  0.51456300  0.05402700  1
  O  O70  1  0.19243700  0.85669900  0.60318300  1
  O  O71  1  0.06130200  0.44239800  0.27693500  1
  O  O72  1  0.43869800  0.44239800  0.27693500  1
  O  O73  1  0.40827600  0.13038700  0.61364500  1
  O  O74  1  0.35198700  0.48377100  0.40075500  1
  O  O75  1  0.97890900  0.57742900  0.18119500  1
