# generated using pymatgen
data_Li34(YSb2)13
_symmetry_space_group_name_H-M   'P 1'
_cell_length_a   4.51594380
_cell_length_b   4.51594380
_cell_length_c   92.95942300
_cell_angle_alpha   90.00000000
_cell_angle_beta   90.00000000
_cell_angle_gamma   119.99999713
_symmetry_Int_Tables_number   1
_chemical_formula_structural   Li34(YSb2)13
_chemical_formula_sum   'Li34 Y13 Sb26'
_cell_volume   1641.80328998
_cell_formula_units_Z   1
loop_
 _symmetry_equiv_pos_site_id
 _symmetry_equiv_pos_as_xyz
  1  'x, y, z'
loop_
 _atom_site_type_symbol
 _atom_site_label
 _atom_site_symmetry_multiplicity
 _atom_site_fract_x
 _atom_site_fract_y
 _atom_site_fract_z
 _atom_site_occupancy
  Li  Li0  1  0.00000000  0.00000000  0.11730500  1
  Li  Li1  1  0.00000000  0.00000000  0.34814600  1
  Li  Li2  1  0.00000000  0.00000000  0.57688700  1
  Li  Li3  1  0.00000000  0.00000000  0.80870300  1
  Li  Li4  1  0.00000000  0.00000000  0.03684800  1
  Li  Li5  1  0.00000000  0.00000000  0.19385700  1
  Li  Li6  1  0.33333300  0.66666700  0.05079900  1
  Li  Li7  1  0.00000000  0.00000000  0.26900300  1
  Li  Li8  1  0.33333300  0.66666700  0.28048900  1
  Li  Li9  1  0.00000000  0.00000000  0.42192200  1
  Li  Li10  1  0.33333300  0.66666700  0.43393500  1
  Li  Li11  1  0.33333300  0.66666700  0.51131100  1
  Li  Li12  1  0.33333300  0.66666700  0.58837600  1
  Li  Li13  1  0.00000000  0.00000000  0.65391600  1
  Li  Li14  1  0.00000000  0.00000000  0.73119500  1
  Li  Li15  1  0.33333300  0.66666700  0.66534300  1
  Li  Li16  1  0.33333300  0.66666700  0.74252800  1
  Li  Li17  1  0.33333300  0.66666700  0.82003700  1
  Li  Li18  1  0.33333300  0.66666700  0.97325700  1
  Li  Li19  1  0.66666700  0.33333300  0.18007800  1
  Li  Li20  1  0.66666700  0.33333300  0.33443500  1
  Li  Li21  1  0.66666700  0.33333300  0.41082200  1
  Li  Li22  1  0.66666700  0.33333300  0.10351800  1
  Li  Li23  1  0.66666700  0.33333300  0.25730600  1
  Li  Li24  1  0.66666700  0.33333300  0.48830300  1
  Li  Li25  1  0.66666700  0.33333300  0.56547000  1
  Li  Li26  1  0.66666700  0.33333300  0.64241800  1
  Li  Li27  1  0.66666700  0.33333300  0.87328900  1
  Li  Li28  1  0.66666700  0.33333300  0.71949700  1
  Li  Li29  1  0.66666700  0.33333300  0.79655800  1
  Li  Li30  1  0.00000000  0.00000000  0.88720200  1
  Li  Li31  1  0.66666700  0.33333300  0.95035200  1
  Li  Li32  1  0.00000000  0.00000000  0.49962800  1
  Li  Li33  1  0.00000000  0.00000000  0.96172500  1
  Y  Y34  1  0.00000000  0.00000000  0.00103700  1
  Y  Y35  1  0.00000000  0.00000000  0.07724300  1
  Y  Y36  1  0.00000000  0.00000000  0.15309900  1
  Y  Y37  1  0.00000000  0.00000000  0.30779800  1
  Y  Y38  1  0.00000000  0.00000000  0.53836400  1
  Y  Y39  1  0.00000000  0.00000000  0.61538200  1
  Y  Y40  1  0.00000000  0.00000000  0.84682500  1
  Y  Y41  1  0.00000000  0.00000000  0.22967200  1
  Y  Y42  1  0.00000000  0.00000000  0.46105900  1
  Y  Y43  1  0.00000000  0.00000000  0.69244100  1
  Y  Y44  1  0.00000000  0.00000000  0.92265300  1
  Y  Y45  1  0.00000000  0.00000000  0.38353800  1
  Y  Y46  1  0.00000000  0.00000000  0.76963900  1
  Sb  Sb47  1  0.33333300  0.66666700  0.02038100  1
  Sb  Sb48  1  0.33333300  0.66666700  0.09617000  1
  Sb  Sb49  1  0.33333300  0.66666700  0.17188000  1
  Sb  Sb50  1  0.33333300  0.66666700  0.24919500  1
  Sb  Sb51  1  0.33333300  0.66666700  0.32635100  1
  Sb  Sb52  1  0.33333300  0.66666700  0.40320500  1
  Sb  Sb53  1  0.33333300  0.66666700  0.48047400  1
  Sb  Sb54  1  0.33333300  0.66666700  0.55758900  1
  Sb  Sb55  1  0.33333300  0.66666700  0.63453900  1
  Sb  Sb56  1  0.33333300  0.66666700  0.71159100  1
  Sb  Sb57  1  0.33333300  0.66666700  0.78865200  1
  Sb  Sb58  1  0.33333300  0.66666700  0.86514100  1
  Sb  Sb59  1  0.33333300  0.66666700  0.94219900  1
  Sb  Sb60  1  0.66666700  0.33333300  0.05859100  1
  Sb  Sb61  1  0.66666700  0.33333300  0.13384600  1
  Sb  Sb62  1  0.66666700  0.33333300  0.21039900  1
  Sb  Sb63  1  0.66666700  0.33333300  0.28817400  1
  Sb  Sb64  1  0.66666700  0.33333300  0.36469700  1
  Sb  Sb65  1  0.66666700  0.33333300  0.44193900  1
  Sb  Sb66  1  0.66666700  0.33333300  0.51919200  1
  Sb  Sb67  1  0.66666700  0.33333300  0.59618700  1
  Sb  Sb68  1  0.66666700  0.33333300  0.67317500  1
  Sb  Sb69  1  0.66666700  0.33333300  0.75027100  1
  Sb  Sb70  1  0.66666700  0.33333300  0.82711500  1
  Sb  Sb71  1  0.66666700  0.33333300  0.90355000  1
  Sb  Sb72  1  0.66666700  0.33333300  0.98144400  1
