# generated using pymatgen
data_Na3LiBe2F8
_symmetry_space_group_name_H-M   'P 1'
_cell_length_a   9.84780300
_cell_length_b   6.59964200
_cell_length_c   10.05712858
_cell_angle_alpha   86.23769464
_cell_angle_beta   90.00000000
_cell_angle_gamma   90.00000000
_symmetry_Int_Tables_number   1
_chemical_formula_structural   Na3LiBe2F8
_chemical_formula_sum   'Na12 Li4 Be8 F32'
_cell_volume   652.22396832
_cell_formula_units_Z   4
loop_
 _symmetry_equiv_pos_site_id
 _symmetry_equiv_pos_as_xyz
  1  'x, y, z'
loop_
 _atom_site_type_symbol
 _atom_site_label
 _atom_site_symmetry_multiplicity
 _atom_site_fract_x
 _atom_site_fract_y
 _atom_site_fract_z
 _atom_site_occupancy
  Na  Na0  1  0.21696000  0.35526000  0.36720300  1
  Na  Na1  1  0.92299700  0.16677500  0.60784700  1
  Na  Na2  1  0.71696000  0.64474000  0.13279700  1
  Na  Na3  1  0.42299700  0.83322500  0.89215300  1
  Na  Na4  1  0.38993400  0.64394900  0.57917800  1
  Na  Na5  1  0.61006600  0.35605100  0.42082200  1
  Na  Na6  1  0.78304000  0.64474000  0.63279700  1
  Na  Na7  1  0.28304000  0.35526000  0.86720300  1
  Na  Na8  1  0.57700300  0.16677500  0.10784700  1
  Na  Na9  1  0.11006600  0.64394900  0.07917800  1
  Na  Na10  1  0.07700300  0.83322500  0.39215300  1
  Na  Na11  1  0.88993400  0.35605100  0.92082200  1
  Li  Li12  1  0.12395600  0.95220700  0.80085000  1
  Li  Li13  1  0.37604400  0.95220700  0.30085000  1
  Li  Li14  1  0.87604400  0.04779300  0.19915000  1
  Li  Li15  1  0.62395600  0.04779300  0.69915000  1
  Be  Be16  1  0.58209600  0.37715000  0.83815900  1
  Be  Be17  1  0.91790400  0.37715000  0.33815900  1
  Be  Be18  1  0.83752000  0.89683200  0.91102300  1
  Be  Be19  1  0.08209600  0.62285000  0.66184100  1
  Be  Be20  1  0.16248000  0.10316800  0.08897700  1
  Be  Be21  1  0.41790400  0.62285000  0.16184100  1
  Be  Be22  1  0.33752000  0.10316800  0.58897700  1
  Be  Be23  1  0.66248000  0.89683200  0.41102300  1
  F  F24  1  0.22229500  0.14655900  0.69044400  1
  F  F25  1  0.18363700  0.67566400  0.77674400  1
  F  F26  1  0.90385100  0.69566300  0.97058100  1
  F  F27  1  0.59614900  0.69566300  0.47058100  1
  F  F28  1  0.94434500  0.04199100  0.83836700  1
  F  F29  1  0.27922200  0.99036600  0.46698500  1
  F  F30  1  0.52210500  0.46073000  0.21500000  1
  F  F31  1  0.97789500  0.46073000  0.71500000  1
  F  F32  1  0.09614900  0.30433700  0.02941900  1
  F  F33  1  0.22077800  0.99036600  0.96698500  1
  F  F34  1  0.68363700  0.32433600  0.72325600  1
  F  F35  1  0.77922200  0.00963400  0.03301500  1
  F  F36  1  0.31636300  0.67566400  0.27674400  1
  F  F37  1  0.55565500  0.04199100  0.33836700  1
  F  F38  1  0.50157100  0.17693300  0.88325000  1
  F  F39  1  0.99842900  0.17693300  0.38325000  1
  F  F40  1  0.66492700  0.43853300  0.96030000  1
  F  F41  1  0.81636300  0.32433600  0.22325600  1
  F  F42  1  0.16492700  0.56146700  0.53970000  1
  F  F43  1  0.44434500  0.95800900  0.66163300  1
  F  F44  1  0.83507300  0.43853300  0.46030000  1
  F  F45  1  0.47789500  0.53927000  0.78500000  1
  F  F46  1  0.00157100  0.82306700  0.61675000  1
  F  F47  1  0.49842900  0.82306700  0.11675000  1
  F  F48  1  0.33507300  0.56146700  0.03970000  1
  F  F49  1  0.27770500  0.14655900  0.19044400  1
  F  F50  1  0.02210500  0.53927000  0.28500000  1
  F  F51  1  0.40385100  0.30433700  0.52941900  1
  F  F52  1  0.77770500  0.85344100  0.30955600  1
  F  F53  1  0.72229500  0.85344100  0.80955600  1
  F  F54  1  0.72077800  0.00963400  0.53301500  1
  F  F55  1  0.05565500  0.95800900  0.16163300  1
