# generated using pymatgen
data_Li3Ni2(PO4)3
_symmetry_space_group_name_H-M   'P 1'
_cell_length_a   9.75254642
_cell_length_b   9.75254642
_cell_length_c   9.69638154
_cell_angle_alpha   85.86009675
_cell_angle_beta   85.86009675
_cell_angle_gamma   85.14725025
_symmetry_Int_Tables_number   1
_chemical_formula_structural   Li3Ni2(PO4)3
_chemical_formula_sum   'Li12 Ni8 P12 O48'
_cell_volume   914.51159078
_cell_formula_units_Z   4
loop_
 _symmetry_equiv_pos_site_id
 _symmetry_equiv_pos_as_xyz
  1  'x, y, z'
loop_
 _atom_site_type_symbol
 _atom_site_label
 _atom_site_symmetry_multiplicity
 _atom_site_fract_x
 _atom_site_fract_y
 _atom_site_fract_z
 _atom_site_occupancy
  Li  Li0  1  0.24971200  0.37561100  0.19726800  1
  Li  Li1  1  0.62438900  0.75028800  0.80273200  1
  Li  Li2  1  0.98154400  0.50238300  0.24278000  1
  Li  Li3  1  0.49761700  0.01845600  0.75722000  1
  Li  Li4  1  0.44443900  0.22540200  0.52097300  1
  Li  Li5  1  0.77459800  0.55556100  0.47902700  1
  Li  Li6  1  0.75776700  0.98103800  0.60175100  1
  Li  Li7  1  0.76762600  0.73307800  0.18121100  1
  Li  Li8  1  0.01896200  0.24223300  0.39824900  1
  Li  Li9  1  0.07063100  0.70103000  0.01831300  1
  Li  Li10  1  0.26692200  0.23237400  0.81878900  1
  Li  Li11  1  0.29897000  0.92936900  0.98168700  1
  Ni  Ni12  1  0.46737000  0.53263000  0.50000000  1
  Ni  Ni13  1  0.25024500  0.74975500  0.50000000  1
  Ni  Ni14  1  0.74645400  0.03016900  0.21490400  1
  Ni  Ni15  1  0.96983100  0.25354600  0.78509600  1
  Ni  Ni16  1  0.03576600  0.75028700  0.71727200  1
  Ni  Ni17  1  0.24971300  0.96423400  0.28272800  1
  Ni  Ni18  1  0.75173000  0.24827000  0.00000000  1
  Ni  Ni19  1  0.53378700  0.46621300  0.00000000  1
  P  P20  1  0.05077200  0.17274300  0.09729300  1
  P  P21  1  0.16266500  0.44779800  0.57252000  1
  P  P22  1  0.44960900  0.15710400  0.07269900  1
  P  P23  1  0.94851300  0.82105200  0.40597700  1
  P  P24  1  0.66053700  0.32111300  0.69917000  1
  P  P25  1  0.82725700  0.94922800  0.90270700  1
  P  P26  1  0.34755100  0.68034000  0.80131500  1
  P  P27  1  0.55220200  0.83733500  0.42748000  1
  P  P28  1  0.31966000  0.65244900  0.19868500  1
  P  P29  1  0.84289600  0.55039100  0.92730100  1
  P  P30  1  0.17894800  0.05148700  0.59402300  1
  P  P31  1  0.67888700  0.33946300  0.30083000  1
  O  O32  1  0.80048500  0.90537100  0.05867400  1
  O  O33  1  0.10907200  0.82434600  0.37248500  1
  O  O34  1  0.91072500  0.81989800  0.56480400  1
  O  O35  1  0.59341500  0.19714000  0.65218100  1
  O  O36  1  0.37726100  0.67132200  0.63922900  1
  O  O37  1  0.08551800  0.28601900  0.18786200  1
  O  O38  1  0.59437400  0.90463400  0.55372700  1
  O  O39  1  0.40975000  0.31479000  0.07261700  1
  O  O40  1  0.71398100  0.91448200  0.81213800  1
  O  O41  1  0.61037100  0.12297000  0.07591100  1
  O  O42  1  0.88464600  0.96226900  0.34866700  1
  O  O43  1  0.89042900  0.16198200  0.12419500  1
  O  O44  1  0.46125900  0.59465100  0.13853100  1
  O  O45  1  0.67221900  0.37574700  0.13989900  1
  O  O46  1  0.30353700  0.10368100  0.65721500  1
  O  O47  1  0.83801800  0.10957100  0.87580500  1
  O  O48  1  0.68745000  0.18168500  0.33797100  1
  O  O49  1  0.11553900  0.37561300  0.71282200  1
  O  O50  1  0.81831500  0.31255000  0.66202900  1
  O  O51  1  0.39936000  0.09856900  0.94315100  1
  O  O52  1  0.62438700  0.88446100  0.28717800  1
  O  O53  1  0.17565400  0.89092800  0.62751500  1
  O  O54  1  0.97020000  0.87616200  0.86351300  1
  O  O55  1  0.12840400  0.60774300  0.58271500  1
  O  O56  1  0.68521000  0.59025000  0.92738300  1
  O  O57  1  0.19152800  0.69510700  0.84477400  1
  O  O58  1  0.03773100  0.11535400  0.65133300  1
  O  O59  1  0.09536600  0.40562600  0.44627300  1
  O  O60  1  0.12383800  0.02980000  0.13648700  1
  O  O61  1  0.89631900  0.69646300  0.34278500  1
  O  O62  1  0.90143100  0.60064000  0.05684900  1
  O  O63  1  0.19734500  0.57937400  0.15550500  1
  O  O64  1  0.32867800  0.62273900  0.36077100  1
  O  O65  1  0.32163600  0.40683800  0.56172900  1
  O  O66  1  0.40534900  0.53874100  0.86146900  1
  O  O67  1  0.62425300  0.32778100  0.86010100  1
  O  O68  1  0.38675300  0.09488400  0.21097900  1
  O  O69  1  0.87703000  0.38962900  0.92408900  1
  O  O70  1  0.53754100  0.38838400  0.37163600  1
  O  O71  1  0.42062600  0.80265500  0.84449500  1
  O  O72  1  0.61161600  0.46245900  0.62836400  1
  O  O73  1  0.59316200  0.67836400  0.43827100  1
  O  O74  1  0.18010200  0.08927500  0.43519600  1
  O  O75  1  0.90511600  0.61324700  0.78902100  1
  O  O76  1  0.39225700  0.87159600  0.41728500  1
  O  O77  1  0.30489300  0.80847200  0.15522600  1
  O  O78  1  0.09462900  0.19951500  0.94132600  1
  O  O79  1  0.80286000  0.40658500  0.34781900  1
