# generated using pymatgen
data_Li2PrO3
_symmetry_space_group_name_H-M   'P 1'
_cell_length_a   5.46175487
_cell_length_b   5.46175487
_cell_length_c   3.69354200
_cell_angle_alpha   90.00000000
_cell_angle_beta   90.00000000
_cell_angle_gamma   130.17424024
_symmetry_Int_Tables_number   1
_chemical_formula_structural   Li2PrO3
_chemical_formula_sum   'Li2 Pr1 O3'
_cell_volume   84.18791929
_cell_formula_units_Z   1
loop_
 _symmetry_equiv_pos_site_id
 _symmetry_equiv_pos_as_xyz
  1  'x, y, z'
loop_
 _atom_site_type_symbol
 _atom_site_label
 _atom_site_symmetry_multiplicity
 _atom_site_fract_x
 _atom_site_fract_y
 _atom_site_fract_z
 _atom_site_occupancy
  Li  Li0  1  0.34438500  0.65561500  0.50000000  1
  Li  Li1  1  0.65561500  0.34438500  0.50000000  1
  Pr  Pr2  1  0.00000000  0.00000000  0.00000000  1
  O  O3  1  0.50000000  0.50000000  0.00000000  1
  O  O4  1  0.15004700  0.84995300  0.50000000  1
  O  O5  1  0.84995300  0.15004700  0.50000000  1
