# generated using pymatgen
data_Li3Ga7
_symmetry_space_group_name_H-M   'P 1'
_cell_length_a   7.63591904
_cell_length_b   7.63591904
_cell_length_c   7.63591832
_cell_angle_alpha   68.30289626
_cell_angle_beta   68.30289626
_cell_angle_gamma   68.30289774
_symmetry_Int_Tables_number   1
_chemical_formula_structural   Li3Ga7
_chemical_formula_sum   'Li6 Ga14'
_cell_volume   370.11018815
_cell_formula_units_Z   2
loop_
 _symmetry_equiv_pos_site_id
 _symmetry_equiv_pos_as_xyz
  1  'x, y, z'
loop_
 _atom_site_type_symbol
 _atom_site_label
 _atom_site_symmetry_multiplicity
 _atom_site_fract_x
 _atom_site_fract_y
 _atom_site_fract_z
 _atom_site_occupancy
  Li  Li0  1  0.88120200  0.47077500  0.88120200  1
  Li  Li1  1  0.47077500  0.88120200  0.88120200  1
  Li  Li2  1  0.52922500  0.11879800  0.11879800  1
  Li  Li3  1  0.88120200  0.88120200  0.47077500  1
  Li  Li4  1  0.11879800  0.11879800  0.52922500  1
  Li  Li5  1  0.11879800  0.52922500  0.11879800  1
  Ga  Ga6  1  0.49051800  0.17508900  0.49051800  1
  Ga  Ga7  1  0.70395700  0.17853500  0.70395700  1
  Ga  Ga8  1  0.29604300  0.29604300  0.82146500  1
  Ga  Ga9  1  0.50948200  0.82491100  0.50948200  1
  Ga  Ga10  1  0.70395700  0.70395700  0.17853500  1
  Ga  Ga11  1  0.82491100  0.50948200  0.50948200  1
  Ga  Ga12  1  0.29604300  0.82146500  0.29604300  1
  Ga  Ga13  1  0.07591800  0.07591800  0.07591800  1
  Ga  Ga14  1  0.50948200  0.50948200  0.82491100  1
  Ga  Ga15  1  0.82146500  0.29604300  0.29604300  1
  Ga  Ga16  1  0.17508900  0.49051800  0.49051800  1
  Ga  Ga17  1  0.17853500  0.70395700  0.70395700  1
  Ga  Ga18  1  0.49051800  0.49051800  0.17508900  1
  Ga  Ga19  1  0.92408200  0.92408200  0.92408200  1
