# generated using pymatgen
data_Rb2LiC3S3(OF)9
_symmetry_space_group_name_H-M   'P 1'
_cell_length_a   16.59466200
_cell_length_b   5.42613300
_cell_length_c   20.73592415
_cell_angle_alpha   75.17333344
_cell_angle_beta   90.00000000
_cell_angle_gamma   90.00000000
_symmetry_Int_Tables_number   1
_chemical_formula_structural   Rb2LiC3S3(OF)9
_chemical_formula_sum   'Rb8 Li4 C12 S12 O36 F36'
_cell_volume   1804.99471281
_cell_formula_units_Z   4
loop_
 _symmetry_equiv_pos_site_id
 _symmetry_equiv_pos_as_xyz
  1  'x, y, z'
loop_
 _atom_site_type_symbol
 _atom_site_label
 _atom_site_symmetry_multiplicity
 _atom_site_fract_x
 _atom_site_fract_y
 _atom_site_fract_z
 _atom_site_occupancy
  Rb  Rb0  1  0.37553700  0.53625500  0.98764900  1
  Rb  Rb1  1  0.84176900  0.17412600  0.72343900  1
  Rb  Rb2  1  0.87553700  0.46374500  0.51235100  1
  Rb  Rb3  1  0.62446300  0.46374500  0.01235100  1
  Rb  Rb4  1  0.65823100  0.17412600  0.22343900  1
  Rb  Rb5  1  0.34176900  0.82587400  0.77656100  1
  Rb  Rb6  1  0.15823100  0.82587400  0.27656100  1
  Rb  Rb7  1  0.12446300  0.53625500  0.48764900  1
  Li  Li8  1  0.23228000  0.95583200  0.57498900  1
  Li  Li9  1  0.26772000  0.95583200  0.07498900  1
  Li  Li10  1  0.73228000  0.04416800  0.92501100  1
  Li  Li11  1  0.76772000  0.04416800  0.42501100  1
  C  C12  1  0.08961400  0.45092800  0.09718000  1
  C  C13  1  0.41038600  0.45092800  0.59718000  1
  C  C14  1  0.64137600  0.80670300  0.61022100  1
  C  C15  1  0.58961400  0.54907200  0.40282000  1
  C  C16  1  0.85862400  0.80670300  0.11022100  1
  C  C17  1  0.55190100  0.29864200  0.80612600  1
  C  C18  1  0.05190100  0.70135800  0.69387400  1
  C  C19  1  0.94809900  0.29864200  0.30612600  1
  C  C20  1  0.35862400  0.19329700  0.38977900  1
  C  C21  1  0.14137600  0.19329700  0.88977900  1
  C  C22  1  0.91038600  0.54907200  0.90282000  1
  C  C23  1  0.44809900  0.70135800  0.19387400  1
  S  S24  1  0.75052100  0.86548800  0.58957000  1
  S  S25  1  0.03297600  0.90300300  0.60746900  1
  S  S26  1  0.25052100  0.13451200  0.91043000  1
  S  S27  1  0.24947900  0.13451200  0.41043000  1
  S  S28  1  0.69297100  0.60245100  0.36584300  1
  S  S29  1  0.46702400  0.90300300  0.10746900  1
  S  S30  1  0.74947900  0.86548800  0.08957000  1
  S  S31  1  0.96702400  0.09699700  0.39253100  1
  S  S32  1  0.53297600  0.09699700  0.89253100  1
  S  S33  1  0.30702900  0.39754900  0.63415700  1
  S  S34  1  0.19297100  0.39754900  0.13415700  1
  S  S35  1  0.80702900  0.60245100  0.86584300  1
  O  O36  1  0.18311200  0.43022800  0.20118200  1
  O  O37  1  0.74514000  0.86585700  0.01870300  1
  O  O38  1  0.79266300  0.65182000  0.63337500  1
  O  O39  1  0.50152300  0.27513200  0.92840200  1
  O  O40  1  0.88636100  0.99904200  0.41491800  1
  O  O41  1  0.31688800  0.43022800  0.70118200  1
  O  O42  1  0.24514000  0.13414300  0.48129700  1
  O  O43  1  0.52325600  0.09677900  0.11699800  1
  O  O44  1  0.70733700  0.65182000  0.13337500  1
  O  O45  1  0.75486000  0.86585700  0.51870300  1
  O  O46  1  0.00152300  0.72486800  0.57159800  1
  O  O47  1  0.25711400  0.58975400  0.58903100  1
  O  O48  1  0.23385900  0.88626300  0.39784400  1
  O  O49  1  0.76614100  0.11373700  0.60215600  1
  O  O50  1  0.73385900  0.11373700  0.10215600  1
  O  O51  1  0.11363900  0.00095800  0.58508200  1
  O  O52  1  0.61363900  0.99904200  0.91491800  1
  O  O53  1  0.29266300  0.34818000  0.86662500  1
  O  O54  1  0.38636100  0.00095800  0.08508200  1
  O  O55  1  0.20733700  0.34818000  0.36662500  1
  O  O56  1  0.25486000  0.13414300  0.98129700  1
  O  O57  1  0.68311200  0.56977200  0.29881800  1
  O  O58  1  0.28821100  0.13452400  0.63280800  1
  O  O59  1  0.81688800  0.56977200  0.79881800  1
  O  O60  1  0.49847700  0.72486800  0.07159800  1
  O  O61  1  0.97674400  0.09677900  0.61699800  1
  O  O62  1  0.47674400  0.90322100  0.88300200  1
  O  O63  1  0.71178900  0.86547600  0.36719200  1
  O  O64  1  0.21178900  0.13452400  0.13280800  1
  O  O65  1  0.74288600  0.41024600  0.41096900  1
  O  O66  1  0.99847700  0.27513200  0.42840200  1
  O  O67  1  0.26614100  0.88626300  0.89784400  1
  O  O68  1  0.02325600  0.90322100  0.38300200  1
  O  O69  1  0.75711400  0.41024600  0.91096900  1
  O  O70  1  0.24288600  0.58975400  0.08903100  1
  O  O71  1  0.78821100  0.86547600  0.86719200  1
  F  F72  1  0.03833900  0.27591100  0.13417600  1
  F  F73  1  0.12045500  0.43154900  0.89226100  1
  F  F74  1  0.62045500  0.56845100  0.60773900  1
  F  F75  1  0.62668400  0.83044900  0.67277900  1
  F  F76  1  0.56372700  0.31288500  0.40210000  1
  F  F77  1  0.43627300  0.68711500  0.59790000  1
  F  F78  1  0.41107700  0.42978400  0.53387100  1
  F  F79  1  0.37954500  0.43154900  0.39226100  1
  F  F80  1  0.58892300  0.57021600  0.46612900  1
  F  F81  1  0.96166100  0.72408900  0.86582400  1
  F  F82  1  0.87954500  0.56845100  0.10773900  1
  F  F83  1  0.93627300  0.31288500  0.90210000  1
  F  F84  1  0.12668400  0.16955100  0.82722100  1
  F  F85  1  0.87331600  0.83044900  0.17277900  1
  F  F86  1  0.90487100  0.97694300  0.06682100  1
  F  F87  1  0.59512900  0.97694300  0.56682100  1
  F  F88  1  0.46166100  0.27591100  0.63417600  1
  F  F89  1  0.37331600  0.16955100  0.32722100  1
  F  F90  1  0.98125300  0.60045900  0.72265500  1
  F  F91  1  0.89749700  0.49250400  0.30727800  1
  F  F92  1  0.53833900  0.72408900  0.36582400  1
  F  F93  1  0.60250300  0.49250400  0.80727800  1
  F  F94  1  0.91107700  0.57021600  0.96612900  1
  F  F95  1  0.01874700  0.39954100  0.27734500  1
  F  F96  1  0.06372700  0.68711500  0.09790000  1
  F  F97  1  0.91544500  0.15801600  0.26742600  1
  F  F98  1  0.51874700  0.60045900  0.22265500  1
  F  F99  1  0.39749700  0.50749600  0.19272200  1
  F  F100  1  0.41544500  0.84198400  0.23257400  1
  F  F101  1  0.09512900  0.02305700  0.93317900  1
  F  F102  1  0.10250300  0.50749600  0.69272200  1
  F  F103  1  0.40487100  0.02305700  0.43317900  1
  F  F104  1  0.58455500  0.15801600  0.76742600  1
  F  F105  1  0.48125300  0.39954100  0.77734500  1
  F  F106  1  0.08892300  0.42978400  0.03387100  1
  F  F107  1  0.08455500  0.84198400  0.73257400  1
