# generated using pymatgen
data_SrLiCoF6
_symmetry_space_group_name_H-M   'P 1'
_cell_length_a   8.82581200
_cell_length_b   5.37426500
_cell_length_c   10.36527885
_cell_angle_alpha   87.36543827
_cell_angle_beta   90.00000000
_cell_angle_gamma   90.00000000
_symmetry_Int_Tables_number   1
_chemical_formula_structural   SrLiCoF6
_chemical_formula_sum   'Sr4 Li4 Co4 F24'
_cell_volume   491.12886329
_cell_formula_units_Z   4
loop_
 _symmetry_equiv_pos_site_id
 _symmetry_equiv_pos_as_xyz
  1  'x, y, z'
loop_
 _atom_site_type_symbol
 _atom_site_label
 _atom_site_symmetry_multiplicity
 _atom_site_fract_x
 _atom_site_fract_y
 _atom_site_fract_z
 _atom_site_occupancy
  Sr  Sr0  1  0.70478600  0.75343000  0.49879900  1
  Sr  Sr1  1  0.20478600  0.24657000  0.00120100  1
  Sr  Sr2  1  0.79521400  0.75343000  0.99879900  1
  Sr  Sr3  1  0.29521400  0.24657000  0.50120100  1
  Li  Li4  1  0.07808600  0.71643600  0.74467900  1
  Li  Li5  1  0.57808600  0.28356400  0.75532100  1
  Li  Li6  1  0.92191400  0.28356400  0.25532100  1
  Li  Li7  1  0.42191400  0.71643600  0.24467900  1
  Co  Co8  1  0.91632100  0.21549700  0.74088000  1
  Co  Co9  1  0.41632100  0.78450300  0.75912000  1
  Co  Co10  1  0.58367900  0.21549700  0.24088000  1
  Co  Co11  1  0.08367900  0.78450300  0.25912000  1
  F  F12  1  0.26477700  0.60908000  0.86262700  1
  F  F13  1  0.25163100  0.88277600  0.15191000  1
  F  F14  1  0.09480800  0.08244700  0.35694200  1
  F  F15  1  0.74836900  0.11722400  0.84809000  1
  F  F16  1  0.95126900  0.49074300  0.85998300  1
  F  F17  1  0.42253000  0.36802000  0.14914000  1
  F  F18  1  0.92253000  0.63198000  0.35086000  1
  F  F19  1  0.07747000  0.36802000  0.64914000  1
  F  F20  1  0.04873100  0.50925700  0.14001700  1
  F  F21  1  0.03769000  0.00249700  0.86174600  1
  F  F22  1  0.40519200  0.08244700  0.85694200  1
  F  F23  1  0.75163100  0.11722400  0.34809000  1
  F  F24  1  0.90519200  0.91755300  0.64305800  1
  F  F25  1  0.46231000  0.00249700  0.36174600  1
  F  F26  1  0.57747000  0.63198000  0.85086000  1
  F  F27  1  0.96231000  0.99750300  0.13825400  1
  F  F28  1  0.76477700  0.39092000  0.63737300  1
  F  F29  1  0.59480800  0.91755300  0.14305800  1
  F  F30  1  0.53769000  0.99750300  0.63825400  1
  F  F31  1  0.54873100  0.49074300  0.35998300  1
  F  F32  1  0.23522300  0.60908000  0.36262700  1
  F  F33  1  0.45126900  0.50925700  0.64001700  1
  F  F34  1  0.24836900  0.88277600  0.65191000  1
  F  F35  1  0.73522300  0.39092000  0.13737300  1
