# generated using pymatgen
data_Li2MoO3
_symmetry_space_group_name_H-M   'P 1'
_cell_length_a   5.25244000
_cell_length_b   5.25957460
_cell_length_c   5.26166726
_cell_angle_alpha   70.46780074
_cell_angle_beta   60.40181278
_cell_angle_gamma   80.44670545
_symmetry_Int_Tables_number   1
_chemical_formula_structural   Li2MoO3
_chemical_formula_sum   'Li4 Mo2 O6'
_cell_volume   119.11591258
_cell_formula_units_Z   2
loop_
 _symmetry_equiv_pos_site_id
 _symmetry_equiv_pos_as_xyz
  1  'x, y, z'
loop_
 _atom_site_type_symbol
 _atom_site_label
 _atom_site_symmetry_multiplicity
 _atom_site_fract_x
 _atom_site_fract_y
 _atom_site_fract_z
 _atom_site_occupancy
  Li  Li0  1  0.81541800  0.99125600  0.85018800  1
  Li  Li1  1  0.18458200  0.00874400  0.14981200  1
  Li  Li2  1  0.50000000  0.00000000  0.50000000  1
  Li  Li3  1  0.50000000  0.50000000  0.00000000  1
  Mo  Mo4  1  0.84039400  0.49801200  0.33932400  1
  Mo  Mo5  1  0.15960600  0.50198800  0.66067600  1
  O  O6  1  0.15135200  0.72711300  0.93508300  1
  O  O7  1  0.84864800  0.27288700  0.06491700  1
  O  O8  1  0.49528200  0.73443200  0.27878500  1
  O  O9  1  0.16053400  0.25267400  0.42219800  1
  O  O10  1  0.83946600  0.74732600  0.57780200  1
  O  O11  1  0.50471800  0.26556800  0.72121500  1
