# generated using pymatgen
data_Li3Cr2(PO4)3
_symmetry_space_group_name_H-M   'P 1'
_cell_length_a   8.70558689
_cell_length_b   8.70558689
_cell_length_c   8.68491338
_cell_angle_alpha   60.11978976
_cell_angle_beta   60.11978976
_cell_angle_gamma   59.56056488
_symmetry_Int_Tables_number   1
_chemical_formula_structural   Li3Cr2(PO4)3
_chemical_formula_sum   'Li6 Cr4 P6 O24'
_cell_volume   464.68893915
_cell_formula_units_Z   2
loop_
 _symmetry_equiv_pos_site_id
 _symmetry_equiv_pos_as_xyz
  1  'x, y, z'
loop_
 _atom_site_type_symbol
 _atom_site_label
 _atom_site_symmetry_multiplicity
 _atom_site_fract_x
 _atom_site_fract_y
 _atom_site_fract_z
 _atom_site_occupancy
  Li  Li0  1  0.25760500  0.11156700  0.82774400  1
  Li  Li1  1  0.96395600  0.64892200  0.56339400  1
  Li  Li2  1  0.11156700  0.25760500  0.32774400  1
  Li  Li3  1  0.63476100  0.38269200  0.73065300  1
  Li  Li4  1  0.38269200  0.63476100  0.23065300  1
  Li  Li5  1  0.64892200  0.96395600  0.06339400  1
  Cr  Cr6  1  0.84737600  0.35304000  0.93866900  1
  Cr  Cr7  1  0.35304000  0.84737600  0.43866900  1
  Cr  Cr8  1  0.14717500  0.64578200  0.06859300  1
  Cr  Cr9  1  0.64578200  0.14717500  0.56859300  1
  P  P10  1  0.95563100  0.04700500  0.75118900  1
  P  P11  1  0.04700500  0.95563100  0.25118900  1
  P  P12  1  0.52730900  0.75049600  0.76129200  1
  P  P13  1  0.47137900  0.24716900  0.24115200  1
  P  P14  1  0.75049600  0.52730900  0.26129200  1
  P  P15  1  0.24716900  0.47137900  0.74115200  1
  O  O16  1  0.51704300  0.24827200  0.38800600  1
  O  O17  1  0.27789300  0.40712600  0.23892900  1
  O  O18  1  0.07095900  0.75812400  0.26607500  1
  O  O19  1  0.72446400  0.59647800  0.75998000  1
  O  O20  1  0.94622400  0.52735400  0.21211200  1
  O  O21  1  0.37627300  0.71675300  0.96033000  1
  O  O22  1  0.59647800  0.72446400  0.25998000  1
  O  O23  1  0.73507800  0.48135200  0.12183200  1
  O  O24  1  0.24827200  0.51704300  0.88800600  1
  O  O25  1  0.88383400  0.98776500  0.43051100  1
  O  O26  1  0.27370300  0.62638100  0.54435200  1
  O  O27  1  0.06523900  0.44775200  0.78091000  1
  O  O28  1  0.52735400  0.94622400  0.71211200  1
  O  O29  1  0.40712600  0.27789300  0.73892900  1
  O  O30  1  0.98776500  0.88383400  0.93051100  1
  O  O31  1  0.94210500  0.23539900  0.74393000  1
  O  O32  1  0.23539900  0.94210500  0.24393000  1
  O  O33  1  0.01947100  0.11209400  0.06580400  1
  O  O34  1  0.48135200  0.73507800  0.62183200  1
  O  O35  1  0.71675300  0.37627300  0.46033000  1
  O  O36  1  0.62638100  0.27370300  0.04435200  1
  O  O37  1  0.11209400  0.01947100  0.56580400  1
  O  O38  1  0.44775200  0.06523900  0.28091000  1
  O  O39  1  0.75812400  0.07095900  0.76607500  1
