# generated using pymatgen
data_Li9Nd6Sb3TeO24
_symmetry_space_group_name_H-M   'P 1'
_cell_length_a   11.17254221
_cell_length_b   11.10301094
_cell_length_c   11.10179727
_cell_angle_alpha   109.52975715
_cell_angle_beta   110.04289628
_cell_angle_gamma   108.78263092
_symmetry_Int_Tables_number   1
_chemical_formula_structural   Li9Nd6Sb3TeO24
_chemical_formula_sum   'Li18 Nd12 Sb6 Te2 O48'
_cell_volume   1060.80814730
_cell_formula_units_Z   2
loop_
 _symmetry_equiv_pos_site_id
 _symmetry_equiv_pos_as_xyz
  1  'x, y, z'
loop_
 _atom_site_type_symbol
 _atom_site_label
 _atom_site_symmetry_multiplicity
 _atom_site_fract_x
 _atom_site_fract_y
 _atom_site_fract_z
 _atom_site_occupancy
  Li  Li0  1  0.16032211  0.87111903  0.88197439  1
  Li  Li1  1  0.12925649  0.87083434  0.24832274  1
  Li  Li2  1  0.29312521  0.64332881  0.39308942  1
  Li  Li3  1  0.27480192  0.13627033  0.88030070  1
  Li  Li4  1  0.38077697  0.63220573  0.75781423  1
  Li  Li5  1  0.37438007  0.24957428  0.62603817  1
  Li  Li6  1  0.62204302  0.74912708  0.37198429  1
  Li  Li7  1  0.60505327  0.38821588  0.25568948  1
  Li  Li8  1  0.74638993  0.85163249  0.14727409  1
  Li  Li9  1  0.73619760  0.36886784  0.61132482  1
  Li  Li10  1  0.99043424  0.60567924  0.78733390  1
  Li  Li11  1  0.83596484  0.12939530  0.70264820  1
  Li  Li12  1  0.74190013  0.30912921  0.20856855  1
  Li  Li13  1  0.04137319  0.09287793  0.79729712  1
  Li  Li14  1  0.78860642  0.02965819  0.10520471  1
  Li  Li15  1  0.87896023  0.25149424  0.12766610  1
  Li  Li16  1  0.07558379  0.46094120  0.26110788  1
  Li  Li17  1  0.89204834  0.18259304  0.92947619  1
  Nd  Nd18  1  0.25505959  0.88158627  0.62200501  1
  Nd  Nd19  1  0.13905995  0.37551257  0.75157501  1
  Nd  Nd20  1  0.13337194  0.24253150  0.37711268  1
  Nd  Nd21  1  0.38382707  0.75602321  0.12431758  1
  Nd  Nd22  1  0.26601113  0.37620815  0.12931407  1
  Nd  Nd23  1  0.61431756  0.86277252  0.73549803  1
  Nd  Nd24  1  0.38214174  0.12465861  0.26118681  1
  Nd  Nd25  1  0.60903284  0.24198004  0.86757035  1
  Nd  Nd26  1  0.73528235  0.61888649  0.86767451  1
  Nd  Nd27  1  0.85276528  0.73675282  0.60700267  1
  Nd  Nd28  1  0.87133586  0.63419197  0.24987143  1
  Nd  Nd29  1  0.74600914  0.11676484  0.38456909  1
  Sb  Sb30  1  0.00392641  0.99904820  0.49797063  1
  Sb  Sb31  1  0.99526446  0.99117467  0.99722405  1
  Sb  Sb32  1  0.49231067  0.49462356  0.49961619  1
  Sb  Sb33  1  0.49653077  0.99980295  0.50049752  1
  Sb  Sb34  1  0.50034941  0.49599146  0.00024607  1
  Sb  Sb35  1  0.50209208  0.00225638  0.00417732  1
  Te  Te36  1  0.00629627  0.50381673  0.50543281  1
  Te  Te37  1  0.00182226  0.49711339  0.99772059  1
  O  O38  1  0.09281149  0.97465023  0.67785023  1
  O  O39  1  0.01284323  0.31765733  0.89492254  1
  O  O40  1  0.12621337  0.58868097  0.93239667  1
  O  O41  1  0.06546825  0.68722520  0.67267692  1
  O  O42  1  0.07932606  0.87787583  0.40568972  1
  O  O43  1  0.09901589  0.61602734  0.42723460  1
  O  O44  1  0.17108419  0.47878474  0.59681844  1
  O  O45  1  0.43213873  0.83595575  0.80751059  1
  O  O46  1  0.38515776  0.57972314  0.90859388  1
  O  O47  1  0.29995118  0.32422704  0.91739671  1
  O  O48  1  0.32867344  0.91325600  0.29815647  1
  O  O49  1  0.00774916  0.18722223  0.11305181  1
  O  O50  1  0.17332105  0.19779862  0.57876607  1
  O  O51  1  0.17848927  0.55362323  0.17370954  1
  O  O52  1  0.41271811  0.83269037  0.53309676  1
  O  O53  1  0.33568088  0.91494514  0.03224776  1
  O  O54  1  0.28917873  0.46593589  0.37659319  1
  O  O55  1  0.12495343  0.02514914  0.19410530  1
  O  O56  1  0.52416178  0.61688418  0.69878880  1
  O  O57  1  0.41155841  0.07869839  0.87916469  1
  O  O58  1  0.52889643  0.40437533  0.82838028  1
  O  O59  1  0.37984694  0.29787882  0.47540834  1
  O  O60  1  0.58567198  0.91199123  0.38783054  1
  O  O61  1  0.17629292  0.10909922  0.99647334  1
  O  O62  1  0.80107627  0.87766404  0.97833109  1
  O  O63  1  0.41258862  0.08871440  0.61632460  1
  O  O64  1  0.60748604  0.69158674  0.51900699  1
  O  O65  1  0.47148049  0.58954353  0.17150488  1
  O  O66  1  0.60824521  0.92952931  0.12700498  1
  O  O67  1  0.46002103  0.37288881  0.29830413  1
  O  O68  1  0.87365842  0.98636876  0.80556926  1
  O  O69  1  0.69536249  0.52383545  0.61265982  1
  O  O70  1  0.68796466  0.11250243  0.00473069  1
  O  O71  1  0.59172223  0.17108324  0.47672778  1
  O  O72  1  0.82501494  0.43969263  0.82469502  1
  O  O73  1  0.82803686  0.80144404  0.41762749  1
  O  O74  1  0.96793871  0.79535646  0.86589110  1
  O  O75  1  0.66821988  0.08664460  0.70989205  1
  O  O76  1  0.62116191  0.41470400  0.09807111  1
  O  O77  1  0.70025349  0.66148847  0.07895165  1
  O  O78  1  0.58507084  0.17938467  0.20670978  1
  O  O79  1  0.82958300  0.51277637  0.39403363  1
  O  O80  1  0.90901181  0.38763639  0.57725052  1
  O  O81  1  0.93268004  0.12067281  0.60241477  1
  O  O82  1  0.93148061  0.31955822  0.32399718  1
  O  O83  1  0.88434540  0.38796674  0.06407844  1
  O  O84  1  0.97889220  0.66194219  0.09756159  1
  O  O85  1  0.90637762  0.03041983  0.32580085  1
