# generated using pymatgen
data_Li3Mo2P3O14
_symmetry_space_group_name_H-M   'P 1'
_cell_length_a   8.21922300
_cell_length_b   15.36403200
_cell_length_c   18.24780514
_cell_angle_alpha   77.01281865
_cell_angle_beta   90.00000000
_cell_angle_gamma   90.00000000
_symmetry_Int_Tables_number   1
_chemical_formula_structural   Li3Mo2P3O14
_chemical_formula_sum   'Li24 Mo16 P24 O112'
_cell_volume   2245.39605189
_cell_formula_units_Z   8
loop_
 _symmetry_equiv_pos_site_id
 _symmetry_equiv_pos_as_xyz
  1  'x, y, z'
loop_
 _atom_site_type_symbol
 _atom_site_label
 _atom_site_symmetry_multiplicity
 _atom_site_fract_x
 _atom_site_fract_y
 _atom_site_fract_z
 _atom_site_occupancy
  Li  Li0  1  0.76933500  0.11638400  0.71324200  1
  Li  Li1  1  0.97492200  0.37086800  0.34167200  1
  Li  Li2  1  0.86886700  0.76203700  0.91969800  1
  Li  Li3  1  0.36886700  0.23796300  0.58030200  1
  Li  Li4  1  0.63113300  0.76203700  0.41969800  1
  Li  Li5  1  0.94498600  0.43212600  0.14325000  1
  Li  Li6  1  0.47492200  0.62913200  0.15832800  1
  Li  Li7  1  0.02507800  0.62913200  0.65832800  1
  Li  Li8  1  0.26933500  0.88361600  0.78675800  1
  Li  Li9  1  0.43176400  0.27156600  0.73213200  1
  Li  Li10  1  0.17158700  0.16607400  0.35380100  1
  Li  Li11  1  0.44498600  0.56787400  0.35675000  1
  Li  Li12  1  0.13113300  0.23796300  0.08030200  1
  Li  Li13  1  0.52507800  0.37086800  0.84167200  1
  Li  Li14  1  0.06823600  0.27156600  0.23213200  1
  Li  Li15  1  0.67158700  0.83392600  0.14619900  1
  Li  Li16  1  0.32841300  0.16607400  0.85380100  1
  Li  Li17  1  0.05501400  0.56787400  0.85675000  1
  Li  Li18  1  0.93176400  0.72843400  0.76786800  1
  Li  Li19  1  0.73066500  0.11638400  0.21324200  1
  Li  Li20  1  0.82841300  0.83392600  0.64619900  1
  Li  Li21  1  0.23066500  0.88361600  0.28675800  1
  Li  Li22  1  0.56823600  0.72843400  0.26786800  1
  Li  Li23  1  0.55501400  0.43212600  0.64325000  1
  Mo  Mo24  1  0.01236500  0.32501900  0.91728300  1
  Mo  Mo25  1  0.48315300  0.84477100  0.95690300  1
  Mo  Mo26  1  0.48584700  0.57753500  0.85518600  1
  Mo  Mo27  1  0.48763500  0.32501900  0.41728300  1
  Mo  Mo28  1  0.51415300  0.42246500  0.14481400  1
  Mo  Mo29  1  0.98584700  0.42246500  0.64481400  1
  Mo  Mo30  1  0.04660300  0.97720500  0.15030400  1
  Mo  Mo31  1  0.45339700  0.97720500  0.65030400  1
  Mo  Mo32  1  0.98315300  0.15522900  0.54309700  1
  Mo  Mo33  1  0.98763500  0.67498100  0.08271700  1
  Mo  Mo34  1  0.51236500  0.67498100  0.58271700  1
  Mo  Mo35  1  0.51684700  0.15522900  0.04309700  1
  Mo  Mo36  1  0.01415300  0.57753500  0.35518600  1
  Mo  Mo37  1  0.01684700  0.84477100  0.45690300  1
  Mo  Mo38  1  0.95339700  0.02279500  0.84969600  1
  Mo  Mo39  1  0.54660300  0.02279500  0.34969600  1
  P  P40  1  0.69626400  0.29357100  0.58763800  1
  P  P41  1  0.27095700  0.46739200  0.74992300  1
  P  P42  1  0.30373600  0.70642900  0.41236200  1
  P  P43  1  0.84715600  0.89067900  0.01886900  1
  P  P44  1  0.86062000  0.62264100  0.51251000  1
  P  P45  1  0.15284400  0.10932100  0.98113100  1
  P  P46  1  0.29864200  0.79747000  0.12831100  1
  P  P47  1  0.19626400  0.70642900  0.91236200  1
  P  P48  1  0.63938000  0.62264100  0.01251000  1
  P  P49  1  0.68944200  0.88523900  0.79417800  1
  P  P50  1  0.36062000  0.37735900  0.98749000  1
  P  P51  1  0.18944200  0.11476100  0.70582200  1
  P  P52  1  0.77095700  0.53260800  0.75007700  1
  P  P53  1  0.34715600  0.10932100  0.48113100  1
  P  P54  1  0.80373600  0.29357100  0.08763800  1
  P  P55  1  0.72904300  0.53260800  0.25007700  1
  P  P56  1  0.22904300  0.46739200  0.24992300  1
  P  P57  1  0.70135800  0.20253000  0.87168900  1
  P  P58  1  0.31055800  0.11476100  0.20582200  1
  P  P59  1  0.13938000  0.37735900  0.48749000  1
  P  P60  1  0.65284400  0.89067900  0.51886900  1
  P  P61  1  0.20135800  0.79747000  0.62831100  1
  P  P62  1  0.81055800  0.88523900  0.29417800  1
  P  P63  1  0.79864200  0.20253000  0.37168900  1
  O  O64  1  0.54518800  0.24344600  0.83227700  1
  O  O65  1  0.04224300  0.71891900  0.86341500  1
  O  O66  1  0.33043800  0.55329100  0.77339500  1
  O  O67  1  0.88969200  0.56878500  0.45160100  1
  O  O68  1  0.53437700  0.70721600  0.00110500  1
  O  O69  1  0.41795900  0.93785800  0.33983800  1
  O  O70  1  0.32759200  0.83967400  0.04426000  1
  O  O71  1  0.99874800  0.55966900  0.11923400  1
  O  O72  1  0.38969200  0.43121500  0.04839900  1
  O  O73  1  0.01696500  0.09802400  0.74257600  1
  O  O74  1  0.04943500  0.95315000  0.41205600  1
  O  O75  1  0.66291200  0.86558600  0.03000100  1
  O  O76  1  0.16956200  0.55329100  0.27339500  1
  O  O77  1  0.63607500  0.97389100  0.45450800  1
  O  O78  1  0.45775700  0.71891900  0.36341500  1
  O  O79  1  0.36392500  0.02610900  0.54549200  1
  O  O80  1  0.67715500  0.65154700  0.50209400  1
  O  O81  1  0.98303500  0.90197600  0.25742400  1
  O  O82  1  0.57256900  0.67211600  0.80382800  1
  O  O83  1  0.13607500  0.02610900  0.04549200  1
  O  O84  1  0.15448700  0.50436400  0.68195900  1
  O  O85  1  0.72143900  0.13406900  0.33202700  1
  O  O86  1  0.07256900  0.32788400  0.69617200  1
  O  O87  1  0.86392500  0.97389100  0.95450800  1
  O  O88  1  0.28048800  0.62209800  0.89472700  1
  O  O89  1  0.84572500  0.31929000  0.00360600  1
  O  O90  1  0.17240800  0.83967400  0.54426000  1
  O  O91  1  0.80833500  0.20981300  0.60761400  1
  O  O92  1  0.80186500  0.83523200  0.75217900  1
  O  O93  1  0.54224300  0.28108100  0.63658500  1
  O  O94  1  0.49874800  0.44033100  0.38076600  1
  O  O95  1  0.67438500  0.28200000  0.36734400  1
  O  O96  1  0.83381300  0.70797200  0.13639000  1
  O  O97  1  0.16618700  0.29202800  0.86361000  1
  O  O98  1  0.11030800  0.43121500  0.54839900  1
  O  O99  1  0.16841000  0.16884600  0.62223600  1
  O  O100  1  0.45481200  0.75655400  0.16772300  1
  O  O101  1  0.65427500  0.31929000  0.50360600  1
  O  O102  1  0.19166500  0.79018700  0.39238600  1
  O  O103  1  0.82561500  0.28200000  0.86734400  1
  O  O104  1  0.54943500  0.04685000  0.08794400  1
  O  O105  1  0.67240800  0.16032600  0.95574000  1
  O  O106  1  0.40654800  0.40427300  0.73507400  1
  O  O107  1  0.95056500  0.04685000  0.58794400  1
  O  O108  1  0.32284500  0.34845300  0.49790600  1
  O  O109  1  0.78048800  0.37790200  0.60527300  1
  O  O110  1  0.95481200  0.24344600  0.33227700  1
  O  O111  1  0.34572500  0.68071000  0.49639400  1
  O  O112  1  0.76166900  0.97937700  0.79504500  1
  O  O113  1  0.89587000  0.56369500  0.59119500  1
  O  O114  1  0.88973400  0.90734900  0.09794300  1
  O  O115  1  0.42743100  0.32788400  0.19617200  1
  O  O116  1  0.08204100  0.93785800  0.83983800  1
  O  O117  1  0.17715500  0.34845300  0.99790600  1
  O  O118  1  0.69166500  0.20981300  0.10761400  1
  O  O119  1  0.39587000  0.43630500  0.90880500  1
  O  O120  1  0.16291200  0.13441400  0.46999900  1
  O  O121  1  0.96562300  0.70721600  0.50110500  1
  O  O122  1  0.58204100  0.06214200  0.66016200  1
  O  O123  1  0.51696500  0.90197600  0.75742400  1
  O  O124  1  0.05031600  0.18647600  0.99699600  1
  O  O125  1  0.26166900  0.02062300  0.70495500  1
  O  O126  1  0.00125200  0.44033100  0.88076600  1
  O  O127  1  0.32561500  0.71800000  0.63265600  1
  O  O128  1  0.38973400  0.09265100  0.40205700  1
  O  O129  1  0.69813500  0.83523200  0.25217900  1
  O  O130  1  0.48303500  0.09802400  0.24257600  1
  O  O131  1  0.45056500  0.95315000  0.91205600  1
  O  O132  1  0.90654800  0.59572700  0.76492600  1
  O  O133  1  0.30833500  0.79018700  0.89238600  1
  O  O134  1  0.09345200  0.40427300  0.23507400  1
  O  O135  1  0.30186500  0.16476800  0.74782100  1
  O  O136  1  0.66618700  0.70797200  0.63639000  1
  O  O137  1  0.10413000  0.43630500  0.40880500  1
  O  O138  1  0.83708800  0.86558600  0.53000100  1
  O  O139  1  0.60413000  0.56369500  0.09119500  1
  O  O140  1  0.46562300  0.29278400  0.99889500  1
  O  O141  1  0.33708800  0.13441400  0.96999900  1
  O  O142  1  0.95775700  0.28108100  0.13658500  1
  O  O143  1  0.33381300  0.29202800  0.36361000  1
  O  O144  1  0.82759200  0.16032600  0.45574000  1
  O  O145  1  0.66841000  0.83115400  0.87776400  1
  O  O146  1  0.44968400  0.18647600  0.49699600  1
  O  O147  1  0.34551300  0.50436400  0.18195900  1
  O  O148  1  0.77856100  0.13406900  0.83202700  1
  O  O149  1  0.17438500  0.71800000  0.13265600  1
  O  O150  1  0.27856100  0.86593100  0.66797300  1
  O  O151  1  0.82284500  0.65154700  0.00209400  1
  O  O152  1  0.19813500  0.16476800  0.24782100  1
  O  O153  1  0.92743100  0.67211600  0.30382800  1
  O  O154  1  0.61026600  0.90734900  0.59794300  1
  O  O155  1  0.55031600  0.81352400  0.50300400  1
  O  O156  1  0.65448700  0.49563600  0.81804100  1
  O  O157  1  0.03437700  0.29278400  0.49889500  1
  O  O158  1  0.91795900  0.06214200  0.16016200  1
  O  O159  1  0.50125200  0.55966900  0.61923400  1
  O  O160  1  0.59345200  0.59572700  0.26492600  1
  O  O161  1  0.21951200  0.62209800  0.39472700  1
  O  O162  1  0.11026600  0.09265100  0.90205700  1
  O  O163  1  0.33159000  0.16884600  0.12223600  1
  O  O164  1  0.15427500  0.68071000  0.99639400  1
  O  O165  1  0.66956200  0.44670900  0.22660500  1
  O  O166  1  0.22143900  0.86593100  0.16797300  1
  O  O167  1  0.83159000  0.83115400  0.37776400  1
  O  O168  1  0.61030800  0.56878500  0.95160100  1
  O  O169  1  0.83043800  0.44670900  0.72660500  1
  O  O170  1  0.94968400  0.81352400  0.00300400  1
  O  O171  1  0.73833100  0.97937700  0.29504500  1
  O  O172  1  0.71951200  0.37790200  0.10527300  1
  O  O173  1  0.84551300  0.49563600  0.31804100  1
  O  O174  1  0.04518800  0.75655400  0.66772300  1
  O  O175  1  0.23833100  0.02062300  0.20495500  1
