# generated using pymatgen
data_LiCa9Co(PO4)7
_symmetry_space_group_name_H-M   'P 1'
_cell_length_a   13.80516463
_cell_length_b   13.80516463
_cell_length_c   13.80516453
_cell_angle_alpha   44.46673361
_cell_angle_beta   44.46673361
_cell_angle_gamma   44.46673364
_symmetry_Int_Tables_number   1
_chemical_formula_structural   LiCa9Co(PO4)7
_chemical_formula_sum   'Li2 Ca18 Co2 P14 O56'
_cell_volume   1173.74550126
_cell_formula_units_Z   2
loop_
 _symmetry_equiv_pos_site_id
 _symmetry_equiv_pos_as_xyz
  1  'x, y, z'
loop_
 _atom_site_type_symbol
 _atom_site_label
 _atom_site_symmetry_multiplicity
 _atom_site_fract_x
 _atom_site_fract_y
 _atom_site_fract_z
 _atom_site_occupancy
  Li  Li0  1  0.17041300  0.17041300  0.17041300  1
  Li  Li1  1  0.67041300  0.67041300  0.67041300  1
  Ca  Ca2  1  0.07463200  0.65963100  0.06548200  1
  Ca  Ca3  1  0.94863600  0.96748400  0.55712900  1
  Ca  Ca4  1  0.96748400  0.55712900  0.94863600  1
  Ca  Ca5  1  0.56548200  0.15963100  0.57463200  1
  Ca  Ca6  1  0.90843800  0.34923300  0.93516800  1
  Ca  Ca7  1  0.57463200  0.56548200  0.15963100  1
  Ca  Ca8  1  0.84923300  0.40843800  0.43516800  1
  Ca  Ca9  1  0.44863600  0.05712900  0.46748400  1
  Ca  Ca10  1  0.46748400  0.44863600  0.05712900  1
  Ca  Ca11  1  0.15963100  0.57463200  0.56548200  1
  Ca  Ca12  1  0.34923300  0.93516800  0.90843800  1
  Ca  Ca13  1  0.05712900  0.46748400  0.44863600  1
  Ca  Ca14  1  0.43516800  0.84923300  0.40843800  1
  Ca  Ca15  1  0.40843800  0.43516800  0.84923300  1
  Ca  Ca16  1  0.93516800  0.90843800  0.34923300  1
  Ca  Ca17  1  0.65963100  0.06548200  0.07463200  1
  Ca  Ca18  1  0.06548200  0.07463200  0.65963100  1
  Ca  Ca19  1  0.55712900  0.94863600  0.96748400  1
  Co  Co20  1  0.50187200  0.50187200  0.50187200  1
  Co  Co21  1  0.00187200  0.00187200  0.00187200  1
  P  P22  1  0.18732300  0.72256200  0.68477700  1
  P  P23  1  0.30600700  0.82754200  0.27263200  1
  P  P24  1  0.68477700  0.18732300  0.72256200  1
  P  P25  1  0.72256200  0.68477700  0.18732300  1
  P  P26  1  0.18477700  0.22256200  0.68732300  1
  P  P27  1  0.77263200  0.32754200  0.80600700  1
  P  P28  1  0.80600700  0.77263200  0.32754200  1
  P  P29  1  0.27059300  0.27059300  0.27059300  1
  P  P30  1  0.82754200  0.27263200  0.30600700  1
  P  P31  1  0.32754200  0.80600700  0.77263200  1
  P  P32  1  0.27263200  0.30600700  0.82754200  1
  P  P33  1  0.68732300  0.18477700  0.22256200  1
  P  P34  1  0.77059300  0.77059300  0.77059300  1
  P  P35  1  0.22256200  0.68732300  0.18477700  1
  O  O36  1  0.37409900  0.37508000  0.65226300  1
  O  O37  1  0.85457900  0.13082000  0.66899500  1
  O  O38  1  0.58952900  0.14491500  0.89606000  1
  O  O39  1  0.18365800  0.61551400  0.17369500  1
  O  O40  1  0.61320300  0.33479100  0.88815600  1
  O  O41  1  0.34103900  0.92951000  0.24962100  1
  O  O42  1  0.38330800  0.63208300  0.84709500  1
  O  O43  1  0.36464900  0.63600700  0.61705100  1
  O  O44  1  0.15226300  0.87508000  0.87409900  1
  O  O45  1  0.38815600  0.83479100  0.11320300  1
  O  O46  1  0.88567800  0.78268300  0.60540200  1
  O  O47  1  0.13600700  0.86464900  0.11705100  1
  O  O48  1  0.87409900  0.15226300  0.87508000  1
  O  O49  1  0.17369500  0.18365800  0.61551400  1
  O  O50  1  0.39606000  0.64491500  0.08952900  1
  O  O51  1  0.92951000  0.24962100  0.34103900  1
  O  O52  1  0.83479100  0.11320300  0.38815600  1
  O  O53  1  0.78268300  0.60540200  0.88567800  1
  O  O54  1  0.61551400  0.17369500  0.18365800  1
  O  O55  1  0.74962100  0.42951000  0.84103900  1
  O  O56  1  0.89606000  0.58952900  0.14491500  1
  O  O57  1  0.66899500  0.85457900  0.13082000  1
  O  O58  1  0.60540200  0.88567800  0.78268300  1
  O  O59  1  0.64491500  0.08952900  0.39606000  1
  O  O60  1  0.84103900  0.74962100  0.42951000  1
  O  O61  1  0.38567800  0.10540200  0.28268300  1
  O  O62  1  0.88330800  0.34709500  0.13208300  1
  O  O63  1  0.16899500  0.63082000  0.35457900  1
  O  O64  1  0.33479100  0.88815600  0.61320300  1
  O  O65  1  0.24962100  0.34103900  0.92951000  1
  O  O66  1  0.87508000  0.87409900  0.15226300  1
  O  O67  1  0.65226300  0.37409900  0.37508000  1
  O  O68  1  0.63208300  0.84709500  0.38330800  1
  O  O69  1  0.63600700  0.61705100  0.36464900  1
  O  O70  1  0.61705100  0.36464900  0.63600700  1
  O  O71  1  0.35457900  0.16899500  0.63082000  1
  O  O72  1  0.08952900  0.39606000  0.64491500  1
  O  O73  1  0.42951000  0.84103900  0.74962100  1
  O  O74  1  0.28268300  0.38567800  0.10540200  1
  O  O75  1  0.81236400  0.81236400  0.81236400  1
  O  O76  1  0.34709500  0.13208300  0.88330800  1
  O  O77  1  0.31236400  0.31236400  0.31236400  1
  O  O78  1  0.10540200  0.28268300  0.38567800  1
  O  O79  1  0.14491500  0.89606000  0.58952900  1
  O  O80  1  0.67369500  0.11551400  0.68365800  1
  O  O81  1  0.84709500  0.38330800  0.63208300  1
  O  O82  1  0.63082000  0.35457900  0.16899500  1
  O  O83  1  0.13082000  0.66899500  0.85457900  1
  O  O84  1  0.11705100  0.13600700  0.86464900  1
  O  O85  1  0.13208300  0.88330800  0.34709500  1
  O  O86  1  0.68365800  0.67369500  0.11551400  1
  O  O87  1  0.37508000  0.65226300  0.37409900  1
  O  O88  1  0.86464900  0.11705100  0.13600700  1
  O  O89  1  0.88815600  0.61320300  0.33479100  1
  O  O90  1  0.11551400  0.68365800  0.67369500  1
  O  O91  1  0.11320300  0.38815600  0.83479100  1
