# generated using pymatgen
data_Li3Ti3Fe(PO4)6
_symmetry_space_group_name_H-M   'P 1'
_cell_length_a   8.69550553
_cell_length_b   8.69115561
_cell_length_c   17.45040713
_cell_angle_alpha   59.80590608
_cell_angle_beta   59.88872888
_cell_angle_gamma   59.94844611
_symmetry_Int_Tables_number   1
_chemical_formula_structural   Li3Ti3Fe(PO4)6
_chemical_formula_sum   'Li6 Ti6 Fe2 P12 O48'
_cell_volume   930.01003722
_cell_formula_units_Z   2
loop_
 _symmetry_equiv_pos_site_id
 _symmetry_equiv_pos_as_xyz
  1  'x, y, z'
loop_
 _atom_site_type_symbol
 _atom_site_label
 _atom_site_symmetry_multiplicity
 _atom_site_fract_x
 _atom_site_fract_y
 _atom_site_fract_z
 _atom_site_occupancy
  Li  Li0  1  0.64003495  0.23966649  0.41188278  1
  Li  Li1  1  0.63492086  0.54139900  0.17901613  1
  Li  Li2  1  0.97092969  0.88590856  0.05581335  1
  Li  Li3  1  0.39942100  0.47152761  0.80352561  1
  Li  Li4  1  0.74485839  0.56314033  0.64299466  1
  Li  Li5  1  0.96416168  0.88297022  0.56352643  1
  Ti  Ti6  1  0.14192798  0.14088531  0.06749746  1
  Ti  Ti7  1  0.36112103  0.35970971  0.17835067  1
  Ti  Ti8  1  0.14769428  0.13682503  0.56751896  1
  Ti  Ti9  1  0.35750726  0.34559626  0.68496291  1
  Ti  Ti10  1  0.64137878  0.64836700  0.32217781  1
  Ti  Ti11  1  0.85953306  0.85868188  0.92674664  1
  Fe  Fe12  1  0.86805689  0.85509814  0.42505861  1
  Fe  Fe13  1  0.64358421  0.63808614  0.82138890  1
  P  P14  1  0.04441505  0.74401349  0.23083963  1
  P  P15  1  0.46502438  0.04376218  0.37592933  1
  P  P16  1  0.24874208  0.53615379  0.48632023  1
  P  P17  1  0.75653927  0.45542385  0.01661396  1
  P  P18  1  0.04591539  0.74132062  0.73100168  1
  P  P19  1  0.53652595  0.96270456  0.12514659  1
  P  P20  1  0.46380904  0.03140778  0.87603686  1
  P  P21  1  0.96144413  0.25166950  0.26380049  1
  P  P22  1  0.25106803  0.53976715  0.98177961  1
  P  P23  1  0.75111555  0.45039714  0.52000229  1
  P  P24  1  0.53848008  0.95702184  0.62609386  1
  P  P25  1  0.96233669  0.24610629  0.76772862  1
  O  O26  1  0.99068140  0.19993267  0.18403653  1
  O  O27  1  0.19988025  0.37050750  0.00438058  1
  O  O28  1  0.37157275  0.99501404  0.10256124  1
  O  O29  1  0.12558284  0.30945863  0.23853514  1
  O  O30  1  0.31026075  0.50572049  0.06005269  1
  O  O31  1  0.05655809  0.90986212  0.13618377  1
  O  O32  1  0.50467945  0.12854665  0.14673662  1
  O  O33  1  0.22939102  0.57732321  0.21902128  1
  O  O34  1  0.27844926  0.05647439  0.45829960  1
  O  O35  1  0.01478621  0.19335467  0.68305137  1
  O  O36  1  0.43482349  0.21719417  0.28929460  1
  O  O37  1  0.21130584  0.36879925  0.49814936  1
  O  O38  1  0.07385968  0.71735350  0.48463110  1
  O  O39  1  0.59409649  0.43310154  0.11345863  1
  O  O40  1  0.38047180  0.00014099  0.59485396  1
  O  O41  1  0.12257693  0.29810404  0.75393756  1
  O  O42  1  0.41945466  0.56067356  0.39453860  1
  O  O43  1  0.92700253  0.27072794  0.02609552  1
  O  O44  1  0.29884760  0.48958694  0.57064084  1
  O  O45  1  0.07599127  0.90592833  0.63555984  1
  O  O46  1  0.55821890  0.77441443  0.21071000  1
  O  O47  1  0.48620106  0.11109010  0.66326210  1
  O  O48  1  0.23360796  0.57279551  0.72740682  1
  O  O49  1  0.72808903  0.93081907  0.04440504  1
  O  O50  1  0.28282162  0.05079612  0.96189351  1
  O  O51  1  0.76668161  0.41825744  0.27598436  1
  O  O52  1  0.52503992  0.86164510  0.35613819  1
  O  O53  1  0.43934050  0.22746275  0.79687037  1
  O  O54  1  0.93536068  0.09326442  0.36020224  1
  O  O55  1  0.71036533  0.47861884  0.43621731  1
  O  O56  1  0.07734221  0.72372968  0.97756789  1
  O  O57  1  0.58812405  0.41850192  0.61421132  1
  O  O58  1  0.87747418  0.69138071  0.25062159  1
  O  O59  1  0.62167406  0.03327351  0.39776134  1
  O  O60  1  0.40824603  0.55842616  0.88505542  1
  O  O61  1  0.92579784  0.27167016  0.52976131  1
  O  O62  1  0.78276325  0.62335076  0.50795752  1
  O  O63  1  0.56963228  0.75868013  0.70096194  1
  O  O64  1  0.00893501  0.79402274  0.31191983  1
  O  O65  1  0.72456624  0.96266362  0.54042850  1
  O  O66  1  0.77711544  0.41584492  0.76885382  1
  O  O67  1  0.49903298  0.87624678  0.84648715  1
  O  O68  1  0.93680645  0.07941257  0.86060628  1
  O  O69  1  0.70473025  0.49102785  0.93647000  1
  O  O70  1  0.88639202  0.69989784  0.73824587  1
  O  O71  1  0.63294761  0.98950985  0.90044178  1
  O  O72  1  0.80321350  0.62028318  0.00270161  1
  O  O73  1  0.00046198  0.79229935  0.81498397  1
