# generated using pymatgen
data_Li2TiFe(PO4)3
_symmetry_space_group_name_H-M   'P 1'
_cell_length_a   8.79580500
_cell_length_b   8.64975300
_cell_length_c   14.75829285
_cell_angle_alpha   54.45098316
_cell_angle_beta   90.00000000
_cell_angle_gamma   90.00000000
_symmetry_Int_Tables_number   1
_chemical_formula_structural   Li2TiFe(PO4)3
_chemical_formula_sum   'Li8 Ti4 Fe4 P12 O48'
_cell_volume   913.55815349
_cell_formula_units_Z   4
loop_
 _symmetry_equiv_pos_site_id
 _symmetry_equiv_pos_as_xyz
  1  'x, y, z'
loop_
 _atom_site_type_symbol
 _atom_site_label
 _atom_site_symmetry_multiplicity
 _atom_site_fract_x
 _atom_site_fract_y
 _atom_site_fract_z
 _atom_site_occupancy
  Li  Li0  1  0.77801900  0.95584000  0.82885800  1
  Li  Li1  1  0.72680400  0.59870000  0.17914500  1
  Li  Li2  1  0.27801900  0.04416000  0.67114200  1
  Li  Li3  1  0.22680400  0.40130000  0.32085500  1
  Li  Li4  1  0.72198100  0.95584000  0.32885800  1
  Li  Li5  1  0.77319600  0.59870000  0.67914500  1
  Li  Li6  1  0.22198100  0.04416000  0.17114200  1
  Li  Li7  1  0.27319600  0.40130000  0.82085500  1
  Ti  Ti8  1  0.95394100  0.13870100  0.61506200  1
  Ti  Ti9  1  0.45394100  0.86129900  0.88493800  1
  Ti  Ti10  1  0.54605900  0.13870100  0.11506200  1
  Ti  Ti11  1  0.04605900  0.86129900  0.38493800  1
  Fe  Fe12  1  0.54378500  0.36586100  0.38433600  1
  Fe  Fe13  1  0.04378500  0.63413900  0.11566400  1
  Fe  Fe14  1  0.95621500  0.36586100  0.88433600  1
  Fe  Fe15  1  0.45621500  0.63413900  0.61566400  1
  P  P16  1  0.25067300  0.45855300  0.50267100  1
  P  P17  1  0.39361000  0.75074700  0.14611000  1
  P  P18  1  0.10875200  0.04377900  0.85334500  1
  P  P19  1  0.60875200  0.95622100  0.64665500  1
  P  P20  1  0.89361000  0.24925300  0.35389000  1
  P  P21  1  0.75067300  0.54144700  0.99732900  1
  P  P22  1  0.24932700  0.45855300  0.00267100  1
  P  P23  1  0.10639000  0.75074700  0.64611000  1
  P  P24  1  0.39124800  0.04377900  0.35334500  1
  P  P25  1  0.60639000  0.24925300  0.85389000  1
  P  P26  1  0.89124800  0.95622100  0.14665500  1
  P  P27  1  0.74932700  0.54144700  0.49732900  1
  O  O28  1  0.65414700  0.52604400  0.41673500  1
  O  O29  1  0.85055200  0.36320700  0.57324000  1
  O  O30  1  0.59685800  0.07725600  0.84678000  1
  O  O31  1  0.89246700  0.76737200  0.15886800  1
  O  O32  1  0.14737800  0.27858900  0.57430900  1
  O  O33  1  0.34372200  0.42854800  0.42595300  1
  O  O34  1  0.07550800  0.87387500  0.97226700  1
  O  O35  1  0.41873000  0.82282400  0.02263700  1
  O  O36  1  0.26863700  0.01933400  0.81583400  1
  O  O37  1  0.23291500  0.66372700  0.18424200  1
  O  O38  1  0.51768700  0.60374500  0.21749800  1
  O  O39  1  0.98594100  0.04885000  0.77499500  1
  O  O40  1  0.01768700  0.39625500  0.28250200  1
  O  O41  1  0.48594100  0.95115000  0.72500500  1
  O  O42  1  0.76863700  0.98066600  0.68416600  1
  O  O43  1  0.73291500  0.33627300  0.31575800  1
  O  O44  1  0.57550800  0.12612500  0.52773300  1
  O  O45  1  0.91873000  0.17717600  0.47736300  1
  O  O46  1  0.64737800  0.72141100  0.92569100  1
  O  O47  1  0.84372200  0.57145200  0.07404700  1
  O  O48  1  0.09685800  0.92274400  0.65322000  1
  O  O49  1  0.39246700  0.23262800  0.34113200  1
  O  O50  1  0.35055200  0.63679300  0.92676000  1
  O  O51  1  0.15414700  0.47395600  0.08326500  1
  O  O52  1  0.64944800  0.36320700  0.07324000  1
  O  O53  1  0.84585300  0.52604400  0.91673500  1
  O  O54  1  0.60753300  0.76737200  0.65886800  1
  O  O55  1  0.90314200  0.07725600  0.34678000  1
  O  O56  1  0.15627800  0.42854800  0.92595300  1
  O  O57  1  0.35262200  0.27858900  0.07430900  1
  O  O58  1  0.08127000  0.82282400  0.52263700  1
  O  O59  1  0.42449200  0.87387500  0.47226700  1
  O  O60  1  0.23136300  0.01933400  0.31583400  1
  O  O61  1  0.26708500  0.66372700  0.68424200  1
  O  O62  1  0.51405900  0.04885000  0.27499500  1
  O  O63  1  0.98231300  0.60374500  0.71749800  1
  O  O64  1  0.01405900  0.95115000  0.22500500  1
  O  O65  1  0.48231300  0.39625500  0.78250200  1
  O  O66  1  0.73136300  0.98066600  0.18416600  1
  O  O67  1  0.76708500  0.33627300  0.81575800  1
  O  O68  1  0.58127000  0.17717600  0.97736300  1
  O  O69  1  0.92449200  0.12612500  0.02773300  1
  O  O70  1  0.65627800  0.57145200  0.57404700  1
  O  O71  1  0.85262200  0.72141100  0.42569100  1
  O  O72  1  0.10753300  0.23262800  0.84113200  1
  O  O73  1  0.40314200  0.92274400  0.15322000  1
  O  O74  1  0.14944800  0.63679300  0.42676000  1
  O  O75  1  0.34585300  0.47395600  0.58326500  1
