# generated using pymatgen
data_Li10Ge(PS6)2
_symmetry_space_group_name_H-M   'P 1'
_cell_length_a   8.58995100
_cell_length_b   8.87954092
_cell_length_c   12.97496188
_cell_angle_alpha   91.98415256
_cell_angle_beta   90.64261126
_cell_angle_gamma   90.24910835
_symmetry_Int_Tables_number   1
_chemical_formula_structural   Li10Ge(PS6)2
_chemical_formula_sum   'Li20 Ge2 P4 S24'
_cell_volume   988.99622585
_cell_formula_units_Z   2
loop_
 _symmetry_equiv_pos_site_id
 _symmetry_equiv_pos_as_xyz
  1  'x, y, z'
loop_
 _atom_site_type_symbol
 _atom_site_label
 _atom_site_symmetry_multiplicity
 _atom_site_fract_x
 _atom_site_fract_y
 _atom_site_fract_z
 _atom_site_occupancy
  Li  Li0  1  0.98873100  0.51709100  0.95173700  1
  Li  Li1  1  0.96449400  0.51712200  0.42632300  1
  Li  Li2  1  0.51056000  0.96484100  0.54895200  1
  Li  Li3  1  0.49636200  0.99632200  0.05065000  1
  Li  Li4  1  0.25981300  0.28931300  0.15758100  1
  Li  Li5  1  0.74378200  0.74710700  0.28195700  1
  Li  Li6  1  0.21596100  0.81787800  0.75355300  1
  Li  Li7  1  0.22963700  0.75699200  0.25192800  1
  Li  Li8  1  0.75405800  0.22010500  0.35152600  1
  Li  Li9  1  0.46204700  0.51608000  0.75077400  1
  Li  Li10  1  0.22964800  0.22813400  0.36607000  1
  Li  Li11  1  0.73424600  0.25637500  0.85726800  1
  Li  Li12  1  0.24505400  0.76112900  0.00578800  1
  Li  Li13  1  0.74140100  0.26285600  0.13140300  1
  Li  Li14  1  0.76416900  0.72825800  0.68945400  1
  Li  Li15  1  0.22149600  0.25883500  0.91942800  1
  Li  Li16  1  0.74812600  0.76110900  0.00840300  1
  Li  Li17  1  0.24419600  0.71965500  0.48493600  1
  Li  Li18  1  0.78341000  0.21458800  0.62546500  1
  Li  Li19  1  0.24119100  0.21180500  0.64968200  1
  Ge  Ge20  1  0.99686700  0.48797300  0.18311100  1
  Ge  Ge21  1  0.50884000  0.99075000  0.81562000  1
  P  P22  1  0.99263900  0.96501400  0.50184400  1
  P  P23  1  0.49240000  0.51563000  0.99308400  1
  P  P24  1  0.00835900  0.48317600  0.68443600  1
  P  P25  1  0.48781500  0.00918100  0.31050100  1
  S  S26  1  0.98869400  0.17643600  0.44384300  1
  S  S27  1  0.00460200  0.79393100  0.38965500  1
  S  S28  1  0.29566100  0.53085800  0.90125800  1
  S  S29  1  0.68425700  0.53032400  0.89968500  1
  S  S30  1  0.49553100  0.69484300  0.09715600  1
  S  S31  1  0.48693300  0.31015900  0.05939900  1
  S  S32  1  0.19577900  0.94764600  0.58834500  1
  S  S33  1  0.80164300  0.94582600  0.58992100  1
  S  S34  1  0.00688600  0.29568500  0.06545300  1
  S  S35  1  0.00076600  0.70923300  0.10383400  1
  S  S36  1  0.21236200  0.48630000  0.60103900  1
  S  S37  1  0.81504400  0.49101000  0.58956000  1
  S  S38  1  0.48488000  0.80052200  0.37512300  1
  S  S39  1  0.49577400  0.17875900  0.42244500  1
  S  S40  1  0.28488900  0.98907400  0.90546300  1
  S  S41  1  0.71375500  0.99900300  0.92154600  1
  S  S42  1  0.99309500  0.66313600  0.78761900  1
  S  S43  1  0.00308500  0.28150400  0.76047400  1
  S  S44  1  0.77925200  0.46617900  0.27322000  1
  S  S45  1  0.20118900  0.47858500  0.29158300  1
  S  S46  1  0.51746100  0.20098800  0.72148000  1
  S  S47  1  0.49247400  0.79265400  0.70300900  1
  S  S48  1  0.68587600  0.01593600  0.22140400  1
  S  S49  1  0.29220800  0.03118700  0.21921100  1
