# generated using pymatgen
data_Li2NiO3
_symmetry_space_group_name_H-M   'P 1'
_cell_length_a   4.92695075
_cell_length_b   4.92695075
_cell_length_c   9.56880834
_cell_angle_alpha   85.04779316
_cell_angle_beta   85.04779316
_cell_angle_gamma   119.99992954
_symmetry_Int_Tables_number   1
_chemical_formula_structural   Li2NiO3
_chemical_formula_sum   'Li8 Ni4 O12'
_cell_volume   198.14090064
_cell_formula_units_Z   4
loop_
 _symmetry_equiv_pos_site_id
 _symmetry_equiv_pos_as_xyz
  1  'x, y, z'
loop_
 _atom_site_type_symbol
 _atom_site_label
 _atom_site_symmetry_multiplicity
 _atom_site_fract_x
 _atom_site_fract_y
 _atom_site_fract_z
 _atom_site_occupancy
  Li  Li0  1  0.84166400  0.68018300  0.50025800  1
  Li  Li1  1  0.68018300  0.84166400  0.00025800  1
  Li  Li2  1  0.50000000  0.00000000  0.50000000  1
  Li  Li3  1  0.08410700  0.91589300  0.75000000  1
  Li  Li4  1  0.91589300  0.08410700  0.25000000  1
  Li  Li5  1  0.31981700  0.15833600  0.99974200  1
  Li  Li6  1  0.00000000  0.50000000  0.00000000  1
  Li  Li7  1  0.15833600  0.31981700  0.49974200  1
  Ni  Ni8  1  0.75003900  0.24996100  0.75000000  1
  Ni  Ni9  1  0.41694300  0.58305700  0.75000000  1
  Ni  Ni10  1  0.58305700  0.41694300  0.25000000  1
  Ni  Ni11  1  0.24996100  0.75003900  0.25000000  1
  O  O12  1  0.23756500  0.04671200  0.36283000  1
  O  O13  1  0.59388000  0.12051100  0.13861500  1
  O  O14  1  0.48066400  0.31303800  0.63863600  1
  O  O15  1  0.87948900  0.40612000  0.36138500  1
  O  O16  1  0.68696200  0.51933600  0.86136400  1
  O  O17  1  0.04671200  0.23756500  0.86283000  1
  O  O18  1  0.95328800  0.76243500  0.13717000  1
  O  O19  1  0.31303800  0.48066400  0.13863600  1
  O  O20  1  0.12051100  0.59388000  0.63861500  1
  O  O21  1  0.51933600  0.68696200  0.36136400  1
  O  O22  1  0.40612000  0.87948900  0.86138500  1
  O  O23  1  0.76243500  0.95328800  0.63717000  1
