# generated using pymatgen
data_Li3V2(PO4)3
_symmetry_space_group_name_H-M   'P 1'
_cell_length_a   8.74219100
_cell_length_b   8.75510600
_cell_length_c   15.07624624
_cell_angle_alpha   54.95031789
_cell_angle_beta   90.00000000
_cell_angle_gamma   90.00000000
_symmetry_Int_Tables_number   1
_chemical_formula_structural   Li3V2(PO4)3
_chemical_formula_sum   'Li12 V8 P12 O48'
_cell_volume   944.65996578
_cell_formula_units_Z   4
loop_
 _symmetry_equiv_pos_site_id
 _symmetry_equiv_pos_as_xyz
  1  'x, y, z'
loop_
 _atom_site_type_symbol
 _atom_site_label
 _atom_site_symmetry_multiplicity
 _atom_site_fract_x
 _atom_site_fract_y
 _atom_site_fract_z
 _atom_site_occupancy
  Li  Li0  1  0.09648200  0.34216900  0.70719700  1
  Li  Li1  1  0.21484300  0.94838100  0.82499600  1
  Li  Li2  1  0.59648200  0.65783100  0.79280300  1
  Li  Li3  1  0.71484300  0.05161900  0.67500400  1
  Li  Li4  1  0.90351800  0.65783100  0.29280300  1
  Li  Li5  1  0.78515700  0.05161900  0.17500400  1
  Li  Li6  1  0.28515700  0.94838100  0.32499600  1
  Li  Li7  1  0.72846600  0.38961400  0.77919200  1
  Li  Li8  1  0.40351800  0.34216900  0.20719700  1
  Li  Li9  1  0.77153400  0.38961400  0.27919200  1
  Li  Li10  1  0.22846600  0.61038600  0.72080800  1
  Li  Li11  1  0.27153400  0.61038600  0.22080800  1
  V  V12  1  0.96268500  0.86759500  0.38824900  1
  V  V13  1  0.46268500  0.13240500  0.11175100  1
  V  V14  1  0.03731500  0.13240500  0.61175100  1
  V  V15  1  0.53073400  0.63675300  0.60772500  1
  V  V16  1  0.96926600  0.63675300  0.10772500  1
  V  V17  1  0.03073400  0.36324700  0.89227500  1
  V  V18  1  0.46926600  0.36324700  0.39227500  1
  V  V19  1  0.53731500  0.86759500  0.88824900  1
  P  P20  1  0.89438700  0.03903800  0.85415100  1
  P  P21  1  0.60561300  0.03903800  0.35415100  1
  P  P22  1  0.25331900  0.53902100  0.99647200  1
  P  P23  1  0.75331900  0.46097900  0.50352800  1
  P  P24  1  0.24668100  0.53902100  0.49647200  1
  P  P25  1  0.10561300  0.96096200  0.14584900  1
  P  P26  1  0.60817200  0.74887700  0.14672600  1
  P  P27  1  0.39182800  0.25112300  0.85327400  1
  P  P28  1  0.39438700  0.96096200  0.64584900  1
  P  P29  1  0.89182800  0.74887700  0.64672600  1
  P  P30  1  0.74668100  0.46097900  0.00352800  1
  P  P31  1  0.10817200  0.25112300  0.35327400  1
  O  O32  1  0.11218100  0.78471500  0.14427000  1
  O  O33  1  0.27612200  0.33050100  0.31884800  1
  O  O34  1  0.94767400  0.86725200  0.96111500  1
  O  O35  1  0.16449100  0.73009900  0.42929100  1
  O  O36  1  0.73503300  0.01640500  0.81766500  1
  O  O37  1  0.92179800  0.82580800  0.52969100  1
  O  O38  1  0.09594100  0.09777700  0.33190700  1
  O  O39  1  0.48245700  0.08422100  0.26639100  1
  O  O40  1  0.64967400  0.45915100  0.42065900  1
  O  O41  1  0.13431400  0.37573800  0.56908400  1
  O  O42  1  0.98245700  0.91577900  0.23360900  1
  O  O43  1  0.33008100  0.52024600  0.41297800  1
  O  O44  1  0.66991900  0.47975400  0.58702200  1
  O  O45  1  0.76496700  0.01640500  0.31766500  1
  O  O46  1  0.07820200  0.17419200  0.47030900  1
  O  O47  1  0.90405900  0.90222300  0.66809300  1
  O  O48  1  0.63431400  0.62426200  0.93091600  1
  O  O49  1  0.14967400  0.54084900  0.07934100  1
  O  O50  1  0.49416800  0.58377200  0.22067100  1
  O  O51  1  0.40405900  0.09777700  0.83190700  1
  O  O52  1  0.57820200  0.82580800  0.02969100  1
  O  O53  1  0.77612200  0.66949900  0.18115200  1
  O  O54  1  0.44767400  0.13274800  0.53888500  1
  O  O55  1  0.35032600  0.54084900  0.57934100  1
  O  O56  1  0.05232600  0.13274800  0.03888500  1
  O  O57  1  0.16991900  0.52024600  0.91297800  1
  O  O58  1  0.23503300  0.98359500  0.68233500  1
  O  O59  1  0.22387800  0.33050100  0.81884800  1
  O  O60  1  0.61218100  0.21528500  0.35573000  1
  O  O61  1  0.86568600  0.62426200  0.43091600  1
  O  O62  1  0.72387800  0.66949900  0.68115200  1
  O  O63  1  0.50583200  0.41622800  0.77932900  1
  O  O64  1  0.99416800  0.41622800  0.27932900  1
  O  O65  1  0.83550900  0.26990100  0.57070900  1
  O  O66  1  0.59594100  0.90222300  0.16809300  1
  O  O67  1  0.55232600  0.86725200  0.46111500  1
  O  O68  1  0.51754300  0.91577900  0.73360900  1
  O  O69  1  0.88781900  0.21528500  0.85573000  1
  O  O70  1  0.42179800  0.17419200  0.97030900  1
  O  O71  1  0.38781900  0.78471500  0.64427000  1
  O  O72  1  0.66449100  0.26990100  0.07070900  1
  O  O73  1  0.01754300  0.08422100  0.76639100  1
  O  O74  1  0.83008100  0.47975400  0.08702200  1
  O  O75  1  0.33550900  0.73009900  0.92929100  1
  O  O76  1  0.36568600  0.37573800  0.06908400  1
  O  O77  1  0.85032600  0.45915100  0.92065900  1
  O  O78  1  0.00583200  0.58377200  0.72067100  1
  O  O79  1  0.26496700  0.98359500  0.18233500  1
