# generated using pymatgen
data_Li2TiO3
_symmetry_space_group_name_H-M   'P 1'
_cell_length_a   5.91624652
_cell_length_b   5.91624652
_cell_length_c   13.22882006
_cell_angle_alpha   77.04219297
_cell_angle_beta   77.04219297
_cell_angle_gamma   89.28238362
_symmetry_Int_Tables_number   1
_chemical_formula_structural   Li2TiO3
_chemical_formula_sum   'Li16 Ti8 O24'
_cell_volume   439.40546657
_cell_formula_units_Z   8
loop_
 _symmetry_equiv_pos_site_id
 _symmetry_equiv_pos_as_xyz
  1  'x, y, z'
loop_
 _atom_site_type_symbol
 _atom_site_label
 _atom_site_symmetry_multiplicity
 _atom_site_fract_x
 _atom_site_fract_y
 _atom_site_fract_z
 _atom_site_occupancy
  Li  Li0  1  0.33118200  0.83536300  0.83127200  1
  Li  Li1  1  0.00000000  0.00000000  0.00000000  1
  Li  Li2  1  0.66881800  0.16463700  0.16872800  1
  Li  Li3  1  0.83532400  0.83645500  0.83268700  1
  Li  Li4  1  0.33053700  0.33473900  0.33048300  1
  Li  Li5  1  0.50000000  0.00000000  0.00000000  1
  Li  Li6  1  0.16467600  0.16354500  0.16731300  1
  Li  Li7  1  0.00000000  0.50000000  0.50000000  1
  Li  Li8  1  0.00000000  0.00000000  0.50000000  1
  Li  Li9  1  0.66946300  0.66526100  0.66951700  1
  Li  Li10  1  0.83536300  0.33118200  0.33127200  1
  Li  Li11  1  0.83645500  0.83532400  0.33268700  1
  Li  Li12  1  0.33473900  0.33053700  0.83048300  1
  Li  Li13  1  0.16463700  0.66881800  0.66872800  1
  Li  Li14  1  0.16354500  0.16467600  0.66731300  1
  Li  Li15  1  0.66526100  0.66946300  0.16951700  1
  Ti  Ti16  1  0.32873200  0.85645200  0.32530200  1
  Ti  Ti17  1  0.67126800  0.14354800  0.67469800  1
  Ti  Ti18  1  0.50000000  0.50000000  0.50000000  1
  Ti  Ti19  1  0.50000000  0.00000000  0.50000000  1
  Ti  Ti20  1  0.00000000  0.50000000  0.00000000  1
  Ti  Ti21  1  0.85645200  0.32873200  0.82530200  1
  Ti  Ti22  1  0.50000000  0.50000000  0.00000000  1
  Ti  Ti23  1  0.14354800  0.67126800  0.17469800  1
  O  O24  1  0.75204400  0.72233700  0.00057900  1
  O  O25  1  0.40287900  0.89978200  0.17512700  1
  O  O26  1  0.09895600  0.06405800  0.33579400  1
  O  O27  1  0.24558400  0.73296600  0.00264300  1
  O  O28  1  0.72233700  0.75204400  0.50057900  1
  O  O29  1  0.93594200  0.90104300  0.16420600  1
  O  O30  1  0.73296600  0.24558400  0.50264300  1
  O  O31  1  0.43165600  0.93445600  0.65845100  1
  O  O32  1  0.43339500  0.41489600  0.65345800  1
  O  O33  1  0.56834400  0.06554400  0.34154900  1
  O  O34  1  0.06405800  0.09895600  0.83579400  1
  O  O35  1  0.06554400  0.56834400  0.84154900  1
  O  O36  1  0.26703400  0.75441600  0.49735700  1
  O  O37  1  0.27766300  0.24795600  0.49942100  1
  O  O38  1  0.90104400  0.93594200  0.66420600  1
  O  O39  1  0.75441600  0.26703400  0.99735700  1
  O  O40  1  0.89978200  0.40287900  0.67512700  1
  O  O41  1  0.41489600  0.43339500  0.15345800  1
  O  O42  1  0.59712100  0.10021800  0.82487300  1
  O  O43  1  0.58510400  0.56660500  0.84654200  1
  O  O44  1  0.24795600  0.27766300  0.99942100  1
  O  O45  1  0.10021800  0.59712100  0.32487300  1
  O  O46  1  0.93445600  0.43165600  0.15845100  1
  O  O47  1  0.56660500  0.58510400  0.34654200  1
