# generated using pymatgen
data_LiMnPO4
_symmetry_space_group_name_H-M   'P 1'
_cell_length_a   4.91916700
_cell_length_b   8.01127600
_cell_length_c   8.58073670
_cell_angle_alpha   80.69735332
_cell_angle_beta   90.00000000
_cell_angle_gamma   90.00000000
_symmetry_Int_Tables_number   1
_chemical_formula_structural   LiMnPO4
_chemical_formula_sum   'Li4 Mn4 P4 O16'
_cell_volume   333.70922472
_cell_formula_units_Z   4
loop_
 _symmetry_equiv_pos_site_id
 _symmetry_equiv_pos_as_xyz
  1  'x, y, z'
loop_
 _atom_site_type_symbol
 _atom_site_label
 _atom_site_symmetry_multiplicity
 _atom_site_fract_x
 _atom_site_fract_y
 _atom_site_fract_z
 _atom_site_occupancy
  Li  Li0  1  0.00217300  0.83252100  0.57683600  1
  Li  Li1  1  0.01593300  0.36807500  0.93589000  1
  Li  Li2  1  0.51593300  0.63192500  0.06411000  1
  Li  Li3  1  0.50217300  0.16747900  0.42316400  1
  Mn  Mn4  1  0.57486700  0.52238700  0.71591200  1
  Mn  Mn5  1  0.00850400  0.99356500  0.18163400  1
  Mn  Mn6  1  0.50850400  0.00643500  0.81836600  1
  Mn  Mn7  1  0.07486700  0.47761300  0.28408800  1
  P  P8  1  0.48114700  0.77866400  0.38772800  1
  P  P9  1  0.98114700  0.22133600  0.61227200  1
  P  P10  1  0.98457500  0.73781900  0.93171300  1
  P  P11  1  0.48457500  0.26218100  0.06828700  1
  O  O12  1  0.82632300  0.88189400  0.99440400  1
  O  O13  1  0.88514500  0.29618300  0.44180000  1
  O  O14  1  0.83740200  0.04727200  0.65541300  1
  O  O15  1  0.28802200  0.78167600  0.90815900  1
  O  O16  1  0.44077300  0.42506300  0.94352600  1
  O  O17  1  0.29438900  0.19574200  0.62223400  1
  O  O18  1  0.89098400  0.34521800  0.72487300  1
  O  O19  1  0.38514500  0.70381700  0.55820000  1
  O  O20  1  0.78802200  0.21832400  0.09184100  1
  O  O21  1  0.35737800  0.29798900  0.22397300  1
  O  O22  1  0.85737800  0.70201100  0.77602700  1
  O  O23  1  0.32632300  0.11810600  0.00559600  1
  O  O24  1  0.33740200  0.95272800  0.34458700  1
  O  O25  1  0.94077300  0.57493700  0.05647400  1
  O  O26  1  0.39098400  0.65478200  0.27512700  1
  O  O27  1  0.79438900  0.80425800  0.37776600  1
