# generated using pymatgen
data_Sr5Li25La7Nb8O48
_symmetry_space_group_name_H-M   'P 1'
_cell_length_a   11.26727200
_cell_length_b   11.53446057
_cell_length_c   11.57617593
_cell_angle_alpha   110.59993729
_cell_angle_beta   109.78938078
_cell_angle_gamma   107.30372123
_symmetry_Int_Tables_number   1
_chemical_formula_structural   Sr5Li25La7Nb8O48
_chemical_formula_sum   'Sr5 Li25 La7 Nb8 O48'
_cell_volume   1167.53667146
_cell_formula_units_Z   1
loop_
 _symmetry_equiv_pos_site_id
 _symmetry_equiv_pos_as_xyz
  1  'x, y, z'
loop_
 _atom_site_type_symbol
 _atom_site_label
 _atom_site_symmetry_multiplicity
 _atom_site_fract_x
 _atom_site_fract_y
 _atom_site_fract_z
 _atom_site_occupancy
  Sr  Sr0  1  0.86216700  0.12831300  0.72074900  1
  Sr  Sr1  1  0.12210500  0.27600600  0.39050800  1
  Sr  Sr2  1  0.26048100  0.61296500  0.37526000  1
  Sr  Sr3  1  0.11108700  0.87383700  0.23354300  1
  Sr  Sr4  1  0.63908600  0.34515600  0.25871300  1
  Li  Li5  1  0.76285000  0.15233100  0.38087100  1
  Li  Li6  1  0.60929700  0.86092300  0.76429400  1
  Li  Li7  1  0.07164700  0.34986100  0.68879500  1
  Li  Li8  1  0.68687100  0.95880600  0.41919600  1
  Li  Li9  1  0.57918900  0.54449700  0.20722400  1
  Li  Li10  1  0.21866400  0.04679600  0.02642300  1
  Li  Li11  1  0.61079800  0.83799000  0.57183800  1
  Li  Li12  1  0.85867700  0.65137300  0.23694000  1
  Li  Li13  1  0.36180300  0.13227800  0.25875300  1
  Li  Li14  1  0.57165900  0.70946200  0.36153300  1
  Li  Li15  1  0.79621600  0.48043700  0.02161100  1
  Li  Li16  1  0.11948800  0.80045900  0.51848800  1
  Li  Li17  1  0.96002400  0.53641600  0.27884600  1
  Li  Li18  1  0.23928600  0.44686600  0.96690700  1
  Li  Li19  1  0.80918300  0.10034300  0.93809500  1
  Li  Li20  1  0.75067100  0.08106900  0.11509000  1
  Li  Li21  1  0.74066100  0.62246800  0.85314400  1
  Li  Li22  1  0.78138000  0.78869200  0.36416200  1
  Li  Li23  1  0.38664500  0.25666300  0.58620300  1
  Li  Li24  1  0.88088700  0.29027600  0.13620300  1
  Li  Li25  1  0.15482700  0.22374600  0.16342900  1
  Li  Li26  1  0.11997600  0.75201700  0.86498100  1
  Li  Li27  1  0.54539700  0.15344900  0.42899100  1
  Li  Li28  1  0.33002200  0.38209200  0.16268100  1
  Li  Li29  1  0.05648500  0.31922400  0.02960600  1
  La  La30  1  0.59469700  0.19403300  0.83835200  1
  La  La31  1  0.37216700  0.62780000  0.74314400  1
  La  La32  1  0.23790700  0.14316800  0.84015400  1
  La  La33  1  0.78350700  0.40119800  0.63646300  1
  La  La34  1  0.86123200  0.74580300  0.61519600  1
  La  La35  1  0.72779200  0.84820500  0.12863000  1
  La  La36  1  0.39406900  0.78986200  0.13790900  1
  Nb  Nb37  1  0.49402700  0.48057400  0.94964700  1
  Nb  Nb38  1  0.01928200  0.53353200  0.99171700  1
  Nb  Nb39  1  0.01783400  0.52248100  0.51601300  1
  Nb  Nb40  1  0.96031000  0.96176900  0.98237400  1
  Nb  Nb41  1  0.02995900  0.03332700  0.49479300  1
  Nb  Nb42  1  0.44142800  0.96639800  0.48984800  1
  Nb  Nb43  1  0.47345900  0.99545600  0.98505300  1
  Nb  Nb44  1  0.49889900  0.48861900  0.49462800  1
  O  O45  1  0.58366000  0.89138600  0.92346400  1
  O  O46  1  0.85729200  0.28298100  0.95602700  1
  O  O47  1  0.81584900  0.49096400  0.87377900  1
  O  O48  1  0.59705800  0.61863700  0.91261700  1
  O  O49  1  0.32538900  0.81394700  0.92399200  1
  O  O50  1  0.35034500  0.55109000  0.91238300  1
  O  O51  1  0.42302200  0.29790200  0.79962600  1
  O  O52  1  0.39136300  0.42733100  0.58353300  1
  O  O53  1  0.58158100  0.99072000  0.67477700  1
  O  O54  1  0.50210700  0.16484000  0.60208900  1
  O  O55  1  0.97876200  0.60663000  0.67154100  1
  O  O56  1  0.13553400  0.19284400  0.98641300  1
  O  O57  1  0.39627500  0.03186500  0.83209800  1
  O  O58  1  0.99772700  0.40157700  0.81363100  1
  O  O59  1  0.12819800  0.43907800  0.59914500  1
  O  O60  1  0.07965800  0.18589400  0.68084100  1
  O  O61  1  0.70321800  0.58251000  0.65515100  1
  O  O62  1  0.04604500  0.89143200  0.86817900  1
  O  O63  1  0.17937900  0.10957300  0.46508600  1
  O  O64  1  0.49587800  0.67527900  0.58189600  1
  O  O65  1  0.25937200  0.85842400  0.45298200  1
  O  O66  1  0.07330600  0.94015000  0.60948300  1
  O  O67  1  0.81305700  0.94280300  0.81739000  1
  O  O68  1  0.82881200  0.34787400  0.43532300  1
  O  O69  1  0.20758500  0.67354700  0.58589000  1
  O  O70  1  0.15496900  0.05952300  0.15784700  1
  O  O71  1  0.88286300  0.06372400  0.38030900  1
  O  O72  1  0.71039500  0.14358700  0.52307700  1
  O  O73  1  0.52805800  0.31298000  0.42573800  1
  O  O74  1  0.76490500  0.87212800  0.52223500  1
  O  O75  1  0.93148300  0.11949000  0.11084000  1
  O  O76  1  0.30022000  0.39959200  0.31828200  1
  O  O77  1  0.92332000  0.84094000  0.31524800  1
  O  O78  1  0.91316600  0.61712800  0.41674400  1
  O  O79  1  0.98704500  0.60296400  0.16200600  1
  O  O80  1  0.59630700  0.98350100  0.17624900  1
  O  O81  1  0.87855400  0.81964700  0.01699900  1
  O  O82  1  0.01835100  0.42442400  0.32691700  1
  O  O83  1  0.47188900  0.81005200  0.38096100  1
  O  O84  1  0.37819700  0.97915200  0.30995200  1
  O  O85  1  0.58727000  0.55006600  0.37458200  1
  O  O86  1  0.60061700  0.72179000  0.20381000  1
  O  O87  1  0.67018100  0.49242400  0.09073000  1
  O  O88  1  0.66740500  0.18098600  0.06280600  1
  O  O89  1  0.39621100  0.40151600  0.04139000  1
  O  O90  1  0.13178000  0.71251400  0.02479900  1
  O  O91  1  0.18248400  0.51360600  0.10447400  1
  O  O92  1  0.41356200  0.11414600  0.09847400  1
