# generated using pymatgen
data_Li3(Mo3S4)2
_symmetry_space_group_name_H-M   'P 1'
_cell_length_a   6.66779700
_cell_length_b   6.67627271
_cell_length_c   13.34679129
_cell_angle_alpha   94.02627312
_cell_angle_beta   93.78714946
_cell_angle_gamma   95.68038156
_symmetry_Int_Tables_number   1
_chemical_formula_structural   Li3(Mo3S4)2
_chemical_formula_sum   'Li6 Mo12 S16'
_cell_volume   588.17245174
_cell_formula_units_Z   2
loop_
 _symmetry_equiv_pos_site_id
 _symmetry_equiv_pos_as_xyz
  1  'x, y, z'
loop_
 _atom_site_type_symbol
 _atom_site_label
 _atom_site_symmetry_multiplicity
 _atom_site_fract_x
 _atom_site_fract_y
 _atom_site_fract_z
 _atom_site_occupancy
  Li  Li0  1  0.01571900  0.39507300  0.98472800  1
  Li  Li1  1  0.14052600  0.91808500  0.98794700  1
  Li  Li2  1  0.41025300  0.96267900  0.50989500  1
  Li  Li3  1  0.97387100  0.01282300  0.70401200  1
  Li  Li4  1  0.97777200  0.14058100  0.45872600  1
  Li  Li5  1  0.96102800  0.01853400  0.20304700  1
  Mo  Mo6  1  0.23498800  0.40539600  0.77401900  1
  Mo  Mo7  1  0.23127500  0.41387700  0.27398300  1
  Mo  Mo8  1  0.46216700  0.76452500  0.79476300  1
  Mo  Mo9  1  0.41466600  0.54376100  0.61435900  1
  Mo  Mo10  1  0.45366000  0.77359500  0.29360100  1
  Mo  Mo11  1  0.41218600  0.54988700  0.11496800  1
  Mo  Mo12  1  0.59118500  0.45024000  0.88428200  1
  Mo  Mo13  1  0.54723900  0.22926300  0.70543100  1
  Mo  Mo14  1  0.58810100  0.45833000  0.38478800  1
  Mo  Mo15  1  0.54244900  0.23264700  0.20447100  1
  Mo  Mo16  1  0.77359700  0.58614500  0.72515900  1
  Mo  Mo17  1  0.76438100  0.59624700  0.22566700  1
  S  S18  1  0.14217200  0.70719800  0.68935000  1
  S  S19  1  0.13472100  0.71606200  0.18646300  1
  S  S20  1  0.29124200  0.61655100  0.93426700  1
  S  S21  1  0.21669600  0.21022100  0.60726200  1
  S  S22  1  0.28666000  0.61827900  0.43516500  1
  S  S23  1  0.21101300  0.21519800  0.10796400  1
  S  S24  1  0.37529200  0.12691000  0.85947200  1
  S  S25  1  0.37134200  0.13403400  0.35767400  1
  S  S26  1  0.63033700  0.86913800  0.64319800  1
  S  S27  1  0.61924300  0.87420200  0.13987200  1
  S  S28  1  0.79580900  0.77896300  0.89030800  1
  S  S29  1  0.71807500  0.37883600  0.56433300  1
  S  S30  1  0.78163200  0.79498000  0.39037600  1
  S  S31  1  0.70875700  0.38071500  0.06638900  1
  S  S32  1  0.86848400  0.28617600  0.81118500  1
  S  S33  1  0.86346300  0.29384800  0.30937700  1
