# generated using pymatgen
data_Li2SeO4
_symmetry_space_group_name_H-M   'P 1'
_cell_length_a   8.63434500
_cell_length_b   9.07239497
_cell_length_c   9.08747216
_cell_angle_alpha   92.87802271
_cell_angle_beta   113.42088352
_cell_angle_gamma   104.85194428
_symmetry_Int_Tables_number   1
_chemical_formula_structural   Li2SeO4
_chemical_formula_sum   'Li12 Se6 O24'
_cell_volume   622.03450808
_cell_formula_units_Z   6
loop_
 _symmetry_equiv_pos_site_id
 _symmetry_equiv_pos_as_xyz
  1  'x, y, z'
loop_
 _atom_site_type_symbol
 _atom_site_label
 _atom_site_symmetry_multiplicity
 _atom_site_fract_x
 _atom_site_fract_y
 _atom_site_fract_z
 _atom_site_occupancy
  Li  Li0  1  0.75058400  0.54769600  0.46341700  1
  Li  Li1  1  0.24941600  0.45230400  0.53658300  1
  Li  Li2  1  0.70515900  0.09293500  0.91947900  1
  Li  Li3  1  0.65556700  0.36031600  0.81123100  1
  Li  Li4  1  0.43676400  0.82287300  0.61091400  1
  Li  Li5  1  0.34443300  0.63968400  0.18876900  1
  Li  Li6  1  0.86552300  0.72821400  0.06574000  1
  Li  Li7  1  0.07797800  0.90079300  0.63886700  1
  Li  Li8  1  0.56323600  0.17712700  0.38908600  1
  Li  Li9  1  0.29484100  0.90706500  0.08052100  1
  Li  Li10  1  0.13447700  0.27178600  0.93426000  1
  Li  Li11  1  0.92202200  0.09920700  0.36113300  1
  Se  Se12  1  0.31791200  0.21665300  0.69879600  1
  Se  Se13  1  0.68208800  0.78334700  0.30120400  1
  Se  Se14  1  0.28450100  0.68829000  0.81664300  1
  Se  Se15  1  0.86596600  0.26696200  0.65348000  1
  Se  Se16  1  0.71549900  0.31171000  0.18335700  1
  Se  Se17  1  0.13403400  0.73303800  0.34652000  1
  O  O18  1  0.83813700  0.41050100  0.36982200  1
  O  O19  1  0.42150200  0.40740200  0.74707400  1
  O  O20  1  0.51035000  0.21181900  0.16856200  1
  O  O21  1  0.81131600  0.17700700  0.15499300  1
  O  O22  1  0.16186300  0.58949900  0.63017800  1
  O  O23  1  0.22340000  0.88583600  0.50499200  1
  O  O24  1  0.31476800  0.66079100  0.39622800  1
  O  O25  1  0.04739000  0.46863200  0.04999600  1
  O  O26  1  0.87136000  0.18769600  0.82765700  1
  O  O27  1  0.48047100  0.13401200  0.75502300  1
  O  O28  1  0.95261000  0.53136800  0.95000400  1
  O  O29  1  0.81499300  0.85228300  0.20906100  1
  O  O30  1  0.57849800  0.59259800  0.25292600  1
  O  O31  1  0.68523200  0.33920900  0.60377200  1
  O  O32  1  0.29055500  0.57300600  0.95385000  1
  O  O33  1  0.18360100  0.19737500  0.49935800  1
  O  O34  1  0.81639900  0.80262500  0.50064200  1
  O  O35  1  0.70944500  0.42699400  0.04615000  1
  O  O36  1  0.77660000  0.11416400  0.49500800  1
  O  O37  1  0.51952900  0.86598800  0.24497700  1
  O  O38  1  0.18868400  0.82299300  0.84500700  1
  O  O39  1  0.48965000  0.78818100  0.83143800  1
  O  O40  1  0.18500700  0.14771700  0.79093900  1
  O  O41  1  0.12864000  0.81230400  0.17234300  1
