# generated using pymatgen
data_Li2B4H4O9
_symmetry_space_group_name_H-M   'P 1'
_cell_length_a   8.56532400
_cell_length_b   12.22811454
_cell_length_c   13.80821208
_cell_angle_alpha   73.33485864
_cell_angle_beta   87.16626604
_cell_angle_gamma   85.44802391
_symmetry_Int_Tables_number   1
_chemical_formula_structural   Li2B4H4O9
_chemical_formula_sum   'Li16 B32 H32 O72'
_cell_volume   1380.58575433
_cell_formula_units_Z   8
loop_
 _symmetry_equiv_pos_site_id
 _symmetry_equiv_pos_as_xyz
  1  'x, y, z'
loop_
 _atom_site_type_symbol
 _atom_site_label
 _atom_site_symmetry_multiplicity
 _atom_site_fract_x
 _atom_site_fract_y
 _atom_site_fract_z
 _atom_site_occupancy
  Li  Li0  1  0.24953300  0.97423500  0.00876600  1
  Li  Li1  1  0.72672700  0.24772400  0.57489200  1
  Li  Li2  1  0.71430900  0.23091600  0.27475600  1
  Li  Li3  1  0.75046700  0.02576500  0.99123400  1
  Li  Li4  1  0.27327300  0.75227600  0.42510800  1
  Li  Li5  1  0.80365900  0.63111700  0.27681800  1
  Li  Li6  1  0.25527100  0.51815200  0.49191800  1
  Li  Li7  1  0.77503800  0.25297800  0.92347500  1
  Li  Li8  1  0.68237000  0.88075600  0.23163900  1
  Li  Li9  1  0.96281900  0.47404000  0.84268200  1
  Li  Li10  1  0.31763000  0.11924400  0.76836100  1
  Li  Li11  1  0.03718100  0.52596000  0.15731800  1
  Li  Li12  1  0.19634100  0.36888300  0.72318200  1
  Li  Li13  1  0.28569100  0.76908400  0.72524400  1
  Li  Li14  1  0.74472900  0.48184800  0.50808200  1
  Li  Li15  1  0.22496200  0.74702200  0.07652500  1
  B  B16  1  0.09841400  0.95849500  0.83056600  1
  B  B17  1  0.45127800  0.31867100  0.09473300  1
  B  B18  1  0.63642900  0.14569100  0.13511000  1
  B  B19  1  0.97049200  0.85962300  0.12357100  1
  B  B20  1  0.14030900  0.64078900  0.63820700  1
  B  B21  1  0.03476100  0.32730500  0.50077900  1
  B  B22  1  0.51916000  0.64055300  0.37518800  1
  B  B23  1  0.59517200  0.97215500  0.84051900  1
  B  B24  1  0.50084400  0.26289600  0.81021600  1
  B  B25  1  0.65894900  0.42386200  0.72307200  1
  B  B26  1  0.84610300  0.07659400  0.78025500  1
  B  B27  1  0.45967700  0.17600000  0.99746900  1
  B  B28  1  0.90158600  0.04150500  0.16943400  1
  B  B29  1  0.85969100  0.35921100  0.36179300  1
  B  B30  1  0.15389700  0.92340600  0.21974500  1
  B  B31  1  0.54872200  0.68132900  0.90526700  1
  B  B32  1  0.36357100  0.85430900  0.86489000  1
  B  B33  1  0.00134800  0.23750200  0.69036300  1
  B  B34  1  0.34105100  0.57613800  0.27692800  1
  B  B35  1  0.04540600  0.18611600  0.40037800  1
  B  B36  1  0.54032300  0.82400000  0.00253100  1
  B  B37  1  0.91004700  0.52396700  0.65906600  1
  B  B38  1  0.40482800  0.02784500  0.15948100  1
  B  B39  1  0.40953600  0.54122000  0.66918700  1
  B  B40  1  0.48084000  0.35944700  0.62481200  1
  B  B41  1  0.95459400  0.81388400  0.59962200  1
  B  B42  1  0.49915600  0.73710400  0.18978400  1
  B  B43  1  0.59046400  0.45878000  0.33081300  1
  B  B44  1  0.08995300  0.47603300  0.34093400  1
  B  B45  1  0.96523900  0.67269500  0.49922100  1
  B  B46  1  0.02950800  0.14037700  0.87642900  1
  B  B47  1  0.99865200  0.76249800  0.30963700  1
  H  H48  1  0.25968100  0.54374000  0.04541600  1
  H  H49  1  0.39207500  0.26927300  0.54056800  1
  H  H50  1  0.20338400  0.13164300  0.57903600  1
  H  H51  1  0.72845300  0.62112200  0.08275100  1
  H  H52  1  0.12561100  0.34152800  0.09997800  1
  H  H53  1  0.24324200  0.49840500  0.83407800  1
  H  H54  1  0.75174500  0.03440100  0.56592900  1
  H  H55  1  0.56397200  0.11757600  0.44161700  1
  H  H56  1  0.74031900  0.45626000  0.95458400  1
  H  H57  1  0.07066100  0.07008400  0.32173200  1
  H  H58  1  0.12185000  0.61958300  0.97570000  1
  H  H59  1  0.87438900  0.65847200  0.90002200  1
  H  H60  1  0.00318400  0.30498400  0.18958400  1
  H  H61  1  0.27154700  0.37887800  0.91724900  1
  H  H62  1  0.60792500  0.73072700  0.45943200  1
  H  H63  1  0.13838700  0.17480200  0.99283600  1
  H  H64  1  0.92933900  0.92991600  0.67826800  1
  H  H65  1  0.63491600  0.07439100  0.63844100  1
  H  H66  1  0.48941200  0.10783700  0.33935600  1
  H  H67  1  0.68582300  0.97962800  0.37068400  1
  H  H68  1  0.42068300  0.43153000  0.17635500  1
  H  H69  1  0.24825500  0.96559900  0.43407100  1
  H  H70  1  0.87815000  0.38041700  0.02430000  1
  H  H71  1  0.57931700  0.56847000  0.82364500  1
  H  H72  1  0.43602800  0.88242400  0.55838300  1
  H  H73  1  0.51058800  0.89216300  0.66064400  1
  H  H74  1  0.31417700  0.02037200  0.62931600  1
  H  H75  1  0.79661600  0.86835700  0.42096400  1
  H  H76  1  0.75675800  0.50159500  0.16592200  1
  H  H77  1  0.36508400  0.92560900  0.36155900  1
  H  H78  1  0.86161300  0.82519800  0.00716400  1
  H  H79  1  0.99681600  0.69501600  0.81041600  1
  O  O80  1  0.45528200  0.95227000  0.80496400  1
  O  O81  1  0.86922800  0.57777700  0.56135400  1
  O  O82  1  0.55854900  0.81805800  0.10796600  1
  O  O83  1  0.93121800  0.25346800  0.33690300  1
  O  O84  1  0.79634100  0.13194800  0.17290400  1
  O  O85  1  0.94795000  0.45976500  0.30414400  1
  O  O86  1  0.13077200  0.42222300  0.43864600  1
  O  O87  1  0.58432500  0.11976800  0.37019400  1
  O  O88  1  0.07646100  0.22932900  0.77936400  1
  O  O89  1  0.45375500  0.47385400  0.27969800  1
  O  O90  1  0.88282900  0.17035600  0.68636000  1
  O  O91  1  0.86839100  0.34830400  0.47005700  1
  O  O92  1  0.37485400  0.84533600  0.97291800  1
  O  O93  1  0.43205500  0.74562700  0.84501400  1
  O  O94  1  0.38001200  0.67054400  0.18419500  1
  O  O95  1  0.60744200  0.71341600  0.98361800  1
  O  O96  1  0.89006600  0.91310400  0.61716600  1
  O  O97  1  0.38385500  0.41770600  0.11331400  1
  O  O98  1  0.56794500  0.25437300  0.15498600  1
  O  O99  1  0.17585000  0.60585600  0.04005000  1
  O  O100  1  0.20175300  0.42289300  0.86200000  1
  O  O101  1  0.64065100  0.38743300  0.63253300  1
  O  O102  1  0.27288700  0.09545200  0.63656900  1
  O  O103  1  0.14160000  0.03731600  0.87905400  1
  O  O104  1  0.85840000  0.96268400  0.12094600  1
  O  O105  1  0.52394000  0.68035300  0.46340900  1
  O  O106  1  0.31479900  0.95152200  0.22720900  1
  O  O107  1  0.94439600  0.67989000  0.39324100  1
  O  O108  1  0.36105200  0.08243900  0.06078000  1
  O  O109  1  0.72711300  0.90454800  0.36343100  1
  O  O110  1  0.04230700  0.02652100  0.21680000  1
  O  O111  1  0.44145100  0.18194200  0.89203400  1
  O  O112  1  0.81878800  0.45346700  0.73122100  1
  O  O113  1  0.42691300  0.27355000  0.72031300  1
  O  O114  1  0.62514600  0.15466400  0.02708200  1
  O  O115  1  0.57308700  0.72645000  0.27968700  1
  O  O116  1  0.70053600  0.37261800  0.32251600  1
  O  O117  1  0.61998800  0.32945600  0.81580500  1
  O  O118  1  0.05560400  0.32011000  0.60675900  1
  O  O119  1  0.39255800  0.28658400  0.01638200  1
  O  O120  1  0.09830500  0.21857000  0.47978700  1
  O  O121  1  0.86734000  0.11449600  0.87002100  1
  O  O122  1  0.68520100  0.04847800  0.77279100  1
  O  O123  1  0.20365900  0.86805200  0.82709600  1
  O  O124  1  0.90169500  0.78143000  0.52021300  1
  O  O125  1  0.47606000  0.31964700  0.53659100  1
  O  O126  1  0.06878200  0.74653200  0.66309700  1
  O  O127  1  0.66299200  0.09181200  0.56523400  1
  O  O128  1  0.82415000  0.39414400  0.95995000  1
  O  O129  1  0.79824700  0.57710700  0.13800000  1
  O  O130  1  0.10993400  0.08689600  0.38283400  1
  O  O131  1  0.02476600  0.36510800  0.12656000  1
  O  O132  1  0.41567500  0.88023200  0.62980600  1
  O  O133  1  0.11717100  0.82964400  0.31364000  1
  O  O134  1  0.29946400  0.62738200  0.67748400  1
  O  O135  1  0.33700800  0.90818800  0.43476600  1
  O  O136  1  0.36803700  0.46391000  0.61958000  1
  O  O137  1  0.63196300  0.53609000  0.38042000  1
  O  O138  1  0.95769300  0.97347900  0.78320000  1
  O  O139  1  0.54471800  0.04773000  0.19503600  1
  O  O140  1  0.35934900  0.61256700  0.36746700  1
  O  O141  1  0.61614500  0.58229400  0.88668600  1
  O  O142  1  0.03488500  0.17912700  0.96544700  1
  O  O143  1  0.13266000  0.88550400  0.12997900  1
  O  O144  1  0.13160900  0.65169600  0.52994300  1
  O  O145  1  0.18121200  0.54653300  0.26877900  1
  O  O146  1  0.63894800  0.91756100  0.93922000  1
  O  O147  1  0.54624500  0.52614600  0.72030200  1
  O  O148  1  0.96511500  0.82087300  0.03455300  1
  O  O149  1  0.92353900  0.77067100  0.22063600  1
  O  O150  1  0.97523400  0.63489200  0.87344000  1
  O  O151  1  0.05205000  0.54023500  0.69585600  1
