# generated using pymatgen
data_LiNd2Tl(MoO4)4
_symmetry_space_group_name_H-M   'P 1'
_cell_length_a   7.09490890
_cell_length_b   7.09490890
_cell_length_c   20.04557277
_cell_angle_alpha   88.83627216
_cell_angle_beta   88.83627216
_cell_angle_gamma   135.35678894
_symmetry_Int_Tables_number   1
_chemical_formula_structural   LiNd2Tl(MoO4)4
_chemical_formula_sum   'Li2 Nd4 Tl2 Mo8 O32'
_cell_volume   708.03380274
_cell_formula_units_Z   2
loop_
 _symmetry_equiv_pos_site_id
 _symmetry_equiv_pos_as_xyz
  1  'x, y, z'
loop_
 _atom_site_type_symbol
 _atom_site_label
 _atom_site_symmetry_multiplicity
 _atom_site_fract_x
 _atom_site_fract_y
 _atom_site_fract_z
 _atom_site_occupancy
  Li  Li0  1  0.31417300  0.68582700  0.25000000  1
  Li  Li1  1  0.68582700  0.31417300  0.75000000  1
  Nd  Nd2  1  0.85426800  0.14654300  0.96628200  1
  Nd  Nd3  1  0.85345700  0.14573200  0.53371800  1
  Nd  Nd4  1  0.14573200  0.85345700  0.03371800  1
  Nd  Nd5  1  0.14654300  0.85426800  0.46628200  1
  Tl  Tl6  1  0.03145600  0.96854400  0.25000000  1
  Tl  Tl7  1  0.96854400  0.03145600  0.75000000  1
  Mo  Mo8  1  0.24556000  0.73379900  0.64795300  1
  Mo  Mo9  1  0.75444000  0.26620100  0.35204700  1
  Mo  Mo10  1  0.26620100  0.75444000  0.85204700  1
  Mo  Mo11  1  0.44946900  0.57711100  0.40786600  1
  Mo  Mo12  1  0.73379900  0.24556000  0.14795300  1
  Mo  Mo13  1  0.42288900  0.55053100  0.09213400  1
  Mo  Mo14  1  0.57711100  0.44946900  0.90786600  1
  Mo  Mo15  1  0.55053100  0.42288900  0.59213400  1
  O  O16  1  0.07192200  0.59141400  0.56764800  1
  O  O17  1  0.01181700  0.72848700  0.82691000  1
  O  O18  1  0.73817900  0.78175300  0.03962800  1
  O  O19  1  0.51552800  0.17891800  0.54353800  1
  O  O20  1  0.27151300  0.98818300  0.67309000  1
  O  O21  1  0.88928800  0.58559300  0.13332700  1
  O  O22  1  0.21824700  0.26182100  0.46037200  1
  O  O23  1  0.58559300  0.88928800  0.63332700  1
  O  O24  1  0.17891800  0.51552800  0.04353800  1
  O  O25  1  0.31470200  0.23363100  0.10030000  1
  O  O26  1  0.78175300  0.73817900  0.53962800  1
  O  O27  1  0.52668100  0.94073700  0.78837700  1
  O  O28  1  0.69846200  0.51041300  0.67008500  1
  O  O29  1  0.40858600  0.92807800  0.93235200  1
  O  O30  1  0.94073700  0.52668100  0.28837700  1
  O  O31  1  0.30153800  0.48958700  0.32991500  1
  O  O32  1  0.76636900  0.68529800  0.39970000  1
  O  O33  1  0.26182100  0.21824700  0.96037200  1
  O  O34  1  0.59141400  0.07192200  0.06764800  1
  O  O35  1  0.05926300  0.47331900  0.71162300  1
  O  O36  1  0.72848700  0.01181700  0.32691000  1
  O  O37  1  0.98818300  0.27151300  0.17309000  1
  O  O38  1  0.92807800  0.40858600  0.43235200  1
  O  O39  1  0.47331900  0.05926300  0.21162300  1
  O  O40  1  0.23363100  0.31470200  0.60030000  1
  O  O41  1  0.41440700  0.11071200  0.36667300  1
  O  O42  1  0.68529800  0.76636900  0.89970000  1
  O  O43  1  0.48447200  0.82108200  0.45646200  1
  O  O44  1  0.48958700  0.30153800  0.82991500  1
  O  O45  1  0.11071200  0.41440700  0.86667300  1
  O  O46  1  0.82108200  0.48447200  0.95646200  1
  O  O47  1  0.51041300  0.69846200  0.17008500  1
