# generated using pymatgen
data_LiSn(PO3)3
_symmetry_space_group_name_H-M   'P 1'
_cell_length_a   10.48303900
_cell_length_b   10.46807884
_cell_length_c   9.77906914
_cell_angle_alpha   107.65777829
_cell_angle_beta   103.88240859
_cell_angle_gamma   112.82637183
_symmetry_Int_Tables_number   1
_chemical_formula_structural   LiSn(PO3)3
_chemical_formula_sum   'Li4 Sn4 P12 O36'
_cell_volume   860.81990894
_cell_formula_units_Z   4
loop_
 _symmetry_equiv_pos_site_id
 _symmetry_equiv_pos_as_xyz
  1  'x, y, z'
loop_
 _atom_site_type_symbol
 _atom_site_label
 _atom_site_symmetry_multiplicity
 _atom_site_fract_x
 _atom_site_fract_y
 _atom_site_fract_z
 _atom_site_occupancy
  Li  Li0  1  0.50682700  0.93590800  0.33757200  1
  Li  Li1  1  0.36821500  0.11910500  0.33708900  1
  Li  Li2  1  0.49317300  0.06409200  0.66242800  1
  Li  Li3  1  0.63178500  0.88089500  0.66291100  1
  Sn  Sn4  1  0.78475600  0.67273900  0.87575200  1
  Sn  Sn5  1  0.27519500  0.24683800  0.73461700  1
  Sn  Sn6  1  0.72480500  0.75316200  0.26538300  1
  Sn  Sn7  1  0.21524400  0.32726100  0.12424800  1
  P  P8  1  0.82671900  0.20647100  0.96513200  1
  P  P9  1  0.35871000  0.64846900  0.99096600  1
  P  P10  1  0.40383700  0.61167100  0.68992600  1
  P  P11  1  0.17328100  0.79352900  0.03486800  1
  P  P12  1  0.12245300  0.85189400  0.49198800  1
  P  P13  1  0.91425500  0.10224800  0.20781900  1
  P  P14  1  0.29951900  0.69428400  0.44052500  1
  P  P15  1  0.08574500  0.89775200  0.79218100  1
  P  P16  1  0.70048100  0.30571600  0.55947500  1
  P  P17  1  0.64129000  0.35153100  0.00903400  1
  P  P18  1  0.59616300  0.38832900  0.31007400  1
  P  P19  1  0.87754700  0.14810600  0.50801200  1
  O  O20  1  0.51479600  0.22020100  0.85755600  1
  O  O21  1  0.26527600  0.00644900  0.56177200  1
  O  O22  1  0.27055100  0.56540000  0.29481300  1
  O  O23  1  0.55471500  0.15349100  0.49327100  1
  O  O24  1  0.71316000  0.36003900  0.42397900  1
  O  O25  1  0.98814100  0.27642100  0.98276700  1
  O  O26  1  0.70420500  0.08639500  0.80567200  1
  O  O27  1  0.73472400  0.99355100  0.43822800  1
  O  O28  1  0.48520400  0.77979900  0.14244400  1
  O  O29  1  0.44528500  0.84650900  0.50672900  1
  O  O30  1  0.34582200  0.44250700  0.63461800  1
  O  O31  1  0.56231100  0.71395800  0.71055800  1
  O  O32  1  0.90787500  0.19378100  0.37004700  1
  O  O33  1  0.16335900  0.06849400  0.84097900  1
  O  O34  1  0.09212500  0.80621900  0.62995300  1
  O  O35  1  0.15417000  0.71787400  0.40220700  1
  O  O36  1  0.38704100  0.68720900  0.85001400  1
  O  O37  1  0.84583000  0.28212600  0.59779300  1
  O  O38  1  0.20206000  0.65081700  0.97194700  1
  O  O39  1  0.67411300  0.51344400  0.03890500  1
  O  O40  1  0.07592400  0.17935500  0.22294800  1
  O  O41  1  0.65417800  0.55749300  0.36538200  1
  O  O42  1  0.83664100  0.93150600  0.15902100  1
  O  O43  1  0.01185900  0.72357900  0.01723300  1
  O  O44  1  0.80904600  0.13735500  0.09126700  1
  O  O45  1  0.43768900  0.28604200  0.28944200  1
  O  O46  1  0.98064200  0.83060000  0.38231000  1
  O  O47  1  0.79794000  0.34918300  0.02805300  1
  O  O48  1  0.19095400  0.86264500  0.90873300  1
  O  O49  1  0.01935800  0.16940000  0.61769000  1
  O  O50  1  0.28684000  0.63996100  0.57602100  1
  O  O51  1  0.92407600  0.82064500  0.77705200  1
  O  O52  1  0.29579500  0.91360500  0.19432800  1
  O  O53  1  0.61295900  0.31279100  0.14998600  1
  O  O54  1  0.32588700  0.48655600  0.96109500  1
  O  O55  1  0.72944900  0.43460000  0.70518700  1
