# generated using pymatgen
data_LiNbP4O13
_symmetry_space_group_name_H-M   'P 1'
_cell_length_a   8.07218100
_cell_length_b   10.54274141
_cell_length_c   14.37698536
_cell_angle_alpha   107.47348612
_cell_angle_beta   98.19282463
_cell_angle_gamma   99.36092767
_symmetry_Int_Tables_number   1
_chemical_formula_structural   LiNbP4O13
_chemical_formula_sum   'Li4 Nb4 P16 O52'
_cell_volume   1127.47396361
_cell_formula_units_Z   4
loop_
 _symmetry_equiv_pos_site_id
 _symmetry_equiv_pos_as_xyz
  1  'x, y, z'
loop_
 _atom_site_type_symbol
 _atom_site_label
 _atom_site_symmetry_multiplicity
 _atom_site_fract_x
 _atom_site_fract_y
 _atom_site_fract_z
 _atom_site_occupancy
  Li  Li0  1  0.63793900  0.75986400  0.49683400  1
  Li  Li1  1  0.39173200  0.25990200  0.99916000  1
  Li  Li2  1  0.39021600  0.75981000  0.99878800  1
  Li  Li3  1  0.36521100  0.24580200  0.50682200  1
  Nb  Nb4  1  0.04605500  0.39840900  0.24368300  1
  Nb  Nb5  1  0.04823200  0.89862800  0.24101000  1
  Nb  Nb6  1  0.94895100  0.60302000  0.75657400  1
  Nb  Nb7  1  0.94642900  0.10266500  0.75901700  1
  P  P8  1  0.57363100  0.66813300  0.68153900  1
  P  P9  1  0.10458200  0.83149700  0.64635700  1
  P  P10  1  0.34843500  0.56179600  0.79906000  1
  P  P11  1  0.65165300  0.94332500  0.19739900  1
  P  P12  1  0.20501900  0.62648400  0.13739400  1
  P  P13  1  0.89150400  0.16992000  0.35229800  1
  P  P14  1  0.64917800  0.44073100  0.20076000  1
  P  P15  1  0.56808700  0.16516100  0.67895600  1
  P  P16  1  0.79433700  0.87594100  0.86951500  1
  P  P17  1  0.78985500  0.37579100  0.86577500  1
  P  P18  1  0.20070700  0.12625200  0.13403800  1
  P  P19  1  0.34493300  0.05898500  0.80169800  1
  P  P20  1  0.42485300  0.33387600  0.31910200  1
  P  P21  1  0.10924100  0.32932000  0.64814500  1
  P  P22  1  0.43090400  0.83651800  0.32137100  1
  P  P23  1  0.88750200  0.67289500  0.35153400  1
  O  O24  1  0.12751800  0.48702400  0.14575300  1
  O  O25  1  0.53963900  0.68677900  0.58392000  1
  O  O26  1  0.63891800  0.80886400  0.77049800  1
  O  O27  1  0.92576800  0.78008600  0.84642600  1
  O  O28  1  0.87812300  0.50903500  0.85012000  1
  O  O29  1  0.98237300  0.42787300  0.66486800  1
  O  O30  1  0.50008700  0.41117900  0.11942600  1
  O  O31  1  0.01782500  0.57656800  0.33262000  1
  O  O32  1  0.51690500  0.17911800  0.58090700  1
  O  O33  1  0.87449200  0.01099900  0.85314800  1
  O  O34  1  0.35818400  0.19160700  0.23060600  1
  O  O35  1  0.80406200  0.87335900  0.17571400  1
  O  O36  1  0.40045700  0.10089100  0.71011500  1
  O  O37  1  0.49064100  0.59569200  0.88484800  1
  O  O38  1  0.25845700  0.90157600  0.74878600  1
  O  O39  1  0.19542400  0.13356800  0.82430600  1
  O  O40  1  0.50543000  0.91545100  0.11476400  1
  O  O41  1  0.07032100  0.71816200  0.15768600  1
  O  O42  1  0.73129700  0.59943300  0.25152000  1
  O  O43  1  0.70186900  0.07704800  0.68892900  1
  O  O44  1  0.73361700  0.89026700  0.96255000  1
  O  O45  1  0.96391300  0.80743500  0.33564100  1
  O  O46  1  0.26510400  0.40306900  0.74834400  1
  O  O47  1  0.92111200  0.27924300  0.84669000  1
  O  O48  1  0.03059500  0.19668800  0.66483900  1
  O  O49  1  0.02880800  0.07850700  0.32742300  1
  O  O50  1  0.70251700  0.57678900  0.69394400  1
  O  O51  1  0.81553900  0.68624000  0.44162000  1
  O  O52  1  0.46034900  0.31531100  0.41645900  1
  O  O53  1  0.59961600  0.39817600  0.29431700  1
  O  O54  1  0.39859100  0.60144400  0.70453900  1
  O  O55  1  0.80080300  0.37172200  0.17738700  1
  O  O56  1  0.26952100  0.62558300  0.04595000  1
  O  O57  1  0.13042800  0.98528200  0.14264900  1
  O  O58  1  0.48357400  0.09116100  0.88920500  1
  O  O59  1  0.29436400  0.42351800  0.30564100  1
  O  O60  1  0.72248700  0.39008800  0.95684400  1
  O  O61  1  0.18280700  0.31311700  0.55762900  1
  O  O62  1  0.06631100  0.21749900  0.15812400  1
  O  O63  1  0.35737800  0.69095300  0.23647700  1
  O  O64  1  0.48411100  0.82257200  0.41894100  1
  O  O65  1  0.64008900  0.30932100  0.76411300  1
  O  O66  1  0.02696000  0.69625400  0.66233700  1
  O  O67  1  0.16971300  0.82461000  0.55546900  1
  O  O68  1  0.73673300  0.10103300  0.25042400  1
  O  O69  1  0.59805100  0.89831900  0.28828000  1
  O  O70  1  0.82819000  0.17306800  0.44294900  1
  O  O71  1  0.25960600  0.12548100  0.04114300  1
  O  O72  1  0.29525900  0.92279400  0.31022100  1
  O  O73  1  0.19890800  0.63482100  0.82334000  1
  O  O74  1  0.96712700  0.30731600  0.33805100  1
  O  O75  1  0.97006400  0.92537700  0.66912000  1
