# generated using pymatgen
data_Li20B54O
_symmetry_space_group_name_H-M   'P 1'
_cell_length_a   8.19633600
_cell_length_b   8.21105434
_cell_length_c   12.51579859
_cell_angle_alpha   89.85580764
_cell_angle_beta   89.80904726
_cell_angle_gamma   60.08626635
_symmetry_Int_Tables_number   1
_chemical_formula_structural   Li20B54O
_chemical_formula_sum   'Li20 B54 O1'
_cell_volume   730.09961662
_cell_formula_units_Z   1
loop_
 _symmetry_equiv_pos_site_id
 _symmetry_equiv_pos_as_xyz
  1  'x, y, z'
loop_
 _atom_site_type_symbol
 _atom_site_label
 _atom_site_symmetry_multiplicity
 _atom_site_fract_x
 _atom_site_fract_y
 _atom_site_fract_z
 _atom_site_occupancy
  Li  Li0  1  0.07795800  0.85846400  0.83904500  1
  Li  Li1  1  0.94325000  0.95560200  0.47724100  1
  Li  Li2  1  0.87850100  0.80455800  0.32195000  1
  Li  Li3  1  0.92700700  0.02411400  0.18133300  1
  Li  Li4  1  0.66789700  0.66425000  0.99738400  1
  Li  Li5  1  0.64487500  0.70998300  0.67584500  1
  Li  Li6  1  0.64000100  0.67505900  0.33153900  1
  Li  Li7  1  0.16467400  0.66939300  0.02062400  1
  Li  Li8  1  0.22131500  0.72678000  0.32446000  1
  Li  Li9  1  0.81306200  0.37470200  0.66973200  1
  Li  Li10  1  0.87873300  0.30046400  0.33464100  1
  Li  Li11  1  0.33569000  0.32401000  0.98776900  1
  Li  Li12  1  0.31532900  0.33838500  0.32951300  1
  Li  Li13  1  0.15129100  0.15263300  0.00248400  1
  Li  Li14  1  0.23460600  0.53254200  0.66530900  1
  Li  Li15  1  0.21284900  0.19413400  0.66645700  1
  Li  Li16  1  0.21853200  0.04201400  0.33010100  1
  Li  Li17  1  0.68938100  0.15663300  0.99107800  1
  Li  Li18  1  0.67772400  0.15549000  0.33313200  1
  Li  Li19  1  0.58956500  0.19645900  0.66866400  1
  B  B20  1  0.49593100  0.00537600  0.73644000  1
  B  B21  1  0.50810500  0.99964400  0.40050500  1
  B  B22  1  0.50119300  0.99587700  0.06839400  1
  B  B23  1  0.44573600  0.88221600  0.83477200  1
  B  B24  1  0.45781900  0.87516800  0.49765200  1
  B  B25  1  0.45895500  0.86866300  0.16880200  1
  B  B26  1  0.44495100  0.67709500  0.83558900  1
  B  B27  1  0.45684800  0.66972400  0.49644200  1
  B  B28  1  0.45983700  0.66103500  0.16926500  1
  B  B29  1  0.66823200  0.88163000  0.83492400  1
  B  B30  1  0.67623100  0.87701900  0.50035000  1
  B  B31  1  0.67867300  0.86880000  0.16426900  1
  B  B32  1  0.51085100  0.48905300  0.40122200  1
  B  B33  1  0.87547200  0.67726700  0.83595600  1
  B  B34  1  0.88093500  0.67172100  0.49929900  1
  B  B35  1  0.88355100  0.66207800  0.16465500  1
  B  B36  1  0.66605000  0.46010600  0.83650800  1
  B  B37  1  0.67813500  0.44275000  0.16469000  1
  B  B38  1  0.67496200  0.45138800  0.49977300  1
  B  B39  1  0.87218800  0.46009700  0.83685200  1
  B  B40  1  0.87921800  0.45295100  0.50044700  1
  B  B41  1  0.88331900  0.44322600  0.16517300  1
  B  B42  1  0.00248700  0.49809900  0.93352700  1
  B  B43  1  0.99962400  0.50063600  0.59784100  1
  B  B44  1  0.99901000  0.49357300  0.26555400  1
  B  B45  1  0.99613600  0.50326900  0.73594900  1
  B  B46  1  0.01033200  0.49026000  0.06955600  1
  B  B47  1  0.99837200  0.49799200  0.40118100  1
  B  B48  1  0.12942400  0.53791600  0.17192400  1
  B  B49  1  0.11917100  0.55166500  0.83411400  1
  B  B50  1  0.12503200  0.54798300  0.49707000  1
  B  B51  1  0.32762900  0.55132100  0.83414100  1
  B  B52  1  0.33453200  0.54611600  0.49764100  1
  B  B53  1  0.33841200  0.53464700  0.17093100  1
  B  B54  1  0.11846500  0.33202100  0.83451100  1
  B  B55  1  0.12646500  0.32873700  0.49724300  1
  B  B56  1  0.12857300  0.31996400  0.16974100  1
  B  B57  1  0.50067700  0.50416500  0.73580200  1
  B  B58  1  0.50107800  0.49414900  0.06941200  1
  B  B59  1  0.49755600  0.49998700  0.93332900  1
  B  B60  1  0.51290400  0.48397600  0.26547400  1
  B  B61  1  0.50271400  0.50265800  0.59759400  1
  B  B62  1  0.32437300  0.12531200  0.83534800  1
  B  B63  1  0.33373100  0.12217300  0.49672600  1
  B  B64  1  0.33638700  0.11511400  0.16880600  1
  B  B65  1  0.54579600  0.33303000  0.83439300  1
  B  B66  1  0.55893300  0.31813800  0.16499000  1
  B  B67  1  0.55464200  0.32647600  0.50095300  1
  B  B68  1  0.54493500  0.12603300  0.83511900  1
  B  B69  1  0.55847500  0.11272500  0.16446700  1
  B  B70  1  0.55528300  0.12019800  0.49975900  1
  B  B71  1  0.49956900  0.00165800  0.59739400  1
  B  B72  1  0.49602300  0.00276900  0.93304800  1
  B  B73  1  0.51084400  0.99451900  0.26505900  1
  O  O74  1  0.97898300  0.99666800  0.33112200  1
