# generated using pymatgen
data_LiBi(PO3)4
_symmetry_space_group_name_H-M   'P 1'
_cell_length_a   13.21822000
_cell_length_b   7.24021800
_cell_length_c   12.14908568
_cell_angle_alpha   54.33000776
_cell_angle_beta   90.00000000
_cell_angle_gamma   90.00000000
_symmetry_Int_Tables_number   1
_chemical_formula_structural   LiBi(PO3)4
_chemical_formula_sum   'Li4 Bi4 P16 O48'
_cell_volume   944.56590865
_cell_formula_units_Z   4
loop_
 _symmetry_equiv_pos_site_id
 _symmetry_equiv_pos_as_xyz
  1  'x, y, z'
loop_
 _atom_site_type_symbol
 _atom_site_label
 _atom_site_symmetry_multiplicity
 _atom_site_fract_x
 _atom_site_fract_y
 _atom_site_fract_z
 _atom_site_occupancy
  Li  Li0  1  0.21809600  0.56811900  0.94061500  1
  Li  Li1  1  0.78190400  0.43188100  0.05938500  1
  Li  Li2  1  0.28190400  0.56811900  0.44061500  1
  Li  Li3  1  0.71809600  0.43188100  0.55938500  1
  Bi  Bi4  1  0.78182600  0.03331300  0.97846800  1
  Bi  Bi5  1  0.71817400  0.03331300  0.47846800  1
  Bi  Bi6  1  0.28182600  0.96668700  0.52153200  1
  Bi  Bi7  1  0.21817400  0.96668700  0.02153200  1
  P  P8  1  0.90949700  0.07721300  0.69750000  1
  P  P9  1  0.11507200  0.38494700  0.23275000  1
  P  P10  1  0.88492800  0.61505300  0.76725000  1
  P  P11  1  0.62811800  0.83634300  0.80748000  1
  P  P12  1  0.87188200  0.83634300  0.30748000  1
  P  P13  1  0.37188200  0.16365700  0.19252000  1
  P  P14  1  0.10125600  0.49301800  0.76125200  1
  P  P15  1  0.39874400  0.49301800  0.26125200  1
  P  P16  1  0.12811800  0.16365700  0.69252000  1
  P  P17  1  0.60125600  0.50698200  0.73874800  1
  P  P18  1  0.40949700  0.92278700  0.80250000  1
  P  P19  1  0.09050300  0.92278700  0.30250000  1
  P  P20  1  0.89874400  0.50698200  0.23874800  1
  P  P21  1  0.59050300  0.07721300  0.19750000  1
  P  P22  1  0.38492800  0.38494700  0.73275000  1
  P  P23  1  0.61507200  0.61505300  0.26725000  1
  O  O24  1  0.02160800  0.15402200  0.63094700  1
  O  O25  1  0.89231900  0.69222100  0.08917100  1
  O  O26  1  0.12391600  0.40672100  0.66876900  1
  O  O27  1  0.41898500  0.19498000  0.71130700  1
  O  O28  1  0.85350500  0.41193200  0.90576500  1
  O  O29  1  0.33384500  0.69984700  0.21279400  1
  O  O30  1  0.62391600  0.59327900  0.83123100  1
  O  O31  1  0.28876900  0.19366100  0.09826500  1
  O  O32  1  0.87608400  0.59327900  0.33123100  1
  O  O33  1  0.01343600  0.42638500  0.28654800  1
  O  O34  1  0.36657300  0.97453400  0.34106800  1
  O  O35  1  0.33597700  0.83076400  0.91798900  1
  O  O36  1  0.08101500  0.19498000  0.21130700  1
  O  O37  1  0.64649500  0.41193200  0.40576500  1
  O  O38  1  0.31039100  0.29096700  0.84614300  1
  O  O39  1  0.83384500  0.30015300  0.28720600  1
  O  O40  1  0.21123100  0.19366100  0.59826500  1
  O  O41  1  0.18960900  0.29096700  0.34614300  1
  O  O42  1  0.97839200  0.84597800  0.36905300  1
  O  O43  1  0.98656400  0.57361500  0.71345200  1
  O  O44  1  0.81039100  0.70903300  0.65385700  1
  O  O45  1  0.60768100  0.69222100  0.58917100  1
  O  O46  1  0.37608400  0.40672100  0.16876900  1
  O  O47  1  0.91898500  0.80502000  0.78869300  1
  O  O48  1  0.51343600  0.57361500  0.21345200  1
  O  O49  1  0.78876900  0.80633900  0.40173500  1
  O  O50  1  0.16402300  0.83076400  0.41798900  1
  O  O51  1  0.66615500  0.30015300  0.78720600  1
  O  O52  1  0.16615500  0.69984700  0.71279400  1
  O  O53  1  0.60760600  0.14397800  0.29223300  1
  O  O54  1  0.10760600  0.85602200  0.20776700  1
  O  O55  1  0.83597700  0.16923600  0.58201100  1
  O  O56  1  0.71123100  0.80633900  0.90173500  1
  O  O57  1  0.86657300  0.02546600  0.15893200  1
  O  O58  1  0.52160800  0.84597800  0.86905300  1
  O  O59  1  0.39231900  0.30777900  0.41082900  1
  O  O60  1  0.47839200  0.15402200  0.13094700  1
  O  O61  1  0.89239400  0.14397800  0.79223300  1
  O  O62  1  0.63342700  0.02546600  0.65893200  1
  O  O63  1  0.13342700  0.97453400  0.84106800  1
  O  O64  1  0.68960900  0.70903300  0.15385700  1
  O  O65  1  0.66402300  0.16923600  0.08201100  1
  O  O66  1  0.35350500  0.58806800  0.59423500  1
  O  O67  1  0.58101500  0.80502000  0.28869300  1
  O  O68  1  0.48656400  0.42638500  0.78654800  1
  O  O69  1  0.10768100  0.30777900  0.91082900  1
  O  O70  1  0.39239400  0.85602200  0.70776700  1
  O  O71  1  0.14649500  0.58806800  0.09423500  1
