# generated using pymatgen
data_LiTi(PO3)5
_symmetry_space_group_name_H-M   'P 1'
_cell_length_a   9.62392500
_cell_length_b   5.25054100
_cell_length_c   13.13585273
_cell_angle_alpha   71.77641419
_cell_angle_beta   90.00000000
_cell_angle_gamma   90.00000000
_symmetry_Int_Tables_number   1
_chemical_formula_structural   LiTi(PO3)5
_chemical_formula_sum   'Li2 Ti2 P10 O30'
_cell_volume   630.47310282
_cell_formula_units_Z   2
loop_
 _symmetry_equiv_pos_site_id
 _symmetry_equiv_pos_as_xyz
  1  'x, y, z'
loop_
 _atom_site_type_symbol
 _atom_site_label
 _atom_site_symmetry_multiplicity
 _atom_site_fract_x
 _atom_site_fract_y
 _atom_site_fract_z
 _atom_site_occupancy
  Li  Li0  1  0.58387800  0.05260500  0.57074000  1
  Li  Li1  1  0.41612200  0.05260500  0.07074000  1
  Ti  Ti2  1  0.99206600  0.01011400  0.99291600  1
  Ti  Ti3  1  0.00793400  0.01011400  0.49291600  1
  P  P4  1  0.01641000  0.01473500  0.74409200  1
  P  P5  1  0.81361700  0.42048200  0.08511800  1
  P  P6  1  0.48522400  0.51323900  0.86288700  1
  P  P7  1  0.18638300  0.42048200  0.58511800  1
  P  P8  1  0.98359000  0.01473500  0.24409200  1
  P  P9  1  0.48511300  0.47525700  0.64540100  1
  P  P10  1  0.82023600  0.60003100  0.40721400  1
  P  P11  1  0.17976400  0.60003100  0.90721400  1
  P  P12  1  0.51477600  0.51323900  0.36288700  1
  P  P13  1  0.51488700  0.47525700  0.14540100  1
  O  O14  1  0.93893000  0.05066700  0.83985500  1
  O  O15  1  0.58490700  0.48387600  0.25459100  1
  O  O16  1  0.41509300  0.48387600  0.75459100  1
  O  O17  1  0.12186600  0.74061500  0.98509200  1
  O  O18  1  0.88810000  0.27732000  0.20066800  1
  O  O19  1  0.59474100  0.26860300  0.65957300  1
  O  O20  1  0.11517900  0.75841600  0.78935600  1
  O  O21  1  0.59724000  0.71241600  0.84193500  1
  O  O22  1  0.40525900  0.26860300  0.15957300  1
  O  O23  1  0.86643400  0.27630000  0.00746500  1
  O  O24  1  0.50098300  0.74830100  0.57018000  1
  O  O25  1  0.13363600  0.30818400  0.93549400  1
  O  O26  1  0.85314100  0.71566800  0.05308900  1
  O  O27  1  0.49901700  0.74830100  0.07018000  1
  O  O28  1  0.40276000  0.71241600  0.34193500  1
  O  O29  1  0.33996300  0.34839300  0.60449100  1
  O  O30  1  0.88482100  0.75841600  0.28935600  1
  O  O31  1  0.11190000  0.27732000  0.70066800  1
  O  O32  1  0.05804700  0.97608400  0.14814900  1
  O  O33  1  0.33503000  0.65668900  0.89606000  1
  O  O34  1  0.87813400  0.74061500  0.48509200  1
  O  O35  1  0.14685900  0.71566800  0.55308900  1
  O  O36  1  0.66003700  0.34839300  0.10449100  1
  O  O37  1  0.06107000  0.05066700  0.33985500  1
  O  O38  1  0.94195300  0.97608400  0.64814900  1
  O  O39  1  0.51207000  0.24148100  0.44176300  1
  O  O40  1  0.48793000  0.24148100  0.94176300  1
  O  O41  1  0.66497000  0.65668900  0.39606000  1
  O  O42  1  0.13356600  0.27630000  0.50746500  1
  O  O43  1  0.86636400  0.30818400  0.43549400  1
