# generated using pymatgen
data_Li10Ge(PO6)2
_symmetry_space_group_name_H-M   'P 1'
_cell_length_a   6.83682400
_cell_length_b   7.14601780
_cell_length_c   10.52699023
_cell_angle_alpha   89.89309253
_cell_angle_beta   89.84989966
_cell_angle_gamma   89.75412351
_symmetry_Int_Tables_number   1
_chemical_formula_structural   Li10Ge(PO6)2
_chemical_formula_sum   'Li20 Ge2 P4 O24'
_cell_volume   514.29994431
_cell_formula_units_Z   2
loop_
 _symmetry_equiv_pos_site_id
 _symmetry_equiv_pos_as_xyz
  1  'x, y, z'
loop_
 _atom_site_type_symbol
 _atom_site_label
 _atom_site_symmetry_multiplicity
 _atom_site_fract_x
 _atom_site_fract_y
 _atom_site_fract_z
 _atom_site_occupancy
  Li  Li0  1  0.01612900  0.45436200  0.93623700  1
  Li  Li1  1  0.21013200  0.35746100  0.43017300  1
  Li  Li2  1  0.50894300  0.07538200  0.56142200  1
  Li  Li3  1  0.52173200  0.96653200  0.06363400  1
  Li  Li4  1  0.72197900  0.74113200  0.17891700  1
  Li  Li5  1  0.48267300  0.43710400  0.24763800  1
  Li  Li6  1  0.86214700  0.10774700  0.76372700  1
  Li  Li7  1  0.95267000  0.08070700  0.24200800  1
  Li  Li8  1  0.22168200  0.76403900  0.33232000  1
  Li  Li9  1  0.55353000  0.47884600  0.74022200  1
  Li  Li10  1  0.74999300  0.70867500  0.42611700  1
  Li  Li11  1  0.23010700  0.74949700  0.82646600  1
  Li  Li12  1  0.74375500  0.23486800  0.01313000  1
  Li  Li13  1  0.22047900  0.80209600  0.07476100  1
  Li  Li14  1  0.22412900  0.26324400  0.68672600  1
  Li  Li15  1  0.81995000  0.75315900  0.92863400  1
  Li  Li16  1  0.23693900  0.18341600  0.06470100  1
  Li  Li17  1  0.74316500  0.35038000  0.43517800  1
  Li  Li18  1  0.29624400  0.77788000  0.57518000  1
  Li  Li19  1  0.73026100  0.78842400  0.66788400  1
  Ge  Ge20  1  0.98428000  0.49379100  0.19754600  1
  Ge  Ge21  1  0.47936000  0.01453500  0.82089700  1
  P  P22  1  0.98614400  0.02721100  0.50152200  1
  P  P23  1  0.48360200  0.50762800  0.99447300  1
  P  P24  1  0.97448300  0.52352000  0.67216500  1
  P  P25  1  0.48181800  0.02037100  0.31302500  1
  O  O26  1  0.99173500  0.85056900  0.41690700  1
  O  O27  1  0.97543700  0.20229100  0.41343900  1
  O  O28  1  0.67383600  0.50369000  0.91277600  1
  O  O29  1  0.29897800  0.51615300  0.91115800  1
  O  O30  1  0.48367800  0.32394200  0.07602700  1
  O  O31  1  0.48824000  0.68237200  0.08370800  1
  O  O32  1  0.80008800  0.02055900  0.58807900  1
  O  O33  1  0.17187400  0.03781700  0.58543800  1
  O  O34  1  0.96815100  0.68852200  0.08691600  1
  O  O35  1  0.98237300  0.28566900  0.10242600  1
  O  O36  1  0.78190900  0.53501200  0.59052800  1
  O  O37  1  0.16564300  0.51739400  0.59114600  1
  O  O38  1  0.48224700  0.21043500  0.38686100  1
  O  O39  1  0.47624300  0.85606600  0.41322100  1
  O  O40  1  0.70413100  0.00707400  0.91007700  1
  O  O41  1  0.28453900  0.98636900  0.93284400  1
  O  O42  1  0.97729100  0.34647100  0.75832500  1
  O  O43  1  0.97109000  0.70122400  0.75895400  1
  O  O44  1  0.20489800  0.51326600  0.28232100  1
  O  O45  1  0.76339000  0.52392700  0.28974800  1
  O  O46  1  0.46834500  0.80816400  0.72268500  1
  O  O47  1  0.48566500  0.21428800  0.72291300  1
  O  O48  1  0.29918500  0.99944800  0.22407500  1
  O  O49  1  0.66731000  0.00017300  0.22793000  1
