# generated using pymatgen
data_Li2Sb(PO3)5
_symmetry_space_group_name_H-M   'P 1'
_cell_length_a   14.08442500
_cell_length_b   5.48299000
_cell_length_c   9.04114406
_cell_angle_alpha   78.08566567
_cell_angle_beta   90.00000000
_cell_angle_gamma   90.00000000
_symmetry_Int_Tables_number   1
_chemical_formula_structural   Li2Sb(PO3)5
_chemical_formula_sum   'Li4 Sb2 P10 O30'
_cell_volume   683.15912168
_cell_formula_units_Z   2
loop_
 _symmetry_equiv_pos_site_id
 _symmetry_equiv_pos_as_xyz
  1  'x, y, z'
loop_
 _atom_site_type_symbol
 _atom_site_label
 _atom_site_symmetry_multiplicity
 _atom_site_fract_x
 _atom_site_fract_y
 _atom_site_fract_z
 _atom_site_occupancy
  Li  Li0  1  0.64210600  0.93899700  0.07145300  1
  Li  Li1  1  0.35789400  0.06100300  0.92854700  1
  Li  Li2  1  0.85789400  0.93899700  0.07145300  1
  Li  Li3  1  0.14210600  0.06100300  0.92854700  1
  Sb  Sb4  1  0.00000000  0.50000000  0.50000000  1
  Sb  Sb5  1  0.50000000  0.50000000  0.50000000  1
  P  P6  1  0.35427300  0.00748000  0.48037800  1
  P  P7  1  0.41655700  0.32524000  0.17846600  1
  P  P8  1  0.58344300  0.67476000  0.82153400  1
  P  P9  1  0.91655700  0.67476000  0.82153400  1
  P  P10  1  0.75000000  0.45677900  0.00637300  1
  P  P11  1  0.25000000  0.54322100  0.99362700  1
  P  P12  1  0.08344300  0.32524000  0.17846600  1
  P  P13  1  0.85427300  0.99252000  0.51962200  1
  P  P14  1  0.14572700  0.00748000  0.48037800  1
  P  P15  1  0.64572700  0.99252000  0.51962200  1
  O  O16  1  0.94556500  0.82720200  0.93190600  1
  O  O17  1  0.13513300  0.73314600  0.48330200  1
  O  O18  1  0.75000000  0.19517200  0.09956000  1
  O  O19  1  0.35106700  0.15661200  0.30925300  1
  O  O20  1  0.44556500  0.17279800  0.06809400  1
  O  O21  1  0.64893300  0.84338800  0.69074700  1
  O  O22  1  0.65981500  0.46302200  0.89342800  1
  O  O23  1  0.25000000  0.06215100  0.53701900  1
  O  O24  1  0.05443500  0.17279800  0.06809400  1
  O  O25  1  0.63513300  0.26685400  0.51669800  1
  O  O26  1  0.85106700  0.84338800  0.69074700  1
  O  O27  1  0.07830100  0.12634800  0.57528300  1
  O  O28  1  0.00876600  0.45545700  0.25456500  1
  O  O29  1  0.14893300  0.15661200  0.30925300  1
  O  O30  1  0.84018500  0.46302200  0.89342800  1
  O  O31  1  0.50876600  0.54454300  0.74543500  1
  O  O32  1  0.99123400  0.54454300  0.74543500  1
  O  O33  1  0.75000000  0.68672700  0.07279400  1
  O  O34  1  0.25000000  0.80482800  0.90044000  1
  O  O35  1  0.15981500  0.53697800  0.10657200  1
  O  O36  1  0.25000000  0.31327300  0.92720600  1
  O  O37  1  0.57830100  0.87365200  0.42471700  1
  O  O38  1  0.92169900  0.87365200  0.42471700  1
  O  O39  1  0.49123400  0.45545700  0.25456500  1
  O  O40  1  0.86486700  0.26685400  0.51669800  1
  O  O41  1  0.55443500  0.82720200  0.93190600  1
  O  O42  1  0.36486700  0.73314600  0.48330200  1
  O  O43  1  0.75000000  0.93784900  0.46298100  1
  O  O44  1  0.34018500  0.53697800  0.10657200  1
  O  O45  1  0.42169900  0.12634800  0.57528300  1
