# generated using pymatgen
data_LiZnPO4
_symmetry_space_group_name_H-M   'P 1'
_cell_length_a   10.04042092
_cell_length_b   10.04042092
_cell_length_c   17.33761166
_cell_angle_alpha   71.87508848
_cell_angle_beta   71.87508848
_cell_angle_gamma   58.94510550
_symmetry_Int_Tables_number   1
_chemical_formula_structural   LiZnPO4
_chemical_formula_sum   'Li16 Zn16 P16 O64'
_cell_volume   1398.44345290
_cell_formula_units_Z   16
loop_
 _symmetry_equiv_pos_site_id
 _symmetry_equiv_pos_as_xyz
  1  'x, y, z'
loop_
 _atom_site_type_symbol
 _atom_site_label
 _atom_site_symmetry_multiplicity
 _atom_site_fract_x
 _atom_site_fract_y
 _atom_site_fract_z
 _atom_site_occupancy
  Li  Li0  1  0.89256100  0.01904500  0.08897000  1
  Li  Li1  1  0.39380300  0.95930400  0.08825500  1
  Li  Li2  1  0.14442500  0.78603100  0.33932900  1
  Li  Li3  1  0.51880400  0.90569400  0.58974800  1
  Li  Li4  1  0.64682600  0.78347800  0.33902800  1
  Li  Li5  1  0.78347800  0.64682600  0.83902800  1
  Li  Li6  1  0.39539300  0.46528400  0.08644700  1
  Li  Li7  1  0.95930400  0.39380300  0.58825500  1
  Li  Li8  1  0.28381500  0.20531800  0.83900900  1
  Li  Li9  1  0.28616600  0.70727600  0.83785200  1
  Li  Li10  1  0.78603100  0.14442500  0.83932900  1
  Li  Li11  1  0.70727600  0.28616600  0.33785200  1
  Li  Li12  1  0.90569400  0.51880400  0.08974800  1
  Li  Li13  1  0.01904500  0.89256100  0.58897000  1
  Li  Li14  1  0.20531800  0.28381500  0.33900900  1
  Li  Li15  1  0.46528400  0.39539300  0.58644700  1
  Zn  Zn16  1  0.65534300  0.08296200  0.71422200  1
  Zn  Zn17  1  0.58221600  0.64958400  0.21487100  1
  Zn  Zn18  1  0.33772900  0.76460300  0.46415300  1
  Zn  Zn19  1  0.40199700  0.26284200  0.46327900  1
  Zn  Zn20  1  0.83771500  0.76542100  0.46430300  1
  Zn  Zn21  1  0.76460300  0.33772900  0.96415300  1
  Zn  Zn22  1  0.26653500  0.90060200  0.96393200  1
  Zn  Zn23  1  0.76542100  0.83771500  0.96430300  1
  Zn  Zn24  1  0.15230800  0.02835800  0.71428800  1
  Zn  Zn25  1  0.08296200  0.65534300  0.21422200  1
  Zn  Zn26  1  0.26284200  0.40199700  0.96327900  1
  Zn  Zn27  1  0.14924800  0.52720600  0.71472500  1
  Zn  Zn28  1  0.64958400  0.58221600  0.71487100  1
  Zn  Zn29  1  0.90060200  0.26653500  0.46393200  1
  Zn  Zn30  1  0.52720600  0.14924800  0.21472500  1
  Zn  Zn31  1  0.02835800  0.15230800  0.21428800  1
  P  P32  1  0.08615900  0.71047400  0.02449800  1
  P  P33  1  0.96311500  0.83905800  0.77759200  1
  P  P34  1  0.46306600  0.89653800  0.77575700  1
  P  P35  1  0.83905800  0.96311500  0.27759200  1
  P  P36  1  0.64947700  0.58871800  0.52680600  1
  P  P37  1  0.15059700  0.58315700  0.52686000  1
  P  P38  1  0.58871800  0.64947700  0.02680600  1
  P  P39  1  0.96023300  0.33774100  0.77742800  1
  P  P40  1  0.89653800  0.46306600  0.27575700  1
  P  P41  1  0.46046000  0.39472500  0.77575700  1
  P  P42  1  0.71047400  0.08615900  0.52449800  1
  P  P43  1  0.39472500  0.46046000  0.27575700  1
  P  P44  1  0.33774100  0.96023300  0.27742800  1
  P  P45  1  0.08441800  0.20843300  0.02565800  1
  P  P46  1  0.58315700  0.15059700  0.02686000  1
  P  P47  1  0.20843300  0.08441800  0.52565800  1
  O  O48  1  0.25284300  0.62868600  0.26290300  1
  O  O49  1  0.69767500  0.69445000  0.44839600  1
  O  O50  1  0.47635100  0.53342100  0.78728800  1
  O  O51  1  0.06736000  0.37725000  0.01001700  1
  O  O52  1  0.60418800  0.66898800  0.60108000  1
  O  O53  1  0.91964500  0.21797700  0.03909100  1
  O  O54  1  0.94165500  0.88673200  0.19952500  1
  O  O55  1  0.19434700  0.69484600  0.45029400  1
  O  O56  1  0.16328900  0.60489700  0.10152500  1
  O  O57  1  0.12434900  0.33156700  0.76125000  1
  O  O58  1  0.01000000  0.57121500  0.51507300  1
  O  O59  1  0.87918900  0.06899700  0.50932500  1
  O  O60  1  0.75155800  0.62898200  0.26238200  1
  O  O61  1  0.65620800  0.10642300  0.10400300  1
  O  O62  1  0.69445000  0.69767500  0.94839600  1
  O  O63  1  0.72071600  0.92061700  0.53952500  1
  O  O64  1  0.66898800  0.60418800  0.10108000  1
  O  O65  1  0.29278800  0.41527500  0.53956000  1
  O  O66  1  0.41914900  0.84782800  0.35210300  1
  O  O67  1  0.57459100  0.51023000  0.01531200  1
  O  O68  1  0.63091000  0.19721000  0.44884000  1
  O  O69  1  0.51023000  0.57459100  0.51531200  1
  O  O70  1  0.16530600  0.98518400  0.29452400  1
  O  O71  1  0.83196800  0.12784700  0.26203200  1
  O  O72  1  0.19972100  0.12870000  0.95053900  1
  O  O73  1  0.19721000  0.63091000  0.94884000  1
  O  O74  1  0.33156700  0.12434900  0.26125000  1
  O  O75  1  0.92061700  0.72071600  0.03952500  1
  O  O76  1  0.12870000  0.19972100  0.45053900  1
  O  O77  1  0.98518400  0.16530600  0.79452400  1
  O  O78  1  0.98495900  0.66873700  0.79377400  1
  O  O79  1  0.57121500  0.01000000  0.01507300  1
  O  O80  1  0.43719500  0.87957700  0.20075900  1
  O  O81  1  0.12784700  0.83196800  0.76203200  1
  O  O82  1  0.87957700  0.43719500  0.70075900  1
  O  O83  1  0.69484600  0.19434700  0.95029400  1
  O  O84  1  0.44158600  0.38293400  0.19998000  1
  O  O85  1  0.10642300  0.65620800  0.60400300  1
  O  O86  1  0.38553200  0.94606200  0.69944300  1
  O  O87  1  0.34919900  0.35100100  0.35275400  1
  O  O88  1  0.85294600  0.35090900  0.35224100  1
  O  O89  1  0.84782800  0.41914900  0.85210300  1
  O  O90  1  0.03206700  0.48235900  0.28769300  1
  O  O91  1  0.21797700  0.91964500  0.53909100  1
  O  O92  1  0.41527400  0.29278800  0.03956000  1
  O  O93  1  0.60489700  0.16328900  0.60152500  1
  O  O94  1  0.15740900  0.10315100  0.10409800  1
  O  O95  1  0.41890800  0.79012500  0.04093800  1
  O  O96  1  0.37725000  0.06736000  0.51001700  1
  O  O97  1  0.79012500  0.41890800  0.54093800  1
  O  O98  1  0.38293400  0.44158600  0.69998000  1
  O  O99  1  0.66873700  0.98495900  0.29377400  1
  O  O100  1  0.53342100  0.47635100  0.28728800  1
  O  O101  1  0.48235900  0.03206700  0.78769300  1
  O  O102  1  0.06899700  0.87918900  0.00932500  1
  O  O103  1  0.88673200  0.94165500  0.69952500  1
  O  O104  1  0.10315100  0.15740900  0.60409800  1
  O  O105  1  0.92014700  0.84940900  0.35226300  1
  O  O106  1  0.35090900  0.85294600  0.85224100  1
  O  O107  1  0.94606200  0.38553200  0.19944300  1
  O  O108  1  0.84940900  0.92014700  0.85226300  1
  O  O109  1  0.62898200  0.75155800  0.76238200  1
  O  O110  1  0.62868600  0.25284300  0.76290300  1
  O  O111  1  0.35100100  0.34919900  0.85275400  1
