# generated using pymatgen
data_Cs2Li3I5
_symmetry_space_group_name_H-M   'P 1'
_cell_length_a   4.75266948
_cell_length_b   8.83605303
_cell_length_c   10.93680331
_cell_angle_alpha   67.24793633
_cell_angle_beta   77.46215113
_cell_angle_gamma   74.41396353
_symmetry_Int_Tables_number   1
_chemical_formula_structural   Cs2Li3I5
_chemical_formula_sum   'Cs2 Li3 I5'
_cell_volume   404.65111020
_cell_formula_units_Z   1
loop_
 _symmetry_equiv_pos_site_id
 _symmetry_equiv_pos_as_xyz
  1  'x, y, z'
loop_
 _atom_site_type_symbol
 _atom_site_label
 _atom_site_symmetry_multiplicity
 _atom_site_fract_x
 _atom_site_fract_y
 _atom_site_fract_z
 _atom_site_occupancy
  Cs  Cs0  1  0.68124965  0.85941114  0.77293807  1
  Cs  Cs1  1  0.31403961  0.14501894  0.22681287  1
  Li  Li2  1  0.04602379  0.69505165  0.20587074  1
  Li  Li3  1  0.50787439  0.50039785  0.49740614  1
  Li  Li4  1  0.94367419  0.31175107  0.79387189  1
  I  I5  1  0.35674848  0.47711934  0.80355844  1
  I  I6  1  0.09847621  0.24306753  0.56179387  1
  I  I7  1  0.89698019  0.76386513  0.43768758  1
  I  I8  1  0.63403887  0.52716907  0.19936117  1
  I  I9  1  0.99807561  0.00259528  0.99953224  1
