# generated using pymatgen
data_LiAlSiO4
_symmetry_space_group_name_H-M   'P 1'
_cell_length_a   10.58799779
_cell_length_b   10.58799779
_cell_length_c   11.38497300
_cell_angle_alpha   90.00000000
_cell_angle_beta   90.00000000
_cell_angle_gamma   119.99999868
_symmetry_Int_Tables_number   1
_chemical_formula_structural   LiAlSiO4
_chemical_formula_sum   'Li12 Al12 Si12 O48'
_cell_volume   1105.32584868
_cell_formula_units_Z   12
loop_
 _symmetry_equiv_pos_site_id
 _symmetry_equiv_pos_as_xyz
  1  'x, y, z'
loop_
 _atom_site_type_symbol
 _atom_site_label
 _atom_site_symmetry_multiplicity
 _atom_site_fract_x
 _atom_site_fract_y
 _atom_site_fract_z
 _atom_site_occupancy
  Li  Li0  1  0.50000000  0.00000000  0.00000000  1
  Li  Li1  1  0.50000000  0.50000000  0.66666700  1
  Li  Li2  1  0.00000000  0.50000000  0.33333300  1
  Li  Li3  1  0.00000000  0.00000000  0.50000000  1
  Li  Li4  1  0.00000000  0.00000000  0.16666700  1
  Li  Li5  1  0.00000000  0.00000000  0.83333300  1
  Li  Li6  1  0.50000000  0.00000000  0.32805500  1
  Li  Li7  1  0.50000000  0.50000000  0.99472200  1
  Li  Li8  1  0.00000000  0.50000000  0.66138900  1
  Li  Li9  1  0.50000000  0.00000000  0.67194500  1
  Li  Li10  1  0.50000000  0.50000000  0.33861100  1
  Li  Li11  1  0.00000000  0.50000000  0.00527800  1
  Al  Al12  1  0.25096300  0.25096300  0.16666700  1
  Al  Al13  1  0.00000000  0.74903700  0.83333300  1
  Al  Al14  1  0.00000000  0.25096300  0.83333300  1
  Al  Al15  1  0.25096300  0.00000000  0.50000000  1
  Al  Al16  1  0.74903700  0.74903700  0.16666700  1
  Al  Al17  1  0.74903700  0.00000000  0.50000000  1
  Al  Al18  1  0.25119300  0.50238600  0.50000000  1
  Al  Al19  1  0.74880700  0.25119300  0.16666700  1
  Al  Al20  1  0.50238600  0.25119300  0.83333300  1
  Al  Al21  1  0.49761400  0.74880700  0.83333300  1
  Al  Al22  1  0.25119300  0.74880700  0.16666700  1
  Al  Al23  1  0.74880700  0.49761400  0.50000000  1
  Si  Si24  1  0.24743600  0.00000000  0.00000000  1
  Si  Si25  1  0.24743600  0.24743600  0.66666700  1
  Si  Si26  1  0.00000000  0.75256400  0.33333300  1
  Si  Si27  1  0.00000000  0.24743600  0.33333300  1
  Si  Si28  1  0.75256400  0.75256400  0.66666700  1
  Si  Si29  1  0.75256400  0.00000000  0.00000000  1
  Si  Si30  1  0.24826500  0.49653100  0.00000000  1
  Si  Si31  1  0.75173500  0.24826500  0.66666700  1
  Si  Si32  1  0.49653100  0.24826500  0.33333300  1
  Si  Si33  1  0.50346900  0.75173500  0.33333300  1
  Si  Si34  1  0.24826500  0.75173500  0.66666700  1
  Si  Si35  1  0.75173500  0.50346900  0.00000000  1
  O  O36  1  0.89422800  0.29377700  0.26268600  1
  O  O37  1  0.59183400  0.39179900  0.41573700  1
  O  O38  1  0.60820100  0.20003500  0.74907000  1
  O  O39  1  0.79996500  0.40816600  0.08240400  1
  O  O40  1  0.20003500  0.59183400  0.08240400  1
  O  O41  1  0.40816600  0.79996500  0.25093000  1
  O  O42  1  0.40816600  0.60820100  0.41573700  1
  O  O43  1  0.39179900  0.79996500  0.74907000  1
  O  O44  1  0.60820100  0.40816600  0.91759600  1
  O  O45  1  0.79996500  0.39179900  0.58426300  1
  O  O46  1  0.20003500  0.60820100  0.58426300  1
  O  O47  1  0.39179900  0.59183400  0.91759600  1
  O  O48  1  0.59183400  0.20003500  0.25093000  1
  O  O49  1  0.39954800  0.29377700  0.73731400  1
  O  O50  1  0.70622300  0.10577200  0.07064800  1
  O  O51  1  0.89422800  0.60045200  0.40398100  1
  O  O52  1  0.10577200  0.39954800  0.40398100  1
  O  O53  1  0.60045200  0.89422800  0.92935200  1
  O  O54  1  0.60045200  0.70622300  0.73731400  1
  O  O55  1  0.39956800  0.30295700  0.26027600  1
  O  O56  1  0.70622300  0.60045200  0.59601900  1
  O  O57  1  0.10577200  0.70622300  0.26268600  1
  O  O58  1  0.29377700  0.39954800  0.59601900  1
  O  O59  1  0.39954800  0.10577200  0.92935200  1
  O  O60  1  0.19784900  0.08701900  0.09076000  1
  O  O61  1  0.11083000  0.19784900  0.75742700  1
  O  O62  1  0.08701900  0.88917000  0.42409400  1
  O  O63  1  0.91298100  0.11083000  0.42409400  1
  O  O64  1  0.88917000  0.80215100  0.75742700  1
  O  O65  1  0.11083000  0.91298100  0.90924000  1
  O  O66  1  0.80215100  0.88917000  0.57590600  1
  O  O67  1  0.80215100  0.91298100  0.09076000  1
  O  O68  1  0.08701900  0.19784900  0.24257300  1
  O  O69  1  0.91298100  0.80215100  0.24257300  1
  O  O70  1  0.88917000  0.08701900  0.90924000  1
  O  O71  1  0.19784900  0.11083000  0.57590600  1
  O  O72  1  0.39956800  0.09661100  0.40639100  1
  O  O73  1  0.30295700  0.39956800  0.07305700  1
  O  O74  1  0.09661100  0.69704300  0.73972400  1
  O  O75  1  0.90338900  0.30295700  0.73972400  1
  O  O76  1  0.69704300  0.60043200  0.07305700  1
  O  O77  1  0.30295700  0.90338900  0.59360900  1
  O  O78  1  0.60043200  0.69704300  0.26027600  1
  O  O79  1  0.60043200  0.90338900  0.40639100  1
  O  O80  1  0.09661100  0.39956800  0.92694300  1
  O  O81  1  0.90338900  0.60043200  0.92694300  1
  O  O82  1  0.69704300  0.09661100  0.59360900  1
  O  O83  1  0.29377700  0.89422800  0.07064800  1
