# generated using pymatgen
data_Li2Cr5(PO4)4
_symmetry_space_group_name_H-M   'P 1'
_cell_length_a   5.46658400
_cell_length_b   8.07589104
_cell_length_c   8.53418526
_cell_angle_alpha   114.94323706
_cell_angle_beta   88.59668738
_cell_angle_gamma   101.31129603
_symmetry_Int_Tables_number   1
_chemical_formula_structural   Li2Cr5(PO4)4
_chemical_formula_sum   'Li2 Cr5 P4 O16'
_cell_volume   334.26632114
_cell_formula_units_Z   1
loop_
 _symmetry_equiv_pos_site_id
 _symmetry_equiv_pos_as_xyz
  1  'x, y, z'
loop_
 _atom_site_type_symbol
 _atom_site_label
 _atom_site_symmetry_multiplicity
 _atom_site_fract_x
 _atom_site_fract_y
 _atom_site_fract_z
 _atom_site_occupancy
  Li  Li0  1  0.64178300  0.09296700  0.27453800  1
  Li  Li1  1  0.35821700  0.90703300  0.72546200  1
  Cr  Cr2  1  0.66479000  0.41813200  0.68231800  1
  Cr  Cr3  1  0.12181700  0.24879600  0.78273100  1
  Cr  Cr4  1  0.00000000  0.00000000  0.00000000  1
  Cr  Cr5  1  0.87818300  0.75120400  0.21726900  1
  Cr  Cr6  1  0.33521000  0.58186800  0.31768200  1
  P  P7  1  0.12822100  0.20856000  0.42013900  1
  P  P8  1  0.87177900  0.79144000  0.57986100  1
  P  P9  1  0.64044900  0.29916400  0.01960600  1
  P  P10  1  0.35955100  0.70083600  0.98039400  1
  O  O11  1  0.28718400  0.35376200  0.36960900  1
  O  O12  1  0.12389900  0.74300900  0.50413700  1
  O  O13  1  0.63436700  0.49626500  0.16760400  1
  O  O14  1  0.62545400  0.81046000  0.05646300  1
  O  O15  1  0.21162900  0.66684900  0.12740700  1
  O  O16  1  0.05233200  0.02020100  0.25049500  1
  O  O17  1  0.71281600  0.64623800  0.63039100  1
  O  O18  1  0.36563300  0.50373500  0.83239600  1
  O  O19  1  0.37454600  0.18954000  0.94353700  1
  O  O20  1  0.78837100  0.33315100  0.87259300  1
  O  O21  1  0.71068300  0.83187100  0.45751400  1
  O  O22  1  0.28931700  0.16812900  0.54248600  1
  O  O23  1  0.77072100  0.19321300  0.09511200  1
  O  O24  1  0.87610100  0.25699100  0.49586300  1
  O  O25  1  0.94766800  0.97979900  0.74950500  1
  O  O26  1  0.22927900  0.80678700  0.90488800  1
