# generated using pymatgen
data_LiAg2P3(HO5)2
_symmetry_space_group_name_H-M   'P 1'
_cell_length_a   7.72753600
_cell_length_b   7.73149903
_cell_length_c   8.51464528
_cell_angle_alpha   72.83767328
_cell_angle_beta   73.61060107
_cell_angle_gamma   72.78607842
_symmetry_Int_Tables_number   1
_chemical_formula_structural   LiAg2P3(HO5)2
_chemical_formula_sum   'Li2 Ag4 P6 H4 O20'
_cell_volume   453.58423357
_cell_formula_units_Z   2
loop_
 _symmetry_equiv_pos_site_id
 _symmetry_equiv_pos_as_xyz
  1  'x, y, z'
loop_
 _atom_site_type_symbol
 _atom_site_label
 _atom_site_symmetry_multiplicity
 _atom_site_fract_x
 _atom_site_fract_y
 _atom_site_fract_z
 _atom_site_occupancy
  Li  Li0  1  0.08125000  0.29556500  0.33530200  1
  Li  Li1  1  0.91875000  0.70443500  0.66469800  1
  Ag  Ag2  1  0.33940400  0.56177700  0.40403400  1
  Ag  Ag3  1  0.66059600  0.43822300  0.59596600  1
  Ag  Ag4  1  0.41746100  0.30431800  0.98509500  1
  Ag  Ag5  1  0.58253900  0.69568200  0.01490500  1
  P  P6  1  0.73567300  0.23863400  0.26768700  1
  P  P7  1  0.26432700  0.76136600  0.73231300  1
  P  P8  1  0.09990700  0.71328700  0.09409700  1
  P  P9  1  0.90009300  0.28671300  0.90590300  1
  P  P10  1  0.73866600  0.82456000  0.32642200  1
  P  P11  1  0.26133400  0.17544000  0.67357800  1
  H  H12  1  0.77519700  0.98953100  0.82253100  1
  H  H13  1  0.22480300  0.01046900  0.17746900  1
  H  H14  1  0.34960600  0.00530600  0.29280400  1
  H  H15  1  0.65039400  0.99469400  0.70719600  1
  O  O16  1  0.82423800  0.26063500  0.39530500  1
  O  O17  1  0.17576200  0.73936500  0.60469500  1
  O  O18  1  0.56916900  0.38485600  0.21670300  1
  O  O19  1  0.43083100  0.61514400  0.78329700  1
  O  O20  1  0.67725800  0.04245700  0.33107500  1
  O  O21  1  0.32274200  0.95754300  0.66892500  1
  O  O22  1  0.89955000  0.21488800  0.10492400  1
  O  O23  1  0.10045000  0.78511200  0.89507600  1
  O  O24  1  0.57098500  0.77978500  0.30476200  1
  O  O25  1  0.42901500  0.22021500  0.69523800  1
  O  O26  1  0.82770200  0.71080200  0.47156900  1
  O  O27  1  0.17229800  0.28919800  0.52843100  1
  O  O28  1  0.89028700  0.82746300  0.15096100  1
  O  O29  1  0.10971300  0.17253700  0.84903900  1
  O  O30  1  0.23564100  0.79166000  0.13460500  1
  O  O31  1  0.76435900  0.20834000  0.86539500  1
  O  O32  1  0.11670100  0.50705100  0.14807100  1
  O  O33  1  0.88329900  0.49294900  0.85192900  1
  O  O34  1  0.74338500  0.90777300  0.76995400  1
  O  O35  1  0.25661500  0.09222700  0.23004600  1
