# generated using pymatgen
data_Li(YbGe)4
_symmetry_space_group_name_H-M   'P 1'
_cell_length_a   7.26589600
_cell_length_b   7.84973600
_cell_length_c   15.26172900
_cell_angle_alpha   90.00000000
_cell_angle_beta   90.00000000
_cell_angle_gamma   90.00000000
_symmetry_Int_Tables_number   1
_chemical_formula_structural   Li(YbGe)4
_chemical_formula_sum   'Li4 Yb16 Ge16'
_cell_volume   870.45829020
_cell_formula_units_Z   4
loop_
 _symmetry_equiv_pos_site_id
 _symmetry_equiv_pos_as_xyz
  1  'x, y, z'
loop_
 _atom_site_type_symbol
 _atom_site_label
 _atom_site_symmetry_multiplicity
 _atom_site_fract_x
 _atom_site_fract_y
 _atom_site_fract_z
 _atom_site_occupancy
  Li  Li0  1  0.65809300  0.02125600  0.75000000  1
  Li  Li1  1  0.34190700  0.97874400  0.25000000  1
  Li  Li2  1  0.84190700  0.52125600  0.25000000  1
  Li  Li3  1  0.15809300  0.47874400  0.75000000  1
  Yb  Yb4  1  0.32811000  0.82134400  0.62826000  1
  Yb  Yb5  1  0.48592700  0.31684900  0.59811000  1
  Yb  Yb6  1  0.51407300  0.68315100  0.40189000  1
  Yb  Yb7  1  0.17189000  0.32134400  0.12826000  1
  Yb  Yb8  1  0.98592700  0.18315100  0.59811000  1
  Yb  Yb9  1  0.01407300  0.81684900  0.09811000  1
  Yb  Yb10  1  0.82811000  0.67865600  0.87174000  1
  Yb  Yb11  1  0.67189000  0.17865600  0.37174000  1
  Yb  Yb12  1  0.01407300  0.81684900  0.40189000  1
  Yb  Yb13  1  0.98592700  0.18315100  0.90189000  1
  Yb  Yb14  1  0.32811000  0.82134400  0.87174000  1
  Yb  Yb15  1  0.82811000  0.67865600  0.62826000  1
  Yb  Yb16  1  0.67189000  0.17865600  0.12826000  1
  Yb  Yb17  1  0.17189000  0.32134400  0.37174000  1
  Yb  Yb18  1  0.51407300  0.68315100  0.09811000  1
  Yb  Yb19  1  0.48592700  0.31684900  0.90189000  1
  Ge  Ge20  1  0.22860000  0.63285800  0.25000000  1
  Ge  Ge21  1  0.84344800  0.46907500  0.46611400  1
  Ge  Ge22  1  0.34344800  0.03092500  0.46611400  1
  Ge  Ge23  1  0.65655200  0.96907500  0.96611400  1
  Ge  Ge24  1  0.27140000  0.13285800  0.75000000  1
  Ge  Ge25  1  0.52157900  0.58352900  0.75000000  1
  Ge  Ge26  1  0.15655200  0.53092500  0.96611400  1
  Ge  Ge27  1  0.77140000  0.36714200  0.75000000  1
  Ge  Ge28  1  0.15655200  0.53092500  0.53388600  1
  Ge  Ge29  1  0.47842100  0.41647100  0.25000000  1
  Ge  Ge30  1  0.97842100  0.08352900  0.25000000  1
  Ge  Ge31  1  0.72860000  0.86714200  0.25000000  1
  Ge  Ge32  1  0.02157900  0.91647100  0.75000000  1
  Ge  Ge33  1  0.34344800  0.03092500  0.03388600  1
  Ge  Ge34  1  0.84344800  0.46907500  0.03388600  1
  Ge  Ge35  1  0.65655200  0.96907500  0.53388600  1
