# generated using pymatgen
data_LiBi(PO3)4
_symmetry_space_group_name_H-M   'P 1'
_cell_length_a   7.91236391
_cell_length_b   7.91236391
_cell_length_c   17.59899500
_cell_angle_alpha   90.00000000
_cell_angle_beta   90.00000000
_cell_angle_gamma   96.96909484
_symmetry_Int_Tables_number   1
_chemical_formula_structural   LiBi(PO3)4
_chemical_formula_sum   'Li4 Bi4 P16 O48'
_cell_volume   1093.65359134
_cell_formula_units_Z   4
loop_
 _symmetry_equiv_pos_site_id
 _symmetry_equiv_pos_as_xyz
  1  'x, y, z'
loop_
 _atom_site_type_symbol
 _atom_site_label
 _atom_site_symmetry_multiplicity
 _atom_site_fract_x
 _atom_site_fract_y
 _atom_site_fract_z
 _atom_site_occupancy
  Li  Li0  1  0.79464000  0.90860500  0.14202700  1
  Li  Li1  1  0.20536000  0.09139500  0.64202700  1
  Li  Li2  1  0.09139500  0.20536000  0.35797300  1
  Li  Li3  1  0.90860500  0.79464000  0.85797300  1
  Bi  Bi4  1  0.97741100  0.58788700  0.13999800  1
  Bi  Bi5  1  0.58788700  0.97741100  0.86000200  1
  Bi  Bi6  1  0.41211300  0.02258900  0.36000200  1
  Bi  Bi7  1  0.02258900  0.41211300  0.63999800  1
  P  P8  1  0.68933300  0.21388000  0.50919100  1
  P  P9  1  0.34908300  0.34908300  0.50000000  1
  P  P10  1  0.71545000  0.67962200  0.69296300  1
  P  P11  1  0.74477500  0.03424400  0.65496300  1
  P  P12  1  0.25522500  0.96575600  0.15496300  1
  P  P13  1  0.35992000  0.64008000  0.75000000  1
  P  P14  1  0.32037800  0.28455000  0.80703700  1
  P  P15  1  0.03424400  0.74477500  0.34503700  1
  P  P16  1  0.96575600  0.25522500  0.84503700  1
  P  P17  1  0.28455000  0.32037800  0.19296300  1
  P  P18  1  0.65091700  0.65091700  0.00000000  1
  P  P19  1  0.64008000  0.35992000  0.25000000  1
  P  P20  1  0.31066700  0.78612000  0.00919100  1
  P  P21  1  0.67962200  0.71545000  0.30703700  1
  P  P22  1  0.78612000  0.31066700  0.99080900  1
  P  P23  1  0.21388000  0.68933300  0.49080900  1
  O  O24  1  0.93936700  0.35565100  0.77518600  1
  O  O25  1  0.19543400  0.61455200  0.70716700  1
  O  O26  1  0.89885100  0.06737700  0.85085700  1
  O  O27  1  0.53417700  0.78549200  0.34578800  1
  O  O28  1  0.35565100  0.93936700  0.22481400  1
  O  O29  1  0.22203900  0.26085900  0.26967500  1
  O  O30  1  0.34925500  0.54975200  0.48854000  1
  O  O31  1  0.26085900  0.22203900  0.73032500  1
  O  O32  1  0.51199500  0.62299800  0.69146300  1
  O  O33  1  0.64434900  0.06063300  0.72481400  1
  O  O34  1  0.65074500  0.45024800  0.98854000  1
  O  O35  1  0.62299800  0.51199500  0.30853700  1
  O  O36  1  0.28524800  0.25728200  0.42820400  1
  O  O37  1  0.06737700  0.89885100  0.14914300  1
  O  O38  1  0.61455200  0.19543400  0.29283300  1
  O  O39  1  0.83412300  0.73277800  0.36701500  1
  O  O40  1  0.31044700  0.86329200  0.48224700  1
  O  O41  1  0.16587700  0.26722200  0.86701500  1
  O  O42  1  0.89968200  0.34893400  0.05873700  1
  O  O43  1  0.74271800  0.71475200  0.07179600  1
  O  O44  1  0.86329200  0.31044700  0.51775300  1
  O  O45  1  0.37700200  0.48800500  0.80853700  1
  O  O46  1  0.10114900  0.93262300  0.35085700  1
  O  O47  1  0.68955300  0.13670800  0.98224700  1
  O  O48  1  0.63901700  0.10387600  0.58548000  1
  O  O49  1  0.73277800  0.83412300  0.63298500  1
  O  O50  1  0.48800500  0.37700200  0.19146300  1
  O  O51  1  0.34893400  0.89968200  0.94126300  1
  O  O52  1  0.71475200  0.74271800  0.92820400  1
  O  O53  1  0.10387600  0.63901700  0.41452000  1
  O  O54  1  0.10031800  0.65106600  0.55873700  1
  O  O55  1  0.65106600  0.10031800  0.44126300  1
  O  O56  1  0.46582300  0.21450800  0.84578800  1
  O  O57  1  0.38544800  0.80456600  0.79283300  1
  O  O58  1  0.25728200  0.28524800  0.57179600  1
  O  O59  1  0.80456600  0.38544800  0.20716700  1
  O  O60  1  0.73914100  0.77796100  0.23032500  1
  O  O61  1  0.36098300  0.89612400  0.08548000  1
  O  O62  1  0.26722200  0.16587700  0.13298500  1
  O  O63  1  0.06063300  0.64434900  0.27518600  1
  O  O64  1  0.45024800  0.65074500  0.01146000  1
  O  O65  1  0.21450800  0.46582300  0.15421200  1
  O  O66  1  0.54975200  0.34925500  0.51146000  1
  O  O67  1  0.93262300  0.10114900  0.64914300  1
  O  O68  1  0.77796100  0.73914100  0.76967500  1
  O  O69  1  0.89612400  0.36098300  0.91452000  1
  O  O70  1  0.13670800  0.68955300  0.01775300  1
  O  O71  1  0.78549200  0.53417700  0.65421200  1
