# generated using pymatgen
data_Li4MoO5
_symmetry_space_group_name_H-M   'P 1'
_cell_length_a   5.13217814
_cell_length_b   5.13217814
_cell_length_c   5.13217814
_cell_angle_alpha   99.99272817
_cell_angle_beta   99.99272817
_cell_angle_gamma   130.76466456
_symmetry_Int_Tables_number   1
_chemical_formula_structural   Li4MoO5
_chemical_formula_sum   'Li4 Mo1 O5'
_cell_volume   93.07747543
_cell_formula_units_Z   1
loop_
 _symmetry_equiv_pos_site_id
 _symmetry_equiv_pos_as_xyz
  1  'x, y, z'
loop_
 _atom_site_type_symbol
 _atom_site_label
 _atom_site_symmetry_multiplicity
 _atom_site_fract_x
 _atom_site_fract_y
 _atom_site_fract_z
 _atom_site_occupancy
  Li  Li0  1  0.81540000  0.59764400  0.41044400  1
  Li  Li1  1  0.59764400  0.18720000  0.78224400  1
  Li  Li2  1  0.40495600  0.81540000  0.21775600  1
  Li  Li3  1  0.18720000  0.40495600  0.58955600  1
  Mo  Mo4  1  0.04985300  0.04985300  0.00000000  1
  O  O5  1  0.26094800  0.07377900  0.36204100  1
  O  O6  1  0.07377900  0.71173700  0.81283100  1
  O  O7  1  0.89890700  0.26094800  0.18716900  1
  O  O8  1  0.71173700  0.89890700  0.63795900  1
  O  O9  1  0.48127700  0.48127700  0.00000000  1
