# generated using pymatgen
data_Li7(Mo3S4)4
_symmetry_space_group_name_H-M   'P 1'
_cell_length_a   6.67841900
_cell_length_b   6.69354638
_cell_length_c   13.39581499
_cell_angle_alpha   94.55349056
_cell_angle_beta   94.20015723
_cell_angle_gamma   94.92951902
_symmetry_Int_Tables_number   1
_chemical_formula_structural   Li7(Mo3S4)4
_chemical_formula_sum   'Li7 Mo12 S16'
_cell_volume   592.79015073
_cell_formula_units_Z   1
loop_
 _symmetry_equiv_pos_site_id
 _symmetry_equiv_pos_as_xyz
  1  'x, y, z'
loop_
 _atom_site_type_symbol
 _atom_site_label
 _atom_site_symmetry_multiplicity
 _atom_site_fract_x
 _atom_site_fract_y
 _atom_site_fract_z
 _atom_site_occupancy
  Li  Li0  1  0.05030500  0.09463100  0.43909200  1
  Li  Li1  1  0.40111800  0.96798100  0.00857300  1
  Li  Li2  1  0.57834800  0.01916000  0.49131000  1
  Li  Li3  1  0.90800500  0.12907000  0.97548800  1
  Li  Li4  1  0.98150700  0.59782600  0.51465700  1
  Li  Li5  1  0.97672400  0.01732300  0.70901000  1
  Li  Li6  1  0.97739900  0.01461000  0.20495300  1
  Mo  Mo7  1  0.23316100  0.41092000  0.77475400  1
  Mo  Mo8  1  0.23264500  0.41313000  0.27352700  1
  Mo  Mo9  1  0.45436300  0.76786500  0.79576200  1
  Mo  Mo10  1  0.41330400  0.54332300  0.61740300  1
  Mo  Mo11  1  0.45451700  0.76665100  0.29348200  1
  Mo  Mo12  1  0.41206700  0.54470700  0.11515600  1
  Mo  Mo13  1  0.58766500  0.45515100  0.88612400  1
  Mo  Mo14  1  0.54554500  0.22917900  0.70726900  1
  Mo  Mo15  1  0.58712100  0.45346300  0.38364600  1
  Mo  Mo16  1  0.54530400  0.23221700  0.20532400  1
  Mo  Mo17  1  0.76673800  0.58691300  0.72936900  1
  Mo  Mo18  1  0.76990500  0.58823200  0.22609400  1
  S  S19  1  0.13264000  0.70950000  0.68901400  1
  S  S20  1  0.13492400  0.70816300  0.18697800  1
  S  S21  1  0.28595000  0.62130800  0.93543400  1
  S  S22  1  0.21685600  0.21206200  0.60812900  1
  S  S23  1  0.29013700  0.62562600  0.43466600  1
  S  S24  1  0.21292200  0.21588100  0.10681100  1
  S  S25  1  0.37475700  0.13076600  0.85626500  1
  S  S26  1  0.37112600  0.12906500  0.35603100  1
  S  S27  1  0.62681100  0.86708000  0.64564600  1
  S  S28  1  0.62798500  0.86970300  0.14282000  1
  S  S29  1  0.78115500  0.78596700  0.89278500  1
  S  S30  1  0.71212400  0.37051900  0.56515600  1
  S  S31  1  0.78942300  0.78796300  0.39138700  1
  S  S32  1  0.71726000  0.37729600  0.06702000  1
  S  S33  1  0.86827700  0.28739800  0.81421000  1
  S  S34  1  0.86791100  0.28735000  0.31315300  1
