# generated using pymatgen
data_Li19Mn5N9
_symmetry_space_group_name_H-M   'P 1'
_cell_length_a   7.45135909
_cell_length_b   7.45135909
_cell_length_c   11.38490682
_cell_angle_alpha   59.33722322
_cell_angle_beta   59.33722322
_cell_angle_gamma   50.85234328
_symmetry_Int_Tables_number   1
_chemical_formula_structural   Li19Mn5N9
_chemical_formula_sum   'Li19 Mn5 N9'
_cell_volume   404.58671281
_cell_formula_units_Z   1
loop_
 _symmetry_equiv_pos_site_id
 _symmetry_equiv_pos_as_xyz
  1  'x, y, z'
loop_
 _atom_site_type_symbol
 _atom_site_label
 _atom_site_symmetry_multiplicity
 _atom_site_fract_x
 _atom_site_fract_y
 _atom_site_fract_z
 _atom_site_occupancy
  Li  Li0  1  0.26387800  0.00229000  0.07460200  1
  Li  Li1  1  0.63478700  0.99977500  0.12180400  1
  Li  Li2  1  0.73922300  0.26393600  0.17166500  1
  Li  Li3  1  0.26727800  0.99115100  0.41786000  1
  Li  Li4  1  0.66679000  0.66610900  0.05299400  1
  Li  Li5  1  0.34153400  0.33345300  0.27288800  1
  Li  Li6  1  0.72027700  0.27972300  0.50000000  1
  Li  Li7  1  0.99928200  0.74031000  0.25344200  1
  Li  Li8  1  0.25969000  0.00071800  0.74655800  1
  Li  Li9  1  0.65710300  0.67362700  0.39127200  1
  Li  Li10  1  0.32637300  0.34289700  0.60872800  1
  Li  Li11  1  0.36574900  0.62703800  0.33395000  1
  Li  Li12  1  0.73606400  0.26077700  0.82833500  1
  Li  Li13  1  0.00884900  0.73272200  0.58214000  1
  Li  Li14  1  0.66654700  0.65846600  0.72711200  1
  Li  Li15  1  0.33389100  0.33321000  0.94700600  1
  Li  Li16  1  0.37296200  0.63425100  0.66605000  1
  Li  Li17  1  0.00022500  0.36521300  0.87819600  1
  Li  Li18  1  0.99771000  0.73612200  0.92539800  1
  Mn  Mn19  1  0.00329500  0.37240700  0.20995400  1
  Mn  Mn20  1  0.63087800  0.99801000  0.45853500  1
  Mn  Mn21  1  0.00199000  0.36912200  0.54146500  1
  Mn  Mn22  1  0.62759300  0.99670500  0.79004600  1
  Mn  Mn23  1  0.35978800  0.64021200  0.00000000  1
  N  N24  1  0.63839000  0.00256600  0.29547600  1
  N  N25  1  0.00065200  0.36563700  0.05464700  1
  N  N26  1  0.36503300  0.63754000  0.15950100  1
  N  N27  1  0.63248900  0.00053900  0.62279500  1
  N  N28  1  0.99946100  0.36751100  0.37720500  1
  N  N29  1  0.36577700  0.63422300  0.50000000  1
  N  N30  1  0.63436300  0.99934800  0.94535200  1
  N  N31  1  0.99743400  0.36161000  0.70452400  1
  N  N32  1  0.36246000  0.63496700  0.84049900  1
