# generated using pymatgen
data_LiMn2(PO4)3
_symmetry_space_group_name_H-M   'P 1'
_cell_length_a   8.43001970
_cell_length_b   8.43001970
_cell_length_c   8.58325555
_cell_angle_alpha   60.76732856
_cell_angle_beta   60.76732856
_cell_angle_gamma   59.87779824
_symmetry_Int_Tables_number   1
_chemical_formula_structural   LiMn2(PO4)3
_chemical_formula_sum   'Li2 Mn4 P6 O24'
_cell_volume   435.83626468
_cell_formula_units_Z   2
loop_
 _symmetry_equiv_pos_site_id
 _symmetry_equiv_pos_as_xyz
  1  'x, y, z'
loop_
 _atom_site_type_symbol
 _atom_site_label
 _atom_site_symmetry_multiplicity
 _atom_site_fract_x
 _atom_site_fract_y
 _atom_site_fract_z
 _atom_site_occupancy
  Li  Li0  1  0.02864900  0.36608100  0.95143900  1
  Li  Li1  1  0.36608100  0.02864900  0.45143900  1
  Mn  Mn2  1  0.85086300  0.35750800  0.42769800  1
  Mn  Mn3  1  0.14943600  0.64590300  0.56789600  1
  Mn  Mn4  1  0.35750800  0.85086300  0.92769800  1
  Mn  Mn5  1  0.64590300  0.14943600  0.06789600  1
  P  P6  1  0.74865300  0.52823700  0.75574100  1
  P  P7  1  0.52823700  0.74865300  0.25574100  1
  P  P8  1  0.03725600  0.95977000  0.74664300  1
  P  P9  1  0.47438200  0.24841700  0.74452700  1
  P  P10  1  0.95977000  0.03725600  0.24664300  1
  P  P11  1  0.24841700  0.47438200  0.24452700  1
  O  O12  1  0.36750800  0.72492700  0.45281200  1
  O  O13  1  0.63194400  0.27924200  0.54928100  1
  O  O14  1  0.27924200  0.63194400  0.04928100  1
  O  O15  1  0.04361400  0.77022900  0.75312400  1
  O  O16  1  0.40848700  0.27211000  0.24262000  1
  O  O17  1  0.00012200  0.87419000  0.42432100  1
  O  O18  1  0.12430800  0.01809400  0.05772800  1
  O  O19  1  0.23596100  0.94192600  0.73682700  1
  O  O20  1  0.72584600  0.58995700  0.26049200  1
  O  O21  1  0.87419000  0.00012200  0.92432100  1
  O  O22  1  0.58995700  0.72584600  0.76049200  1
  O  O23  1  0.05478900  0.46336000  0.28985100  1
  O  O24  1  0.94192600  0.23596100  0.23682700  1
  O  O25  1  0.53206200  0.94590900  0.21776800  1
  O  O26  1  0.01809400  0.12430800  0.55772800  1
  O  O27  1  0.25905200  0.51148500  0.39684500  1
  O  O28  1  0.48649300  0.74294200  0.10456200  1
  O  O29  1  0.74294200  0.48649300  0.60456200  1
  O  O30  1  0.51148500  0.25905200  0.89684500  1
  O  O31  1  0.27211000  0.40848700  0.74262000  1
  O  O32  1  0.94590900  0.53206200  0.71776800  1
  O  O33  1  0.72492700  0.36750800  0.95281200  1
  O  O34  1  0.46336000  0.05478900  0.78985100  1
  O  O35  1  0.77022900  0.04361400  0.25312400  1
