# generated using pymatgen
data_LiCr4(PO4)3
_symmetry_space_group_name_H-M   'P 1'
_cell_length_a   8.89522520
_cell_length_b   8.89522520
_cell_length_c   7.35476496
_cell_angle_alpha   68.52523817
_cell_angle_beta   68.52523817
_cell_angle_gamma   90.13795901
_symmetry_Int_Tables_number   1
_chemical_formula_structural   LiCr4(PO4)3
_chemical_formula_sum   'Li2 Cr8 P6 O24'
_cell_volume   497.65844872
_cell_formula_units_Z   2
loop_
 _symmetry_equiv_pos_site_id
 _symmetry_equiv_pos_as_xyz
  1  'x, y, z'
loop_
 _atom_site_type_symbol
 _atom_site_label
 _atom_site_symmetry_multiplicity
 _atom_site_fract_x
 _atom_site_fract_y
 _atom_site_fract_z
 _atom_site_occupancy
  Li  Li0  1  0.99376800  0.00623200  0.25000000  1
  Li  Li1  1  0.00623200  0.99376800  0.75000000  1
  Cr  Cr2  1  0.38607100  0.06091300  0.84899900  1
  Cr  Cr3  1  0.26685200  0.73314800  0.75000000  1
  Cr  Cr4  1  0.06091300  0.38607100  0.34899900  1
  Cr  Cr5  1  0.50693000  0.49307000  0.75000000  1
  Cr  Cr6  1  0.49307000  0.50693000  0.25000000  1
  Cr  Cr7  1  0.61392900  0.93908700  0.15100100  1
  Cr  Cr8  1  0.73314800  0.26685200  0.25000000  1
  Cr  Cr9  1  0.93908700  0.61392900  0.65100100  1
  P  P10  1  0.11630000  0.33674300  0.89063800  1
  P  P11  1  0.33674300  0.11630000  0.39063800  1
  P  P12  1  0.27801400  0.72198600  0.25000000  1
  P  P13  1  0.88370000  0.66325700  0.10936200  1
  P  P14  1  0.72198600  0.27801400  0.75000000  1
  P  P15  1  0.66325700  0.88370000  0.60936200  1
  O  O16  1  0.40503900  0.04835600  0.21858400  1
  O  O17  1  0.83291500  0.25418000  0.55180700  1
  O  O18  1  0.74038300  0.52678800  0.15827000  1
  O  O19  1  0.47321200  0.25961700  0.34173000  1
  O  O20  1  0.73294000  0.45930000  0.74164200  1
  O  O21  1  0.70020900  0.01475100  0.38164200  1
  O  O22  1  0.01475100  0.70020900  0.88164200  1
  O  O23  1  0.98524900  0.29979100  0.11835800  1
  O  O24  1  0.45930000  0.73294000  0.24164200  1
  O  O25  1  0.26706000  0.54070000  0.25835800  1
  O  O26  1  0.52678800  0.74038300  0.65827000  1
  O  O27  1  0.82296800  0.82836200  0.09632700  1
  O  O28  1  0.17703200  0.17163800  0.90367300  1
  O  O29  1  0.04835600  0.40503900  0.71858400  1
  O  O30  1  0.95164400  0.59496100  0.28141600  1
  O  O31  1  0.82836200  0.82296800  0.59632700  1
  O  O32  1  0.29979100  0.98524900  0.61835800  1
  O  O33  1  0.16708500  0.74582000  0.44819300  1
  O  O34  1  0.54070000  0.26706000  0.75835800  1
  O  O35  1  0.17163800  0.17703200  0.40367300  1
  O  O36  1  0.74582000  0.16708500  0.94819300  1
  O  O37  1  0.25418000  0.83291500  0.05180700  1
  O  O38  1  0.25961700  0.47321200  0.84173000  1
  O  O39  1  0.59496100  0.95164400  0.78141600  1
