# generated using pymatgen
data_Li9Ta11N20
_symmetry_space_group_name_H-M   'P 1'
_cell_length_a   3.13165889
_cell_length_b   3.13165888
_cell_length_c   62.27043489
_cell_angle_alpha   59.80711164
_cell_angle_beta   59.80711173
_cell_angle_gamma   59.99999567
_symmetry_Int_Tables_number   1
_chemical_formula_structural   Li9Ta11N20
_chemical_formula_sum   'Li9 Ta11 N20'
_cell_volume   430.56966412
_cell_formula_units_Z   1
loop_
 _symmetry_equiv_pos_site_id
 _symmetry_equiv_pos_as_xyz
  1  'x, y, z'
loop_
 _atom_site_type_symbol
 _atom_site_label
 _atom_site_symmetry_multiplicity
 _atom_site_fract_x
 _atom_site_fract_y
 _atom_site_fract_z
 _atom_site_occupancy
  Li  Li0  1  0.01339182  0.01339182  0.04799123  1
  Li  Li1  1  0.98660818  0.98660818  0.55200877  1
  Li  Li2  1  0.98815791  0.98815791  0.65177631  1
  Li  Li3  1  0.99720113  0.99720113  0.70041983  1
  Li  Li4  1  0.00000000  0.00000000  0.80000000  1
  Li  Li5  1  0.00323975  0.00323975  0.74951404  1
  Li  Li6  1  0.99676025  0.99676025  0.85048596  1
  Li  Li7  1  0.00279887  0.00279887  0.89958017  1
  Li  Li8  1  0.01184209  0.01184209  0.94822369  1
  Ta  Ta9  1  0.00138099  0.00138099  0.99979285  1
  Ta  Ta10  1  0.00509976  0.00509976  0.09923504  1
  Ta  Ta11  1  0.00402670  0.00402670  0.14939599  1
  Ta  Ta12  1  0.99956729  0.99956729  0.20006491  1
  Ta  Ta13  1  0.99963205  0.99963205  0.25005519  1
  Ta  Ta14  1  0.00000000  0.00000000  0.30000000  1
  Ta  Ta15  1  0.00036795  0.00036795  0.34994481  1
  Ta  Ta16  1  0.99597330  0.99597330  0.45060401  1
  Ta  Ta17  1  0.00043271  0.00043271  0.39993509  1
  Ta  Ta18  1  0.99490024  0.99490024  0.50076496  1
  Ta  Ta19  1  0.99861901  0.99861901  0.60020715  1
  N  N20  1  0.51872758  0.51872758  0.02219086  1
  N  N21  1  0.47740183  0.47740183  0.07838973  1
  N  N22  1  0.50151024  0.50151024  0.12477346  1
  N  N23  1  0.49984698  0.49984698  0.17502295  1
  N  N24  1  0.50041075  0.50041075  0.22493839  1
  N  N25  1  0.49960796  0.49960796  0.27505881  1
  N  N26  1  0.50039204  0.50039204  0.32494119  1
  N  N27  1  0.49958925  0.49958925  0.37506161  1
  N  N28  1  0.50015302  0.50015302  0.42497705  1
  N  N29  1  0.49848976  0.49848976  0.47522654  1
  N  N30  1  0.52259817  0.52259817  0.52161027  1
  N  N31  1  0.48127242  0.48127242  0.57780914  1
  N  N32  1  0.52554416  0.52554416  0.62116838  1
  N  N33  1  0.49518633  0.49518633  0.67572205  1
  N  N34  1  0.50373851  0.50373851  0.72443922  1
  N  N35  1  0.49984256  0.49984256  0.77502362  1
  N  N36  1  0.50015744  0.50015744  0.82497638  1
  N  N37  1  0.49626149  0.49626149  0.87556078  1
  N  N38  1  0.50481367  0.50481367  0.92427795  1
  N  N39  1  0.47445584  0.47445584  0.97883162  1
