# generated using pymatgen
data_LiSb(PO3)4
_symmetry_space_group_name_H-M   'P 1'
_cell_length_a   10.64720208
_cell_length_b   10.64720208
_cell_length_c   5.53612623
_cell_angle_alpha   80.75156046
_cell_angle_beta   80.75156046
_cell_angle_gamma   69.21347962
_symmetry_Int_Tables_number   1
_chemical_formula_structural   LiSb(PO3)4
_chemical_formula_sum   'Li2 Sb2 P8 O24'
_cell_volume   575.44664386
_cell_formula_units_Z   2
loop_
 _symmetry_equiv_pos_site_id
 _symmetry_equiv_pos_as_xyz
  1  'x, y, z'
loop_
 _atom_site_type_symbol
 _atom_site_label
 _atom_site_symmetry_multiplicity
 _atom_site_fract_x
 _atom_site_fract_y
 _atom_site_fract_z
 _atom_site_occupancy
  Li  Li0  1  0.43787800  0.43787800  0.61175700  1
  Li  Li1  1  0.56212200  0.56212200  0.38824300  1
  Sb  Sb2  1  0.50000000  0.00000000  0.00000000  1
  Sb  Sb3  1  0.00000000  0.50000000  0.00000000  1
  P  P4  1  0.62386600  0.23074400  0.17864100  1
  P  P5  1  0.29185500  0.05364300  0.54588800  1
  P  P6  1  0.70814500  0.94635700  0.45411200  1
  P  P7  1  0.23074400  0.62386600  0.17864100  1
  P  P8  1  0.37613400  0.76925600  0.82135900  1
  P  P9  1  0.94635700  0.70814500  0.45411200  1
  P  P10  1  0.05364300  0.29185500  0.54588800  1
  P  P11  1  0.76925600  0.37613400  0.82135900  1
  O  O12  1  0.19905700  0.53400900  0.02733900  1
  O  O13  1  0.90095100  0.61620600  0.33220200  1
  O  O14  1  0.43702500  0.65428900  0.66930500  1
  O  O15  1  0.06567000  0.30989300  0.26852200  1
  O  O16  1  0.90385200  0.29739500  0.64955600  1
  O  O17  1  0.24485500  0.75514500  0.00000000  1
  O  O18  1  0.30989300  0.06567000  0.26852200  1
  O  O19  1  0.70260500  0.09614800  0.35044400  1
  O  O20  1  0.29739500  0.90385200  0.64955600  1
  O  O21  1  0.13589600  0.13589600  0.63670900  1
  O  O22  1  0.34571100  0.56297500  0.33069500  1
  O  O23  1  0.86410400  0.86410400  0.36329100  1
  O  O24  1  0.09614800  0.70260500  0.35044400  1
  O  O25  1  0.09904900  0.38379400  0.66779800  1
  O  O26  1  0.93433000  0.69010700  0.73147800  1
  O  O27  1  0.53400900  0.19905700  0.02733900  1
  O  O28  1  0.75514500  0.24485500  0.00000000  1
  O  O29  1  0.61620600  0.90095100  0.33220200  1
  O  O30  1  0.80094300  0.46599100  0.97266100  1
  O  O31  1  0.38379400  0.09904900  0.66779800  1
  O  O32  1  0.46599100  0.80094300  0.97266100  1
  O  O33  1  0.69010700  0.93433000  0.73147800  1
  O  O34  1  0.65428900  0.43702500  0.66930500  1
  O  O35  1  0.56297500  0.34571100  0.33069500  1
