# generated using pymatgen
data_Ba3LiTi5(SbO7)3
_symmetry_space_group_name_H-M   'P 1'
_cell_length_a   9.18925900
_cell_length_b   9.19880127
_cell_length_c   11.77548050
_cell_angle_alpha   89.87476332
_cell_angle_beta   89.87488367
_cell_angle_gamma   60.07174945
_symmetry_Int_Tables_number   1
_chemical_formula_structural   Ba3LiTi5(SbO7)3
_chemical_formula_sum   'Ba6 Li2 Ti10 Sb6 O42'
_cell_volume   862.64707479
_cell_formula_units_Z   2
loop_
 _symmetry_equiv_pos_site_id
 _symmetry_equiv_pos_as_xyz
  1  'x, y, z'
loop_
 _atom_site_type_symbol
 _atom_site_label
 _atom_site_symmetry_multiplicity
 _atom_site_fract_x
 _atom_site_fract_y
 _atom_site_fract_z
 _atom_site_occupancy
  Ba  Ba0  1  0.60143700  0.39985600  0.75220500  1
  Ba  Ba1  1  0.99343000  0.40265600  0.24539000  1
  Ba  Ba2  1  0.99864300  0.59532800  0.75529400  1
  Ba  Ba3  1  0.40239400  0.99919900  0.74700100  1
  Ba  Ba4  1  0.59731900  0.99770300  0.25247800  1
  Ba  Ba5  1  0.40067700  0.59952600  0.24822700  1
  Li  Li6  1  0.99329000  0.00191900  0.25874800  1
  Li  Li7  1  0.00663400  0.99815200  0.75541800  1
  Ti  Ti8  1  0.26083600  0.74754500  0.59375400  1
  Ti  Ti9  1  0.66435700  0.67058200  0.99834300  1
  Ti  Ti10  1  0.99601900  0.26158400  0.58682000  1
  Ti  Ti11  1  0.99377300  0.26043300  0.90310100  1
  Ti  Ti12  1  0.25178200  0.00848600  0.41257500  1
  Ti  Ti13  1  0.99895500  0.73852400  0.09294800  1
  Ti  Ti14  1  0.26513700  0.73832500  0.90612000  1
  Ti  Ti15  1  0.74134800  0.01053300  0.59271400  1
  Ti  Ti16  1  0.74499400  0.26267900  0.09639400  1
  Ti  Ti17  1  0.74208500  0.26396200  0.41128900  1
  Sb  Sb18  1  0.66336700  0.67231100  0.49870800  1
  Sb  Sb19  1  0.24640800  0.99713000  0.08481300  1
  Sb  Sb20  1  0.99926400  0.75146300  0.41721800  1
  Sb  Sb21  1  0.33250200  0.33643400  0.50149500  1
  Sb  Sb22  1  0.33463200  0.33055400  0.00083100  1
  Sb  Sb23  1  0.75459800  0.99672900  0.91678500  1
  O  O24  1  0.20914000  0.79187900  0.74906700  1
  O  O25  1  0.20824200  0.99575700  0.91745500  1
  O  O26  1  0.48645900  0.68073200  0.90002400  1
  O  O27  1  0.48993000  0.68116600  0.60603400  1
  O  O28  1  0.47735100  0.83026500  0.39699700  1
  O  O29  1  0.49165400  0.82938200  0.09940000  1
  O  O30  1  0.79418000  0.19660700  0.92947300  1
  O  O31  1  0.78526600  0.21386700  0.56880100  1
  O  O32  1  0.69027100  0.48186100  0.10080700  1
  O  O33  1  0.67970900  0.49050000  0.39633600  1
  O  O34  1  0.82587300  0.47773000  0.89708200  1
  O  O35  1  0.83335300  0.49147400  0.59905000  1
  O  O36  1  0.00708500  0.19895200  0.07041000  1
  O  O37  1  0.00180200  0.21042200  0.42901600  1
  O  O38  1  0.68489400  0.82588600  0.89395400  1
  O  O39  1  0.67411300  0.84574100  0.59320100  1
  O  O40  1  0.99647500  0.20765100  0.74611800  1
  O  O41  1  0.83914000  0.67602600  0.09243100  1
  O  O42  1  0.82558300  0.68511000  0.38857200  1
  O  O43  1  0.21279900  0.99303700  0.56929300  1
  O  O44  1  0.20199400  0.99812800  0.25076700  1
  O  O45  1  0.16738600  0.31704000  0.60281900  1
  O  O46  1  0.16588200  0.31670700  0.90110800  1
  O  O47  1  0.00552100  0.78892600  0.25028500  1
  O  O48  1  0.32290600  0.16572800  0.40024100  1
  O  O49  1  0.32085700  0.16676100  0.10835400  1
  O  O50  1  0.99522500  0.79854200  0.92748300  1
  O  O51  1  0.99394300  0.79276600  0.58340800  1
  O  O52  1  0.16445800  0.50773400  0.39380700  1
  O  O53  1  0.17535900  0.51321200  0.10400600  1
  O  O54  1  0.31516900  0.51973200  0.59978300  1
  O  O55  1  0.31475400  0.51281500  0.89697000  1
  O  O56  1  0.21278600  0.79360000  0.06993100  1
  O  O57  1  0.19877700  0.78865800  0.42910400  1
  O  O58  1  0.51072900  0.16545200  0.89400600  1
  O  O59  1  0.51239200  0.17501900  0.60545300  1
  O  O60  1  0.51882800  0.31310800  0.10064100  1
  O  O61  1  0.51630800  0.31549000  0.39794300  1
  O  O62  1  0.79341800  0.00765500  0.74955300  1
  O  O63  1  0.79619400  0.99204400  0.08341800  1
  O  O64  1  0.80450600  0.99421400  0.42669700  1
  O  O65  1  0.79540500  0.21101400  0.25203100  1
