# generated using pymatgen
data_Li3Sn2P5O16
_symmetry_space_group_name_H-M   'P 1'
_cell_length_a   7.52372200
_cell_length_b   5.25970100
_cell_length_c   18.70528187
_cell_angle_alpha   84.53573444
_cell_angle_beta   90.00000000
_cell_angle_gamma   90.00000000
_symmetry_Int_Tables_number   1
_chemical_formula_structural   Li3Sn2P5O16
_chemical_formula_sum   'Li6 Sn4 P10 O32'
_cell_volume   736.85159361
_cell_formula_units_Z   2
loop_
 _symmetry_equiv_pos_site_id
 _symmetry_equiv_pos_as_xyz
  1  'x, y, z'
loop_
 _atom_site_type_symbol
 _atom_site_label
 _atom_site_symmetry_multiplicity
 _atom_site_fract_x
 _atom_site_fract_y
 _atom_site_fract_z
 _atom_site_occupancy
  Li  Li0  1  0.62885000  0.20525600  0.45923000  1
  Li  Li1  1  0.37115000  0.79474400  0.54077000  1
  Li  Li2  1  0.37115000  0.20525600  0.95923000  1
  Li  Li3  1  0.62885000  0.79474400  0.04077000  1
  Li  Li4  1  0.96597000  0.50000000  0.75000000  1
  Li  Li5  1  0.03403000  0.50000000  0.25000000  1
  Sn  Sn6  1  0.85460500  0.27024200  0.92124400  1
  Sn  Sn7  1  0.14539500  0.27024200  0.42124400  1
  Sn  Sn8  1  0.14539500  0.72975800  0.07875600  1
  Sn  Sn9  1  0.85460500  0.72975800  0.57875600  1
  P  P10  1  0.15581100  0.72347900  0.90601000  1
  P  P11  1  0.24872300  0.00000000  0.25000000  1
  P  P12  1  0.84418900  0.27652100  0.09399000  1
  P  P13  1  0.84418900  0.72347900  0.40601000  1
  P  P14  1  0.52445400  0.26797300  0.62435300  1
  P  P15  1  0.15581100  0.27652100  0.59399000  1
  P  P16  1  0.52445400  0.73202700  0.87564700  1
  P  P17  1  0.47554600  0.26797300  0.12435300  1
  P  P18  1  0.47554600  0.73202700  0.37564700  1
  P  P19  1  0.75127700  0.00000000  0.75000000  1
  O  O20  1  0.79510300  0.48357900  0.03307700  1
  O  O21  1  0.14740700  0.19063900  0.28921200  1
  O  O22  1  0.42687300  0.54699700  0.10770700  1
  O  O23  1  0.85472500  0.01196500  0.06732300  1
  O  O24  1  0.14527500  0.01196500  0.56732300  1
  O  O25  1  0.99618300  0.63973200  0.86215500  1
  O  O26  1  0.38482600  0.15831500  0.19780900  1
  O  O27  1  0.14740700  0.80936100  0.21078800  1
  O  O28  1  0.99618300  0.36026800  0.63784500  1
  O  O29  1  0.57312700  0.54699700  0.60770700  1
  O  O30  1  0.14527500  0.98803500  0.93267700  1
  O  O31  1  0.32174600  0.25901200  0.65177400  1
  O  O32  1  0.79510300  0.51642100  0.46692300  1
  O  O33  1  0.42687300  0.45300300  0.39229300  1
  O  O34  1  0.00381700  0.63973200  0.36215600  1
  O  O35  1  0.20489700  0.48357900  0.53307700  1
  O  O36  1  0.85259300  0.19063900  0.78921200  1
  O  O37  1  0.61517400  0.84168500  0.80219100  1
  O  O38  1  0.61517400  0.15831500  0.69780900  1
  O  O39  1  0.38482600  0.84168500  0.30219100  1
  O  O40  1  0.67825400  0.74098800  0.34822600  1
  O  O41  1  0.20489700  0.51642100  0.96692300  1
  O  O42  1  0.57312700  0.45300300  0.89229300  1
  O  O43  1  0.55693900  0.09610800  0.56554100  1
  O  O44  1  0.55693900  0.90389200  0.93445900  1
  O  O45  1  0.44306100  0.09610800  0.06554100  1
  O  O46  1  0.32174600  0.74098800  0.84822600  1
  O  O47  1  0.85259300  0.80936100  0.71078800  1
  O  O48  1  0.00381700  0.36026800  0.13784500  1
  O  O49  1  0.85472500  0.98803500  0.43267700  1
  O  O50  1  0.44306100  0.90389200  0.43445900  1
  O  O51  1  0.67825400  0.25901200  0.15177400  1
