# generated using pymatgen
data_LiB13C2
_symmetry_space_group_name_H-M   'P 1'
_cell_length_a   7.32117207
_cell_length_b   7.32117207
_cell_length_c   7.32117207
_cell_angle_alpha   134.39093811
_cell_angle_beta   113.36420028
_cell_angle_gamma   84.48394278
_symmetry_Int_Tables_number   1
_chemical_formula_structural   LiB13C2
_chemical_formula_sum   'Li2 B26 C4'
_cell_volume   247.39137995
_cell_formula_units_Z   2
loop_
 _symmetry_equiv_pos_site_id
 _symmetry_equiv_pos_as_xyz
  1  'x, y, z'
loop_
 _atom_site_type_symbol
 _atom_site_label
 _atom_site_symmetry_multiplicity
 _atom_site_fract_x
 _atom_site_fract_y
 _atom_site_fract_z
 _atom_site_occupancy
  Li  Li0  1  0.56196600  0.25000000  0.31196600  1
  Li  Li1  1  0.43803400  0.75000000  0.68803400  1
  B  B2  1  0.35068500  0.33386400  0.01682100  1
  B  B3  1  0.38195000  0.67772800  0.20135200  1
  B  B4  1  0.02362400  0.31940200  0.20135200  1
  B  B5  1  0.61805000  0.32227200  0.79864800  1
  B  B6  1  0.77642800  0.76754100  0.68060900  1
  B  B7  1  0.41306700  0.40418100  0.68060900  1
  B  B8  1  0.61805000  0.81940200  0.29577800  1
  B  B9  1  0.02362400  0.82227200  0.70422200  1
  B  B10  1  0.58693300  0.26754100  0.99111300  1
  B  B11  1  0.64931500  0.66613600  0.98317900  1
  B  B12  1  0.75663300  0.57451300  0.18212000  1
  B  B13  1  0.41306700  0.73245900  0.00888700  1
  B  B14  1  0.97637600  0.68059800  0.79864800  1
  B  B15  1  0.18295700  0.16613600  0.01682100  1
  B  B16  1  0.38195000  0.18059800  0.70422200  1
  B  B17  1  0.89081100  0.25000000  0.64081100  1
  B  B18  1  0.22357200  0.90418000  0.99111300  1
  B  B19  1  0.81704300  0.83386400  0.98317900  1
  B  B20  1  0.89239300  0.07451300  0.81788000  1
  B  B21  1  0.58693300  0.59582000  0.31939100  1
  B  B22  1  0.77642800  0.09582000  0.00888700  1
  B  B23  1  0.10760700  0.92548700  0.18212000  1
  B  B24  1  0.97637600  0.17772800  0.29577800  1
  B  B25  1  0.24336700  0.42548700  0.81788000  1
  B  B26  1  0.10918900  0.75000000  0.35918900  1
  B  B27  1  0.22357200  0.23245900  0.31939100  1
  C  C28  1  0.25530300  0.88122400  0.37407900  1
  C  C29  1  0.99285500  0.61877600  0.37407900  1
  C  C30  1  0.00714500  0.38122400  0.62592100  1
  C  C31  1  0.74469700  0.11877600  0.62592100  1
