# generated using pymatgen
data_Na2LiLa3Ti6O18
_symmetry_space_group_name_H-M   'P 1'
_cell_length_a   5.48778400
_cell_length_b   5.49112605
_cell_length_c   12.52630273
_cell_angle_alpha   102.14309311
_cell_angle_beta   102.37827647
_cell_angle_gamma   89.80120628
_symmetry_Int_Tables_number   1
_chemical_formula_structural   Na2LiLa3Ti6O18
_chemical_formula_sum   'Na2 Li1 La3 Ti6 O18'
_cell_volume   360.10223885
_cell_formula_units_Z   1
loop_
 _symmetry_equiv_pos_site_id
 _symmetry_equiv_pos_as_xyz
  1  'x, y, z'
loop_
 _atom_site_type_symbol
 _atom_site_label
 _atom_site_symmetry_multiplicity
 _atom_site_fract_x
 _atom_site_fract_y
 _atom_site_fract_z
 _atom_site_occupancy
  Na  Na0  1  0.56209300  0.07004600  0.14594600  1
  Na  Na1  1  0.72258500  0.24096700  0.47066100  1
  Li  Li2  1  0.86571800  0.35027700  0.75136600  1
  La  La3  1  0.23575600  0.74452400  0.48700700  1
  La  La4  1  0.40400100  0.90629300  0.82510600  1
  La  La5  1  0.06238000  0.57183600  0.14944700  1
  Ti  Ti6  1  0.98355400  0.99746000  0.98418900  1
  Ti  Ti7  1  0.82260000  0.81759700  0.65497900  1
  Ti  Ti8  1  0.65155500  0.66061400  0.31940200  1
  Ti  Ti9  1  0.48662900  0.48852200  0.98683800  1
  Ti  Ti10  1  0.32344400  0.32942100  0.65692500  1
  Ti  Ti11  1  0.15399600  0.15183500  0.32109300  1
  O  O12  1  0.94135400  0.44427600  0.31548400  1
  O  O13  1  0.58696100  0.07432900  0.64882500  1
  O  O14  1  0.41772000  0.41231900  0.31802500  1
  O  O15  1  0.91876000  0.99389100  0.83449800  1
  O  O16  1  0.75991000  0.68471400  0.50469800  1
  O  O17  1  0.25418200  0.28335600  0.02574600  1
  O  O18  1  0.26804800  0.77024700  0.97997800  1
  O  O19  1  0.10543300  0.04106700  0.65098900  1
  O  O20  1  0.58730600  0.65257200  0.16996000  1
  O  O21  1  0.42132900  0.34965500  0.83649900  1
  O  O22  1  0.93020300  0.94218800  0.36012500  1
  O  O23  1  0.75645900  0.25968200  0.02638300  1
  O  O24  1  0.75965800  0.73731400  0.98408600  1
  O  O25  1  0.25069600  0.31589100  0.50550400  1
  O  O26  1  0.08874600  0.02492100  0.17034400  1
  O  O27  1  0.58585400  0.60064200  0.69335200  1
  O  O28  1  0.41773300  0.92133500  0.35980400  1
  O  O29  1  0.09200800  0.57887900  0.69607700  1
