# generated using pymatgen
data_LiBi(PO3)4
_symmetry_space_group_name_H-M   'P 1'
_cell_length_a   8.29249100
_cell_length_b   9.99245400
_cell_length_c   13.57018200
_cell_angle_alpha   90.00000000
_cell_angle_beta   90.00000000
_cell_angle_gamma   90.00000000
_symmetry_Int_Tables_number   1
_chemical_formula_structural   LiBi(PO3)4
_chemical_formula_sum   'Li4 Bi4 P16 O48'
_cell_volume   1124.45696503
_cell_formula_units_Z   4
loop_
 _symmetry_equiv_pos_site_id
 _symmetry_equiv_pos_as_xyz
  1  'x, y, z'
loop_
 _atom_site_type_symbol
 _atom_site_label
 _atom_site_symmetry_multiplicity
 _atom_site_fract_x
 _atom_site_fract_y
 _atom_site_fract_z
 _atom_site_occupancy
  Li  Li0  1  0.02679100  0.25000000  0.00000000  1
  Li  Li1  1  0.97320900  0.75000000  0.00000000  1
  Li  Li2  1  0.47320900  0.75000000  0.50000000  1
  Li  Li3  1  0.52679100  0.25000000  0.50000000  1
  Bi  Bi4  1  0.87734300  0.75000000  0.50000000  1
  Bi  Bi5  1  0.62265700  0.25000000  0.00000000  1
  Bi  Bi6  1  0.37734300  0.75000000  0.00000000  1
  Bi  Bi7  1  0.12265700  0.25000000  0.50000000  1
  P  P8  1  0.33224600  0.00249400  0.36435000  1
  P  P9  1  0.33224600  0.49750600  0.63565000  1
  P  P10  1  0.83224600  0.00249400  0.13565000  1
  P  P11  1  0.53666000  0.99298000  0.83891100  1
  P  P12  1  0.66775400  0.50249400  0.36435000  1
  P  P13  1  0.03666000  0.99298000  0.66108900  1
  P  P14  1  0.66775400  0.99750600  0.63565000  1
  P  P15  1  0.16775400  0.50249400  0.13565000  1
  P  P16  1  0.03666000  0.50702000  0.33891100  1
  P  P17  1  0.96334000  0.49298000  0.66108900  1
  P  P18  1  0.46334000  0.00702000  0.16108900  1
  P  P19  1  0.53666000  0.50702000  0.16108900  1
  P  P20  1  0.46334000  0.49298000  0.83891100  1
  P  P21  1  0.16775400  0.99750600  0.86435000  1
  P  P22  1  0.96334000  0.00702000  0.33891100  1
  P  P23  1  0.83224600  0.49750600  0.86435000  1
  O  O24  1  0.12415800  0.12330800  0.64499100  1
  O  O25  1  0.83392100  0.37916700  0.93526300  1
  O  O26  1  0.08534700  0.93411900  0.76644500  1
  O  O27  1  0.08534700  0.56588100  0.23355500  1
  O  O28  1  0.83392100  0.12083300  0.06473700  1
  O  O29  1  0.34861000  0.02363900  0.82469900  1
  O  O30  1  0.41465300  0.06588100  0.26644500  1
  O  O31  1  0.33392100  0.12083300  0.43526300  1
  O  O32  1  0.66607900  0.62083300  0.43526300  1
  O  O33  1  0.56252900  0.88548600  0.91560200  1
  O  O34  1  0.84861000  0.47636100  0.32469900  1
  O  O35  1  0.59570800  0.12642500  0.60388200  1
  O  O36  1  0.59570800  0.37357500  0.39611800  1
  O  O37  1  0.56252900  0.61451400  0.08439800  1
  O  O38  1  0.58534700  0.56588100  0.26644500  1
  O  O39  1  0.62415800  0.37669200  0.14499100  1
  O  O40  1  0.87584200  0.87669200  0.35500900  1
  O  O41  1  0.16607900  0.62083300  0.06473700  1
  O  O42  1  0.15139000  0.97636100  0.32469900  1
  O  O43  1  0.58534700  0.93411900  0.73355500  1
  O  O44  1  0.43747100  0.38548600  0.91560200  1
  O  O45  1  0.37584200  0.62330800  0.85500900  1
  O  O46  1  0.34861000  0.47636100  0.17530100  1
  O  O47  1  0.16607900  0.87916700  0.93526300  1
  O  O48  1  0.62415800  0.12330800  0.85500900  1
  O  O49  1  0.06252900  0.61451400  0.41560200  1
  O  O50  1  0.37584200  0.87669200  0.14499100  1
  O  O51  1  0.12415800  0.37669200  0.35500900  1
  O  O52  1  0.65139000  0.97636100  0.17530100  1
  O  O53  1  0.09570800  0.12642500  0.89611800  1
  O  O54  1  0.06252900  0.88548600  0.58439800  1
  O  O55  1  0.40429200  0.62642500  0.60388200  1
  O  O56  1  0.93747100  0.38548600  0.58439800  1
  O  O57  1  0.87584200  0.62330800  0.64499100  1
  O  O58  1  0.09570800  0.37357500  0.10388300  1
  O  O59  1  0.91465300  0.06588100  0.23355500  1
  O  O60  1  0.15139000  0.52363900  0.67530100  1
  O  O61  1  0.91465300  0.43411900  0.76644500  1
  O  O62  1  0.90429200  0.62642500  0.89611800  1
  O  O63  1  0.33392100  0.37916700  0.56473700  1
  O  O64  1  0.90429200  0.87357500  0.10388300  1
  O  O65  1  0.84861000  0.02363900  0.67530100  1
  O  O66  1  0.40429200  0.87357500  0.39611800  1
  O  O67  1  0.41465300  0.43411900  0.73355500  1
  O  O68  1  0.93747100  0.11451400  0.41560200  1
  O  O69  1  0.66607900  0.87916700  0.56473700  1
  O  O70  1  0.65139000  0.52363900  0.82469900  1
  O  O71  1  0.43747100  0.11451400  0.08439800  1
