# generated using pymatgen
data_LiH2CO3
_symmetry_space_group_name_H-M   'P 1'
_cell_length_a   4.90250000
_cell_length_b   6.56456000
_cell_length_c   9.99385700
_cell_angle_alpha   90.00000000
_cell_angle_beta   90.00000000
_cell_angle_gamma   90.00000000
_symmetry_Int_Tables_number   1
_chemical_formula_structural   LiH2CO3
_chemical_formula_sum   'Li4 H8 C4 O12'
_cell_volume   321.62985533
_cell_formula_units_Z   4
loop_
 _symmetry_equiv_pos_site_id
 _symmetry_equiv_pos_as_xyz
  1  'x, y, z'
loop_
 _atom_site_type_symbol
 _atom_site_label
 _atom_site_symmetry_multiplicity
 _atom_site_fract_x
 _atom_site_fract_y
 _atom_site_fract_z
 _atom_site_occupancy
  Li  Li0  1  0.24139800  0.38161400  0.45067200  1
  Li  Li1  1  0.74139800  0.61838600  0.54932800  1
  Li  Li2  1  0.74139800  0.88161400  0.04932800  1
  Li  Li3  1  0.24139800  0.11838600  0.95067200  1
  H  H4  1  0.64170900  0.33181300  0.21498300  1
  H  H5  1  0.14170900  0.66818700  0.78501700  1
  H  H6  1  0.14170900  0.83181300  0.28501700  1
  H  H7  1  0.64170900  0.16818700  0.71498300  1
  H  H8  1  0.12585100  0.40141900  0.12917600  1
  H  H9  1  0.62585100  0.59858100  0.87082400  1
  H  H10  1  0.62585100  0.90141900  0.37082400  1
  H  H11  1  0.12585100  0.09858100  0.62917600  1
  C  C12  1  0.75528000  0.38578400  0.30405900  1
  C  C13  1  0.25528000  0.61421600  0.69594100  1
  C  C14  1  0.25528000  0.88578400  0.19594100  1
  C  C15  1  0.75528000  0.11421600  0.80405900  1
  O  O16  1  0.19217900  0.39262500  0.03321400  1
  O  O17  1  0.69217900  0.60737500  0.96678600  1
  O  O18  1  0.69217900  0.89262500  0.46678600  1
  O  O19  1  0.19217900  0.10737500  0.53321400  1
  O  O20  1  0.01245300  0.40422500  0.29150300  1
  O  O21  1  0.51245300  0.59577500  0.70849700  1
  O  O22  1  0.51245300  0.90422500  0.20849700  1
  O  O23  1  0.01245300  0.09577500  0.79150300  1
  O  O24  1  0.62213000  0.42555600  0.40981300  1
  O  O25  1  0.12213000  0.57444400  0.59018700  1
  O  O26  1  0.12213000  0.92555600  0.09018700  1
  O  O27  1  0.62213000  0.07444400  0.90981300  1
