# generated using pymatgen
data_Li7Mn17O32
_symmetry_space_group_name_H-M   'P 1'
_cell_length_a   10.26888049
_cell_length_b   10.26888049
_cell_length_c   8.27561213
_cell_angle_alpha   66.34767876
_cell_angle_beta   66.34767876
_cell_angle_gamma   107.93052808
_symmetry_Int_Tables_number   1
_chemical_formula_structural   Li7Mn17O32
_chemical_formula_sum   'Li7 Mn17 O32'
_cell_volume   607.24952182
_cell_formula_units_Z   1
loop_
 _symmetry_equiv_pos_site_id
 _symmetry_equiv_pos_as_xyz
  1  'x, y, z'
loop_
 _atom_site_type_symbol
 _atom_site_label
 _atom_site_symmetry_multiplicity
 _atom_site_fract_x
 _atom_site_fract_y
 _atom_site_fract_z
 _atom_site_occupancy
  Li  Li0  1  0.93773500  0.56265300  0.50172300  1
  Li  Li1  1  0.81083400  0.18916600  0.00000000  1
  Li  Li2  1  0.68483000  0.80783900  0.00358100  1
  Li  Li3  1  0.56422200  0.43577800  0.50000000  1
  Li  Li4  1  0.43734700  0.06226500  0.49827700  1
  Li  Li5  1  0.19216100  0.31517000  0.99641900  1
  Li  Li6  1  0.06151100  0.93848900  0.50000000  1
  Mn  Mn7  1  0.86969900  0.86866200  0.25515900  1
  Mn  Mn8  1  0.00052900  0.75483800  0.99535300  1
  Mn  Mn9  1  0.00195700  0.25359200  0.49572300  1
  Mn  Mn10  1  0.62651600  0.12647400  0.74845300  1
  Mn  Mn11  1  0.74640800  0.99804300  0.50427700  1
  Mn  Mn12  1  0.87352600  0.37348400  0.25154700  1
  Mn  Mn13  1  0.75191900  0.50103900  0.99886900  1
  Mn  Mn14  1  0.38158700  0.37780100  0.24704100  1
  Mn  Mn15  1  0.49896100  0.24808100  0.00113100  1
  Mn  Mn16  1  0.62219900  0.61841300  0.75295900  1
  Mn  Mn17  1  0.49707800  0.74425300  0.50223100  1
  Mn  Mn18  1  0.25574700  0.50292200  0.49776900  1
  Mn  Mn19  1  0.12377900  0.62619800  0.74677800  1
  Mn  Mn20  1  0.37380200  0.87622100  0.25322200  1
  Mn  Mn21  1  0.31076200  0.68923800  0.00000000  1
  Mn  Mn22  1  0.24516200  0.99947100  0.00464700  1
  Mn  Mn23  1  0.13133800  0.13030100  0.74484100  1
  O  O24  1  0.88618400  0.87052300  0.01043400  1
  O  O25  1  0.74610200  0.00996100  0.73392600  1
  O  O26  1  0.87143900  0.35927400  0.49541900  1
  O  O27  1  0.99003900  0.25389800  0.26607400  1
  O  O28  1  0.64072600  0.12856100  0.50458100  1
  O  O29  1  0.78398300  0.52313500  0.21280700  1
  O  O30  1  0.87329400  0.38863400  0.01055700  1
  O  O31  1  0.00655100  0.74531800  0.76701700  1
  O  O32  1  0.49377300  0.26145600  0.23533300  1
  O  O33  1  0.61047600  0.59801200  0.00626800  1
  O  O34  1  0.73854400  0.50622700  0.76466700  1
  O  O35  1  0.40198800  0.38952400  0.99373200  1
  O  O36  1  0.83777000  0.85098900  0.51946300  1
  O  O37  1  0.50349000  0.73690000  0.73647300  1
  O  O38  1  0.61268800  0.62649500  0.52280500  1
  O  O39  1  0.72561000  0.96185000  0.29103900  1
  O  O40  1  0.26564600  0.52659300  0.71578400  1
  O  O41  1  0.38154900  0.86103300  0.49093000  1
  O  O42  1  0.47340700  0.73435400  0.28421600  1
  O  O43  1  0.13896700  0.61845100  0.50907000  1
  O  O44  1  0.61136600  0.12670600  0.98944300  1
  O  O45  1  0.25468200  0.99344900  0.23298300  1
  O  O46  1  0.37421600  0.89130600  0.00606000  1
  O  O47  1  0.47686500  0.21601700  0.78719300  1
  O  O48  1  0.01667000  0.77757100  0.21456200  1
  O  O49  1  0.12947700  0.11381600  0.98956600  1
  O  O50  1  0.22242900  0.98333000  0.78543800  1
  O  O51  1  0.37350500  0.38731200  0.47719500  1
  O  O52  1  0.03815000  0.27439000  0.70896100  1
  O  O53  1  0.14901100  0.16223000  0.48053700  1
  O  O54  1  0.26310000  0.49651000  0.26352700  1
  O  O55  1  0.10869400  0.62578400  0.99394000  1
