# generated using pymatgen
data_CsLiSO4
_symmetry_space_group_name_H-M   'P 1'
_cell_length_a   5.52169700
_cell_length_b   8.91124900
_cell_length_c   9.72474300
_cell_angle_alpha   90.00000000
_cell_angle_beta   90.00000000
_cell_angle_gamma   90.00000000
_symmetry_Int_Tables_number   1
_chemical_formula_structural   CsLiSO4
_chemical_formula_sum   'Cs4 Li4 S4 O16'
_cell_volume   478.50808832
_cell_formula_units_Z   4
loop_
 _symmetry_equiv_pos_site_id
 _symmetry_equiv_pos_as_xyz
  1  'x, y, z'
loop_
 _atom_site_type_symbol
 _atom_site_label
 _atom_site_symmetry_multiplicity
 _atom_site_fract_x
 _atom_site_fract_y
 _atom_site_fract_z
 _atom_site_occupancy
  Cs  Cs0  1  0.75000000  0.50269500  0.78996900  1
  Cs  Cs1  1  0.25000000  0.49730500  0.21003100  1
  Cs  Cs2  1  0.75000000  0.00269500  0.71003100  1
  Cs  Cs3  1  0.25000000  0.99730500  0.28996900  1
  Li  Li4  1  0.25000000  0.17501000  0.91838100  1
  Li  Li5  1  0.75000000  0.82499000  0.08161900  1
  Li  Li6  1  0.25000000  0.67501000  0.58161900  1
  Li  Li7  1  0.75000000  0.32499000  0.41838100  1
  S  S8  1  0.25000000  0.29147600  0.58293700  1
  S  S9  1  0.75000000  0.70852400  0.41706300  1
  S  S10  1  0.25000000  0.79147600  0.91706300  1
  S  S11  1  0.75000000  0.20852400  0.08293700  1
  O  O12  1  0.25000000  0.23293100  0.72615000  1
  O  O13  1  0.75000000  0.76706900  0.27385000  1
  O  O14  1  0.25000000  0.73293100  0.77385000  1
  O  O15  1  0.75000000  0.26706900  0.22615000  1
  O  O16  1  0.75000000  0.04220400  0.08478500  1
  O  O17  1  0.25000000  0.95779600  0.91521500  1
  O  O18  1  0.75000000  0.54220400  0.41521500  1
  O  O19  1  0.25000000  0.45779600  0.58478500  1
  O  O20  1  0.96996300  0.26531100  0.00979700  1
  O  O21  1  0.46996300  0.73468900  0.99020300  1
  O  O22  1  0.53003700  0.76531100  0.49020300  1
  O  O23  1  0.03003700  0.23468900  0.50979700  1
  O  O24  1  0.03003700  0.73468900  0.99020300  1
  O  O25  1  0.53003700  0.26531100  0.00979700  1
  O  O26  1  0.46996300  0.23468900  0.50979700  1
  O  O27  1  0.96996300  0.76531100  0.49020300  1
