# generated using pymatgen
data_Li20Nb19O60
_symmetry_space_group_name_H-M   'P 1'
_cell_length_a   5.60124251
_cell_length_b   11.22887014
_cell_length_c   56.18149928
_cell_angle_alpha   55.59865432
_cell_angle_beta   55.72011518
_cell_angle_gamma   55.62502004
_symmetry_Int_Tables_number   1
_chemical_formula_structural   Li20Nb19O60
_chemical_formula_sum   'Li40 Nb38 O120'
_cell_volume   2246.28926581
_cell_formula_units_Z   2
loop_
 _symmetry_equiv_pos_site_id
 _symmetry_equiv_pos_as_xyz
  1  'x, y, z'
loop_
 _atom_site_type_symbol
 _atom_site_label
 _atom_site_symmetry_multiplicity
 _atom_site_fract_x
 _atom_site_fract_y
 _atom_site_fract_z
 _atom_site_occupancy
  Li  Li0  1  0.30189900  0.13565500  0.02710100  1
  Li  Li1  1  0.27095200  0.64832700  0.02738100  1
  Li  Li2  1  0.27314300  0.13536200  0.13004700  1
  Li  Li3  1  0.78225200  0.39188500  0.07834700  1
  Li  Li4  1  0.30578200  0.13470000  0.22694300  1
  Li  Li5  1  0.28287400  0.64010200  0.12798100  1
  Li  Li6  1  0.76889000  0.39238300  0.17872700  1
  Li  Li7  1  0.78822500  0.88546000  0.07801000  1
  Li  Li8  1  0.28019500  0.14080000  0.32822500  1
  Li  Li9  1  0.27201700  0.64900500  0.22726700  1
  Li  Li10  1  0.78132900  0.39258300  0.27833000  1
  Li  Li11  1  0.79687700  0.90344700  0.17856400  1
  Li  Li12  1  0.28349700  0.63911400  0.32831900  1
  Li  Li13  1  0.28223200  0.14044400  0.42802900  1
  Li  Li14  1  0.78129800  0.39090400  0.37800000  1
  Li  Li15  1  0.78834900  0.88628100  0.27791100  1
  Li  Li16  1  0.28168700  0.14063500  0.52811800  1
  Li  Li17  1  0.28169500  0.64078000  0.42810700  1
  Li  Li18  1  0.78116600  0.39083000  0.47812800  1
  Li  Li19  1  0.78114800  0.89099800  0.37819900  1
  Li  Li20  1  0.28133800  0.14064700  0.62814900  1
  Li  Li21  1  0.28170300  0.64063500  0.52810600  1
  Li  Li22  1  0.78126300  0.39070600  0.57814200  1
  Li  Li23  1  0.78124400  0.89081300  0.47810600  1
  Li  Li24  1  0.28061500  0.14069000  0.72821700  1
  Li  Li25  1  0.28136600  0.64063300  0.62814800  1
  Li  Li26  1  0.78129800  0.39043900  0.67819900  1
  Li  Li27  1  0.78127400  0.89070800  0.57814000  1
  Li  Li28  1  0.28049600  0.64074500  0.72822400  1
  Li  Li29  1  0.27960000  0.14123400  0.82822600  1
  Li  Li30  1  0.78150500  0.38990300  0.77829500  1
  Li  Li31  1  0.78125900  0.89044300  0.67820800  1
  Li  Li32  1  0.27379100  0.13424700  0.93015300  1
  Li  Li33  1  0.27948400  0.64080100  0.82829100  1
  Li  Li34  1  0.78380200  0.38973600  0.87805500  1
  Li  Li35  1  0.78181200  0.88993100  0.77823900  1
  Li  Li36  1  0.28209800  0.64219600  0.92765700  1
  Li  Li37  1  0.76945000  0.39169700  0.97892500  1
  Li  Li38  1  0.78295900  0.88939700  0.87822100  1
  Li  Li39  1  0.79997800  0.90375000  0.97812700  1
  Nb  Nb40  1  0.00134300  0.50377000  0.99865000  1
  Nb  Nb41  1  0.00067100  0.99522600  0.10059300  1
  Nb  Nb42  1  0.50223900  0.25447600  0.04980300  1
  Nb  Nb43  1  0.99639000  0.49746000  0.10082500  1
  Nb  Nb44  1  0.50072700  0.24995300  0.15020800  1
  Nb  Nb45  1  0.48721600  0.74838400  0.05212600  1
  Nb  Nb46  1  0.00207100  0.50438200  0.19852700  1
  Nb  Nb47  1  0.99842600  0.99861500  0.30035500  1
  Nb  Nb48  1  0.50570700  0.25270900  0.24991000  1
  Nb  Nb49  1  0.49809700  0.75435000  0.14982800  1
  Nb  Nb50  1  0.99851400  0.00049300  0.40003700  1
  Nb  Nb51  1  0.00051100  0.49982400  0.30004000  1
  Nb  Nb52  1  0.49901100  0.25103100  0.35001900  1
  Nb  Nb53  1  0.49553500  0.75011500  0.25156900  1
  Nb  Nb54  1  0.99898400  0.50045500  0.40016100  1
  Nb  Nb55  1  0.99922600  0.00047200  0.50009700  1
  Nb  Nb56  1  0.50026400  0.25029500  0.45002700  1
  Nb  Nb57  1  0.50113300  0.74912100  0.35000400  1
  Nb  Nb58  1  0.99920900  0.00023700  0.60012900  1
  Nb  Nb59  1  0.99895700  0.50044900  0.50010600  1
  Nb  Nb60  1  0.49967900  0.25045900  0.55003700  1
  Nb  Nb61  1  0.49964100  0.75053100  0.45000900  1
  Nb  Nb62  1  0.99936200  0.99998400  0.70012900  1
  Nb  Nb63  1  0.99920700  0.50024800  0.60012900  1
  Nb  Nb64  1  0.49919600  0.25050900  0.65006300  1
  Nb  Nb65  1  0.49972900  0.75047900  0.55003700  1
  Nb  Nb66  1  0.99935300  0.99980400  0.80008800  1
  Nb  Nb67  1  0.99937000  0.50002200  0.70012100  1
  Nb  Nb68  1  0.49890000  0.25055300  0.75001500  1
  Nb  Nb69  1  0.49922100  0.75050600  0.65006300  1
  Nb  Nb70  1  0.00116500  0.99851300  0.90004500  1
  Nb  Nb71  1  0.99981400  0.49959500  0.80006700  1
  Nb  Nb72  1  0.49806200  0.25025700  0.85016300  1
  Nb  Nb73  1  0.49874400  0.75059100  0.75003200  1
  Nb  Nb74  1  0.99668500  0.49946100  0.90037200  1
  Nb  Nb75  1  0.49804200  0.75035500  0.84997600  1
  Nb  Nb76  1  0.50200000  0.25073700  0.94963600  1
  Nb  Nb77  1  0.49934000  0.75511700  0.94955700  1
  O  O78  1  0.12561800  0.17488000  0.07124600  1
  O  O79  1  0.35258200  0.36447300  0.01118000  1
  O  O80  1  0.66714000  0.05835200  0.04136900  1
  O  O81  1  0.20999900  0.43369400  0.06097900  1
  O  O82  1  0.60968800  0.11470500  0.08625600  1
  O  O83  1  0.10795700  0.67962400  0.07198300  1
  O  O84  1  0.11298700  0.20429800  0.16820900  1
  O  O85  1  0.86517500  0.30318000  0.02165300  1
  O  O86  1  0.41806300  0.84036700  0.01091100  1
  O  O87  1  0.36106600  0.35845900  0.11099200  1
  O  O88  1  0.70920700  0.55850400  0.03549000  1
  O  O89  1  0.72976600  0.05698800  0.13503400  1
  O  O90  1  0.22237000  0.43619900  0.16064500  1
  O  O91  1  0.21572300  0.93456900  0.06031500  1
  O  O92  1  0.55157400  0.10744300  0.18720000  1
  O  O93  1  0.60657200  0.60356500  0.08749500  1
  O  O94  1  0.11967900  0.17638900  0.27184900  1
  O  O95  1  0.11303200  0.68072100  0.17172000  1
  O  O96  1  0.87291300  0.30369800  0.12132600  1
  O  O97  1  0.86034300  0.78574100  0.02294200  1
  O  O98  1  0.34985900  0.36587200  0.21152800  1
  O  O99  1  0.36679000  0.85654900  0.11042600  1
  O  O100  1  0.66167700  0.05926900  0.24155200  1
  O  O101  1  0.72020200  0.55205600  0.13612700  1
  O  O102  1  0.22572900  0.93261700  0.15728200  1
  O  O103  1  0.20736700  0.43157200  0.26182700  1
  O  O104  1  0.60681300  0.11474200  0.28672800  1
  O  O105  1  0.60881400  0.60913000  0.18633500  1
  O  O106  1  0.10525200  0.67973700  0.27259200  1
  O  O107  1  0.10932800  0.17891600  0.37214200  1
  O  O108  1  0.86542300  0.30219100  0.22204300  1
  O  O109  1  0.86999100  0.80487000  0.12118300  1
  O  O110  1  0.35991600  0.35816200  0.31134000  1
  O  O111  1  0.41852200  0.83263200  0.21165700  1
  O  O112  1  0.70678400  0.55917400  0.23554000  1
  O  O113  1  0.72258500  0.05430500  0.33586800  1
  O  O114  1  0.22002200  0.42903300  0.36120000  1
  O  O115  1  0.21279400  0.93422200  0.26081100  1
  O  O116  1  0.60991500  0.10899700  0.38593200  1
  O  O117  1  0.60697000  0.60272700  0.28778700  1
  O  O118  1  0.10990700  0.17923900  0.47208200  1
  O  O119  1  0.10936300  0.67948400  0.37214500  1
  O  O120  1  0.86214900  0.78639500  0.22321800  1
  O  O121  1  0.86020300  0.30184900  0.32254800  1
  O  O122  1  0.35826400  0.36009800  0.41110800  1
  O  O123  1  0.35952000  0.85868500  0.31120100  1
  O  O124  1  0.72012500  0.05506000  0.43582900  1
  O  O125  1  0.71998000  0.55459400  0.33612300  1
  O  O126  1  0.22153400  0.92791600  0.36113300  1
  O  O127  1  0.22067000  0.42883300  0.46108800  1
  O  O128  1  0.61025700  0.60985200  0.38590900  1
  O  O129  1  0.61021800  0.10978800  0.48585200  1
  O  O130  1  0.11011900  0.17918900  0.57203400  1
  O  O131  1  0.10960400  0.67920400  0.47209500  1
  O  O132  1  0.85898900  0.30483600  0.42214000  1
  O  O133  1  0.86101000  0.80476600  0.32192900  1
  O  O134  1  0.35795500  0.85972500  0.41115300  1
  O  O135  1  0.35850400  0.35990500  0.51107500  1
  O  O136  1  0.72042500  0.55479400  0.43587600  1
  O  O137  1  0.72064700  0.05497000  0.53581600  1
  O  O138  1  0.22064400  0.42902900  0.56102800  1
  O  O139  1  0.22043800  0.92892700  0.46109700  1
  O  O140  1  0.61028000  0.10988800  0.58582200  1
  O  O141  1  0.61018900  0.60972900  0.48586100  1
  O  O142  1  0.11060500  0.17912300  0.67195800  1
  O  O143  1  0.11014100  0.67918600  0.57203400  1
  O  O144  1  0.85867200  0.80448600  0.42213600  1
  O  O145  1  0.85874500  0.30486600  0.52207900  1
  O  O146  1  0.35883900  0.35997000  0.61100100  1
  O  O147  1  0.35853300  0.85994400  0.51106900  1
  O  O148  1  0.72088800  0.05498600  0.63577900  1
  O  O149  1  0.72058200  0.55496600  0.53581700  1
  O  O150  1  0.22061400  0.42925600  0.66094400  1
  O  O151  1  0.22063700  0.92902400  0.56103200  1
  O  O152  1  0.61024500  0.11005200  0.68578600  1
  O  O153  1  0.61027100  0.60989700  0.58582100  1
  O  O154  1  0.11060600  0.67914700  0.67195700  1
  O  O155  1  0.11130800  0.17905000  0.77180300  1
  O  O156  1  0.85884300  0.80485300  0.52208700  1
  O  O157  1  0.85869700  0.30506900  0.62202500  1
  O  O158  1  0.35935300  0.35990800  0.71088800  1
  O  O159  1  0.35882100  0.85997100  0.61100400  1
  O  O160  1  0.72113800  0.05500700  0.73575400  1
  O  O161  1  0.72086000  0.55499900  0.63578300  1
  O  O162  1  0.22029300  0.42956000  0.76080200  1
  O  O163  1  0.22065600  0.92925100  0.66093700  1
  O  O164  1  0.61046000  0.11028300  0.78574300  1
  O  O165  1  0.61028700  0.61003400  0.68578800  1
  O  O166  1  0.11464900  0.17864200  0.87147900  1
  O  O167  1  0.11129200  0.67890700  0.77181600  1
  O  O168  1  0.85853300  0.30536500  0.72191200  1
  O  O169  1  0.85870500  0.80508200  0.62202300  1
  O  O170  1  0.35936400  0.85991400  0.71087800  1
  O  O171  1  0.36053200  0.35957500  0.81071100  1
  O  O172  1  0.72269800  0.05472700  0.83569300  1
  O  O173  1  0.72118400  0.55498100  0.73575100  1
  O  O174  1  0.22033700  0.92951400  0.76080200  1
  O  O175  1  0.22148000  0.43044600  0.86043700  1
  O  O176  1  0.61259000  0.11042400  0.88565100  1
  O  O177  1  0.61029400  0.61033500  0.78575600  1
  O  O178  1  0.11602000  0.20042500  0.96923200  1
  O  O179  1  0.11364200  0.67887500  0.87160400  1
  O  O180  1  0.85814500  0.30583600  0.82173000  1
  O  O181  1  0.85845200  0.80537800  0.72190900  1
  O  O182  1  0.36041200  0.85970100  0.81073600  1
  O  O183  1  0.36164100  0.35989800  0.91079500  1
  O  O184  1  0.72865500  0.05722600  0.93505000  1
  O  O185  1  0.72240400  0.55468800  0.83572500  1
  O  O186  1  0.22432200  0.43613300  0.96026200  1
  O  O187  1  0.22197000  0.93017200  0.86048300  1
  O  O188  1  0.55011100  0.10714600  0.98723700  1
  O  O189  1  0.61119800  0.61020500  0.88564200  1
  O  O190  1  0.11381800  0.67999600  0.97166700  1
  O  O191  1  0.87329500  0.30535400  0.92111500  1
  O  O192  1  0.85830000  0.80569000  0.82174200  1
  O  O193  1  0.36626500  0.85740000  0.91023000  1
  O  O194  1  0.72165100  0.55238800  0.93584900  1
  O  O195  1  0.22460500  0.93281300  0.95722200  1
  O  O196  1  0.60955200  0.60957400  0.98621900  1
  O  O197  1  0.86860700  0.80514000  0.92120600  1
