# generated using pymatgen
data_Li2FeP2O7
_symmetry_space_group_name_H-M   'P 1'
_cell_length_a   6.58504500
_cell_length_b   9.31066023
_cell_length_c   10.44376803
_cell_angle_alpha   113.35702775
_cell_angle_beta   88.50612996
_cell_angle_gamma   107.28986551
_symmetry_Int_Tables_number   1
_chemical_formula_structural   Li2FeP2O7
_chemical_formula_sum   'Li8 Fe4 P8 O28'
_cell_volume   558.19979283
_cell_formula_units_Z   4
loop_
 _symmetry_equiv_pos_site_id
 _symmetry_equiv_pos_as_xyz
  1  'x, y, z'
loop_
 _atom_site_type_symbol
 _atom_site_label
 _atom_site_symmetry_multiplicity
 _atom_site_fract_x
 _atom_site_fract_y
 _atom_site_fract_z
 _atom_site_occupancy
  Li  Li0  1  0.86492900  0.89501100  0.89219300  1
  Li  Li1  1  0.04739700  0.18733700  0.50691500  1
  Li  Li2  1  0.16544200  0.48846300  0.03758200  1
  Li  Li3  1  0.35283300  0.92513700  0.37771200  1
  Li  Li4  1  0.63463500  0.07493500  0.62153200  1
  Li  Li5  1  0.59251700  0.50596200  0.97009600  1
  Li  Li6  1  0.93728800  0.83283000  0.50215300  1
  Li  Li7  1  0.16763100  0.10721200  0.12507500  1
  Fe  Fe8  1  0.35929500  0.50336000  0.73766100  1
  Fe  Fe9  1  0.72318000  0.09968900  0.21777900  1
  Fe  Fe10  1  0.62865700  0.48894200  0.25245300  1
  Fe  Fe11  1  0.28276000  0.89117700  0.77741100  1
  P  P12  1  0.08060700  0.17974100  0.79754700  1
  P  P13  1  0.69594500  0.19076300  0.94453100  1
  P  P14  1  0.31375100  0.80140200  0.05406400  1
  P  P15  1  0.87049300  0.54670300  0.69834500  1
  P  P16  1  0.55529300  0.28805800  0.46270300  1
  P  P17  1  0.43918100  0.70779100  0.53153200  1
  P  P18  1  0.11740400  0.44239100  0.29928300  1
  P  P19  1  0.92617900  0.80899300  0.19653000  1
  O  O20  1  0.73831700  0.08216600  0.01250200  1
  O  O21  1  0.36980800  0.85446000  0.53526400  1
  O  O22  1  0.37979300  0.65242000  0.96165900  1
  O  O23  1  0.27255000  0.90817800  0.98440000  1
  O  O24  1  0.24514400  0.54049800  0.45479200  1
  O  O25  1  0.35602100  0.30253700  0.53749900  1
  O  O26  1  0.02709100  0.26355700  0.28756000  1
  O  O27  1  0.69376600  0.52981100  0.79532000  1
  O  O28  1  0.45336700  0.90806000  0.19439500  1
  O  O29  1  0.71804400  0.67232000  0.17129000  1
  O  O30  1  0.74810500  0.45654200  0.54013100  1
  O  O31  1  0.62532600  0.14343900  0.46369800  1
  O  O32  1  0.91252000  0.93096500  0.13408300  1
  O  O33  1  0.03368500  0.45985900  0.69757100  1
  O  O34  1  0.63565200  0.69260700  0.45387300  1
  O  O35  1  0.28492000  0.31998400  0.82042700  1
  O  O36  1  0.03836700  0.89877600  0.34746400  1
  O  O37  1  0.08528700  0.71071400  0.09759900  1
  O  O38  1  0.97143000  0.72793600  0.71945400  1
  O  O39  1  0.96051900  0.08984200  0.64842100  1
  O  O40  1  0.95128100  0.52247700  0.29342700  1
  O  O41  1  0.28543100  0.45515400  0.19521600  1
  O  O42  1  0.45630400  0.71685100  0.68254500  1
  O  O43  1  0.55805000  0.08479600  0.80339800  1
  O  O44  1  0.62199000  0.33332200  0.03774400  1
  O  O45  1  0.53762200  0.27366200  0.31000600  1
  O  O46  1  0.10387500  0.05926400  0.85805600  1
  O  O47  1  0.92916400  0.27971400  0.90386600  1
