# generated using pymatgen
data_Li3Al3P3H2O14F
_symmetry_space_group_name_H-M   'P 1'
_cell_length_a   5.08846300
_cell_length_b   7.13702204
_cell_length_c   14.21333587
_cell_angle_alpha   90.61985235
_cell_angle_beta   93.24604867
_cell_angle_gamma   106.84087463
_symmetry_Int_Tables_number   1
_chemical_formula_structural   Li3Al3P3H2O14F
_chemical_formula_sum   'Li6 Al6 P6 H4 O28 F2'
_cell_volume   493.04806696
_cell_formula_units_Z   2
loop_
 _symmetry_equiv_pos_site_id
 _symmetry_equiv_pos_as_xyz
  1  'x, y, z'
loop_
 _atom_site_type_symbol
 _atom_site_label
 _atom_site_symmetry_multiplicity
 _atom_site_fract_x
 _atom_site_fract_y
 _atom_site_fract_z
 _atom_site_occupancy
  Li  Li0  1  0.41773600  0.68094500  0.96783100  1
  Li  Li1  1  0.09027400  0.35161600  0.63573600  1
  Li  Li2  1  0.74920700  0.00930900  0.29806900  1
  Li  Li3  1  0.23544300  0.97956200  0.70807500  1
  Li  Li4  1  0.90833300  0.66007700  0.36772700  1
  Li  Li5  1  0.55566100  0.31218500  0.04177500  1
  Al  Al6  1  0.33466100  0.33396900  0.83581000  1
  Al  Al7  1  0.00159600  0.00339700  0.50085900  1
  Al  Al8  1  0.65595900  0.66673500  0.16817000  1
  Al  Al9  1  0.67406100  0.67215500  0.66650500  1
  Al  Al10  1  0.32704600  0.33391600  0.33391700  1
  Al  Al11  1  0.99898500  0.00378000  0.99953200  1
  P  P12  1  0.73202100  0.05868600  0.79434900  1
  P  P13  1  0.93510700  0.61183700  0.87084200  1
  P  P14  1  0.39874100  0.72619200  0.46208600  1
  P  P15  1  0.60142700  0.27756000  0.53935700  1
  P  P16  1  0.05384800  0.39323800  0.12618000  1
  P  P17  1  0.26060600  0.94574900  0.20380900  1
  H  H18  1  0.90270300  0.25040600  0.40603500  1
  H  H19  1  0.42435200  0.08378000  0.92918200  1
  H  H20  1  0.09858400  0.75413500  0.59536600  1
  H  H21  1  0.74688100  0.41744800  0.25978300  1
  O  O22  1  0.05861200  0.34045100  0.23168600  1
  O  O23  1  0.03056800  0.15424900  0.76451200  1
  O  O24  1  0.10899200  0.46797300  0.88567300  1
  O  O25  1  0.69822000  0.81441400  0.43259800  1
  O  O26  1  0.73155500  0.00298600  0.89996200  1
  O  O27  1  0.77123100  0.13195000  0.55588000  1
  O  O28  1  0.35158300  0.49106900  0.09559100  1
  O  O29  1  0.08239300  0.78621700  0.93920100  1
  O  O30  1  0.58350000  0.88111300  0.72855100  1
  O  O31  1  0.39769000  0.67038300  0.56778500  1
  O  O32  1  0.43491000  0.80187600  0.21863500  1
  O  O33  1  0.97474700  0.83663100  0.60623500  1
  O  O34  1  0.75417300  0.45545900  0.60470600  1
  O  O35  1  0.24614300  0.54948300  0.39611500  1
  O  O36  1  0.02576600  0.16773500  0.39361300  1
  O  O37  1  0.55441500  0.19911600  0.77904800  1
  O  O38  1  0.62647500  0.50041700  0.27256900  1
  O  O39  1  0.41042500  0.11960100  0.27192000  1
  O  O40  1  0.90703700  0.21531900  0.06036700  1
  O  O41  1  0.63538300  0.52078500  0.90053200  1
  O  O42  1  0.22950500  0.87204100  0.44574300  1
  O  O43  1  0.30167500  0.16729500  0.93967900  1
  O  O44  1  0.30151800  0.19230200  0.56831400  1
  O  O45  1  0.25498900  0.00685600  0.10084600  1
  O  O46  1  0.87242600  0.53158700  0.11098500  1
  O  O47  1  0.96173300  0.85136100  0.23382600  1
  O  O48  1  0.93183100  0.67187800  0.76727800  1
  O  O49  1  0.60302000  0.33114400  0.43353300  1
  F  F50  1  0.38485000  0.49276100  0.72660200  1
  F  F51  1  0.70806900  0.82753900  0.05968600  1
