# generated using pymatgen
data_LiFe4P7O24
_symmetry_space_group_name_H-M   'P 1'
_cell_length_a   10.24311900
_cell_length_b   10.31467679
_cell_length_c   10.74364057
_cell_angle_alpha   108.80084921
_cell_angle_beta   111.21668992
_cell_angle_gamma   105.20849835
_symmetry_Int_Tables_number   1
_chemical_formula_structural   LiFe4P7O24
_chemical_formula_sum   'Li2 Fe8 P14 O48'
_cell_volume   904.64787422
_cell_formula_units_Z   2
loop_
 _symmetry_equiv_pos_site_id
 _symmetry_equiv_pos_as_xyz
  1  'x, y, z'
loop_
 _atom_site_type_symbol
 _atom_site_label
 _atom_site_symmetry_multiplicity
 _atom_site_fract_x
 _atom_site_fract_y
 _atom_site_fract_z
 _atom_site_occupancy
  Li  Li0  1  0.44874000  0.75345100  0.32991900  1
  Li  Li1  1  0.55126000  0.24654900  0.67008100  1
  Fe  Fe2  1  0.01479700  0.17657400  0.59219900  1
  Fe  Fe3  1  0.98520300  0.82342600  0.40780100  1
  Fe  Fe4  1  0.51236300  0.66040200  0.88886800  1
  Fe  Fe5  1  0.48763700  0.33959800  0.11113200  1
  Fe  Fe6  1  0.99989900  0.38265300  0.07585900  1
  Fe  Fe7  1  0.50019800  0.10038700  0.25676200  1
  Fe  Fe8  1  0.49980200  0.89961300  0.74323800  1
  Fe  Fe9  1  0.00010100  0.61734700  0.92414100  1
  P  P10  1  0.80528600  0.37692200  0.56740900  1
  P  P11  1  0.80367800  0.05906900  0.73823000  1
  P  P12  1  0.19632200  0.94093100  0.26177000  1
  P  P13  1  0.74048800  0.96483600  0.24272100  1
  P  P14  1  0.74913000  0.53911800  0.04868000  1
  P  P15  1  0.26845200  0.82111900  0.88212400  1
  P  P16  1  0.25951200  0.03516400  0.75727900  1
  P  P17  1  0.73154800  0.17888100  0.11787600  1
  P  P18  1  0.22796000  0.21865400  0.22522400  1
  P  P19  1  0.77204000  0.78134600  0.77477600  1
  P  P20  1  0.25087000  0.46088200  0.95132000  1
  P  P21  1  0.75044500  0.60931300  0.47817500  1
  P  P22  1  0.19471400  0.62307800  0.43259100  1
  P  P23  1  0.24955500  0.39068700  0.52182500  1
  O  O24  1  0.36467600  0.59372600  0.95268800  1
  O  O25  1  0.62504100  0.98299500  0.65934500  1
  O  O26  1  0.37655500  0.01320700  0.70343500  1
  O  O27  1  0.87241600  0.20952400  0.87534200  1
  O  O28  1  0.34932900  0.43873300  0.08385700  1
  O  O29  1  0.86265300  0.94414800  0.79463800  1
  O  O30  1  0.35732700  0.93706900  0.04700700  1
  O  O31  1  0.87221000  0.49794600  0.00967800  1
  O  O32  1  0.88133500  0.97501900  0.37075800  1
  O  O33  1  0.62344500  0.98679300  0.29656500  1
  O  O34  1  0.37997100  0.78211500  0.82317000  1
  O  O35  1  0.85428100  0.06680400  0.62439500  1
  O  O36  1  0.11330800  0.25495700  0.12767100  1
  O  O37  1  0.39417300  0.49251800  0.67149000  1
  O  O38  1  0.90996100  0.30516100  0.53929800  1
  O  O39  1  0.84673200  0.52086800  0.53088300  1
  O  O40  1  0.18655000  0.89270900  0.78160900  1
  O  O41  1  0.62002900  0.21788500  0.17683000  1
  O  O42  1  0.33706900  0.17461300  0.90739300  1
  O  O43  1  0.15326800  0.47913200  0.46911700  1
  O  O44  1  0.60582700  0.50748200  0.32851000  1
  O  O45  1  0.11866500  0.02498100  0.62924200  1
  O  O46  1  0.13356300  0.68063700  0.84123100  1
  O  O47  1  0.83548000  0.67899500  0.20282800  1
  O  O48  1  0.12758400  0.79047600  0.12465800  1
  O  O49  1  0.14416200  0.24691400  0.50618500  1
  O  O50  1  0.09003900  0.69483900  0.46070200  1
  O  O51  1  0.36508200  0.21818500  0.19822400  1
  O  O52  1  0.37495900  0.01700500  0.34065500  1
  O  O53  1  0.83422900  0.43984100  0.72971200  1
  O  O54  1  0.16452000  0.32100500  0.79717200  1
  O  O55  1  0.36961500  0.72477100  0.53423400  1
  O  O56  1  0.16577100  0.56015900  0.27028800  1
  O  O57  1  0.13734700  0.05585200  0.20536200  1
  O  O58  1  0.63038500  0.27522900  0.46576600  1
  O  O59  1  0.69087700  0.66207200  0.59879800  1
  O  O60  1  0.14571900  0.93319600  0.37560500  1
  O  O61  1  0.63491800  0.78181500  0.80177600  1
  O  O62  1  0.64267300  0.06293100  0.95299300  1
  O  O63  1  0.63532400  0.40627400  0.04731200  1
  O  O64  1  0.81345000  0.10729100  0.21839100  1
  O  O65  1  0.66293100  0.82538700  0.09260700  1
  O  O66  1  0.88669200  0.74504300  0.87232900  1
  O  O67  1  0.86643700  0.31936300  0.15876900  1
  O  O68  1  0.30912300  0.33792800  0.40120200  1
  O  O69  1  0.85583800  0.75308600  0.49381500  1
  O  O70  1  0.12779000  0.50205400  0.99032200  1
  O  O71  1  0.65067100  0.56126700  0.91614300  1
