# generated using pymatgen
data_Li27Sb10
_symmetry_space_group_name_H-M   'P 1'
_cell_length_a   12.23668975
_cell_length_b   12.23668975
_cell_length_c   7.95452296
_cell_angle_alpha   84.03095601
_cell_angle_beta   84.03095601
_cell_angle_gamma   142.13240745
_symmetry_Int_Tables_number   1
_chemical_formula_structural   Li27Sb10
_chemical_formula_sum   'Li27 Sb10'
_cell_volume   692.56708537
_cell_formula_units_Z   1
loop_
 _symmetry_equiv_pos_site_id
 _symmetry_equiv_pos_as_xyz
  1  'x, y, z'
loop_
 _atom_site_type_symbol
 _atom_site_label
 _atom_site_symmetry_multiplicity
 _atom_site_fract_x
 _atom_site_fract_y
 _atom_site_fract_z
 _atom_site_occupancy
  Li  Li0  1  0.41836400  0.81833100  0.64367400  1
  Li  Li1  1  0.80018900  0.19981100  0.50000000  1
  Li  Li2  1  0.58163600  0.18166900  0.35632600  1
  Li  Li3  1  0.02560300  0.21369900  0.61703200  1
  Li  Li4  1  0.93312700  0.34281200  0.11364300  1
  Li  Li5  1  0.18166900  0.58163600  0.35632600  1
  Li  Li6  1  0.39828000  0.60172000  0.50000000  1
  Li  Li7  1  0.64565800  0.64565800  0.61696600  1
  Li  Li8  1  0.21369900  0.02560300  0.61703200  1
  Li  Li9  1  0.51247700  0.72293700  0.11858000  1
  Li  Li10  1  0.78630100  0.97439700  0.38296800  1
  Li  Li11  1  0.06687300  0.65718800  0.88635700  1
  Li  Li12  1  0.81833100  0.41836400  0.64367400  1
  Li  Li13  1  0.65718800  0.06687300  0.88635700  1
  Li  Li14  1  0.89948900  0.10051100  0.00000000  1
  Li  Li15  1  0.11753300  0.11753300  0.14470800  1
  Li  Li16  1  0.60172000  0.39828000  0.50000000  1
  Li  Li17  1  0.35434200  0.35434200  0.38303400  1
  Li  Li18  1  0.19981100  0.80018900  0.50000000  1
  Li  Li19  1  0.27706300  0.48752300  0.88142000  1
  Li  Li20  1  0.50000000  0.50000000  0.00000000  1
  Li  Li21  1  0.72293700  0.51247700  0.11858000  1
  Li  Li22  1  0.97439700  0.78630100  0.38296800  1
  Li  Li23  1  0.10051100  0.89948900  0.00000000  1
  Li  Li24  1  0.34281200  0.93312700  0.11364300  1
  Li  Li25  1  0.88246700  0.88246700  0.85529200  1
  Li  Li26  1  0.48752300  0.27706300  0.88142000  1
  Sb  Sb27  1  0.44118700  0.04853600  0.73534300  1
  Sb  Sb28  1  0.04853600  0.44118700  0.73534300  1
  Sb  Sb29  1  0.95146400  0.55881300  0.26465700  1
  Sb  Sb30  1  0.65102200  0.85258400  0.75179800  1
  Sb  Sb31  1  0.55881300  0.95146400  0.26465700  1
  Sb  Sb32  1  0.26066400  0.26066400  0.76045200  1
  Sb  Sb33  1  0.14741600  0.34897800  0.24820200  1
  Sb  Sb34  1  0.85258400  0.65102200  0.75179800  1
  Sb  Sb35  1  0.73933600  0.73933600  0.23954700  1
  Sb  Sb36  1  0.34897800  0.14741600  0.24820200  1
