# generated using pymatgen
data_Li6I3N
_symmetry_space_group_name_H-M   'P 1'
_cell_length_a   6.75046950
_cell_length_b   6.75046950
_cell_length_c   6.75503514
_cell_angle_alpha   60.34263117
_cell_angle_beta   60.34263117
_cell_angle_gamma   90.39779290
_symmetry_Int_Tables_number   1
_chemical_formula_structural   Li6I3N
_chemical_formula_sum   'Li6 I3 N1'
_cell_volume   219.15203169
_cell_formula_units_Z   1
loop_
 _symmetry_equiv_pos_site_id
 _symmetry_equiv_pos_as_xyz
  1  'x, y, z'
loop_
 _atom_site_type_symbol
 _atom_site_label
 _atom_site_symmetry_multiplicity
 _atom_site_fract_x
 _atom_site_fract_y
 _atom_site_fract_z
 _atom_site_occupancy
  Li  Li0  1  0.72209700  0.72209700  0.40748200  1
  Li  Li1  1  0.77648400  0.18343300  0.04120300  1
  Li  Li2  1  0.86694600  0.86694600  0.88112400  1
  Li  Li3  1  0.10426700  0.10426700  0.17506100  1
  Li  Li4  1  0.24896500  0.24896500  0.64794500  1
  Li  Li5  1  0.18343300  0.77648400  0.04120300  1
  I  I6  1  0.74581100  0.24610800  0.50884600  1
  I  I7  1  0.49683700  0.49683700  0.00624800  1
  I  I8  1  0.24610800  0.74581100  0.50884600  1
  N  N9  1  0.98625200  0.98625200  0.02764300  1
