# generated using pymatgen
data_Li25Ca5La7Nb8O48
_symmetry_space_group_name_H-M   'P 1'
_cell_length_a   11.32710243
_cell_length_b   11.32551493
_cell_length_c   11.12980300
_cell_angle_alpha   108.33856011
_cell_angle_beta   109.54212080
_cell_angle_gamma   110.22389670
_symmetry_Int_Tables_number   1
_chemical_formula_structural   Li25Ca5La7Nb8O48
_chemical_formula_sum   'Li25 Ca5 La7 Nb8 O48'
_cell_volume   1103.05621220
_cell_formula_units_Z   1
loop_
 _symmetry_equiv_pos_site_id
 _symmetry_equiv_pos_as_xyz
  1  'x, y, z'
loop_
 _atom_site_type_symbol
 _atom_site_label
 _atom_site_symmetry_multiplicity
 _atom_site_fract_x
 _atom_site_fract_y
 _atom_site_fract_z
 _atom_site_occupancy
  Li  Li0  1  0.25058451  0.62822426  0.38458837  1
  Li  Li1  1  0.36468526  0.23056071  0.61916223  1
  Li  Li2  1  0.53585803  0.72640305  0.38160766  1
  Li  Li3  1  0.68498496  0.64918339  0.29532137  1
  Li  Li4  1  0.72817595  0.90479371  0.32250409  1
  Li  Li5  1  0.29565926  0.14033842  -0.09931605  1
  Li  Li6  1  0.48333150  0.41586448  0.15775110  1
  Li  Li7  1  0.81445437  0.88494265  0.14127061  1
  Li  Li8  1  0.84825138  0.48374481  0.68070532  1
  Li  Li9  1  0.65198905  0.35430858  0.24321849  1
  Li  Li10  1  0.83693150  0.27946995  0.70575044  1
  Li  Li11  1  0.58527376  0.32896933  0.46316733  1
  Li  Li12  1  0.60697666  0.31623921  0.66769184  1
  Li  Li13  1  0.88409892  0.43124758  0.25690997  1
  Li  Li14  1  0.06627729  0.08886850  0.80568978  1
  Li  Li15  1  0.77202797  0.96780808  0.56110436  1
  Li  Li16  1  0.13622787  0.75318472  0.87757714  1
  Li  Li17  1  0.65888960  0.52273942  0.43098709  1
  Li  Li18  1  0.48304992  0.70972578  0.86540363  1
  Li  Li19  1  0.89960138  0.14433150  0.78010031  1
  Li  Li20  1  0.84779073  0.13197757  0.94652946  1
  Li  Li21  1  0.14503391  0.88902245  0.26860772  1
  Li  Li22  1  0.57215164  0.72175992  0.10016320  1
  Li  Li23  1  0.84553399  0.15288417  0.16387027  1
  Li  Li24  1  0.00673328  0.36867548  0.14624015  1
  Ca  Ca25  1  0.13267044  0.24908461  0.37903146  1
  Ca  Ca26  1  0.63189944  0.24148787  0.89849769  1
  Ca  Ca27  1  0.76744811  0.63648942  0.87662731  1
  Ca  Ca28  1  0.76396772  0.17079585  0.39338462  1
  Ca  Ca29  1  0.89828906  0.65228351  0.24469545  1
  La  La30  1  0.15345389  0.38568447  0.76238334  1
  La  La31  1  0.26253488  0.88033255  0.63474281  1
  La  La32  1  0.61434688  0.85907094  0.73013527  1
  La  La33  1  0.23198649  0.37050877  0.12160199  1
  La  La34  1  0.36422806  0.75915680  0.13995813  1
  La  La35  1  0.35622537  0.10260552  0.21074131  1
  La  La36  1  0.90005083  0.76672115  0.62801961  1
  Nb  Nb37  1  0.02206608  0.01864718  0.50719773  1
  Nb  Nb38  1  -0.00270893  0.98360694  -0.00060874  1
  Nb  Nb39  1  0.48106429  0.49999469  0.52404878  1
  Nb  Nb40  1  0.51493521  0.01378200  0.50991651  1
  Nb  Nb41  1  0.51540616  0.47413742  0.96522360  1
  Nb  Nb42  1  0.51266471  -0.00474699  0.00375482  1
  Nb  Nb43  1  0.04043394  0.51063447  0.52940877  1
  Nb  Nb44  1  0.00125619  0.52433354  0.00628412  1
  O  O45  1  0.11080698  0.98085843  0.68238952  1
  O  O46  1  0.02034287  0.33026064  0.92386927  1
  O  O47  1  0.13158305  0.60005486  0.93115892  1
  O  O48  1  0.08476145  0.69904941  0.67607820  1
  O  O49  1  0.08555434  0.89538412  0.41545752  1
  O  O50  1  0.08976827  0.61124628  0.42028213  1
  O  O51  1  0.19446006  0.48312423  0.60380399  1
  O  O52  1  0.43258950  0.83227418  0.80268626  1
  O  O53  1  0.32605763  0.33251685  0.93997261  1
  O  O54  1  0.40706794  0.57209995  0.91428235  1
  O  O55  1  0.01252004  0.19608752  0.12284788  1
  O  O56  1  0.34537016  0.93233272  0.30956586  1
  O  O57  1  0.18216217  0.21012014  0.58441955  1
  O  O58  1  0.18636562  0.57048336  0.17996443  1
  O  O59  1  0.41893937  0.83121440  0.52370855  1
  O  O60  1  0.30000849  0.46799360  0.38258515  1
  O  O61  1  0.33288437  0.90700699  0.02587685  1
  O  O62  1  0.11875503  0.02219660  0.19452161  1
  O  O63  1  0.42411739  0.07762928  0.89072806  1
  O  O64  1  0.52630732  0.61973616  0.71245428  1
  O  O65  1  0.54379414  0.38956833  0.81163874  1
  O  O66  1  0.40066917  0.30326236  0.48876548  1
  O  O67  1  0.60115073  0.92066202  0.39581241  1
  O  O68  1  0.18445652  0.11866595  0.00914057  1
  O  O69  1  0.80216705  0.87879935  0.96721838  1
  O  O70  1  0.44780740  0.10430044  0.63139857  1
  O  O71  1  0.61495856  0.67945039  0.52182877  1
  O  O72  1  0.49093402  0.60782857  0.19067582  1
  O  O73  1  0.48237804  0.36140955  0.29805549  1
  O  O74  1  0.58496677  0.88910075  0.10386123  1
  O  O75  1  0.88627526  0.98505440  0.80412914  1
  O  O76  1  0.68884303  0.09004906  0.98284184  1
  O  O77  1  0.69121561  0.51530827  0.61197420  1
  O  O78  1  0.61678425  0.19235697  0.49953010  1
  O  O79  1  0.81896515  0.43271773  0.82077287  1
  O  O80  1  0.82775108  0.84275115  0.44136709  1
  O  O81  1  0.69977204  0.08232595  0.69785932  1
  O  O82  1  0.98153808  0.80540286  0.88077311  1
  O  O83  1  0.70502564  0.67007130  0.08077518  1
  O  O84  1  0.61857335  0.42150380  0.09956027  1
  O  O85  1  0.59102257  0.16117689  0.20090098  1
  O  O86  1  0.81223677  0.55902875  0.39633173  1
  O  O87  1  0.93570002  0.39189441  0.60677045  1
  O  O88  1  0.96084165  0.13474915  0.64283404  1
  O  O89  1  0.91903375  0.32156940  0.33966336  1
  O  O90  1  0.87717216  0.42506586  0.08451536  1
  O  O91  1  0.99246042  0.69241187  0.09769909  1
  O  O92  1  0.90439319  0.03946628  0.34000299  1
