# generated using pymatgen
data_LiDy(PO3)4
_symmetry_space_group_name_H-M   'P 1'
_cell_length_a   8.96468069
_cell_length_b   8.96468069
_cell_length_c   9.70779369
_cell_angle_alpha   57.31668253
_cell_angle_beta   57.31668253
_cell_angle_gamma   46.87924832
_symmetry_Int_Tables_number   1
_chemical_formula_structural   LiDy(PO3)4
_chemical_formula_sum   'Li2 Dy2 P8 O24'
_cell_volume   460.37947318
_cell_formula_units_Z   2
loop_
 _symmetry_equiv_pos_site_id
 _symmetry_equiv_pos_as_xyz
  1  'x, y, z'
loop_
 _atom_site_type_symbol
 _atom_site_label
 _atom_site_symmetry_multiplicity
 _atom_site_fract_x
 _atom_site_fract_y
 _atom_site_fract_z
 _atom_site_occupancy
  Li  Li0  1  0.79318500  0.20681500  0.25000000  1
  Li  Li1  1  0.20681500  0.79318500  0.75000000  1
  Dy  Dy2  1  0.29605800  0.70394200  0.25000000  1
  Dy  Dy3  1  0.70394200  0.29605800  0.75000000  1
  P  P4  1  0.79515300  0.49540400  0.30660600  1
  P  P5  1  0.50459600  0.20484700  0.19339400  1
  P  P6  1  0.20484700  0.50459600  0.69339400  1
  P  P7  1  0.49540400  0.79515300  0.80660600  1
  P  P8  1  0.18813700  0.08586300  0.38366200  1
  P  P9  1  0.91413700  0.81186300  0.11633800  1
  P  P10  1  0.81186300  0.91413700  0.61633800  1
  P  P11  1  0.08586300  0.18813700  0.88366200  1
  O  O12  1  0.74126100  0.50803600  0.47684400  1
  O  O13  1  0.49196400  0.25873900  0.02315600  1
  O  O14  1  0.25873900  0.49196400  0.52315600  1
  O  O15  1  0.50803600  0.74126100  0.97684400  1
  O  O16  1  0.65423500  0.48966700  0.27298400  1
  O  O17  1  0.51033300  0.34576500  0.22701600  1
  O  O18  1  0.34576500  0.51033300  0.72701600  1
  O  O19  1  0.48966700  0.65423500  0.77298400  1
  O  O20  1  0.89976300  0.32306100  0.81572400  1
  O  O21  1  0.67693900  0.10023700  0.68427600  1
  O  O22  1  0.10023700  0.67693900  0.18427600  1
  O  O23  1  0.32306100  0.89976300  0.31572400  1
  O  O24  1  0.06220600  0.07116400  0.07105000  1
  O  O25  1  0.92883600  0.93779400  0.42895000  1
  O  O26  1  0.93779400  0.92883600  0.92895000  1
  O  O27  1  0.07116400  0.06220600  0.57105000  1
  O  O28  1  0.16623800  0.32446300  0.84688400  1
  O  O29  1  0.67553700  0.83376200  0.65311600  1
  O  O30  1  0.83376200  0.67553700  0.15311600  1
  O  O31  1  0.32446300  0.16623800  0.34688400  1
  O  O32  1  0.28263300  0.02809700  0.76761200  1
  O  O33  1  0.97190300  0.71736700  0.73238800  1
  O  O34  1  0.71736700  0.97190300  0.23238800  1
  O  O35  1  0.02809700  0.28263300  0.26761200  1
