# generated using pymatgen
data_LiMnO2
_symmetry_space_group_name_H-M   'P 1'
_cell_length_a   2.87178400
_cell_length_b   5.82278500
_cell_length_c   32.44334900
_cell_angle_alpha   90.00000000
_cell_angle_beta   90.00000000
_cell_angle_gamma   90.00000000
_symmetry_Int_Tables_number   1
_chemical_formula_structural   LiMnO2
_chemical_formula_sum   'Li14 Mn14 O28'
_cell_volume   542.51057035
_cell_formula_units_Z   14
loop_
 _symmetry_equiv_pos_site_id
 _symmetry_equiv_pos_as_xyz
  1  'x, y, z'
loop_
 _atom_site_type_symbol
 _atom_site_label
 _atom_site_symmetry_multiplicity
 _atom_site_fract_x
 _atom_site_fract_y
 _atom_site_fract_z
 _atom_site_occupancy
  Li  Li0  1  0.00000000  0.63950700  0.85833100  1
  Li  Li1  1  0.00000000  0.11366900  0.00000000  1
  Li  Li2  1  0.00000000  0.63950700  0.14166900  1
  Li  Li3  1  0.00000000  0.11849400  0.28520800  1
  Li  Li4  1  0.00000000  0.11633500  0.42834800  1
  Li  Li5  1  0.00000000  0.11633500  0.57165200  1
  Li  Li6  1  0.00000000  0.11849400  0.71479200  1
  Li  Li7  1  0.50000000  0.87349300  0.92946500  1
  Li  Li8  1  0.50000000  0.87915600  0.21173400  1
  Li  Li9  1  0.50000000  0.87754100  0.35593500  1
  Li  Li10  1  0.50000000  0.87349300  0.07053500  1
  Li  Li11  1  0.50000000  0.87587300  0.50000000  1
  Li  Li12  1  0.50000000  0.87754100  0.64406500  1
  Li  Li13  1  0.50000000  0.87915600  0.78826600  1
  Mn  Mn14  1  0.00000000  0.11983600  0.85924400  1
  Mn  Mn15  1  0.00000000  0.11983600  0.14075600  1
  Mn  Mn16  1  0.00000000  0.63535900  0.00000000  1
  Mn  Mn17  1  0.00000000  0.63574800  0.28395700  1
  Mn  Mn18  1  0.00000000  0.63223200  0.42790800  1
  Mn  Mn19  1  0.00000000  0.63223200  0.57209200  1
  Mn  Mn20  1  0.00000000  0.63574800  0.71604300  1
  Mn  Mn21  1  0.50000000  0.37465100  0.92977400  1
  Mn  Mn22  1  0.50000000  0.37465100  0.07022600  1
  Mn  Mn23  1  0.50000000  0.37755600  0.21204900  1
  Mn  Mn24  1  0.50000000  0.36242500  0.35573300  1
  Mn  Mn25  1  0.50000000  0.36053300  0.50000000  1
  Mn  Mn26  1  0.50000000  0.36242500  0.64426700  1
  Mn  Mn27  1  0.50000000  0.37755600  0.78795100  1
  O  O28  1  0.00000000  0.14407100  0.93033200  1
  O  O29  1  0.00000000  0.60465100  0.92911500  1
  O  O30  1  0.00000000  0.14407100  0.06966800  1
  O  O31  1  0.00000000  0.60465100  0.07088500  1
  O  O32  1  0.00000000  0.14754200  0.21227800  1
  O  O33  1  0.00000000  0.60779800  0.21170100  1
  O  O34  1  0.00000000  0.13811100  0.35544400  1
  O  O35  1  0.00000000  0.59820600  0.35609200  1
  O  O36  1  0.00000000  0.13634000  0.50000000  1
  O  O37  1  0.00000000  0.59621200  0.50000000  1
  O  O38  1  0.00000000  0.13811100  0.64455600  1
  O  O39  1  0.00000000  0.59820600  0.64390800  1
  O  O40  1  0.00000000  0.14754200  0.78772200  1
  O  O41  1  0.00000000  0.60779800  0.78829900  1
  O  O42  1  0.50000000  0.35646700  0.85900700  1
  O  O43  1  0.50000000  0.89632400  0.85915300  1
  O  O44  1  0.50000000  0.39855600  0.00000000  1
  O  O45  1  0.50000000  0.85863300  0.00000000  1
  O  O46  1  0.50000000  0.35646700  0.14099300  1
  O  O47  1  0.50000000  0.89632400  0.14084700  1
  O  O48  1  0.50000000  0.39985100  0.28403400  1
  O  O49  1  0.50000000  0.85959300  0.28420900  1
  O  O50  1  0.50000000  0.39623600  0.57205600  1
  O  O51  1  0.50000000  0.85658900  0.57203100  1
  O  O52  1  0.50000000  0.39985100  0.71596600  1
  O  O53  1  0.50000000  0.85959300  0.71579100  1
  O  O54  1  0.50000000  0.39623600  0.42794400  1
  O  O55  1  0.50000000  0.85658900  0.42796900  1
