# generated using pymatgen
data_LiMn(PO3)4
_symmetry_space_group_name_H-M   'P 1'
_cell_length_a   9.24566300
_cell_length_b   9.44522600
_cell_length_c   10.21942000
_cell_angle_alpha   90.00000000
_cell_angle_beta   90.00000000
_cell_angle_gamma   90.00000000
_symmetry_Int_Tables_number   1
_chemical_formula_structural   LiMn(PO3)4
_chemical_formula_sum   'Li4 Mn4 P16 O48'
_cell_volume   892.43513851
_cell_formula_units_Z   4
loop_
 _symmetry_equiv_pos_site_id
 _symmetry_equiv_pos_as_xyz
  1  'x, y, z'
loop_
 _atom_site_type_symbol
 _atom_site_label
 _atom_site_symmetry_multiplicity
 _atom_site_fract_x
 _atom_site_fract_y
 _atom_site_fract_z
 _atom_site_occupancy
  Li  Li0  1  0.35746500  0.74692600  0.17205700  1
  Li  Li1  1  0.85746500  0.75307400  0.82794300  1
  Li  Li2  1  0.64253500  0.24692600  0.32794300  1
  Li  Li3  1  0.14253500  0.25307400  0.67205700  1
  Mn  Mn4  1  0.00139600  0.26012200  0.29295400  1
  Mn  Mn5  1  0.99860400  0.76012200  0.20704600  1
  Mn  Mn6  1  0.50139600  0.23987800  0.70704600  1
  Mn  Mn7  1  0.49860400  0.73987800  0.79295400  1
  P  P8  1  0.49962800  0.02099900  0.97944900  1
  P  P9  1  0.79368500  0.53746600  0.39234700  1
  P  P10  1  0.50147900  0.94534200  0.38810200  1
  P  P11  1  0.00147900  0.55465800  0.61189800  1
  P  P12  1  0.99962800  0.47900100  0.02055100  1
  P  P13  1  0.49852100  0.44534200  0.11189800  1
  P  P14  1  0.29368500  0.96253400  0.60765300  1
  P  P15  1  0.70631500  0.46253400  0.89234700  1
  P  P16  1  0.20631500  0.03746600  0.10765300  1
  P  P17  1  0.29741700  0.45539700  0.89171200  1
  P  P18  1  0.00037200  0.97900100  0.47944900  1
  P  P19  1  0.50037200  0.52099900  0.52055100  1
  P  P20  1  0.20258300  0.54460300  0.39171200  1
  P  P21  1  0.99852100  0.05465800  0.88810200  1
  P  P22  1  0.70258300  0.95539700  0.60828800  1
  P  P23  1  0.79741700  0.04460300  0.10828800  1
  O  O24  1  0.00463600  0.13759100  0.45052200  1
  O  O25  1  0.99439300  0.64773300  0.72830500  1
  O  O26  1  0.49536400  0.86240900  0.95052200  1
  O  O27  1  0.48546800  0.60142300  0.12128500  1
  O  O28  1  0.00560700  0.14773300  0.77169500  1
  O  O29  1  0.49439300  0.85226700  0.27169500  1
  O  O30  1  0.32001200  0.35724700  0.77552100  1
  O  O31  1  0.63989300  0.40280100  0.02459900  1
  O  O32  1  0.50463600  0.36240900  0.54947800  1
  O  O33  1  0.36781200  0.38418000  0.01817800  1
  O  O34  1  0.62513200  0.56195200  0.42078500  1
  O  O35  1  0.66369200  0.36754100  0.78096500  1
  O  O36  1  0.99536400  0.63759100  0.04947800  1
  O  O37  1  0.12513200  0.93804800  0.57921500  1
  O  O38  1  0.62908200  0.05699000  0.07529700  1
  O  O39  1  0.87486800  0.43804800  0.92078500  1
  O  O40  1  0.34047600  0.60775900  0.87612800  1
  O  O41  1  0.86781200  0.11582000  0.98182200  1
  O  O42  1  0.15952400  0.39224100  0.37612800  1
  O  O43  1  0.99985000  0.37910800  0.13512100  1
  O  O44  1  0.13218800  0.61582000  0.51817800  1
  O  O45  1  0.65952400  0.10775900  0.62387200  1
  O  O46  1  0.50015000  0.62089200  0.63512100  1
  O  O47  1  0.49985000  0.12089200  0.86487900  1
  O  O48  1  0.84047600  0.89224100  0.12387200  1
  O  O49  1  0.01453200  0.39857700  0.62128500  1
  O  O50  1  0.12908200  0.44301000  0.92470300  1
  O  O51  1  0.31884000  0.11992600  0.62551800  1
  O  O52  1  0.16369200  0.13245900  0.21903500  1
  O  O53  1  0.68116000  0.61992600  0.87448200  1
  O  O54  1  0.37486800  0.06195200  0.07921500  1
  O  O55  1  0.13989300  0.09719900  0.97540100  1
  O  O56  1  0.87091800  0.94301000  0.57529700  1
  O  O57  1  0.63218800  0.88418000  0.48182200  1
  O  O58  1  0.50560700  0.35226700  0.22830500  1
  O  O59  1  0.67998800  0.85724700  0.72447900  1
  O  O60  1  0.17998800  0.64275300  0.27552100  1
  O  O61  1  0.18116000  0.88007400  0.12551800  1
  O  O62  1  0.33630800  0.86754100  0.71903500  1
  O  O63  1  0.83630800  0.63245900  0.28096500  1
  O  O64  1  0.86010700  0.59719900  0.52459900  1
  O  O65  1  0.51453200  0.10142300  0.37871500  1
  O  O66  1  0.81884000  0.38007400  0.37448200  1
  O  O67  1  0.36010700  0.90280100  0.47540100  1
  O  O68  1  0.82001200  0.14275300  0.22447900  1
  O  O69  1  0.98546800  0.89857700  0.87871500  1
  O  O70  1  0.37091800  0.55699000  0.42470300  1
  O  O71  1  0.00015000  0.87910800  0.36487900  1
