# generated using pymatgen
data_Li20Co21O40
_symmetry_space_group_name_H-M   'P 1'
_cell_length_a   9.95370815
_cell_length_b   8.12646300
_cell_length_c   9.95370815
_cell_angle_alpha   114.09262087
_cell_angle_beta   80.40761115
_cell_angle_gamma   114.09262087
_symmetry_Int_Tables_number   1
_chemical_formula_structural   Li20Co21O40
_chemical_formula_sum   'Li20 Co21 O40'
_cell_volume   670.97321452
_cell_formula_units_Z   1
loop_
 _symmetry_equiv_pos_site_id
 _symmetry_equiv_pos_as_xyz
  1  'x, y, z'
loop_
 _atom_site_type_symbol
 _atom_site_label
 _atom_site_symmetry_multiplicity
 _atom_site_fract_x
 _atom_site_fract_y
 _atom_site_fract_z
 _atom_site_occupancy
  Li  Li0  1  0.19855100  0.29656500  0.89873000  1
  Li  Li1  1  0.09873000  0.90216500  0.70144900  1
  Li  Li2  1  0.01006300  0.50880700  0.50404300  1
  Li  Li3  1  0.19447000  0.79099500  0.40479100  1
  Li  Li4  1  0.08993700  0.89470000  0.19595700  1
  Li  Li5  1  0.39595700  0.60125700  0.81006300  1
  Li  Li6  1  0.29366700  0.70703800  0.60162300  1
  Li  Li7  1  0.00127000  0.00198500  0.99855100  1
  Li  Li8  1  0.34641300  0.02181500  0.28198100  1
  Li  Li9  1  0.60479100  0.91379600  0.70553000  1
  Li  Li10  1  0.29837700  0.68662800  0.09366700  1
  Li  Li11  1  0.70404300  0.29523700  0.88993700  1
  Li  Li12  1  0.48198100  0.56016700  0.55358700  1
  Li  Li13  1  0.75358700  0.29342000  0.41801900  1
  Li  Li14  1  0.49520900  0.50347500  0.99447000  1
  Li  Li15  1  0.61801900  0.42459900  0.14641300  1
  Li  Li16  1  0.90144900  0.09928400  0.80127000  1
  Li  Li17  1  0.80162300  0.19458500  0.60633300  1
  Li  Li18  1  0.80633300  0.71174800  0.09837700  1
  Li  Li19  1  0.90553000  0.09173400  0.29520900  1
  Co  Co20  1  0.19971300  0.79881100  0.89792600  1
  Co  Co21  1  0.99809300  0.99924700  0.50089400  1
  Co  Co22  1  0.09792600  0.39911500  0.70028700  1
  Co  Co23  1  0.10190700  0.40026000  0.19910600  1
  Co  Co24  1  0.19762200  0.29881300  0.40034500  1
  Co  Co25  1  0.29764000  0.19996900  0.60084400  1
  Co  Co26  1  0.39910600  0.09884600  0.79809300  1
  Co  Co27  1  0.00207400  0.50090200  0.99971300  1
  Co  Co28  1  0.60034500  0.40153100  0.70237800  1
  Co  Co29  1  0.40020100  0.59982300  0.29971700  1
  Co  Co30  1  0.29915600  0.19767100  0.09764000  1
  Co  Co31  1  0.70089400  0.80164700  0.90190700  1
  Co  Co32  1  0.49971700  0.99989500  0.49979900  1
  Co  Co33  1  0.55000000  0.32500000  0.35000000  1
  Co  Co34  1  0.80084400  0.70087500  0.60236000  1
  Co  Co35  1  0.90028700  0.60117200  0.80207400  1
  Co  Co36  1  0.69979900  0.79990500  0.40028300  1
  Co  Co37  1  0.60028300  0.90037800  0.20020100  1
  Co  Co38  1  0.49965500  0.99880900  0.99762200  1
  Co  Co39  1  0.80236000  0.20148500  0.09915600  1
  Co  Co40  1  0.90237800  0.60084600  0.29965500  1
  O  O41  1  0.00509800  0.73554100  0.98770700  1
  O  O42  1  0.09490200  0.64273600  0.71229300  1
  O  O43  1  0.18770800  0.55216600  0.89490200  1
  O  O44  1  0.10143700  0.15603300  0.68812600  1
  O  O45  1  0.21187400  0.04540400  0.90143700  1
  O  O46  1  0.00666600  0.24554000  0.50684300  1
  O  O47  1  0.48620700  0.22940300  0.99179600  1
  O  O48  1  0.39315700  0.86112700  0.80666600  1
  O  O49  1  0.09333400  0.63203100  0.19315700  1
  O  O50  1  0.28410200  0.43092400  0.59824300  1
  O  O51  1  0.19179600  0.06239300  0.41379300  1
  O  O52  1  0.20541700  0.53579400  0.38706600  1
  O  O53  1  0.31227100  0.96927900  0.60274500  1
  O  O54  1  0.40249800  0.33487100  0.78770400  1
  O  O55  1  0.11229600  0.16762700  0.20249800  1
  O  O56  1  0.38760000  0.35138600  0.29350400  1
  O  O57  1  0.58706600  0.15127300  0.69458300  1
  O  O58  1  0.69750200  0.04466900  0.91229600  1
  O  O59  1  0.29725500  0.44299200  0.11227100  1
  O  O60  1  0.49350400  0.24211800  0.51240000  1
  O  O61  1  0.30175700  0.95317900  0.08410200  1
  O  O62  1  0.41214900  0.84542100  0.30393700  1
  O  O63  1  0.50393700  0.75851600  0.48785100  1
  O  O64  1  0.70684300  0.56130300  0.89333400  1
  O  O65  1  0.61379300  0.65140000  0.70820400  1
  O  O66  1  0.68785100  0.02933500  0.39606300  1
  O  O67  1  0.59606300  0.66672800  0.21214900  1
  O  O68  1  0.88812600  0.83209200  0.79856300  1
  O  O69  1  0.79824300  0.46731900  0.61589800  1
  O  O70  1  0.91229200  0.36955600  0.80509800  1
  O  O71  1  0.71240000  0.57028300  0.40649600  1
  O  O72  1  0.80274500  0.93346700  0.58772900  1
  O  O73  1  0.60649600  0.13621400  0.18760000  1
  O  O74  1  0.51293400  0.76962300  0.00541700  1
  O  O75  1  0.98770400  0.75283400  0.49750200  1
  O  O76  1  0.78772900  0.95426300  0.09725500  1
  O  O77  1  0.89458300  0.84331000  0.31293400  1
  O  O78  1  0.90820400  0.35680400  0.28620700  1
  O  O79  1  0.81589800  0.44857800  0.10175700  1
  O  O80  1  0.99856300  0.26647200  0.01187400  1
