# generated using pymatgen
data_LiCo2(PO3)5
_symmetry_space_group_name_H-M   'P 1'
_cell_length_a   8.71602100
_cell_length_b   5.27513300
_cell_length_c   13.62049252
_cell_angle_alpha   70.36601353
_cell_angle_beta   90.00000000
_cell_angle_gamma   90.00000000
_symmetry_Int_Tables_number   1
_chemical_formula_structural   LiCo2(PO3)5
_chemical_formula_sum   'Li2 Co4 P10 O30'
_cell_volume   589.83435630
_cell_formula_units_Z   2
loop_
 _symmetry_equiv_pos_site_id
 _symmetry_equiv_pos_as_xyz
  1  'x, y, z'
loop_
 _atom_site_type_symbol
 _atom_site_label
 _atom_site_symmetry_multiplicity
 _atom_site_fract_x
 _atom_site_fract_y
 _atom_site_fract_z
 _atom_site_occupancy
  Li  Li0  1  0.99921500  0.12174600  0.44988100  1
  Li  Li1  1  0.00078500  0.12174600  0.94988100  1
  Co  Co2  1  0.69884300  0.06744400  0.55220300  1
  Co  Co3  1  0.30115700  0.06744400  0.05220300  1
  Co  Co4  1  0.69681200  0.91721500  0.95574900  1
  Co  Co5  1  0.30318800  0.91721500  0.45574900  1
  P  P6  1  0.17689100  0.67225100  0.90928700  1
  P  P7  1  0.81761900  0.32282000  0.09054800  1
  P  P8  1  0.49543300  0.53716000  0.86108200  1
  P  P9  1  0.82310900  0.67225100  0.40928700  1
  P  P10  1  0.18238100  0.32282000  0.59054800  1
  P  P11  1  0.50182000  0.46336600  0.14187100  1
  P  P12  1  0.04802700  0.00094900  0.25033100  1
  P  P13  1  0.50456700  0.53716000  0.36108200  1
  P  P14  1  0.49818000  0.46336600  0.64187100  1
  P  P15  1  0.95197300  0.00094900  0.75033100  1
  O  O16  1  0.83107800  0.87341000  0.46546300  1
  O  O17  1  0.93265400  0.75118000  0.30931400  1
  O  O18  1  0.84635600  0.61075500  0.02811500  1
  O  O19  1  0.49079000  0.74330500  0.56164100  1
  O  O20  1  0.34237900  0.70842800  0.85599500  1
  O  O21  1  0.65264700  0.28842800  0.14532800  1
  O  O22  1  0.92762700  0.23871400  0.19059500  1
  O  O23  1  0.87908800  0.09266400  0.83300000  1
  O  O24  1  0.34735300  0.28842800  0.64532800  1
  O  O25  1  0.65762100  0.70842800  0.35599500  1
  O  O26  1  0.17488500  0.11754000  0.53581300  1
  O  O27  1  0.48710600  0.25968900  0.94294700  1
  O  O28  1  0.16892200  0.87341000  0.96546300  1
  O  O29  1  0.07237300  0.23871400  0.69059500  1
  O  O30  1  0.86254400  0.91426600  0.67370200  1
  O  O31  1  0.49019700  0.49657600  0.75199700  1
  O  O32  1  0.63159400  0.28804400  0.63930200  1
  O  O33  1  0.37453000  0.71970000  0.36181400  1
  O  O34  1  0.15364400  0.61075500  0.52811500  1
  O  O35  1  0.51289400  0.25968900  0.44294700  1
  O  O36  1  0.50980300  0.49657600  0.25199700  1
  O  O37  1  0.62547000  0.71970000  0.86181400  1
  O  O38  1  0.50921000  0.74330500  0.06164100  1
  O  O39  1  0.85088200  0.37895100  0.46842100  1
  O  O40  1  0.14911800  0.37895100  0.96842100  1
  O  O41  1  0.13745600  0.91426600  0.17370200  1
  O  O42  1  0.12091200  0.09266400  0.33300000  1
  O  O43  1  0.06734600  0.75118000  0.80931400  1
  O  O44  1  0.36840600  0.28804400  0.13930200  1
  O  O45  1  0.82511500  0.11754000  0.03581300  1
