# generated using pymatgen
data_LiMoP2O7
_symmetry_space_group_name_H-M   'P 1'
_cell_length_a   8.27179300
_cell_length_b   7.32175200
_cell_length_c   9.85560143
_cell_angle_alpha   69.08761911
_cell_angle_beta   90.00000000
_cell_angle_gamma   90.00000000
_symmetry_Int_Tables_number   1
_chemical_formula_structural   LiMoP2O7
_chemical_formula_sum   'Li4 Mo4 P8 O28'
_cell_volume   557.57577824
_cell_formula_units_Z   4
loop_
 _symmetry_equiv_pos_site_id
 _symmetry_equiv_pos_as_xyz
  1  'x, y, z'
loop_
 _atom_site_type_symbol
 _atom_site_label
 _atom_site_symmetry_multiplicity
 _atom_site_fract_x
 _atom_site_fract_y
 _atom_site_fract_z
 _atom_site_occupancy
  Li  Li0  1  0.51992200  0.69256000  0.27497200  1
  Li  Li1  1  0.98007800  0.69256000  0.77497200  1
  Li  Li2  1  0.01992200  0.30744000  0.22502800  1
  Li  Li3  1  0.48007800  0.30744000  0.72502800  1
  Mo  Mo4  1  0.49895100  0.25621000  0.25113000  1
  Mo  Mo5  1  0.99895100  0.74379000  0.24887000  1
  Mo  Mo6  1  0.50104900  0.74379000  0.74887000  1
  Mo  Mo7  1  0.00104900  0.25621000  0.75113000  1
  P  P8  1  0.24103100  0.08449300  0.04205400  1
  P  P9  1  0.28299000  0.66522900  0.04929100  1
  P  P10  1  0.71701000  0.33477100  0.95070900  1
  P  P11  1  0.75896900  0.91550700  0.95794600  1
  P  P12  1  0.21701000  0.66522900  0.54929100  1
  P  P13  1  0.25896900  0.08449300  0.54205400  1
  P  P14  1  0.78299000  0.33477100  0.45070900  1
  P  P15  1  0.74103100  0.91550700  0.45794600  1
  O  O16  1  0.37183800  0.18473000  0.09516100  1
  O  O17  1  0.08188700  0.54852500  0.64910500  1
  O  O18  1  0.41538000  0.04566900  0.63395800  1
  O  O19  1  0.91538000  0.95433100  0.86604200  1
  O  O20  1  0.41811300  0.54852500  0.14910500  1
  O  O21  1  0.58188700  0.45147500  0.85089500  1
  O  O22  1  0.67832000  0.12608000  0.93544400  1
  O  O23  1  0.88776600  0.39849800  0.88918400  1
  O  O24  1  0.21634800  0.19150200  0.87891700  1
  O  O25  1  0.29025200  0.68260300  0.89068900  1
  O  O26  1  0.70974800  0.31739700  0.10931100  1
  O  O27  1  0.38776600  0.60150200  0.61081600  1
  O  O28  1  0.79025200  0.31739700  0.60931100  1
  O  O29  1  0.62816200  0.81527000  0.90483900  1
  O  O30  1  0.32168000  0.87392000  0.06455600  1
  O  O31  1  0.28365200  0.19150200  0.37891700  1
  O  O32  1  0.12816200  0.18473000  0.59516100  1
  O  O33  1  0.58462000  0.95433100  0.36604200  1
  O  O34  1  0.08462000  0.04566900  0.13395800  1
  O  O35  1  0.87183800  0.81527000  0.40483900  1
  O  O36  1  0.91811300  0.45147500  0.35089500  1
  O  O37  1  0.20974800  0.68260300  0.39068900  1
  O  O38  1  0.61223400  0.39849800  0.38918400  1
  O  O39  1  0.11223400  0.60150200  0.11081600  1
  O  O40  1  0.17832000  0.87392000  0.56455600  1
  O  O41  1  0.71634800  0.80849800  0.62108300  1
  O  O42  1  0.78365200  0.80849800  0.12108300  1
  O  O43  1  0.82168000  0.12608000  0.43544400  1
