# generated using pymatgen
data_Na3LiMg4(Si2O5)6
_symmetry_space_group_name_H-M   'P 1'
_cell_length_a   10.20861091
_cell_length_b   10.20861091
_cell_length_c   14.74043300
_cell_angle_alpha   90.00000000
_cell_angle_beta   90.00000000
_cell_angle_gamma   120.13836062
_symmetry_Int_Tables_number   1
_chemical_formula_structural   Na3LiMg4(Si2O5)6
_chemical_formula_sum   'Na6 Li2 Mg8 Si24 O60'
_cell_volume   1328.51660352
_cell_formula_units_Z   2
loop_
 _symmetry_equiv_pos_site_id
 _symmetry_equiv_pos_as_xyz
  1  'x, y, z'
loop_
 _atom_site_type_symbol
 _atom_site_label
 _atom_site_symmetry_multiplicity
 _atom_site_fract_x
 _atom_site_fract_y
 _atom_site_fract_z
 _atom_site_occupancy
  Na  Na0  1  0.00000000  0.00000000  0.96726200  1
  Na  Na1  1  0.59717400  0.29075100  0.45745600  1
  Na  Na2  1  0.70924900  0.40282600  0.95745600  1
  Na  Na3  1  0.29075100  0.59717400  0.95745600  1
  Na  Na4  1  0.40282600  0.70924900  0.45745600  1
  Na  Na5  1  0.00000000  0.00000000  0.46726200  1
  Li  Li6  1  0.50000000  0.00000000  0.24582000  1
  Li  Li7  1  0.00000000  0.50000000  0.74582000  1
  Mg  Mg8  1  0.50000000  0.50000000  0.24689300  1
  Mg  Mg9  1  0.50000000  0.00000000  0.75218300  1
  Mg  Mg10  1  0.68774200  0.33389600  0.73580600  1
  Mg  Mg11  1  0.66610400  0.31225800  0.23580600  1
  Mg  Mg12  1  0.00000000  0.50000000  0.25218300  1
  Mg  Mg13  1  0.31225800  0.66610400  0.73580600  1
  Mg  Mg14  1  0.33389600  0.68774200  0.23580600  1
  Mg  Mg15  1  0.50000000  0.50000000  0.74689300  1
  Si  Si16  1  0.36623600  0.11152500  0.89299400  1
  Si  Si17  1  0.36389900  0.09954000  0.09249900  1
  Si  Si18  1  0.12737400  0.10645700  0.67743900  1
  Si  Si19  1  0.25922200  0.19126700  0.31398900  1
  Si  Si20  1  0.90046000  0.63610100  0.59249900  1
  Si  Si21  1  0.88847500  0.63376400  0.39299400  1
  Si  Si22  1  0.80873300  0.74077800  0.81398900  1
  Si  Si23  1  0.89354300  0.87262600  0.17743900  1
  Si  Si24  1  0.88141700  0.24423400  0.88816400  1
  Si  Si25  1  0.88480600  0.24356200  0.09945300  1
  Si  Si26  1  0.24356200  0.88480600  0.59945300  1
  Si  Si27  1  0.24423400  0.88141700  0.38816400  1
  Si  Si28  1  0.75643800  0.11519400  0.59945300  1
  Si  Si29  1  0.75576600  0.11858300  0.38816400  1
  Si  Si30  1  0.11519400  0.75643800  0.09945300  1
  Si  Si31  1  0.11858300  0.75576600  0.88816400  1
  Si  Si32  1  0.19126700  0.25922200  0.81398900  1
  Si  Si33  1  0.10645700  0.12737400  0.17743900  1
  Si  Si34  1  0.09954000  0.36389900  0.59249900  1
  Si  Si35  1  0.11152500  0.36623600  0.39299400  1
  Si  Si36  1  0.87262600  0.89354300  0.67743900  1
  Si  Si37  1  0.74077800  0.80873300  0.31398900  1
  Si  Si38  1  0.63376400  0.88847500  0.89299400  1
  Si  Si39  1  0.63610100  0.90046000  0.09249900  1
  O  O40  1  0.23695700  0.16308500  0.88695300  1
  O  O41  1  0.22136200  0.13572300  0.09428300  1
  O  O42  1  0.22271200  0.02557500  0.63756000  1
  O  O43  1  0.22186900  0.02338600  0.35416600  1
  O  O44  1  0.48952300  0.35037400  0.57730300  1
  O  O45  1  0.51281400  0.34938600  0.66698100  1
  O  O46  1  0.43769900  0.31774600  0.31766100  1
  O  O47  1  0.44788900  0.16564200  0.99309400  1
  O  O48  1  0.48079200  0.15610800  0.17417400  1
  O  O49  1  0.49521300  0.17415300  0.81565300  1
  O  O50  1  0.68225400  0.56230100  0.81766100  1
  O  O51  1  0.65061400  0.48718600  0.16698100  1
  O  O52  1  0.86427700  0.77863800  0.59428300  1
  O  O53  1  0.83691500  0.76304300  0.38695300  1
  O  O54  1  0.64962600  0.51047700  0.07730300  1
  O  O55  1  0.83435800  0.55211100  0.49309400  1
  O  O56  1  0.97661400  0.77813100  0.85416600  1
  O  O57  1  0.97442500  0.77728800  0.13756000  1
  O  O58  1  0.84389200  0.51920800  0.67417400  1
  O  O59  1  0.82584700  0.50478700  0.31565300  1
  O  O60  1  0.65102500  0.14387000  0.66775800  1
  O  O61  1  0.64697000  0.15646400  0.32970100  1
  O  O62  1  0.08510900  0.72567600  0.58925200  1
  O  O63  1  0.07390800  0.73004600  0.38764600  1
  O  O64  1  0.69090300  0.07615700  0.49393400  1
  O  O65  1  0.84353600  0.35303000  0.82970100  1
  O  O66  1  0.85613000  0.34897500  0.16775800  1
  O  O67  1  0.92384300  0.30909700  0.99393400  1
  O  O68  1  0.26995400  0.92609200  0.88764600  1
  O  O69  1  0.27432400  0.91489100  0.08925200  1
  O  O70  1  0.73004600  0.07390800  0.88764600  1
  O  O71  1  0.72567600  0.08510900  0.08925200  1
  O  O72  1  0.07615700  0.69090300  0.99393400  1
  O  O73  1  0.15646400  0.64697000  0.82970100  1
  O  O74  1  0.14387000  0.65102500  0.16775800  1
  O  O75  1  0.30909700  0.92384300  0.49393400  1
  O  O76  1  0.91489100  0.27432400  0.58925200  1
  O  O77  1  0.92609200  0.26995400  0.38764600  1
  O  O78  1  0.34897500  0.85613000  0.66775800  1
  O  O79  1  0.35303000  0.84353600  0.32970100  1
  O  O80  1  0.15610800  0.48079200  0.67417400  1
  O  O81  1  0.17415300  0.49521300  0.31565300  1
  O  O82  1  0.02338600  0.22186900  0.85416600  1
  O  O83  1  0.02557500  0.22271200  0.13756000  1
  O  O84  1  0.16564200  0.44788900  0.49309400  1
  O  O85  1  0.35037400  0.48952300  0.07730300  1
  O  O86  1  0.13572300  0.22136200  0.59428300  1
  O  O87  1  0.16308500  0.23695700  0.38695300  1
  O  O88  1  0.31774600  0.43769900  0.81766100  1
  O  O89  1  0.34938600  0.51281400  0.16698100  1
  O  O90  1  0.51920800  0.84389200  0.17417400  1
  O  O91  1  0.50478700  0.82584700  0.81565300  1
  O  O92  1  0.55211100  0.83435800  0.99309400  1
  O  O93  1  0.48718600  0.65061400  0.66698100  1
  O  O94  1  0.56230100  0.68225400  0.31766100  1
  O  O95  1  0.51047700  0.64962600  0.57730300  1
  O  O96  1  0.77728800  0.97442500  0.63756000  1
  O  O97  1  0.77813100  0.97661400  0.35416600  1
  O  O98  1  0.76304300  0.83691500  0.88695300  1
  O  O99  1  0.77863800  0.86427700  0.09428300  1
