# generated using pymatgen
data_Li17Nb20O60
_symmetry_space_group_name_H-M   'P 1'
_cell_length_a   5.25820100
_cell_length_b   5.60006693
_cell_length_c   43.35876934
_cell_angle_alpha   87.30519473
_cell_angle_beta   86.56290524
_cell_angle_gamma   62.09987587
_symmetry_Int_Tables_number   1
_chemical_formula_structural   Li17Nb20O60
_chemical_formula_sum   'Li17 Nb20 O60'
_cell_volume   1126.06044710
_cell_formula_units_Z   1
loop_
 _symmetry_equiv_pos_site_id
 _symmetry_equiv_pos_as_xyz
  1  'x, y, z'
loop_
 _atom_site_type_symbol
 _atom_site_label
 _atom_site_symmetry_multiplicity
 _atom_site_fract_x
 _atom_site_fract_y
 _atom_site_fract_z
 _atom_site_occupancy
  Li  Li0  1  0.58927500  0.79250000  0.02896200  1
  Li  Li1  1  0.18697600  0.49554900  0.13030500  1
  Li  Li2  1  0.48740100  0.84470600  0.17905400  1
  Li  Li3  1  0.38886800  0.89364500  0.32900200  1
  Li  Li4  1  0.08502400  0.54770700  0.27991400  1
  Li  Li5  1  0.98762200  0.59470300  0.42941200  1
  Li  Li6  1  0.68954100  0.24263200  0.37904600  1
  Li  Li7  1  0.58707800  0.29515700  0.52947000  1
  Li  Li8  1  0.28837500  0.94499600  0.47944200  1
  Li  Li9  1  0.18667100  0.99525700  0.62955600  1
  Li  Li10  1  0.88846100  0.64518000  0.57952200  1
  Li  Li11  1  0.78591100  0.69509800  0.72969200  1
  Li  Li12  1  0.48887500  0.34521600  0.67962200  1
  Li  Li13  1  0.38489800  0.39429100  0.82986700  1
  Li  Li14  1  0.08970700  0.04527400  0.77992800  1
  Li  Li15  1  0.68600300  0.74768300  0.87899300  1
  Li  Li16  1  0.28830500  0.44262800  0.97980100  1
  Nb  Nb17  1  0.98362700  0.03969100  0.00005800  1
  Nb  Nb18  1  0.57798900  0.73426300  0.10126700  1
  Nb  Nb19  1  0.27208500  0.39312800  0.05326600  1
  Nb  Nb20  1  0.17835300  0.44555900  0.20322400  1
  Nb  Nb21  1  0.87499600  0.09138600  0.15062100  1
  Nb  Nb22  1  0.77325900  0.14765900  0.30067400  1
  Nb  Nb23  1  0.48430700  0.78587900  0.25111900  1
  Nb  Nb24  1  0.37750800  0.84337800  0.40177500  1
  Nb  Nb25  1  0.07771600  0.49268600  0.35169300  1
  Nb  Nb26  1  0.97617000  0.54520700  0.50182300  1
  Nb  Nb27  1  0.67634000  0.19478100  0.45176600  1
  Nb  Nb28  1  0.57632200  0.24539700  0.60181600  1
  Nb  Nb29  1  0.27573300  0.89554800  0.55176000  1
  Nb  Nb30  1  0.17668500  0.94485800  0.70186400  1
  Nb  Nb31  1  0.87557800  0.59536700  0.65179700  1
  Nb  Nb32  1  0.77883500  0.64329700  0.80180200  1
  Nb  Nb33  1  0.47574500  0.29422100  0.75181300  1
  Nb  Nb34  1  0.37513900  0.34746700  0.90204300  1
  Nb  Nb35  1  0.07665900  0.99437100  0.85183200  1
  Nb  Nb36  1  0.69047300  0.68532200  0.95019200  1
  O  O37  1  0.36255800  0.01922900  0.07305300  1
  O  O38  1  0.19893600  0.21050000  0.01312700  1
  O  O39  1  0.69757100  0.14021900  0.03399500  1
  O  O40  1  0.86984800  0.56174200  0.06263600  1
  O  O41  1  0.39537700  0.49159300  0.08863600  1
  O  O42  1  0.92891600  0.72460800  0.17503100  1
  O  O43  1  0.27064100  0.67408100  0.02507800  1
  O  O44  1  0.80905800  0.88374300  0.11621400  1
  O  O45  1  0.31848200  0.82695800  0.13703000  1
  O  O46  1  0.47738600  0.26091500  0.16327000  1
  O  O47  1  0.02904500  0.18923000  0.18420000  1
  O  O48  1  0.51920000  0.42747000  0.27451800  1
  O  O49  1  0.87647800  0.37277400  0.12411700  1
  O  O50  1  0.40487800  0.61399500  0.21247600  1
  O  O51  1  0.92359600  0.54266800  0.23860300  1
  O  O52  1  0.09046900  0.93823600  0.26622300  1
  O  O53  1  0.61797700  0.88071100  0.28689800  1
  O  O54  1  0.13091000  0.11548300  0.37380500  1
  O  O55  1  0.44589500  0.07140100  0.22311000  1
  O  O56  1  0.00771200  0.30431600  0.31268200  1
  O  O57  1  0.52123500  0.22381200  0.33726700  1
  O  O58  1  0.67494300  0.64873100  0.36279900  1
  O  O59  1  0.21419500  0.57496000  0.38763200  1
  O  O60  1  0.73050800  0.81743400  0.47375500  1
  O  O61  1  0.07498800  0.77055300  0.32465700  1
  O  O62  1  0.61281300  0.99991700  0.41269100  1
  O  O63  1  0.12417600  0.92689700  0.43753000  1
  O  O64  1  0.27534700  0.35032900  0.46266300  1
  O  O65  1  0.81145700  0.27717400  0.48757300  1
  O  O66  1  0.33076200  0.51749200  0.57372900  1
  O  O67  1  0.67905700  0.46735400  0.42382800  1
  O  O68  1  0.21224700  0.70052900  0.51266200  1
  O  O69  1  0.72403100  0.62782800  0.53757300  1
  O  O70  1  0.87502100  0.05056500  0.56263500  1
  O  O71  1  0.41091800  0.97773900  0.58759800  1
  O  O72  1  0.93135300  0.21715400  0.67369200  1
  O  O73  1  0.27825300  0.16772500  0.52375200  1
  O  O74  1  0.81239100  0.40045700  0.61261300  1
  O  O75  1  0.32412300  0.32808700  0.63758000  1
  O  O76  1  0.47494300  0.75034800  0.66257300  1
  O  O77  1  0.01041800  0.67789000  0.68759300  1
  O  O78  1  0.53240400  0.91662400  0.77355300  1
  O  O79  1  0.87800100  0.86763100  0.62371500  1
  O  O80  1  0.41287200  0.10001300  0.71250700  1
  O  O81  1  0.92428900  0.02834400  0.73759300  1
  O  O82  1  0.07429500  0.45000700  0.76238900  1
  O  O83  1  0.60836200  0.37844500  0.78752600  1
  O  O84  1  0.12895300  0.61999900  0.87328800  1
  O  O85  1  0.47753700  0.56698800  0.72365200  1
  O  O86  1  0.01332500  0.80041300  0.81224000  1
  O  O87  1  0.52548800  0.72602900  0.83734400  1
  O  O88  1  0.67632200  0.15832000  0.86294800  1
  O  O89  1  0.22180100  0.08989300  0.88477900  1
  O  O90  1  0.72708700  0.32129300  0.97386700  1
  O  O91  1  0.07503200  0.26698800  0.82277700  1
  O  O92  1  0.60209600  0.51354200  0.91226200  1
  O  O93  1  0.12371800  0.44364300  0.93806900  1
  O  O94  1  0.29509700  0.83114300  0.96636500  1
  O  O95  1  0.81895100  0.77603400  0.98682900  1
  O  O96  1  0.64464600  0.97266900  0.92306100  1
