# generated using pymatgen
data_LiAlSiH2O5
_symmetry_space_group_name_H-M   'P 1'
_cell_length_a   5.33288000
_cell_length_b   8.18193800
_cell_length_c   11.65892500
_cell_angle_alpha   90.00000000
_cell_angle_beta   90.00000000
_cell_angle_gamma   90.00000000
_symmetry_Int_Tables_number   1
_chemical_formula_structural   LiAlSiH2O5
_chemical_formula_sum   'Li4 Al4 Si4 H8 O20'
_cell_volume   508.71729667
_cell_formula_units_Z   4
loop_
 _symmetry_equiv_pos_site_id
 _symmetry_equiv_pos_as_xyz
  1  'x, y, z'
loop_
 _atom_site_type_symbol
 _atom_site_label
 _atom_site_symmetry_multiplicity
 _atom_site_fract_x
 _atom_site_fract_y
 _atom_site_fract_z
 _atom_site_occupancy
  Li  Li0  1  0.33620200  0.97711100  0.40873700  1
  Li  Li1  1  0.83620200  0.47711100  0.09126300  1
  Li  Li2  1  0.83620200  0.02288900  0.59126300  1
  Li  Li3  1  0.33620200  0.52288900  0.90873700  1
  Al  Al4  1  0.62013800  0.65690800  0.71269400  1
  Al  Al5  1  0.12013800  0.15690800  0.78730600  1
  Al  Al6  1  0.62013800  0.84309200  0.21269400  1
  Al  Al7  1  0.12013800  0.34309200  0.28730600  1
  Si  Si8  1  0.09890300  0.43524100  0.70702800  1
  Si  Si9  1  0.59890300  0.93524100  0.79297200  1
  Si  Si10  1  0.59890300  0.56475900  0.29297200  1
  Si  Si11  1  0.09890300  0.06475900  0.20702800  1
  H  H12  1  0.78402200  0.13655400  0.40617000  1
  H  H13  1  0.28402200  0.63655400  0.09383000  1
  H  H14  1  0.28402200  0.86344600  0.59383000  1
  H  H15  1  0.56426900  0.23679100  0.46630700  1
  H  H16  1  0.06426900  0.76320900  0.53369300  1
  H  H17  1  0.06426900  0.73679100  0.03369300  1
  H  H18  1  0.78402200  0.36344600  0.90617000  1
  H  H19  1  0.56426900  0.26320900  0.96630700  1
  O  O20  1  0.37550200  0.44976100  0.34167100  1
  O  O21  1  0.87550200  0.94976100  0.15832900  1
  O  O22  1  0.63267600  0.37418300  0.95875400  1
  O  O23  1  0.05402300  0.13822500  0.34248500  1
  O  O24  1  0.85326600  0.04043100  0.77912500  1
  O  O25  1  0.85326600  0.45956900  0.27912500  1
  O  O26  1  0.64029800  0.74557000  0.35251500  1
  O  O27  1  0.64029800  0.75443000  0.85251500  1
  O  O28  1  0.35326600  0.54043100  0.72087500  1
  O  O29  1  0.35326600  0.95956900  0.22087500  1
  O  O30  1  0.13267600  0.62581700  0.04124600  1
  O  O31  1  0.63267600  0.12581700  0.45875400  1
  O  O32  1  0.13267600  0.87418300  0.54124600  1
  O  O33  1  0.14029800  0.24557000  0.14748500  1
  O  O34  1  0.87550200  0.55023900  0.65832900  1
  O  O35  1  0.05402300  0.36177500  0.84248500  1
  O  O36  1  0.55402300  0.86177500  0.65751500  1
  O  O37  1  0.14029800  0.25443000  0.64748500  1
  O  O38  1  0.37550200  0.05023900  0.84167100  1
  O  O39  1  0.55402300  0.63822500  0.15751500  1
