# generated using pymatgen
data_Na2Li5Al7Si29O72
_symmetry_space_group_name_H-M   'P 1'
_cell_length_a   9.39002700
_cell_length_b   9.45667736
_cell_length_c   28.18988282
_cell_angle_alpha   92.98624492
_cell_angle_beta   93.60190539
_cell_angle_gamma   93.66936282
_symmetry_Int_Tables_number   1
_chemical_formula_structural   Na2Li5Al7Si29O72
_chemical_formula_sum   'Na2 Li5 Al7 Si29 O72'
_cell_volume   2489.19129674
_cell_formula_units_Z   1
loop_
 _symmetry_equiv_pos_site_id
 _symmetry_equiv_pos_as_xyz
  1  'x, y, z'
loop_
 _atom_site_type_symbol
 _atom_site_label
 _atom_site_symmetry_multiplicity
 _atom_site_fract_x
 _atom_site_fract_y
 _atom_site_fract_z
 _atom_site_occupancy
  Na  Na0  1  0.52831400  0.01508100  0.04078300  1
  Na  Na1  1  0.53013200  0.00691600  0.37375400  1
  Li  Li2  1  0.63322700  0.61741800  0.21136100  1
  Li  Li3  1  0.62873500  0.62392300  0.54250200  1
  Li  Li4  1  0.37146900  0.36952000  0.12694700  1
  Li  Li5  1  0.37041100  0.37360100  0.45796500  1
  Li  Li6  1  0.37258400  0.37100700  0.79379200  1
  Al  Al7  1  0.39778200  0.62180800  0.39078100  1
  Al  Al8  1  0.82787500  0.37268500  0.20190300  1
  Al  Al9  1  0.39816300  0.17395300  0.20857300  1
  Al  Al10  1  0.62775300  0.17376600  0.13353500  1
  Al  Al11  1  0.62851700  0.17785600  0.46822800  1
  Al  Al12  1  0.39358800  0.17302700  0.54162300  1
  Al  Al13  1  0.39787000  0.16989800  0.87607200  1
  Si  Si14  1  0.60070900  0.82211500  0.12403200  1
  Si  Si15  1  0.37765600  0.82356500  0.19834500  1
  Si  Si16  1  0.60054900  0.82601300  0.45942200  1
  Si  Si17  1  0.37566100  0.82354300  0.53364500  1
  Si  Si18  1  0.60147800  0.82888600  0.79221300  1
  Si  Si19  1  0.37726100  0.82306100  0.86681800  1
  Si  Si20  1  0.17086500  0.61924400  0.13279600  1
  Si  Si21  1  0.39739200  0.61877400  0.05686700  1
  Si  Si22  1  0.82531800  0.59969200  0.12629400  1
  Si  Si23  1  0.38006300  0.59878800  0.27453700  1
  Si  Si24  1  0.16849100  0.62103600  0.46709400  1
  Si  Si25  1  0.82363400  0.59711100  0.46008200  1
  Si  Si26  1  0.37802300  0.59859300  0.60966900  1
  Si  Si27  1  0.17115000  0.62331600  0.79945700  1
  Si  Si28  1  0.40229000  0.62337300  0.72459200  1
  Si  Si29  1  0.82664300  0.60413600  0.79234700  1
  Si  Si30  1  0.37601800  0.59718000  0.94201800  1
  Si  Si31  1  0.17238800  0.39893500  0.20798800  1
  Si  Si32  1  0.62730500  0.39824100  0.05683400  1
  Si  Si33  1  0.60173000  0.37681300  0.27732500  1
  Si  Si34  1  0.62228300  0.39611500  0.39224500  1
  Si  Si35  1  0.17008200  0.39941500  0.54335800  1
  Si  Si36  1  0.60153900  0.37529600  0.61000600  1
  Si  Si37  1  0.82871300  0.38092000  0.53600200  1
  Si  Si38  1  0.62769600  0.40171700  0.72459800  1
  Si  Si39  1  0.16851200  0.39917800  0.87508000  1
  Si  Si40  1  0.60162500  0.37867800  0.94258400  1
  Si  Si41  1  0.82388500  0.37871200  0.86656900  1
  Si  Si42  1  0.62446400  0.17334300  0.79922500  1
  O  O43  1  0.38325100  0.98910600  0.20570300  1
  O  O44  1  0.37902100  0.98926000  0.54086700  1
  O  O45  1  0.37301300  0.98907600  0.87515800  1
  O  O46  1  0.23556600  0.75960900  0.16473600  1
  O  O47  1  0.49853400  0.76079100  0.07535100  1
  O  O48  1  0.52432400  0.76715500  0.17201400  1
  O  O49  1  0.75566400  0.75510100  0.12255300  1
  O  O50  1  0.38748000  0.75084300  0.24920100  1
  O  O51  1  0.23308600  0.75681200  0.50206800  1
  O  O52  1  0.50397900  0.77730600  0.41099200  1
  O  O53  1  0.52201800  0.76956100  0.50798300  1
  O  O54  1  0.75212900  0.74901200  0.46242700  1
  O  O55  1  0.38628800  0.74944500  0.58532200  1
  O  O56  1  0.23413100  0.75794900  0.83383500  1
  O  O57  1  0.50331700  0.76361100  0.74447300  1
  O  O58  1  0.24485600  0.61647700  0.08095100  1
  O  O59  1  0.51983100  0.78185200  0.83890900  1
  O  O60  1  0.75518100  0.75680900  0.79294400  1
  O  O61  1  0.38158500  0.74997500  0.91807500  1
  O  O62  1  0.99894900  0.62242800  0.12328200  1
  O  O63  1  0.38005600  0.62782100  0.33032600  1
  O  O64  1  0.23330500  0.61768700  0.41623700  1
  O  O65  1  0.99571100  0.62287200  0.46284000  1
  O  O66  1  0.99965100  0.62815100  0.78997400  1
  O  O67  1  0.37765400  0.62200200  0.66749400  1
  O  O68  1  0.24879200  0.61673400  0.74906600  1
  O  O69  1  0.52517300  0.52306300  0.25811700  1
  O  O70  1  0.76902800  0.53227900  0.17362500  1
  O  O71  1  0.76405100  0.49987300  0.07895300  1
  O  O72  1  0.24254300  0.50172600  0.25295600  1
  O  O73  1  0.22577700  0.47528100  0.15692200  1
  O  O74  1  0.47579200  0.47399800  0.07212200  1
  O  O75  1  0.37196600  0.62502100  0.99943300  1
  O  O76  1  0.52679400  0.52589000  0.59509000  1
  O  O77  1  0.77308800  0.52508100  0.50973100  1
  O  O78  1  0.76607600  0.49436800  0.41436100  1
  O  O79  1  0.23839800  0.49991100  0.59008400  1
  O  O80  1  0.21744100  0.47451800  0.49350200  1
  O  O81  1  0.48084800  0.46954700  0.41207300  1
  O  O82  1  0.51794100  0.51923700  0.92761600  1
  O  O83  1  0.78325800  0.52129400  0.83920100  1
  O  O84  1  0.76450400  0.50614600  0.74524600  1
  O  O85  1  0.23129800  0.50276000  0.92100200  1
  O  O86  1  0.21369600  0.47461500  0.82431700  1
  O  O87  1  0.47673200  0.47431200  0.74066000  1
  O  O88  1  0.75689200  0.39126500  0.25724100  1
  O  O89  1  0.61581300  0.39833100  0.33517700  1
  O  O90  1  0.00767000  0.41403600  0.20767900  1
  O  O91  1  0.75650600  0.39344400  0.58741300  1
  O  O92  1  0.99919800  0.40590500  0.54652300  1
  O  O93  1  0.63071500  0.38901300  0.66790900  1
  O  O94  1  0.61531500  0.23843800  0.07349400  1
  O  O95  1  0.23042500  0.24451100  0.20750900  1
  O  O96  1  0.47090800  0.23126500  0.15609400  1
  O  O97  1  0.75478900  0.38362700  0.91762400  1
  O  O98  1  0.99612100  0.38402100  0.87520800  1
  O  O99  1  0.63474800  0.39612700  0.99951800  1
  O  O100  1  0.50225900  0.23622400  0.26081000  1
  O  O101  1  0.78163900  0.22385800  0.16593300  1
  O  O102  1  0.62774800  0.23418600  0.40880900  1
  O  O103  1  0.22577800  0.24483800  0.54334900  1
  O  O104  1  0.47156000  0.23584200  0.49097000  1
  O  O105  1  0.50268800  0.23811300  0.59271700  1
  O  O106  1  0.78079800  0.24101700  0.50375600  1
  O  O107  1  0.62771500  0.24714300  0.74759300  1
  O  O108  1  0.23591200  0.24958400  0.87217800  1
  O  O109  1  0.47772800  0.22073700  0.82210200  1
  O  O110  1  0.50722700  0.23471600  0.92590600  1
  O  O111  1  0.76501400  0.23598300  0.83344000  1
  O  O112  1  0.60682100  0.98852000  0.11797100  1
  O  O113  1  0.62672200  0.99387900  0.45931400  1
  O  O114  1  0.62786800  0.00096300  0.79084700  1
