# generated using pymatgen
data_Li3As7
_symmetry_space_group_name_H-M   'P 1'
_cell_length_a   12.66034600
_cell_length_b   12.74559100
_cell_length_c   22.88236900
_cell_angle_alpha   90.00000000
_cell_angle_beta   90.00000000
_cell_angle_gamma   90.00000000
_symmetry_Int_Tables_number   1
_chemical_formula_structural   Li3As7
_chemical_formula_sum   'Li48 As112'
_cell_volume   3692.38125610
_cell_formula_units_Z   16
loop_
 _symmetry_equiv_pos_site_id
 _symmetry_equiv_pos_as_xyz
  1  'x, y, z'
loop_
 _atom_site_type_symbol
 _atom_site_label
 _atom_site_symmetry_multiplicity
 _atom_site_fract_x
 _atom_site_fract_y
 _atom_site_fract_z
 _atom_site_occupancy
  Li  Li0  1  0.77981100  0.54278600  0.80575200  1
  Li  Li1  1  0.01313900  0.24667700  0.85126500  1
  Li  Li2  1  0.11934600  0.41921600  0.48154300  1
  Li  Li3  1  0.22018900  0.95721400  0.30575200  1
  Li  Li4  1  0.81693100  0.00440800  0.31520400  1
  Li  Li5  1  0.31693100  0.49559200  0.31520400  1
  Li  Li6  1  0.27981100  0.95721400  0.80575200  1
  Li  Li7  1  0.18306900  0.99559200  0.68479700  1
  Li  Li8  1  0.48686100  0.24667700  0.35126500  1
  Li  Li9  1  0.68306900  0.50440800  0.68479700  1
  Li  Li10  1  0.98686100  0.25332300  0.35126500  1
  Li  Li11  1  0.79948800  0.33494900  0.84827400  1
  Li  Li12  1  0.79948800  0.83494900  0.65172600  1
  Li  Li13  1  0.88065400  0.08078400  0.98154300  1
  Li  Li14  1  0.16323300  0.74623400  0.92571700  1
  Li  Li15  1  0.81693100  0.50440800  0.18479600  1
  Li  Li16  1  0.20051200  0.66505100  0.15172600  1
  Li  Li17  1  0.66323300  0.25376600  0.57428300  1
  Li  Li18  1  0.29948800  0.16505100  0.84827400  1
  Li  Li19  1  0.29948800  0.66505100  0.65172600  1
  Li  Li20  1  0.18306900  0.49559200  0.81520300  1
  Li  Li21  1  0.51313900  0.25332300  0.85126500  1
  Li  Li22  1  0.27981100  0.45721400  0.69424800  1
  Li  Li23  1  0.68306900  0.00440800  0.81520300  1
  Li  Li24  1  0.20051200  0.16505100  0.34827400  1
  Li  Li25  1  0.51313900  0.75332300  0.64873500  1
  Li  Li26  1  0.01313900  0.74667700  0.64873500  1
  Li  Li27  1  0.31693100  0.99559200  0.18479600  1
  Li  Li28  1  0.22018900  0.45721400  0.19424800  1
  Li  Li29  1  0.66323300  0.75376600  0.92571700  1
  Li  Li30  1  0.38065400  0.41921600  0.98154300  1
  Li  Li31  1  0.77981100  0.04278600  0.69424800  1
  Li  Li32  1  0.33676700  0.24623400  0.07428300  1
  Li  Li33  1  0.72018900  0.04278600  0.19424800  1
  Li  Li34  1  0.70051200  0.83494900  0.15172600  1
  Li  Li35  1  0.38065400  0.91921600  0.51845700  1
  Li  Li36  1  0.88065400  0.58078400  0.51845700  1
  Li  Li37  1  0.98686100  0.75332300  0.14873500  1
  Li  Li38  1  0.61934600  0.58078400  0.01845700  1
  Li  Li39  1  0.16323300  0.24623400  0.57428300  1
  Li  Li40  1  0.61934600  0.08078400  0.48154300  1
  Li  Li41  1  0.33676700  0.74623400  0.42571700  1
  Li  Li42  1  0.72018900  0.54278600  0.30575200  1
  Li  Li43  1  0.70051200  0.33494900  0.34827400  1
  Li  Li44  1  0.11934600  0.91921600  0.01845700  1
  Li  Li45  1  0.83676700  0.75376600  0.42571700  1
  Li  Li46  1  0.48686100  0.74667700  0.14873500  1
  Li  Li47  1  0.83676700  0.25376600  0.07428300  1
  As  As48  1  0.15537700  0.85200600  0.21032600  1
  As  As49  1  0.02569300  0.38728000  0.13141700  1
  As  As50  1  0.52569300  0.61272000  0.36858300  1
  As  As51  1  0.64066700  0.37114200  0.77642600  1
  As  As52  1  0.88587200  0.24401400  0.69991600  1
  As  As53  1  0.90899300  0.84388100  0.96212700  1
  As  As54  1  0.98708000  0.01400200  0.78901000  1
  As  As55  1  0.97430700  0.11272000  0.63141700  1
  As  As56  1  0.34875300  0.53182800  0.51072700  1
  As  As57  1  0.08437600  0.23546100  0.69356300  1
  As  As58  1  0.58437600  0.26453900  0.69356300  1
  As  As59  1  0.85933300  0.87114200  0.22357400  1
  As  As60  1  0.48708000  0.48599800  0.78901000  1
  As  As61  1  0.01292000  0.48599800  0.28901000  1
  As  As62  1  0.85506400  0.28488800  0.95459000  1
  As  As63  1  0.52697200  0.44902000  0.31295600  1
  As  As64  1  0.65537700  0.14799400  0.28967400  1
  As  As65  1  0.97430700  0.61272000  0.86858300  1
  As  As66  1  0.47302800  0.05098000  0.81295600  1
  As  As67  1  0.14066700  0.12885800  0.77642600  1
  As  As68  1  0.16767600  0.26263100  0.95525000  1
  As  As69  1  0.84462300  0.14799400  0.78967400  1
  As  As70  1  0.51292000  0.01400200  0.28901000  1
  As  As71  1  0.26193900  0.55415100  0.92333900  1
  As  As72  1  0.51292000  0.51400200  0.21099000  1
  As  As73  1  0.38587200  0.75598600  0.80008400  1
  As  As74  1  0.11412800  0.75598600  0.30008400  1
  As  As75  1  0.83232400  0.23736900  0.45525000  1
  As  As76  1  0.57637300  0.40980500  0.93186900  1
  As  As77  1  0.92362700  0.40980500  0.43186900  1
  As  As78  1  0.02697200  0.55098000  0.18704400  1
  As  As79  1  0.07637300  0.09019500  0.93186900  1
  As  As80  1  0.16767600  0.76263100  0.54475000  1
  As  As81  1  0.42362700  0.09019500  0.43186900  1
  As  As82  1  0.34462300  0.35200600  0.78967400  1
  As  As83  1  0.52697200  0.94902000  0.18704400  1
  As  As84  1  0.21751800  0.96330900  0.91800600  1
  As  As85  1  0.85933300  0.37114200  0.27642600  1
  As  As86  1  0.41562400  0.73546100  0.30643700  1
  As  As87  1  0.23806100  0.05415100  0.07666100  1
  As  As88  1  0.42362700  0.59019500  0.06813100  1
  As  As89  1  0.84875300  0.46817200  0.98927300  1
  As  As90  1  0.35933300  0.62885800  0.22357400  1
  As  As91  1  0.21751800  0.46330900  0.58199400  1
  As  As92  1  0.65124700  0.46817200  0.48927300  1
  As  As93  1  0.98708000  0.51400200  0.71099000  1
  As  As94  1  0.97302800  0.94902000  0.68704400  1
  As  As95  1  0.83232400  0.73736900  0.04475000  1
  As  As96  1  0.61412800  0.74401400  0.30008400  1
  As  As97  1  0.33232400  0.76263100  0.04475000  1
  As  As98  1  0.35933300  0.12885800  0.27642600  1
  As  As99  1  0.40899300  0.65611900  0.96212700  1
  As  As100  1  0.48708000  0.98599800  0.71099000  1
  As  As101  1  0.34462300  0.85200600  0.71032600  1
  As  As102  1  0.23806100  0.55415100  0.42333900  1
  As  As103  1  0.84462300  0.64799400  0.71032600  1
  As  As104  1  0.66767600  0.23736900  0.95525000  1
  As  As105  1  0.15124700  0.53182800  0.01072700  1
  As  As106  1  0.78248200  0.53669100  0.41800600  1
  As  As107  1  0.07637300  0.59019500  0.56813100  1
  As  As108  1  0.66767600  0.73736900  0.54475000  1
  As  As109  1  0.02697200  0.05098000  0.31295600  1
  As  As110  1  0.78248200  0.03669100  0.08199400  1
  As  As111  1  0.85506400  0.78488800  0.54541000  1
  As  As112  1  0.92362700  0.90980500  0.06813100  1
  As  As113  1  0.15124700  0.03182800  0.48927300  1
  As  As114  1  0.38587200  0.25598600  0.69991600  1
  As  As115  1  0.73806100  0.44584900  0.07666100  1
  As  As116  1  0.52569300  0.11272000  0.13141700  1
  As  As117  1  0.26193900  0.05415100  0.57666100  1
  As  As118  1  0.02569300  0.88728000  0.36858300  1
  As  As119  1  0.76193900  0.94584900  0.92333900  1
  As  As120  1  0.47302800  0.55098000  0.68704400  1
  As  As121  1  0.59100700  0.84388100  0.46212700  1
  As  As122  1  0.97302800  0.44902000  0.81295600  1
  As  As123  1  0.91562400  0.76453900  0.30643700  1
  As  As124  1  0.59100700  0.34388100  0.03787300  1
  As  As125  1  0.14493600  0.71511200  0.04541000  1
  As  As126  1  0.73806100  0.94584900  0.42333900  1
  As  As127  1  0.64493600  0.28488800  0.45459000  1
  As  As128  1  0.88587200  0.74401400  0.80008400  1
  As  As129  1  0.64066700  0.87114200  0.72357400  1
  As  As130  1  0.65537700  0.64799400  0.21032600  1
  As  As131  1  0.84875300  0.96817200  0.51072700  1
  As  As132  1  0.76193900  0.44584900  0.57666100  1
  As  As133  1  0.47430700  0.38728000  0.63141700  1
  As  As134  1  0.40899300  0.15611900  0.53787300  1
  As  As135  1  0.08437600  0.73546100  0.80643700  1
  As  As136  1  0.35506400  0.71511200  0.54541000  1
  As  As137  1  0.58437600  0.76453900  0.80643700  1
  As  As138  1  0.64493600  0.78488800  0.04541000  1
  As  As139  1  0.11412800  0.25598600  0.19991600  1
  As  As140  1  0.14066700  0.62885800  0.72357400  1
  As  As141  1  0.34875300  0.03182800  0.98927300  1
  As  As142  1  0.15537700  0.35200600  0.28967400  1
  As  As143  1  0.28248200  0.96330900  0.41800600  1
  As  As144  1  0.91562400  0.26453900  0.19356300  1
  As  As145  1  0.61412800  0.24401400  0.19991600  1
  As  As146  1  0.33232400  0.26263100  0.45525000  1
  As  As147  1  0.57637300  0.90980500  0.56813100  1
  As  As148  1  0.28248200  0.46330900  0.08199400  1
  As  As149  1  0.71751800  0.53669100  0.91800600  1
  As  As150  1  0.71751800  0.03669100  0.58199400  1
  As  As151  1  0.90899300  0.34388100  0.53787300  1
  As  As152  1  0.09100700  0.15611900  0.03787300  1
  As  As153  1  0.14493600  0.21511200  0.45459000  1
  As  As154  1  0.01292000  0.98599800  0.21099000  1
  As  As155  1  0.47430700  0.88728000  0.86858300  1
  As  As156  1  0.09100700  0.65611900  0.46212700  1
  As  As157  1  0.65124700  0.96817200  0.01072700  1
  As  As158  1  0.41562400  0.23546100  0.19356300  1
  As  As159  1  0.35506400  0.21511200  0.95459000  1
