# generated using pymatgen
data_Li7(Ga3Te5)8
_symmetry_space_group_name_H-M   'P 1'
_cell_length_a   10.37266500
_cell_length_b   10.39292583
_cell_length_c   20.74481946
_cell_angle_alpha   90.06414268
_cell_angle_beta   90.31588376
_cell_angle_gamma   90.08272750
_symmetry_Int_Tables_number   1
_chemical_formula_structural   Li7(Ga3Te5)8
_chemical_formula_sum   'Li7 Ga24 Te40'
_cell_volume   2236.30230016
_cell_formula_units_Z   1
loop_
 _symmetry_equiv_pos_site_id
 _symmetry_equiv_pos_as_xyz
  1  'x, y, z'
loop_
 _atom_site_type_symbol
 _atom_site_label
 _atom_site_symmetry_multiplicity
 _atom_site_fract_x
 _atom_site_fract_y
 _atom_site_fract_z
 _atom_site_occupancy
  Li  Li0  1  0.26880500  0.72749600  0.00142000  1
  Li  Li1  1  0.41696900  0.41603400  0.70906800  1
  Li  Li2  1  0.58111300  0.58197100  0.79168900  1
  Li  Li3  1  0.56350400  0.56574300  0.28199600  1
  Li  Li4  1  0.73119500  0.99931100  0.63467200  1
  Li  Li5  1  0.72817000  0.00373400  0.13497300  1
  Li  Li6  1  0.00428800  0.27064600  0.36443700  1
  Ga  Ga7  1  0.12621600  0.42953700  0.57855600  1
  Ga  Ga8  1  0.12607000  0.43035200  0.07902100  1
  Ga  Ga9  1  0.15673200  0.12618900  0.71485000  1
  Ga  Ga10  1  0.15886700  0.12708600  0.21452500  1
  Ga  Ga11  1  0.16730600  0.75036700  0.66879700  1
  Ga  Ga12  1  0.16833600  0.74965000  0.16874900  1
  Ga  Ga13  1  0.24837100  0.83320900  0.83016300  1
  Ga  Ga14  1  0.24980300  0.83225000  0.33166500  1
  Ga  Ga15  1  0.33702800  0.16708200  0.87553000  1
  Ga  Ga16  1  0.33638800  0.16870900  0.37429300  1
  Ga  Ga17  1  0.42848200  0.15693600  0.56161500  1
  Ga  Ga18  1  0.42869800  0.15851600  0.06350200  1
  Ga  Ga19  1  0.57265400  0.87531500  0.92116400  1
  Ga  Ga20  1  0.57000300  0.87422500  0.42158100  1
  Ga  Ga21  1  0.66251900  0.24954700  0.91636700  1
  Ga  Ga22  1  0.65931400  0.24834500  0.41641600  1
  Ga  Ga23  1  0.75215200  0.34054300  0.58318000  1
  Ga  Ga24  1  0.74863800  0.33645500  0.08433500  1
  Ga  Ga25  1  0.83290100  0.66012500  0.62449300  1
  Ga  Ga26  1  0.83328100  0.65977300  0.12405300  1
  Ga  Ga27  1  0.84273500  0.56996700  0.93704300  1
  Ga  Ga28  1  0.84324000  0.57158300  0.43815900  1
  Ga  Ga29  1  0.87649300  0.84318100  0.78571200  1
  Ga  Ga30  1  0.87582100  0.84242100  0.28630400  1
  Te  Te31  1  0.06753000  0.67136100  0.78298400  1
  Te  Te32  1  0.06795700  0.67244700  0.28314400  1
  Te  Te33  1  0.08497400  0.50322100  0.95878300  1
  Te  Te34  1  0.08279400  0.49634000  0.45731900  1
  Te  Te35  1  0.16824800  0.99730100  0.91616900  1
  Te  Te36  1  0.16842300  0.00152700  0.41628800  1
  Te  Te37  1  0.17188500  0.17212300  0.58598100  1
  Te  Te38  1  0.17123000  0.17252800  0.08582900  1
  Te  Te39  1  0.23766200  0.32056900  0.78788300  1
  Te  Te40  1  0.24138200  0.32253900  0.28596700  1
  Te  Te41  1  0.32120900  0.57585600  0.61905900  1
  Te  Te42  1  0.32155300  0.57315500  0.12102800  1
  Te  Te43  1  0.32720400  0.93246500  0.71675600  1
  Te  Te44  1  0.32691700  0.93232800  0.21715200  1
  Te  Te45  1  0.42355600  0.67983400  0.88194100  1
  Te  Te46  1  0.42635300  0.67928500  0.38077200  1
  Te  Te47  1  0.43376400  0.32678300  0.96613400  1
  Te  Te48  1  0.43300200  0.32877800  0.46601800  1
  Te  Te49  1  0.50443500  0.91813800  0.54307600  1
  Te  Te50  1  0.49950500  0.91590100  0.04175900  1
  Te  Te51  1  0.56563900  0.06779600  0.83624800  1
  Te  Te52  1  0.56540600  0.06732100  0.33628300  1
  Te  Te53  1  0.57743500  0.23671400  0.65975300  1
  Te  Te54  1  0.57220600  0.24121500  0.16113800  1
  Te  Te55  1  0.67078700  0.56669200  0.53365600  1
  Te  Te56  1  0.67214100  0.56539300  0.03342600  1
  Te  Te57  1  0.67917600  0.76285800  0.71204500  1
  Te  Te58  1  0.68088600  0.76354600  0.21182400  1
  Te  Te59  1  0.76172800  0.42416700  0.83927000  1
  Te  Te60  1  0.76327100  0.42419400  0.34035800  1
  Te  Te61  1  0.82878100  0.82759600  0.91406200  1
  Te  Te62  1  0.82782800  0.82794700  0.41446800  1
  Te  Te63  1  0.83231200  0.16801900  0.50017200  1
  Te  Te64  1  0.83316000  0.16849300  0.00072100  1
  Te  Te65  1  0.91412000  0.08230200  0.74804300  1
  Te  Te66  1  0.91594800  0.08364600  0.24971300  1
  Te  Te67  1  0.93323100  0.43360100  0.66431400  1
  Te  Te68  1  0.93232400  0.43323300  0.16389000  1
  Te  Te69  1  0.99729400  0.83137200  0.58387400  1
  Te  Te70  1  0.99832000  0.83378800  0.08420500  1
