# generated using pymatgen
data_LiSn2P3O10
_symmetry_space_group_name_H-M   'P 1'
_cell_length_a   9.21871700
_cell_length_b   5.07929600
_cell_length_c   10.05103779
_cell_angle_alpha   85.36606560
_cell_angle_beta   90.00000000
_cell_angle_gamma   90.00000000
_symmetry_Int_Tables_number   1
_chemical_formula_structural   LiSn2P3O10
_chemical_formula_sum   'Li2 Sn4 P6 O20'
_cell_volume   469.09733540
_cell_formula_units_Z   2
loop_
 _symmetry_equiv_pos_site_id
 _symmetry_equiv_pos_as_xyz
  1  'x, y, z'
loop_
 _atom_site_type_symbol
 _atom_site_label
 _atom_site_symmetry_multiplicity
 _atom_site_fract_x
 _atom_site_fract_y
 _atom_site_fract_z
 _atom_site_occupancy
  Li  Li0  1  0.00000000  0.00000000  0.00000000  1
  Li  Li1  1  0.50000000  0.00000000  0.00000000  1
  Sn  Sn2  1  0.44213900  0.02738400  0.67361700  1
  Sn  Sn3  1  0.55786100  0.97261600  0.32638300  1
  Sn  Sn4  1  0.94213900  0.97261600  0.32638300  1
  Sn  Sn5  1  0.05786100  0.02738400  0.67361700  1
  P  P6  1  0.75000000  0.70806200  0.83695700  1
  P  P7  1  0.75000000  0.44070500  0.56779300  1
  P  P8  1  0.25000000  0.55929500  0.43220700  1
  P  P9  1  0.75000000  0.58238500  0.12368700  1
  P  P10  1  0.25000000  0.29193800  0.16304300  1
  P  P11  1  0.25000000  0.41761500  0.87631300  1
  O  O12  1  0.11105000  0.72136600  0.44413700  1
  O  O13  1  0.11091300  0.24984700  0.86210000  1
  O  O14  1  0.38895000  0.72136600  0.44413700  1
  O  O15  1  0.25000000  0.49535900  0.03262200  1
  O  O16  1  0.75000000  0.50464100  0.96737800  1
  O  O17  1  0.61105000  0.27863400  0.55586300  1
  O  O18  1  0.88895000  0.27863400  0.55586300  1
  O  O19  1  0.75000000  0.31925000  0.20404000  1
  O  O20  1  0.38912700  0.13020100  0.16374400  1
  O  O21  1  0.25000000  0.49493400  0.27243500  1
  O  O22  1  0.38908700  0.24984700  0.86210000  1
  O  O23  1  0.88912700  0.86979900  0.83625600  1
  O  O24  1  0.75000000  0.70153800  0.48240300  1
  O  O25  1  0.25000000  0.29846200  0.51759700  1
  O  O26  1  0.61091300  0.75015300  0.13790000  1
  O  O27  1  0.25000000  0.68075000  0.79596000  1
  O  O28  1  0.61087300  0.86979900  0.83625600  1
  O  O29  1  0.11087300  0.13020100  0.16374400  1
  O  O30  1  0.75000000  0.50506600  0.72756500  1
  O  O31  1  0.88908700  0.75015300  0.13790000  1
