# generated using pymatgen
data_Li3Sb2(PO4)3
_symmetry_space_group_name_H-M   'P 1'
_cell_length_a   9.17182200
_cell_length_b   9.12859600
_cell_length_c   15.93903919
_cell_angle_alpha   56.60403051
_cell_angle_beta   90.00000000
_cell_angle_gamma   90.00000000
_symmetry_Int_Tables_number   1
_chemical_formula_structural   Li3Sb2(PO4)3
_chemical_formula_sum   'Li12 Sb8 P12 O48'
_cell_volume   1114.16426787
_cell_formula_units_Z   4
loop_
 _symmetry_equiv_pos_site_id
 _symmetry_equiv_pos_as_xyz
  1  'x, y, z'
loop_
 _atom_site_type_symbol
 _atom_site_label
 _atom_site_symmetry_multiplicity
 _atom_site_fract_x
 _atom_site_fract_y
 _atom_site_fract_z
 _atom_site_occupancy
  Li  Li0  1  0.26272000  0.40038300  0.31421000  1
  Li  Li1  1  0.73728000  0.59961700  0.68579000  1
  Li  Li2  1  0.75862800  0.99535300  0.31307800  1
  Li  Li3  1  0.24137200  0.00464700  0.68692200  1
  Li  Li4  1  0.25862800  0.00464700  0.18692200  1
  Li  Li5  1  0.90655200  0.77884600  0.28180800  1
  Li  Li6  1  0.40655200  0.22115400  0.21819200  1
  Li  Li7  1  0.74137200  0.99535300  0.81307800  1
  Li  Li8  1  0.59344800  0.77884600  0.78180800  1
  Li  Li9  1  0.23728000  0.40038300  0.81421000  1
  Li  Li10  1  0.76272000  0.59961700  0.18579000  1
  Li  Li11  1  0.09344800  0.22115400  0.71819200  1
  Sb  Sb12  1  0.55125800  0.34172400  0.90038300  1
  Sb  Sb13  1  0.94574400  0.17112700  0.08702600  1
  Sb  Sb14  1  0.94874200  0.34172400  0.40038300  1
  Sb  Sb15  1  0.05425600  0.82887300  0.91297400  1
  Sb  Sb16  1  0.44574400  0.82887300  0.41297400  1
  Sb  Sb17  1  0.05125800  0.65827600  0.59961700  1
  Sb  Sb18  1  0.55425600  0.17112700  0.58702600  1
  Sb  Sb19  1  0.44874200  0.65827600  0.09961700  1
  P  P20  1  0.09981000  0.05218000  0.34506100  1
  P  P21  1  0.41748200  0.73403800  0.66071700  1
  P  P22  1  0.08251800  0.73403800  0.16071700  1
  P  P23  1  0.59981000  0.94782000  0.15493900  1
  P  P24  1  0.58251800  0.26596200  0.33928300  1
  P  P25  1  0.24466600  0.41998900  0.50916200  1
  P  P26  1  0.75533400  0.58001100  0.49083800  1
  P  P27  1  0.25533400  0.41998900  0.00916200  1
  P  P28  1  0.91748200  0.26596200  0.83928300  1
  P  P29  1  0.74466600  0.58001100  0.99083800  1
  P  P30  1  0.40019000  0.05218000  0.84506100  1
  P  P31  1  0.90019000  0.94782000  0.65493900  1
  O  O32  1  0.86829400  0.58096200  0.41944200  1
  O  O33  1  0.84808400  0.42137100  0.04031500  1
  O  O34  1  0.33637100  0.24582700  0.57426800  1
  O  O35  1  0.33056700  0.40892200  0.92483600  1
  O  O36  1  0.46064200  0.79157100  0.55201900  1
  O  O37  1  0.95510500  0.61902500  0.23184500  1
  O  O38  1  0.38731200  0.89494400  0.95763900  1
  O  O39  1  0.63170600  0.58096200  0.91944200  1
  O  O40  1  0.09213800  0.22777000  0.34254700  1
  O  O41  1  0.16362900  0.24582700  0.07426800  1
  O  O42  1  0.25767200  0.06265600  0.79024400  1
  O  O43  1  0.83056700  0.59107800  0.57516400  1
  O  O44  1  0.53446000  0.03011700  0.79507800  1
  O  O45  1  0.09004300  0.89878400  0.16619300  1
  O  O46  1  0.15191600  0.57862900  0.95968500  1
  O  O47  1  0.61268800  0.10505600  0.04236100  1
  O  O48  1  0.13170600  0.41903800  0.58055800  1
  O  O49  1  0.04489500  0.38097500  0.76815500  1
  O  O50  1  0.46554000  0.96988300  0.20492200  1
  O  O51  1  0.74232800  0.93734400  0.20975600  1
  O  O52  1  0.83637100  0.75417300  0.92573200  1
  O  O53  1  0.59004300  0.10121600  0.33380700  1
  O  O54  1  0.11268800  0.89494400  0.45763900  1
  O  O55  1  0.40995700  0.89878400  0.66619300  1
  O  O56  1  0.54489500  0.61902500  0.73184500  1
  O  O57  1  0.24232800  0.06265600  0.29024400  1
  O  O58  1  0.88731200  0.10505600  0.54236100  1
  O  O59  1  0.22736900  0.63279400  0.19349700  1
  O  O60  1  0.72736900  0.36720600  0.30650300  1
  O  O61  1  0.40786200  0.22777000  0.84254700  1
  O  O62  1  0.77263100  0.36720600  0.80650300  1
  O  O63  1  0.90995700  0.10121600  0.83380700  1
  O  O64  1  0.75767200  0.93734400  0.70975600  1
  O  O65  1  0.53935800  0.20842900  0.44798100  1
  O  O66  1  0.96064200  0.20842900  0.94798100  1
  O  O67  1  0.27263100  0.63279400  0.69349700  1
  O  O68  1  0.66943300  0.59107800  0.07516400  1
  O  O69  1  0.16943300  0.40892200  0.42483700  1
  O  O70  1  0.34808400  0.57862900  0.45968500  1
  O  O71  1  0.90786200  0.77223000  0.65745300  1
  O  O72  1  0.96554000  0.03011700  0.29507800  1
  O  O73  1  0.59213800  0.77223000  0.15745300  1
  O  O74  1  0.66362900  0.75417300  0.42573200  1
  O  O75  1  0.45510500  0.38097500  0.26815500  1
  O  O76  1  0.03935800  0.79157100  0.05201900  1
  O  O77  1  0.36829400  0.41903800  0.08055800  1
  O  O78  1  0.65191600  0.42137100  0.54031500  1
  O  O79  1  0.03446000  0.96988300  0.70492200  1
