# generated using pymatgen
data_LiSn4(PO4)3
_symmetry_space_group_name_H-M   'P 1'
_cell_length_a   9.69486356
_cell_length_b   9.69486356
_cell_length_c   7.10562700
_cell_angle_alpha   90.00000000
_cell_angle_beta   90.00000000
_cell_angle_gamma   119.99999698
_symmetry_Int_Tables_number   1
_chemical_formula_structural   LiSn4(PO4)3
_chemical_formula_sum   'Li2 Sn8 P6 O24'
_cell_volume   578.38424403
_cell_formula_units_Z   2
loop_
 _symmetry_equiv_pos_site_id
 _symmetry_equiv_pos_as_xyz
  1  'x, y, z'
loop_
 _atom_site_type_symbol
 _atom_site_label
 _atom_site_symmetry_multiplicity
 _atom_site_fract_x
 _atom_site_fract_y
 _atom_site_fract_z
 _atom_site_occupancy
  Li  Li0  1  0.66666700  0.33333300  0.53692700  1
  Li  Li1  1  0.33333300  0.66666700  0.03692700  1
  Sn  Sn2  1  0.25915600  0.24166900  0.24680300  1
  Sn  Sn3  1  0.74084400  0.75833100  0.74680300  1
  Sn  Sn4  1  0.33333300  0.66666700  0.47087900  1
  Sn  Sn5  1  0.01748600  0.25915600  0.74680300  1
  Sn  Sn6  1  0.66666700  0.33333300  0.97087900  1
  Sn  Sn7  1  0.24166900  0.98251400  0.74680300  1
  Sn  Sn8  1  0.98251400  0.74084400  0.24680300  1
  Sn  Sn9  1  0.75833100  0.01748600  0.24680300  1
  P  P10  1  0.38543500  0.40244100  0.75098500  1
  P  P11  1  0.98299300  0.38543500  0.25098500  1
  P  P12  1  0.61456500  0.59755900  0.25098500  1
  P  P13  1  0.59755900  0.98299300  0.75098500  1
  P  P14  1  0.01700700  0.61456500  0.75098500  1
  P  P15  1  0.40244100  0.01700700  0.25098500  1
  O  O16  1  0.50775400  0.67386800  0.23644200  1
  O  O17  1  0.34404900  0.07183000  0.42471800  1
  O  O18  1  0.27157900  0.35743300  0.57681900  1
  O  O19  1  0.65595100  0.92817000  0.92471800  1
  O  O20  1  0.72842100  0.64256700  0.07681900  1
  O  O21  1  0.50986600  0.41142000  0.26161900  1
  O  O22  1  0.92817000  0.27221900  0.42471800  1
  O  O23  1  0.08585400  0.72842100  0.57681900  1
  O  O24  1  0.91414600  0.27157900  0.07681900  1
  O  O25  1  0.16611500  0.49224600  0.23644200  1
  O  O26  1  0.32613200  0.83388500  0.23644200  1
  O  O27  1  0.58858000  0.09844600  0.26161900  1
  O  O28  1  0.90155400  0.49013400  0.26161900  1
  O  O29  1  0.07183000  0.72778100  0.92471800  1
  O  O30  1  0.72778100  0.65595100  0.42471800  1
  O  O31  1  0.83388500  0.50775400  0.73644200  1
  O  O32  1  0.35743300  0.08585400  0.07681900  1
  O  O33  1  0.49013400  0.58858000  0.76161900  1
  O  O34  1  0.67386800  0.16611500  0.73644200  1
  O  O35  1  0.09844600  0.50986600  0.76161900  1
  O  O36  1  0.49224600  0.32613200  0.73644200  1
  O  O37  1  0.64256700  0.91414600  0.57681900  1
  O  O38  1  0.41142000  0.90155400  0.76161900  1
  O  O39  1  0.27221900  0.34404900  0.92471800  1
