# generated using pymatgen
data_Li4WO5
_symmetry_space_group_name_H-M   'P 1'
_cell_length_a   5.20546949
_cell_length_b   5.20546949
_cell_length_c   5.20546949
_cell_angle_alpha   98.72260439
_cell_angle_beta   98.72260439
_cell_angle_gamma   134.16271430
_symmetry_Int_Tables_number   1
_chemical_formula_structural   Li4WO5
_chemical_formula_sum   'Li4 W1 O5'
_cell_volume   93.19802499
_cell_formula_units_Z   1
loop_
 _symmetry_equiv_pos_site_id
 _symmetry_equiv_pos_as_xyz
  1  'x, y, z'
loop_
 _atom_site_type_symbol
 _atom_site_label
 _atom_site_symmetry_multiplicity
 _atom_site_fract_x
 _atom_site_fract_y
 _atom_site_fract_z
 _atom_site_occupancy
  Li  Li0  1  0.81628400  0.39525200  0.21032400  1
  Li  Li1  1  0.60596000  0.81628400  0.42103200  1
  Li  Li2  1  0.39525200  0.18492800  0.57896800  1
  Li  Li3  1  0.18492800  0.60596000  0.78967600  1
  W  W4  1  0.98645700  0.98645700  0.00000000  1
  O  O5  1  0.27458900  0.91821200  0.18665400  1
  O  O6  1  0.08793400  0.27458900  0.35637700  1
  O  O7  1  0.91821200  0.73155700  0.64362300  1
  O  O8  1  0.73155700  0.08793400  0.81334600  1
  O  O9  1  0.50140900  0.50140900  0.00000000  1
