# generated using pymatgen
data_Li7Mn16O32
_symmetry_space_group_name_H-M   'P 1'
_cell_length_a   8.38996300
_cell_length_b   8.54672455
_cell_length_c   10.17477913
_cell_angle_alpha   114.51148657
_cell_angle_beta   114.14495276
_cell_angle_gamma   90.05913449
_symmetry_Int_Tables_number   1
_chemical_formula_structural   Li7Mn16O32
_chemical_formula_sum   'Li7 Mn16 O32'
_cell_volume   592.82301774
_cell_formula_units_Z   1
loop_
 _symmetry_equiv_pos_site_id
 _symmetry_equiv_pos_as_xyz
  1  'x, y, z'
loop_
 _atom_site_type_symbol
 _atom_site_label
 _atom_site_symmetry_multiplicity
 _atom_site_fract_x
 _atom_site_fract_y
 _atom_site_fract_z
 _atom_site_occupancy
  Li  Li0  1  0.18285900  0.18336300  0.12906800  1
  Li  Li1  1  0.06974200  0.57026900  0.37606200  1
  Li  Li2  1  0.43143300  0.93589700  0.62391000  1
  Li  Li3  1  0.31287500  0.31368600  0.87269600  1
  Li  Li4  1  0.68569700  0.68422600  0.12892900  1
  Li  Li5  1  0.93568100  0.43067400  0.62230400  1
  Li  Li6  1  0.81647200  0.81706500  0.87379800  1
  Mn  Mn7  1  0.13167200  0.88057900  0.75494200  1
  Mn  Mn8  1  0.74892100  0.75105600  0.50010800  1
  Mn  Mn9  1  0.36830500  0.62480300  0.25207600  1
  Mn  Mn10  1  0.62627700  0.37784000  0.25066700  1
  Mn  Mn11  1  0.75111900  0.24754300  0.99609800  1
  Mn  Mn12  1  0.99719500  0.49760600  0.99428100  1
  Mn  Mn13  1  0.62166700  0.36853100  0.74288700  1
  Mn  Mn14  1  0.87346700  0.12172700  0.74369600  1
  Mn  Mn15  1  0.00342200  0.99304600  0.49900900  1
  Mn  Mn16  1  0.87715400  0.12666100  0.25004900  1
  Mn  Mn17  1  0.25259100  0.24579900  0.50109900  1
  Mn  Mn18  1  0.12389900  0.87093100  0.25021200  1
  Mn  Mn19  1  0.25480300  0.75431400  0.00588500  1
  Mn  Mn20  1  0.50305800  0.00688200  0.00343600  1
  Mn  Mn21  1  0.37804500  0.62771500  0.75608100  1
  Mn  Mn22  1  0.49060000  0.50589100  0.50092400  1
  O  O23  1  0.37346500  0.88997000  0.77454100  1
  O  O24  1  0.48365000  0.72400200  0.48400800  1
  O  O25  1  0.72223200  0.51494000  0.49154200  1
  O  O26  1  0.37148900  0.40588300  0.26749700  1
  O  O27  1  0.60227800  0.61303100  0.25825500  1
  O  O28  1  0.52121100  0.23928600  0.00866800  1
  O  O29  1  0.86746800  0.36385800  0.22167500  1
  O  O30  1  0.73722900  0.02293200  0.00550900  1
  O  O31  1  0.75051100  0.46835200  0.97974700  1
  O  O32  1  0.64292800  0.14268900  0.75360500  1
  O  O33  1  0.97023700  0.23627600  0.97684400  1
  O  O34  1  0.86425900  0.36090800  0.75829700  1
  O  O35  1  0.88578700  0.89232200  0.74037000  1
  O  O36  1  0.77703600  0.98526400  0.51068700  1
  O  O37  1  0.09646600  0.12342400  0.73404100  1
  O  O38  1  0.01494600  0.77974100  0.52083500  1
  O  O39  1  0.00786700  0.21867700  0.48784000  1
  O  O40  1  0.90175400  0.87496400  0.26415200  1
  O  O41  1  0.22379900  0.98509400  0.48125400  1
  O  O42  1  0.11806800  0.10525100  0.26262500  1
  O  O43  1  0.12595900  0.63221200  0.22975500  1
  O  O44  1  0.35174200  0.84817300  0.24001600  1
  O  O45  1  0.02939300  0.76071900  0.01529100  1
  O  O46  1  0.24755400  0.52779600  0.01472800  1
  O  O47  1  0.26581700  0.98073900  0.99666100  1
  O  O48  1  0.15229200  0.63604900  0.77442300  1
  O  O49  1  0.48581200  0.76938600  0.99571900  1
  O  O50  1  0.39230500  0.36327500  0.73626800  1
  O  O51  1  0.27366900  0.51039400  0.52206300  1
  O  O52  1  0.61019500  0.59898800  0.74023900  1
  O  O53  1  0.49268400  0.28313800  0.51242800  1
  O  O54  1  0.64044500  0.14366100  0.23719900  1
