# generated using pymatgen
data_Li3ScCl6
_symmetry_space_group_name_H-M   'P 1'
_cell_length_a   6.35567007
_cell_length_b   6.35567007
_cell_length_c   24.27172042
_cell_angle_alpha   87.31291403
_cell_angle_beta   87.31291403
_cell_angle_gamma   119.70623453
_symmetry_Int_Tables_number   1
_chemical_formula_structural   Li3ScCl6
_chemical_formula_sum   'Li12 Sc4 Cl24'
_cell_volume   847.87411033
_cell_formula_units_Z   4
loop_
 _symmetry_equiv_pos_site_id
 _symmetry_equiv_pos_as_xyz
  1  'x, y, z'
loop_
 _atom_site_type_symbol
 _atom_site_label
 _atom_site_symmetry_multiplicity
 _atom_site_fract_x
 _atom_site_fract_y
 _atom_site_fract_z
 _atom_site_occupancy
  Li  Li0  1  0.08305300  0.16694600  0.62499300  1
  Li  Li1  1  0.83305400  0.91694700  0.37500700  1
  Li  Li2  1  0.58323400  0.66455000  0.12499200  1
  Li  Li3  1  0.41665200  0.83335300  0.62499800  1
  Li  Li4  1  0.33545000  0.41676600  0.87500800  1
  Li  Li5  1  0.70667800  0.79208400  0.75000400  1
  Li  Li6  1  0.16664700  0.58334800  0.37500200  1
  Li  Li7  1  0.62455900  0.37544100  0.00000000  1
  Li  Li8  1  0.45706700  0.54293300  0.50000000  1
  Li  Li9  1  0.91669500  0.33574200  0.12506500  1
  Li  Li10  1  0.20791600  0.29332200  0.24999600  1
  Li  Li11  1  0.66425800  0.08330500  0.87493500  1
  Sc  Sc12  1  0.75185500  0.49816900  0.62501200  1
  Sc  Sc13  1  0.50183100  0.24814500  0.37498800  1
  Sc  Sc14  1  0.24780200  0.99604800  0.12499300  1
  Sc  Sc15  1  0.00395200  0.75219800  0.87500700  1
  Cl  Cl16  1  0.41769700  0.49051700  0.68442400  1
  Cl  Cl17  1  0.69838800  0.45734500  0.81662500  1
  Cl  Cl18  1  0.16781400  0.24059200  0.43443800  1
  Cl  Cl19  1  0.00837600  0.08456300  0.81612400  1
  Cl  Cl20  1  0.44485700  0.20456700  0.56724100  1
  Cl  Cl21  1  0.91543700  0.99162400  0.18387600  1
  Cl  Cl22  1  0.75940800  0.83218600  0.56556200  1
  Cl  Cl23  1  0.73051700  0.15042900  0.68280600  1
  Cl  Cl24  1  0.19467800  0.95446800  0.31724800  1
  Cl  Cl25  1  0.04553200  0.80532200  0.68275200  1
  Cl  Cl26  1  0.65828300  0.72146600  0.93442400  1
  Cl  Cl27  1  0.50948300  0.58230300  0.31557600  1
  Cl  Cl28  1  0.48051100  0.90050900  0.43278600  1
  Cl  Cl29  1  0.34862200  0.76745600  0.81718000  1
  Cl  Cl30  1  0.93959400  0.69063100  0.06826100  1
  Cl  Cl31  1  0.79543300  0.55514300  0.43275900  1
  Cl  Cl32  1  0.27853400  0.34171700  0.06557600  1
  Cl  Cl33  1  0.23254400  0.65137800  0.18282000  1
  Cl  Cl34  1  0.09949100  0.51948900  0.56721400  1
  Cl  Cl35  1  0.54265500  0.30161200  0.18337500  1
  Cl  Cl36  1  0.97075100  0.40525000  0.93387100  1
  Cl  Cl37  1  0.84957100  0.26948300  0.31719400  1
  Cl  Cl38  1  0.30936900  0.06040600  0.93173900  1
  Cl  Cl39  1  0.59475000  0.02924900  0.06612900  1
