# generated using pymatgen
data_LiV2O5
_symmetry_space_group_name_H-M   'P 1'
_cell_length_a   3.64863800
_cell_length_b   9.71792600
_cell_length_c   11.39868100
_cell_angle_alpha   90.00000000
_cell_angle_beta   90.00000000
_cell_angle_gamma   90.00000000
_symmetry_Int_Tables_number   1
_chemical_formula_structural   LiV2O5
_chemical_formula_sum   'Li4 V8 O20'
_cell_volume   404.16524453
_cell_formula_units_Z   4
loop_
 _symmetry_equiv_pos_site_id
 _symmetry_equiv_pos_as_xyz
  1  'x, y, z'
loop_
 _atom_site_type_symbol
 _atom_site_label
 _atom_site_symmetry_multiplicity
 _atom_site_fract_x
 _atom_site_fract_y
 _atom_site_fract_z
 _atom_site_occupancy
  Li  Li0  1  0.12297700  0.89654200  0.25000000  1
  Li  Li1  1  0.37702300  0.39654200  0.25000000  1
  Li  Li2  1  0.87702300  0.10345800  0.75000000  1
  Li  Li3  1  0.62297700  0.60345800  0.75000000  1
  V  V4  1  0.84906700  0.19708200  0.09995600  1
  V  V5  1  0.34906700  0.30291800  0.90004400  1
  V  V6  1  0.65093300  0.69708200  0.40004400  1
  V  V7  1  0.34906700  0.30291800  0.59995600  1
  V  V8  1  0.15093300  0.80291800  0.90004400  1
  V  V9  1  0.84906700  0.19708200  0.40004400  1
  V  V10  1  0.15093300  0.80291800  0.59995600  1
  V  V11  1  0.65093300  0.69708200  0.09995600  1
  O  O12  1  0.34737000  0.25620500  0.42824600  1
  O  O13  1  0.64592900  0.52976100  0.37708100  1
  O  O14  1  0.14592900  0.97023900  0.87708100  1
  O  O15  1  0.14592900  0.97023900  0.62291900  1
  O  O16  1  0.14465100  0.72835300  0.75000000  1
  O  O17  1  0.35534900  0.22835300  0.75000000  1
  O  O18  1  0.15263000  0.75620500  0.07175400  1
  O  O19  1  0.64465100  0.77164700  0.25000000  1
  O  O20  1  0.35407100  0.47023900  0.87708100  1
  O  O21  1  0.85407100  0.02976100  0.37708100  1
  O  O22  1  0.85534900  0.27164700  0.25000000  1
  O  O23  1  0.34737000  0.25620500  0.07175400  1
  O  O24  1  0.65263000  0.74379500  0.92824600  1
  O  O25  1  0.85407100  0.02976100  0.12291900  1
  O  O26  1  0.64592900  0.52976100  0.12291900  1
  O  O27  1  0.84737000  0.24379500  0.92824600  1
  O  O28  1  0.15263000  0.75620500  0.42824600  1
  O  O29  1  0.35407100  0.47023900  0.62291900  1
  O  O30  1  0.65263000  0.74379500  0.57175400  1
  O  O31  1  0.84737000  0.24379500  0.57175400  1
