# generated using pymatgen
data_Li2Mo(PO3)8
_symmetry_space_group_name_H-M   'P 1'
_cell_length_a   7.34408881
_cell_length_b   7.26102076
_cell_length_c   9.88594357
_cell_angle_alpha   70.66469234
_cell_angle_beta   80.79470941
_cell_angle_gamma   110.41165680
_symmetry_Int_Tables_number   1
_chemical_formula_structural   Li2Mo(PO3)8
_chemical_formula_sum   'Li2 Mo1 P8 O24'
_cell_volume   443.01527141
_cell_formula_units_Z   1
loop_
 _symmetry_equiv_pos_site_id
 _symmetry_equiv_pos_as_xyz
  1  'x, y, z'
loop_
 _atom_site_type_symbol
 _atom_site_label
 _atom_site_symmetry_multiplicity
 _atom_site_fract_x
 _atom_site_fract_y
 _atom_site_fract_z
 _atom_site_occupancy
  Li  Li0  1  0.99059500  0.01184800  0.03180200  1
  Li  Li1  1  0.93885700  0.19292800  0.25644500  1
  Mo  Mo2  1  0.05481500  0.80500700  0.74836100  1
  P  P3  1  0.29032600  0.48375400  0.70461200  1
  P  P4  1  0.31301500  0.01624100  0.18998300  1
  P  P5  1  0.73195700  0.26277500  0.97532800  1
  P  P6  1  0.70641300  0.50256600  0.31271200  1
  P  P7  1  0.24444600  0.29775300  0.47626000  1
  P  P8  1  0.27318300  0.72110200  0.02181400  1
  P  P9  1  0.68929700  0.99331000  0.79328200  1
  P  P10  1  0.74092500  0.71284700  0.52257400  1
  O  O11  1  0.24633800  0.09123500  0.59752100  1
  O  O12  1  0.50943600  0.79280500  0.93766100  1
  O  O13  1  0.35728400  0.97121700  0.33693600  1
  O  O14  1  0.18692800  0.84909500  0.90872800  1
  O  O15  1  0.46367700  0.43799900  0.35639500  1
  O  O16  1  0.24400100  0.67705900  0.69798000  1
  O  O17  1  0.87410800  0.93924700  0.81258200  1
  O  O18  1  0.74183600  0.31409600  0.30814100  1
  O  O19  1  0.64390000  0.03487800  0.65047700  1
  O  O20  1  0.85201100  0.51414900  0.89896600  1
  O  O21  1  0.90899100  0.74745700  0.59967200  1
  O  O22  1  0.72355800  0.20105400  0.83355800  1
  O  O23  1  0.76728700  0.54648500  0.45362100  1
  O  O24  1  0.50535200  0.22419800  0.04868500  1
  O  O25  1  0.80795400  0.13719300  0.08231900  1
  O  O26  1  0.53247700  0.55928300  0.66496000  1
  O  O27  1  0.23348800  0.44773800  0.56209600  1
  O  O28  1  0.80545300  0.69923800  0.16658400  1
  O  O29  1  0.16097300  0.48552200  0.08921400  1
  O  O30  1  0.07962500  0.25290300  0.40992600  1
  O  O31  1  0.18690500  0.28729600  0.84648100  1
  O  O32  1  0.12842800  0.05531100  0.18025800  1
  O  O33  1  0.72855400  0.89583600  0.41038100  1
  O  O34  1  0.29810000  0.81694400  0.14443000  1
