# generated using pymatgen
data_Li3YbCl6
_symmetry_space_group_name_H-M   'P 1'
_cell_length_a   8.15791300
_cell_length_b   9.95456300
_cell_length_c   11.37044700
_cell_angle_alpha   90.00000000
_cell_angle_beta   90.00000000
_cell_angle_gamma   90.00000000
_symmetry_Int_Tables_number   1
_chemical_formula_structural   Li3YbCl6
_chemical_formula_sum   'Li12 Yb4 Cl24'
_cell_volume   923.37647795
_cell_formula_units_Z   4
loop_
 _symmetry_equiv_pos_site_id
 _symmetry_equiv_pos_as_xyz
  1  'x, y, z'
loop_
 _atom_site_type_symbol
 _atom_site_label
 _atom_site_symmetry_multiplicity
 _atom_site_fract_x
 _atom_site_fract_y
 _atom_site_fract_z
 _atom_site_occupancy
  Li  Li0  1  0.51258400  0.05345000  0.13635500  1
  Li  Li1  1  0.82776100  0.69408300  0.05184600  1
  Li  Li2  1  0.02746300  0.03866000  0.21601000  1
  Li  Li3  1  0.02746300  0.46134000  0.71601000  1
  Li  Li4  1  0.82776100  0.80591700  0.55184600  1
  Li  Li5  1  0.51258400  0.44655000  0.63635500  1
  Li  Li6  1  0.32776100  0.19408300  0.44815400  1
  Li  Li7  1  0.01258400  0.55345000  0.36364500  1
  Li  Li8  1  0.52746300  0.53866000  0.28399000  1
  Li  Li9  1  0.52746300  0.96134000  0.78399000  1
  Li  Li10  1  0.01258400  0.94655000  0.86364500  1
  Li  Li11  1  0.32776100  0.30591700  0.94815400  1
  Yb  Yb12  1  0.77792100  0.16666300  0.53237700  1
  Yb  Yb13  1  0.77792100  0.33333700  0.03237700  1
  Yb  Yb14  1  0.27792100  0.66666300  0.96762300  1
  Yb  Yb15  1  0.27792100  0.83333700  0.46762300  1
  Cl  Cl16  1  0.03685500  0.64417900  0.55979100  1
  Cl  Cl17  1  0.49618100  0.68531000  0.60606200  1
  Cl  Cl18  1  0.25465900  0.64808300  0.29419300  1
  Cl  Cl19  1  0.81698600  0.53396900  0.20827900  1
  Cl  Cl20  1  0.62115100  0.74342800  0.90368200  1
  Cl  Cl21  1  0.97007900  0.54073100  0.92633400  1
  Cl  Cl22  1  0.97007900  0.95926900  0.42633400  1
  Cl  Cl23  1  0.62115100  0.75657200  0.40368200  1
  Cl  Cl24  1  0.81698600  0.96603100  0.70827900  1
  Cl  Cl25  1  0.25465900  0.85191700  0.79419300  1
  Cl  Cl26  1  0.49618100  0.81469000  0.10606200  1
  Cl  Cl27  1  0.03685500  0.85582100  0.05979100  1
  Cl  Cl28  1  0.99618100  0.18531000  0.89393800  1
  Cl  Cl29  1  0.53685500  0.14417900  0.94020900  1
  Cl  Cl30  1  0.75465900  0.14808300  0.20580700  1
  Cl  Cl31  1  0.31698600  0.03396900  0.29172100  1
  Cl  Cl32  1  0.47007900  0.04073100  0.57366600  1
  Cl  Cl33  1  0.12115100  0.24342800  0.59631800  1
  Cl  Cl34  1  0.12115100  0.25657200  0.09631800  1
  Cl  Cl35  1  0.47007900  0.45926900  0.07366600  1
  Cl  Cl36  1  0.31698600  0.46603100  0.79172100  1
  Cl  Cl37  1  0.75465900  0.35191700  0.70580700  1
  Cl  Cl38  1  0.53685500  0.35582100  0.44020900  1
  Cl  Cl39  1  0.99618100  0.31469000  0.39393800  1
