# generated using pymatgen
data_SrLi2Ta2O7
_symmetry_space_group_name_H-M   'P 1'
_cell_length_a   9.68669643
_cell_length_b   9.68669643
_cell_length_c   9.68669643
_cell_angle_alpha   156.27387876
_cell_angle_beta   156.27387876
_cell_angle_gamma   33.80267472
_symmetry_Int_Tables_number   1
_chemical_formula_structural   SrLi2Ta2O7
_chemical_formula_sum   'Sr1 Li2 Ta2 O7'
_cell_volume   147.00924999
_cell_formula_units_Z   1
loop_
 _symmetry_equiv_pos_site_id
 _symmetry_equiv_pos_as_xyz
  1  'x, y, z'
loop_
 _atom_site_type_symbol
 _atom_site_label
 _atom_site_symmetry_multiplicity
 _atom_site_fract_x
 _atom_site_fract_y
 _atom_site_fract_z
 _atom_site_occupancy
  Sr  Sr0  1  0.00000000  0.00000000  0.00000000  1
  Li  Li1  1  0.75000000  0.25000000  0.50000000  1
  Li  Li2  1  0.25000000  0.75000000  0.50000000  1
  Ta  Ta3  1  0.61407400  0.61407400  0.00000000  1
  Ta  Ta4  1  0.38592600  0.38592600  0.00000000  1
  O  O5  1  0.50000000  0.50000000  0.00000000  1
  O  O6  1  0.10373300  0.60373300  0.50000000  1
  O  O7  1  0.60373300  0.10373300  0.50000000  1
  O  O8  1  0.89626700  0.39626700  0.50000000  1
  O  O9  1  0.39626700  0.89626700  0.50000000  1
  O  O10  1  0.28367000  0.28367000  0.00000000  1
  O  O11  1  0.71633000  0.71633000  0.00000000  1
