# generated using pymatgen
data_Li6Mo2O7
_symmetry_space_group_name_H-M   'P 1'
_cell_length_a   5.97398900
_cell_length_b   6.17326600
_cell_length_c   8.51440200
_cell_angle_alpha   90.00000000
_cell_angle_beta   90.00000000
_cell_angle_gamma   90.00000000
_symmetry_Int_Tables_number   1
_chemical_formula_structural   Li6Mo2O7
_chemical_formula_sum   'Li12 Mo4 O14'
_cell_volume   314.00282871
_cell_formula_units_Z   2
loop_
 _symmetry_equiv_pos_site_id
 _symmetry_equiv_pos_as_xyz
  1  'x, y, z'
loop_
 _atom_site_type_symbol
 _atom_site_label
 _atom_site_symmetry_multiplicity
 _atom_site_fract_x
 _atom_site_fract_y
 _atom_site_fract_z
 _atom_site_occupancy
  Li  Li0  1  0.03655700  0.75000000  0.76934300  1
  Li  Li1  1  0.23655100  0.00000000  0.00000000  1
  Li  Li2  1  0.49729600  0.75000000  0.73578500  1
  Li  Li3  1  0.49729600  0.25000000  0.26421500  1
  Li  Li4  1  0.70953500  0.50000000  0.50000000  1
  Li  Li5  1  0.70953500  0.00000000  0.50000000  1
  Li  Li6  1  0.03655700  0.25000000  0.23065700  1
  Li  Li7  1  0.00188500  0.25000000  0.76936700  1
  Li  Li8  1  0.30347700  0.50000000  0.50000000  1
  Li  Li9  1  0.30347700  0.00000000  0.50000000  1
  Li  Li10  1  0.23655100  0.50000000  0.00000000  1
  Li  Li11  1  0.00188500  0.75000000  0.23063300  1
  Mo  Mo12  1  0.75144700  0.00000000  0.00000000  1
  Mo  Mo13  1  0.48006200  0.25000000  0.73779700  1
  Mo  Mo14  1  0.48006200  0.75000000  0.26220300  1
  Mo  Mo15  1  0.75144700  0.50000000  0.00000000  1
  O  O16  1  0.73631000  0.97993200  0.25684900  1
  O  O17  1  0.25921600  0.98479400  0.26714600  1
  O  O18  1  0.25921600  0.01520600  0.73285400  1
  O  O19  1  0.25921600  0.48479400  0.73285400  1
  O  O20  1  0.50490400  0.25000000  0.50572300  1
  O  O21  1  0.49149900  0.25000000  0.98711200  1
  O  O22  1  0.49149900  0.75000000  0.01288800  1
  O  O23  1  0.73631000  0.47993200  0.74315100  1
  O  O24  1  0.73631000  0.52006800  0.25684900  1
  O  O25  1  0.73631000  0.02006800  0.74315100  1
  O  O26  1  0.99573500  0.75000000  0.99632100  1
  O  O27  1  0.99573500  0.25000000  0.00367900  1
  O  O28  1  0.25921600  0.51520600  0.26714600  1
  O  O29  1  0.50490400  0.75000000  0.49427700  1
