# generated using pymatgen
data_Li3Sn(PO3)6
_symmetry_space_group_name_H-M   'P 1'
_cell_length_a   7.21766500
_cell_length_b   7.50408627
_cell_length_c   7.56785486
_cell_angle_alpha   113.99717400
_cell_angle_beta   107.10598447
_cell_angle_gamma   96.95650746
_symmetry_Int_Tables_number   1
_chemical_formula_structural   Li3Sn(PO3)6
_chemical_formula_sum   'Li3 Sn1 P6 O18'
_cell_volume   344.02390049
_cell_formula_units_Z   1
loop_
 _symmetry_equiv_pos_site_id
 _symmetry_equiv_pos_as_xyz
  1  'x, y, z'
loop_
 _atom_site_type_symbol
 _atom_site_label
 _atom_site_symmetry_multiplicity
 _atom_site_fract_x
 _atom_site_fract_y
 _atom_site_fract_z
 _atom_site_occupancy
  Li  Li0  1  0.47439300  0.48801200  0.95780400  1
  Li  Li1  1  0.16159600  0.69315500  0.87157900  1
  Li  Li2  1  0.86251300  0.63530000  0.46367600  1
  Sn  Sn3  1  0.90634700  0.20750200  0.07251400  1
  P  P4  1  0.22720900  0.01493700  0.68720500  1
  P  P5  1  0.76417600  0.34633500  0.67212100  1
  P  P6  1  0.51137000  0.78425500  0.74239400  1
  P  P7  1  0.23266600  0.67634100  0.32226000  1
  P  P8  1  0.75253700  0.98257600  0.32438100  1
  P  P9  1  0.48917500  0.22651900  0.25904700  1
  O  O10  1  0.26877800  0.19423200  0.15532200  1
  O  O11  1  0.53743300  0.00800600  0.20747100  1
  O  O12  1  0.25703800  0.64065200  0.12367000  1
  O  O13  1  0.74607700  0.37545700  0.87613100  1
  O  O14  1  0.07133400  0.88196500  0.70801600  1
  O  O15  1  0.25289900  0.23502100  0.75898800  1
  O  O16  1  0.54467000  0.32030000  0.50942000  1
  O  O17  1  0.44239600  0.68573500  0.48887100  1
  O  O18  1  0.44671300  0.99162800  0.79884300  1
  O  O19  1  0.40246200  0.64660100  0.79895000  1
  O  O20  1  0.73197600  0.76691800  0.27439600  1
  O  O21  1  0.64226300  0.34387600  0.21520600  1
  O  O22  1  0.91415000  0.49956100  0.67032900  1
  O  O23  1  0.05940800  0.52406400  0.31095600  1
  O  O24  1  0.91729800  0.09390300  0.28692500  1
  O  O25  1  0.20847800  0.89923700  0.44061400  1
  O  O26  1  0.78787900  0.11750200  0.56743000  1
  O  O27  1  0.73952300  0.85782200  0.84422000  1
