# generated using pymatgen
data_Li2VPO6
_symmetry_space_group_name_H-M   'P 1'
_cell_length_a   4.70241200
_cell_length_b   8.65141200
_cell_length_c   10.50593500
_cell_angle_alpha   90.00000000
_cell_angle_beta   90.00000000
_cell_angle_gamma   90.00000000
_symmetry_Int_Tables_number   1
_chemical_formula_structural   Li2VPO6
_chemical_formula_sum   'Li8 V4 P4 O24'
_cell_volume   427.40773852
_cell_formula_units_Z   4
loop_
 _symmetry_equiv_pos_site_id
 _symmetry_equiv_pos_as_xyz
  1  'x, y, z'
loop_
 _atom_site_type_symbol
 _atom_site_label
 _atom_site_symmetry_multiplicity
 _atom_site_fract_x
 _atom_site_fract_y
 _atom_site_fract_z
 _atom_site_occupancy
  Li  Li0  1  0.97838000  0.82557200  0.91267200  1
  Li  Li1  1  0.02162000  0.32557200  0.08732800  1
  Li  Li2  1  0.47838000  0.32557200  0.58732800  1
  Li  Li3  1  0.52162000  0.82557200  0.41267200  1
  Li  Li4  1  0.46604100  0.12269700  0.86614400  1
  Li  Li5  1  0.53395900  0.62269700  0.13385600  1
  Li  Li6  1  0.96604100  0.62269700  0.63385600  1
  Li  Li7  1  0.03395900  0.12269700  0.36614400  1
  V  V8  1  0.48263200  0.00494800  0.11086800  1
  V  V9  1  0.51736800  0.50494800  0.88913200  1
  V  V10  1  0.98263200  0.50494800  0.38913200  1
  V  V11  1  0.01736800  0.00494800  0.61086800  1
  P  P12  1  0.41518500  0.80775100  0.71848600  1
  P  P13  1  0.58481500  0.30775100  0.28151400  1
  P  P14  1  0.91518500  0.30775100  0.78151400  1
  P  P15  1  0.08481500  0.80775100  0.21848600  1
  O  O16  1  0.31176700  0.65198100  0.77976700  1
  O  O17  1  0.68823300  0.15198100  0.22023300  1
  O  O18  1  0.81176700  0.15198100  0.72023300  1
  O  O19  1  0.18823300  0.65198100  0.27976700  1
  O  O20  1  0.26541000  0.81427100  0.58371600  1
  O  O21  1  0.73459000  0.31427100  0.41628400  1
  O  O22  1  0.76541000  0.31427100  0.91628400  1
  O  O23  1  0.23459000  0.81427100  0.08371600  1
  O  O24  1  0.76123300  0.81706400  0.21523000  1
  O  O25  1  0.23876700  0.31706400  0.78477000  1
  O  O26  1  0.26123300  0.31706400  0.28477000  1
  O  O27  1  0.73876700  0.81706400  0.71523000  1
  O  O28  1  0.26136400  0.94395500  0.78663200  1
  O  O29  1  0.73863600  0.44395500  0.21336800  1
  O  O30  1  0.76136400  0.44395500  0.71336800  1
  O  O31  1  0.23863600  0.94395500  0.28663200  1
  O  O32  1  0.70265100  0.97459100  0.98855800  1
  O  O33  1  0.29734900  0.47459100  0.01144200  1
  O  O34  1  0.20265100  0.47459100  0.51144200  1
  O  O35  1  0.79734900  0.97459100  0.48855800  1
  O  O36  1  0.25509800  0.13181000  0.04916100  1
  O  O37  1  0.74490200  0.63181000  0.95083900  1
  O  O38  1  0.75509800  0.63181000  0.45083900  1
  O  O39  1  0.24490200  0.13181000  0.54916100  1
