# generated using pymatgen
data_LiSn2P3O10
_symmetry_space_group_name_H-M   'P 1'
_cell_length_a   7.96336534
_cell_length_b   7.96336534
_cell_length_c   9.84828127
_cell_angle_alpha   67.36908262
_cell_angle_beta   67.36908262
_cell_angle_gamma   79.80341830
_symmetry_Int_Tables_number   1
_chemical_formula_structural   LiSn2P3O10
_chemical_formula_sum   'Li2 Sn4 P6 O20'
_cell_volume   531.75136306
_cell_formula_units_Z   2
loop_
 _symmetry_equiv_pos_site_id
 _symmetry_equiv_pos_as_xyz
  1  'x, y, z'
loop_
 _atom_site_type_symbol
 _atom_site_label
 _atom_site_symmetry_multiplicity
 _atom_site_fract_x
 _atom_site_fract_y
 _atom_site_fract_z
 _atom_site_occupancy
  Li  Li0  1  0.22378500  0.77621500  0.25000000  1
  Li  Li1  1  0.77621500  0.22378500  0.75000000  1
  Sn  Sn2  1  0.38756100  0.25701300  0.56301900  1
  Sn  Sn3  1  0.61243900  0.74298700  0.43698100  1
  Sn  Sn4  1  0.25701300  0.38756100  0.06301900  1
  Sn  Sn5  1  0.74298700  0.61243900  0.93698100  1
  P  P6  1  0.58897200  0.13174500  0.12783200  1
  P  P7  1  0.86825500  0.41102800  0.37216800  1
  P  P8  1  0.89158800  0.10841200  0.25000000  1
  P  P9  1  0.13174500  0.58897200  0.62783200  1
  P  P10  1  0.10841200  0.89158800  0.75000000  1
  P  P11  1  0.41102800  0.86825500  0.87216800  1
  O  O12  1  0.90932000  0.85573700  0.84916900  1
  O  O13  1  0.74780000  0.56736300  0.29890100  1
  O  O14  1  0.55996900  0.93010300  0.22683100  1
  O  O15  1  0.81288400  0.37184600  0.54566800  1
  O  O16  1  0.56736300  0.74780000  0.79890100  1
  O  O17  1  0.25220000  0.43263700  0.70109900  1
  O  O18  1  0.62815400  0.18711600  0.95433200  1
  O  O19  1  0.14426300  0.09068000  0.65083100  1
  O  O20  1  0.44003100  0.06989700  0.77316900  1
  O  O21  1  0.81466700  0.22401400  0.36313200  1
  O  O22  1  0.22401400  0.81466700  0.86313200  1
  O  O23  1  0.85573700  0.90932000  0.34916900  1
  O  O24  1  0.06989700  0.44003100  0.27316900  1
  O  O25  1  0.77598600  0.18533300  0.13686800  1
  O  O26  1  0.93010300  0.55996900  0.72683100  1
  O  O27  1  0.37184600  0.81288400  0.04566800  1
  O  O28  1  0.18711600  0.62815400  0.45433200  1
  O  O29  1  0.09068000  0.14426300  0.15083100  1
  O  O30  1  0.18533300  0.77598600  0.63686800  1
  O  O31  1  0.43263700  0.25220000  0.20109900  1
