# generated using pymatgen
data_Li11Ta37N48
_symmetry_space_group_name_H-M   'P 1'
_cell_length_a   5.26450109
_cell_length_b   5.26450109
_cell_length_c   40.35231300
_cell_angle_alpha   90.00000000
_cell_angle_beta   90.00000000
_cell_angle_gamma   120.00001373
_symmetry_Int_Tables_number   1
_chemical_formula_structural   Li11Ta37N48
_chemical_formula_sum   'Li11 Ta37 N48'
_cell_volume   968.53082088
_cell_formula_units_Z   1
loop_
 _symmetry_equiv_pos_site_id
 _symmetry_equiv_pos_as_xyz
  1  'x, y, z'
loop_
 _atom_site_type_symbol
 _atom_site_label
 _atom_site_symmetry_multiplicity
 _atom_site_fract_x
 _atom_site_fract_y
 _atom_site_fract_z
 _atom_site_occupancy
  Li  Li0  1  0.33333300  0.66666700  0.00138700  1
  Li  Li1  1  0.00000000  0.00000000  0.12571700  1
  Li  Li2  1  0.00000000  0.00000000  0.25019700  1
  Li  Li3  1  0.00000000  0.00000000  0.49813200  1
  Li  Li4  1  0.33333300  0.66666700  0.37403000  1
  Li  Li5  1  0.66666700  0.33333300  0.12647000  1
  Li  Li6  1  0.00000000  0.00000000  0.37411000  1
  Li  Li7  1  0.00000000  0.00000000  0.75009000  1
  Li  Li8  1  0.00000000  0.00000000  0.87546200  1
  Li  Li9  1  0.66666700  0.33333300  0.75013000  1
  Li  Li10  1  0.00000000  0.00000000  0.62395200  1
  Ta  Ta11  1  0.99517600  0.66959100  0.18792900  1
  Ta  Ta12  1  0.00566300  0.67404600  0.43601200  1
  Ta  Ta13  1  0.99445200  0.66896900  0.68754400  1
  Ta  Ta14  1  0.00331500  0.67025400  0.93824400  1
  Ta  Ta15  1  0.33141700  0.00567300  0.81214300  1
  Ta  Ta16  1  0.33333300  0.66666700  0.24935200  1
  Ta  Ta17  1  0.33333300  0.66666700  0.49761900  1
  Ta  Ta18  1  0.33333300  0.66666700  0.74996200  1
  Ta  Ta19  1  0.00000000  0.00000000  0.00196000  1
  Ta  Ta20  1  0.33333300  0.66666700  0.12622900  1
  Ta  Ta21  1  0.33333300  0.66666700  0.62590200  1
  Ta  Ta22  1  0.33333300  0.66666700  0.87356700  1
  Ta  Ta23  1  0.33040900  0.32558600  0.18792900  1
  Ta  Ta24  1  0.32595400  0.33161600  0.43601200  1
  Ta  Ta25  1  0.33103100  0.32548200  0.68754400  1
  Ta  Ta26  1  0.32974600  0.33306000  0.93824400  1
  Ta  Ta27  1  0.67441400  0.00482400  0.18792900  1
  Ta  Ta28  1  0.66838400  0.99433700  0.43601200  1
  Ta  Ta29  1  0.67451800  0.00554800  0.68754400  1
  Ta  Ta30  1  0.66694000  0.99668500  0.93824400  1
  Ta  Ta31  1  0.33351300  0.00368000  0.06406200  1
  Ta  Ta32  1  0.32575800  0.99483000  0.31256300  1
  Ta  Ta33  1  0.32664500  0.00045600  0.56156200  1
  Ta  Ta34  1  0.67016600  0.66648700  0.06406200  1
  Ta  Ta35  1  0.67381200  0.67335500  0.56156200  1
  Ta  Ta36  1  0.66907200  0.67424200  0.31256300  1
  Ta  Ta37  1  0.67425600  0.66858300  0.81214300  1
  Ta  Ta38  1  0.66666700  0.33333300  0.37395900  1
  Ta  Ta39  1  0.66666700  0.33333300  0.87500300  1
  Ta  Ta40  1  0.66666700  0.33333300  0.62550000  1
  Ta  Ta41  1  0.66666700  0.33333300  0.00177300  1
  Ta  Ta42  1  0.66666700  0.33333300  0.25104700  1
  Ta  Ta43  1  0.66666700  0.33333300  0.49786400  1
  Ta  Ta44  1  0.99632000  0.32983400  0.06406200  1
  Ta  Ta45  1  0.00517000  0.33092800  0.31256300  1
  Ta  Ta46  1  0.99954400  0.32618800  0.56156200  1
  Ta  Ta47  1  0.99432700  0.32574400  0.81214300  1
  N  N48  1  0.00811300  0.66654500  0.03135400  1
  N  N49  1  0.99943600  0.66928400  0.27978400  1
  N  N50  1  0.00110400  0.66582900  0.52875800  1
  N  N51  1  0.00763400  0.66590400  0.78036300  1
  N  N52  1  0.00640500  0.34149500  0.15637300  1
  N  N53  1  0.99394600  0.33567400  0.40445900  1
  N  N54  1  0.00271200  0.32907200  0.65452900  1
  N  N55  1  0.99889700  0.32979800  0.90530500  1
  N  N56  1  0.34172700  0.00605400  0.40445900  1
  N  N57  1  0.33090100  0.00110300  0.90530500  1
  N  N58  1  0.65843300  0.99188700  0.03135400  1
  N  N59  1  0.65827000  0.99236600  0.78036300  1
  N  N60  1  0.33228700  0.33904200  0.09582100  1
  N  N61  1  0.34038800  0.33408900  0.34409200  1
  N  N62  1  0.33486900  0.33532500  0.59448800  1
  N  N63  1  0.32885000  0.32933500  0.84504700  1
  N  N64  1  0.33345500  0.34156700  0.03135400  1
  N  N65  1  0.33071600  0.33015200  0.27978400  1
  N  N66  1  0.33417100  0.33527500  0.52875800  1
  N  N67  1  0.33409600  0.34173000  0.78036300  1
  N  N68  1  0.66941100  0.66960500  0.22079900  1
  N  N69  1  0.67495000  0.67120100  0.46876900  1
  N  N70  1  0.65788800  0.66503700  0.71919000  1
  N  N71  1  0.66334300  0.66399300  0.97100300  1
  N  N72  1  0.66432600  0.65827300  0.40445900  1
  N  N73  1  0.65850500  0.66491100  0.15637300  1
  N  N74  1  0.67092800  0.67364000  0.65452900  1
  N  N75  1  0.67020200  0.66909900  0.90530500  1
  N  N76  1  0.33039500  0.99980600  0.22079900  1
  N  N77  1  0.33508900  0.99359500  0.15637300  1
  N  N78  1  0.32879900  0.00375000  0.46876900  1
  N  N79  1  0.33496300  0.99285100  0.71919000  1
  N  N80  1  0.32636000  0.99728800  0.65452900  1
  N  N81  1  0.33600700  0.99935000  0.97100300  1
  N  N82  1  0.66095800  0.99324500  0.09582100  1
  N  N83  1  0.66591100  0.00629900  0.34409200  1
  N  N84  1  0.66467500  0.99954400  0.59448800  1
  N  N85  1  0.67066500  0.99951500  0.84504700  1
  N  N86  1  0.66984800  0.00056400  0.27978400  1
  N  N87  1  0.66472500  0.99889600  0.52875800  1
  N  N88  1  0.99370100  0.65961200  0.34409200  1
  N  N89  1  0.00675500  0.66771300  0.09582100  1
  N  N90  1  0.00045600  0.66513100  0.59448800  1
  N  N91  1  0.00048500  0.67115000  0.84504700  1
  N  N92  1  0.99625000  0.32505000  0.46876900  1
  N  N93  1  0.00019400  0.33058900  0.22079900  1
  N  N94  1  0.00714900  0.34211200  0.71919000  1
  N  N95  1  0.00065000  0.33665700  0.97100300  1
