# generated using pymatgen
data_Li49Cu8N19
_symmetry_space_group_name_H-M   'P 1'
_cell_length_a   3.67743823
_cell_length_b   3.67743823
_cell_length_c   71.35068500
_cell_angle_alpha   90.00000000
_cell_angle_beta   90.00000000
_cell_angle_gamma   120.00000422
_symmetry_Int_Tables_number   1
_chemical_formula_structural   Li49Cu8N19
_chemical_formula_sum   'Li49 Cu8 N19'
_cell_volume   835.64060431
_cell_formula_units_Z   1
loop_
 _symmetry_equiv_pos_site_id
 _symmetry_equiv_pos_as_xyz
  1  'x, y, z'
loop_
 _atom_site_type_symbol
 _atom_site_label
 _atom_site_symmetry_multiplicity
 _atom_site_fract_x
 _atom_site_fract_y
 _atom_site_fract_z
 _atom_site_occupancy
  Li  Li0  1  0.00000000  0.00000000  0.68416800  1
  Li  Li1  1  0.00000000  0.00000000  0.78906800  1
  Li  Li2  1  0.66666700  0.33333300  0.65646900  1
  Li  Li3  1  0.00000000  0.00000000  0.84202300  1
  Li  Li4  1  0.66666700  0.33333300  0.71187400  1
  Li  Li5  1  0.00000000  0.00000000  0.89460100  1
  Li  Li6  1  0.66666700  0.33333300  0.76181900  1
  Li  Li7  1  0.00000000  0.00000000  0.94716100  1
  Li  Li8  1  0.66666700  0.33333300  0.81577000  1
  Li  Li9  1  0.00000000  0.00000000  0.00000000  1
  Li  Li10  1  0.66666700  0.33333300  0.86835100  1
  Li  Li11  1  0.00000000  0.00000000  0.05283900  1
  Li  Li12  1  0.00000000  0.00000000  0.10539900  1
  Li  Li13  1  0.66666700  0.33333300  0.92092900  1
  Li  Li14  1  0.66666700  0.33333300  0.97340900  1
  Li  Li15  1  0.00000000  0.00000000  0.21093200  1
  Li  Li16  1  0.66666700  0.33333300  0.02659100  1
  Li  Li17  1  0.66666700  0.33333300  0.07907100  1
  Li  Li18  1  0.66666700  0.33333300  0.13164900  1
  Li  Li19  1  0.66666700  0.33333300  0.18423000  1
  Li  Li20  1  0.66666700  0.33333300  0.23818100  1
  Li  Li21  1  0.66666700  0.33333300  0.28812600  1
  Li  Li22  1  0.66666700  0.33333300  0.34353100  1
  Li  Li23  1  0.66666700  0.33333300  0.39478800  1
  Li  Li24  1  0.66666700  0.33333300  0.44737800  1
  Li  Li25  1  0.66666700  0.33333300  0.50000000  1
  Li  Li26  1  0.66666700  0.33333300  0.55262200  1
  Li  Li27  1  0.66666700  0.33333300  0.60521200  1
  Li  Li28  1  0.33333300  0.66666700  0.65646900  1
  Li  Li29  1  0.33333300  0.66666700  0.71187400  1
  Li  Li30  1  0.33333300  0.66666700  0.76181900  1
  Li  Li31  1  0.33333300  0.66666700  0.81577000  1
  Li  Li32  1  0.33333300  0.66666700  0.92092900  1
  Li  Li33  1  0.33333300  0.66666700  0.86835100  1
  Li  Li34  1  0.33333300  0.66666700  0.97340900  1
  Li  Li35  1  0.33333300  0.66666700  0.02659100  1
  Li  Li36  1  0.33333300  0.66666700  0.07907100  1
  Li  Li37  1  0.33333300  0.66666700  0.13164900  1
  Li  Li38  1  0.33333300  0.66666700  0.18423000  1
  Li  Li39  1  0.33333300  0.66666700  0.23818100  1
  Li  Li40  1  0.33333300  0.66666700  0.28812600  1
  Li  Li41  1  0.33333300  0.66666700  0.34353100  1
  Li  Li42  1  0.33333300  0.66666700  0.44737800  1
  Li  Li43  1  0.33333300  0.66666700  0.39478800  1
  Li  Li44  1  0.33333300  0.66666700  0.50000000  1
  Li  Li45  1  0.33333300  0.66666700  0.55262200  1
  Li  Li46  1  0.33333300  0.66666700  0.60521200  1
  Li  Li47  1  0.00000000  0.00000000  0.15797700  1
  Li  Li48  1  0.00000000  0.00000000  0.31583200  1
  Cu  Cu49  1  0.00000000  0.00000000  0.73680100  1
  Cu  Cu50  1  0.00000000  0.00000000  0.26319900  1
  Cu  Cu51  1  0.00000000  0.00000000  0.42110000  1
  Cu  Cu52  1  0.00000000  0.00000000  0.47369300  1
  Cu  Cu53  1  0.00000000  0.00000000  0.52630700  1
  Cu  Cu54  1  0.00000000  0.00000000  0.57890000  1
  Cu  Cu55  1  0.00000000  0.00000000  0.63143200  1
  Cu  Cu56  1  0.00000000  0.00000000  0.36856800  1
  N  N57  1  0.00000000  0.00000000  0.65772700  1
  N  N58  1  0.00000000  0.00000000  0.71053600  1
  N  N59  1  0.00000000  0.00000000  0.76302100  1
  N  N60  1  0.00000000  0.00000000  0.86835800  1
  N  N61  1  0.00000000  0.00000000  0.02648900  1
  N  N62  1  0.00000000  0.00000000  0.07910500  1
  N  N63  1  0.00000000  0.00000000  0.23697900  1
  N  N64  1  0.00000000  0.00000000  0.39488400  1
  N  N65  1  0.00000000  0.00000000  0.44740400  1
  N  N66  1  0.00000000  0.00000000  0.50000000  1
  N  N67  1  0.00000000  0.00000000  0.55259600  1
  N  N68  1  0.00000000  0.00000000  0.81569900  1
  N  N69  1  0.00000000  0.00000000  0.92089500  1
  N  N70  1  0.00000000  0.00000000  0.97351100  1
  N  N71  1  0.00000000  0.00000000  0.13164200  1
  N  N72  1  0.00000000  0.00000000  0.18430100  1
  N  N73  1  0.00000000  0.00000000  0.28946400  1
  N  N74  1  0.00000000  0.00000000  0.34227300  1
  N  N75  1  0.00000000  0.00000000  0.60511600  1
