# generated using pymatgen
data_LiSb(PO3)4
_symmetry_space_group_name_H-M   'P 1'
_cell_length_a   13.17352300
_cell_length_b   7.35898000
_cell_length_c   11.97327239
_cell_angle_alpha   54.56256180
_cell_angle_beta   90.00000000
_cell_angle_gamma   90.00000000
_symmetry_Int_Tables_number   1
_chemical_formula_structural   LiSb(PO3)4
_chemical_formula_sum   'Li4 Sb4 P16 O48'
_cell_volume   945.70636726
_cell_formula_units_Z   4
loop_
 _symmetry_equiv_pos_site_id
 _symmetry_equiv_pos_as_xyz
  1  'x, y, z'
loop_
 _atom_site_type_symbol
 _atom_site_label
 _atom_site_symmetry_multiplicity
 _atom_site_fract_x
 _atom_site_fract_y
 _atom_site_fract_z
 _atom_site_occupancy
  Li  Li0  1  0.72054500  0.36709500  0.57219800  1
  Li  Li1  1  0.22054500  0.63290500  0.92780200  1
  Li  Li2  1  0.77945500  0.36709500  0.07219800  1
  Li  Li3  1  0.27945500  0.63290500  0.42780200  1
  Sb  Sb4  1  0.28639200  0.00930000  0.50822900  1
  Sb  Sb5  1  0.71360800  0.99070000  0.49177100  1
  Sb  Sb6  1  0.78639200  0.99070000  0.99177100  1
  Sb  Sb7  1  0.21360800  0.00930000  0.00822900  1
  P  P8  1  0.10277100  0.48717600  0.77605900  1
  P  P9  1  0.91277300  0.08048700  0.71136800  1
  P  P10  1  0.41277300  0.91951300  0.78863200  1
  P  P11  1  0.38625600  0.37576800  0.72390500  1
  P  P12  1  0.60277100  0.51282400  0.72394100  1
  P  P13  1  0.88625600  0.62423200  0.77609500  1
  P  P14  1  0.89722900  0.51282400  0.22394100  1
  P  P15  1  0.08722700  0.91951300  0.28863200  1
  P  P16  1  0.58722700  0.08048700  0.21136800  1
  P  P17  1  0.86896600  0.81450400  0.30772500  1
  P  P18  1  0.36896600  0.18549600  0.19227500  1
  P  P19  1  0.63103400  0.81450400  0.80772500  1
  P  P20  1  0.39722900  0.48717600  0.27605900  1
  P  P21  1  0.61374400  0.62423200  0.27609500  1
  P  P22  1  0.11374400  0.37576800  0.22390500  1
  P  P23  1  0.13103400  0.18549600  0.69227500  1
  O  O24  1  0.87161500  0.57752300  0.32821400  1
  O  O25  1  0.59866400  0.12031700  0.32109800  1
  O  O26  1  0.28778200  0.20652300  0.09750700  1
  O  O27  1  0.97781100  0.82481000  0.36401700  1
  O  O28  1  0.83384700  0.32306800  0.25093200  1
  O  O29  1  0.40133600  0.87968300  0.67890200  1
  O  O30  1  0.63758400  0.00156900  0.65596500  1
  O  O31  1  0.47781100  0.17519000  0.13598300  1
  O  O32  1  0.92764700  0.81661300  0.78930800  1
  O  O33  1  0.35152800  0.56904200  0.58671300  1
  O  O34  1  0.83544700  0.17755600  0.59973100  1
  O  O35  1  0.02218900  0.17519000  0.63598300  1
  O  O36  1  0.16455300  0.82244400  0.40026900  1
  O  O37  1  0.14847200  0.56904200  0.08671300  1
  O  O38  1  0.18504500  0.27878700  0.34413700  1
  O  O39  1  0.51238200  0.56120100  0.23055200  1
  O  O40  1  0.16615300  0.67693200  0.74906800  1
  O  O41  1  0.90133600  0.12031700  0.82109800  1
  O  O42  1  0.36241600  0.99843100  0.34403500  1
  O  O43  1  0.57235300  0.81661300  0.28930800  1
  O  O44  1  0.31495500  0.27878700  0.84413700  1
  O  O45  1  0.10767900  0.27596700  0.92371700  1
  O  O46  1  0.33544700  0.82244400  0.90026900  1
  O  O47  1  0.21221800  0.20652300  0.59750700  1
  O  O48  1  0.81495500  0.72121300  0.65586300  1
  O  O49  1  0.66615300  0.32306800  0.75093200  1
  O  O50  1  0.86241600  0.00156900  0.15596500  1
  O  O51  1  0.64847200  0.43095800  0.41328700  1
  O  O52  1  0.62838500  0.57752300  0.82821400  1
  O  O53  1  0.89232100  0.72403300  0.07628300  1
  O  O54  1  0.85152800  0.43095800  0.91328700  1
  O  O55  1  0.01238200  0.43879900  0.26944800  1
  O  O56  1  0.98761800  0.56120100  0.73055200  1
  O  O57  1  0.09866400  0.87968300  0.17890200  1
  O  O58  1  0.71221800  0.79347700  0.90249300  1
  O  O59  1  0.07235300  0.18338700  0.21069200  1
  O  O60  1  0.66455300  0.17755600  0.09973100  1
  O  O61  1  0.68504500  0.72121300  0.15586300  1
  O  O62  1  0.48761800  0.43879900  0.76944800  1
  O  O63  1  0.52218900  0.82481000  0.86401700  1
  O  O64  1  0.12838500  0.42247700  0.67178600  1
  O  O65  1  0.42764700  0.18338700  0.71069200  1
  O  O66  1  0.60767900  0.72403300  0.57628300  1
  O  O67  1  0.13758400  0.99843100  0.84403500  1
  O  O68  1  0.39232100  0.27596700  0.42371700  1
  O  O69  1  0.37161500  0.42247700  0.17178600  1
  O  O70  1  0.33384700  0.67693200  0.24906800  1
  O  O71  1  0.78778200  0.79347700  0.40249300  1
