# generated using pymatgen
data_Li11MnAs6
_symmetry_space_group_name_H-M   'P 1'
_cell_length_a   14.17427309
_cell_length_b   13.52883515
_cell_length_c   7.36569028
_cell_angle_alpha   79.48435587
_cell_angle_beta   69.79020977
_cell_angle_gamma   30.72543436
_symmetry_Int_Tables_number   1
_chemical_formula_structural   Li11MnAs6
_chemical_formula_sum   'Li22 Mn2 As12'
_cell_volume   657.64793940
_cell_formula_units_Z   2
loop_
 _symmetry_equiv_pos_site_id
 _symmetry_equiv_pos_as_xyz
  1  'x, y, z'
loop_
 _atom_site_type_symbol
 _atom_site_label
 _atom_site_symmetry_multiplicity
 _atom_site_fract_x
 _atom_site_fract_y
 _atom_site_fract_z
 _atom_site_occupancy
  Li  Li0  1  0.72042400  0.44723800  0.03609000  1
  Li  Li1  1  0.20228100  0.96496000  0.54662900  1
  Li  Li2  1  0.96641300  0.20358500  0.28566100  1
  Li  Li3  1  0.28504000  0.04771900  0.96387000  1
  Li  Li4  1  0.04641500  0.28358700  0.70566000  1
  Li  Li5  1  0.36708300  0.13291700  0.36708300  1
  Li  Li6  1  0.45496100  0.71499200  0.79442700  1
  Li  Li7  1  0.13209100  0.36790900  0.13209100  1
  Li  Li8  1  0.80276200  0.52957600  0.45375200  1
  Li  Li9  1  0.45375200  0.21391000  0.80276200  1
  Li  Li10  1  0.53500800  0.79503900  0.21437900  1
  Li  Li11  1  0.21437900  0.45557300  0.53500800  1
  Li  Li12  1  0.54662900  0.28613000  0.20228100  1
  Li  Li13  1  0.61868500  0.88131500  0.61868500  1
  Li  Li14  1  0.96387000  0.70337100  0.28504000  1
  Li  Li15  1  0.70566000  0.96433900  0.04641500  1
  Li  Li16  1  0.03609000  0.79624800  0.72042400  1
  Li  Li17  1  0.79442700  0.03562100  0.45496100  1
  Li  Li18  1  0.11708300  0.88291700  0.11708300  1
  Li  Li19  1  0.88209100  0.11790900  0.88209100  1
  Li  Li20  1  0.28566100  0.54434000  0.96641300  1
  Li  Li21  1  0.36868500  0.63131500  0.36868500  1
  Mn  Mn22  1  0.87623400  0.62376600  0.87623400  1
  Mn  Mn23  1  0.62623400  0.37376600  0.62623400  1
  As  As24  1  0.51269400  0.48750700  0.95827600  1
  As  As25  1  0.95827600  0.04152300  0.51269400  1
  As  As26  1  0.08858400  0.07969000  0.91603500  1
  As  As27  1  0.17031000  0.16141600  0.33430900  1
  As  As28  1  0.58513300  0.56311200  0.43829200  1
  As  As29  1  0.20847700  0.29172400  0.76249300  1
  As  As30  1  0.33430900  0.33396500  0.17031000  1
  As  As31  1  0.68688800  0.66486700  0.83653600  1
  As  As32  1  0.76249300  0.73730600  0.20847700  1
  As  As33  1  0.43829200  0.41346400  0.58513300  1
  As  As34  1  0.83653600  0.81170800  0.68688800  1
  As  As35  1  0.91603500  0.91569100  0.08858400  1
