# generated using pymatgen
data_Na2LiFe(Si2O5)3
_symmetry_space_group_name_H-M   'P 1'
_cell_length_a   11.30659425
_cell_length_b   11.30659425
_cell_length_c   10.21743900
_cell_angle_alpha   90.00000000
_cell_angle_beta   90.00000000
_cell_angle_gamma   101.77021363
_symmetry_Int_Tables_number   1
_chemical_formula_structural   Na2LiFe(Si2O5)3
_chemical_formula_sum   'Na8 Li4 Fe4 Si24 O60'
_cell_volume   1278.72346276
_cell_formula_units_Z   4
loop_
 _symmetry_equiv_pos_site_id
 _symmetry_equiv_pos_as_xyz
  1  'x, y, z'
loop_
 _atom_site_type_symbol
 _atom_site_label
 _atom_site_symmetry_multiplicity
 _atom_site_fract_x
 _atom_site_fract_y
 _atom_site_fract_z
 _atom_site_occupancy
  Na  Na0  1  0.08427400  0.91572600  0.25157500  1
  Na  Na1  1  0.41572600  0.58427400  0.75157500  1
  Na  Na2  1  0.91572600  0.08427400  0.74842500  1
  Na  Na3  1  0.58427400  0.41572600  0.24842500  1
  Na  Na4  1  0.52573900  0.97426100  0.25000000  1
  Na  Na5  1  0.97426100  0.52573900  0.75000000  1
  Na  Na6  1  0.47426100  0.02573900  0.75000000  1
  Na  Na7  1  0.02573900  0.47426100  0.25000000  1
  Li  Li8  1  0.74794000  0.74794000  0.00000000  1
  Li  Li9  1  0.24794000  0.24794000  0.50000000  1
  Li  Li10  1  0.25206000  0.25206000  0.00000000  1
  Li  Li11  1  0.75206000  0.75206000  0.50000000  1
  Fe  Fe12  1  0.33645700  0.16354300  0.25000000  1
  Fe  Fe13  1  0.16354300  0.33645700  0.75000000  1
  Fe  Fe14  1  0.66354300  0.83645700  0.75000000  1
  Fe  Fe15  1  0.83645700  0.66354300  0.25000000  1
  Si  Si16  1  0.75611900  0.01948800  0.01302400  1
  Si  Si17  1  0.54094400  0.68507000  0.19301100  1
  Si  Si18  1  0.81493000  0.95905600  0.30698900  1
  Si  Si19  1  0.68507000  0.54094400  0.80698900  1
  Si  Si20  1  0.04094400  0.18507000  0.30698900  1
  Si  Si21  1  0.45905600  0.31493000  0.80698900  1
  Si  Si22  1  0.18507000  0.04094400  0.69301100  1
  Si  Si23  1  0.31493000  0.45905600  0.19301100  1
  Si  Si24  1  0.01948800  0.75611900  0.98697600  1
  Si  Si25  1  0.48051200  0.74388100  0.48697600  1
  Si  Si26  1  0.95905600  0.81493000  0.69301100  1
  Si  Si27  1  0.74388100  0.48051200  0.51302400  1
  Si  Si28  1  0.98051200  0.24388100  0.01302400  1
  Si  Si29  1  0.51948800  0.25611900  0.51302400  1
  Si  Si30  1  0.80158400  0.42318700  0.04188700  1
  Si  Si31  1  0.25611900  0.51948800  0.48697600  1
  Si  Si32  1  0.19841600  0.57681300  0.95811300  1
  Si  Si33  1  0.30158400  0.92318700  0.45811300  1
  Si  Si34  1  0.57681300  0.19841600  0.04188700  1
  Si  Si35  1  0.92318700  0.30158400  0.54188700  1
  Si  Si36  1  0.07681300  0.69841600  0.45811300  1
  Si  Si37  1  0.42318700  0.80158400  0.95811300  1
  Si  Si38  1  0.69841600  0.07681300  0.54188700  1
  Si  Si39  1  0.24388100  0.98051200  0.98697600  1
  O  O40  1  0.90972300  0.35564000  0.99480500  1
  O  O41  1  0.55294900  0.44705100  0.80965700  1
  O  O42  1  0.05294900  0.94705100  0.69034300  1
  O  O43  1  0.44705100  0.55294900  0.19034300  1
  O  O44  1  0.67587500  0.32412500  0.07059300  1
  O  O45  1  0.17587500  0.82412500  0.42940700  1
  O  O46  1  0.32412500  0.67587500  0.92940700  1
  O  O47  1  0.82412500  0.17587500  0.57059300  1
  O  O48  1  0.88381400  0.11618600  0.98450600  1
  O  O49  1  0.61618600  0.38381400  0.48450600  1
  O  O50  1  0.11618600  0.88381400  0.01549400  1
  O  O51  1  0.38381400  0.61618600  0.51549400  1
  O  O52  1  0.66367100  0.00147900  0.67351400  1
  O  O53  1  0.83632900  0.49852100  0.17351400  1
  O  O54  1  0.00147900  0.66367100  0.32648600  1
  O  O55  1  0.49852100  0.83632900  0.82648600  1
  O  O56  1  0.33632900  0.99852100  0.32648600  1
  O  O57  1  0.16367100  0.50147900  0.82648600  1
  O  O58  1  0.99852100  0.33632900  0.67351400  1
  O  O59  1  0.50147900  0.16367100  0.17351400  1
  O  O60  1  0.27958400  0.00225300  0.58716300  1
  O  O61  1  0.22041600  0.49774700  0.08716300  1
  O  O62  1  0.00225300  0.27958400  0.41283700  1
  O  O63  1  0.49774700  0.22041600  0.91283700  1
  O  O64  1  0.25099500  0.02474400  0.83335100  1
  O  O65  1  0.77958400  0.50225300  0.91283700  1
  O  O66  1  0.99774700  0.72041600  0.58716300  1
  O  O67  1  0.50225300  0.77958400  0.08716300  1
  O  O68  1  0.66360500  0.67348800  0.83717300  1
  O  O69  1  0.83639500  0.82651200  0.33717300  1
  O  O70  1  0.67348800  0.66360500  0.16282700  1
  O  O71  1  0.82651200  0.83639500  0.66282700  1
  O  O72  1  0.33639500  0.32651200  0.16282700  1
  O  O73  1  0.16360500  0.17348800  0.66282700  1
  O  O74  1  0.32651200  0.33639500  0.83717300  1
  O  O75  1  0.17348800  0.16360500  0.33717300  1
  O  O76  1  0.64436000  0.09027700  0.99480500  1
  O  O77  1  0.85564000  0.40972300  0.49480500  1
  O  O78  1  0.09027700  0.64436000  0.00519500  1
  O  O79  1  0.40972300  0.85564000  0.50519500  1
  O  O80  1  0.35564000  0.90972300  0.00519500  1
  O  O81  1  0.14436000  0.59027700  0.50519500  1
  O  O82  1  0.94705100  0.05294900  0.30965700  1
  O  O83  1  0.59027700  0.14436000  0.49480500  1
  O  O84  1  0.40811800  0.24917500  0.41528000  1
  O  O85  1  0.09188200  0.25082500  0.91528000  1
  O  O86  1  0.24917500  0.40811800  0.58472000  1
  O  O87  1  0.25082500  0.09188200  0.08472000  1
  O  O88  1  0.59188200  0.75082500  0.58472000  1
  O  O89  1  0.90811800  0.74917500  0.08472000  1
  O  O90  1  0.75082500  0.59188200  0.41528000  1
  O  O91  1  0.74917500  0.90811800  0.91528000  1
  O  O92  1  0.52474400  0.75099500  0.33335100  1
  O  O93  1  0.97525600  0.74900500  0.83335100  1
  O  O94  1  0.75099500  0.52474400  0.66664900  1
  O  O95  1  0.74900500  0.97525600  0.16664900  1
  O  O96  1  0.47525600  0.24900500  0.66664900  1
  O  O97  1  0.02474400  0.25099500  0.16664900  1
  O  O98  1  0.24900500  0.47525600  0.33335100  1
  O  O99  1  0.72041600  0.99774700  0.41283700  1
