# generated using pymatgen
data_LiSn6P7O24
_symmetry_space_group_name_H-M   'P 1'
_cell_length_a   27.59519700
_cell_length_b   6.27058900
_cell_length_c   7.35228516
_cell_angle_alpha   67.27398222
_cell_angle_beta   90.00000000
_cell_angle_gamma   90.00000000
_symmetry_Int_Tables_number   1
_chemical_formula_structural   LiSn6P7O24
_chemical_formula_sum   'Li2 Sn12 P14 O48'
_cell_volume   1173.45363902
_cell_formula_units_Z   2
loop_
 _symmetry_equiv_pos_site_id
 _symmetry_equiv_pos_as_xyz
  1  'x, y, z'
loop_
 _atom_site_type_symbol
 _atom_site_label
 _atom_site_symmetry_multiplicity
 _atom_site_fract_x
 _atom_site_fract_y
 _atom_site_fract_z
 _atom_site_occupancy
  Li  Li0  1  0.75000000  0.90503700  0.48771900  1
  Li  Li1  1  0.25000000  0.09496300  0.51228100  1
  Sn  Sn2  1  0.45467500  0.82855800  0.69224400  1
  Sn  Sn3  1  0.81928300  0.15921500  0.72084100  1
  Sn  Sn4  1  0.31928300  0.84078500  0.27915900  1
  Sn  Sn5  1  0.04532500  0.82855800  0.69224400  1
  Sn  Sn6  1  0.68071700  0.15921500  0.72084100  1
  Sn  Sn7  1  0.09865900  0.22320900  0.90773800  1
  Sn  Sn8  1  0.59865900  0.77679100  0.09226200  1
  Sn  Sn9  1  0.95467500  0.17144200  0.30775600  1
  Sn  Sn10  1  0.90134100  0.77679100  0.09226200  1
  Sn  Sn11  1  0.40134100  0.22320900  0.90773800  1
  Sn  Sn12  1  0.18071700  0.84078500  0.27915900  1
  Sn  Sn13  1  0.54532500  0.17144200  0.30775600  1
  P  P14  1  0.39469700  0.32883100  0.38339400  1
  P  P15  1  0.02755200  0.70647300  0.19612400  1
  P  P16  1  0.32895900  0.76609300  0.81835300  1
  P  P17  1  0.10530300  0.32883100  0.38339400  1
  P  P18  1  0.17104100  0.76609300  0.81835300  1
  P  P19  1  0.60530300  0.67116900  0.61660600  1
  P  P20  1  0.75000000  0.52096800  0.91628400  1
  P  P21  1  0.25000000  0.47903200  0.08371600  1
  P  P22  1  0.82895900  0.23390700  0.18164700  1
  P  P23  1  0.89469700  0.67116900  0.61660600  1
  P  P24  1  0.52755200  0.29352700  0.80387600  1
  P  P25  1  0.67104100  0.23390700  0.18164700  1
  P  P26  1  0.97244800  0.29352700  0.80387600  1
  P  P27  1  0.47244800  0.70647300  0.19612400  1
  O  O28  1  0.16543300  0.89577400  0.95802600  1
  O  O29  1  0.47209100  0.82613300  0.33962900  1
  O  O30  1  0.09111400  0.16978100  0.59838700  1
  O  O31  1  0.02286800  0.37310100  0.84735300  1
  O  O32  1  0.35813000  0.51099700  0.38631300  1
  O  O33  1  0.55507700  0.54148000  0.71366800  1
  O  O34  1  0.33456700  0.89577400  0.95802600  1
  O  O35  1  0.47713200  0.37310100  0.84735300  1
  O  O36  1  0.37687500  0.65976200  0.78355700  1
  O  O37  1  0.30260500  0.90518300  0.63023900  1
  O  O38  1  0.61939600  0.81138500  0.73761600  1
  O  O39  1  0.75000000  0.77552500  0.78792900  1
  O  O40  1  0.62312500  0.34023800  0.21644300  1
  O  O41  1  0.80260500  0.09481700  0.36976100  1
  O  O42  1  0.94603400  0.14603500  0.99937200  1
  O  O43  1  0.59111400  0.83021900  0.40161300  1
  O  O44  1  0.79607800  0.46812100  0.05972900  1
  O  O45  1  0.97713200  0.62689900  0.15264700  1
  O  O46  1  0.19739500  0.90518300  0.63023900  1
  O  O47  1  0.66543300  0.10422600  0.04197400  1
  O  O48  1  0.20392200  0.53187900  0.94027100  1
  O  O49  1  0.75000000  0.35943600  0.80376900  1
  O  O50  1  0.55396600  0.14603500  0.99937200  1
  O  O51  1  0.52790900  0.17386700  0.66037100  1
  O  O52  1  0.83456700  0.10422600  0.04197400  1
  O  O53  1  0.88060400  0.81138500  0.73761600  1
  O  O54  1  0.05507700  0.45852000  0.28633200  1
  O  O55  1  0.70392200  0.46812100  0.05972900  1
  O  O56  1  0.52286800  0.62689900  0.15264700  1
  O  O57  1  0.02790900  0.82613300  0.33962900  1
  O  O58  1  0.44603400  0.85396500  0.00062800  1
  O  O59  1  0.38060400  0.18861500  0.26238400  1
  O  O60  1  0.25000000  0.64056400  0.19623100  1
  O  O61  1  0.44492300  0.45852000  0.28633200  1
  O  O62  1  0.69739500  0.09481700  0.36976100  1
  O  O63  1  0.40888600  0.16978100  0.59838700  1
  O  O64  1  0.94492300  0.54148000  0.71366800  1
  O  O65  1  0.87687500  0.34023800  0.21644300  1
  O  O66  1  0.97209100  0.17386700  0.66037100  1
  O  O67  1  0.11939600  0.18861500  0.26238400  1
  O  O68  1  0.64187000  0.48900300  0.61368700  1
  O  O69  1  0.85813000  0.48900300  0.61368700  1
  O  O70  1  0.29607800  0.53187900  0.94027100  1
  O  O71  1  0.25000000  0.22447500  0.21207100  1
  O  O72  1  0.90888600  0.83021900  0.40161300  1
  O  O73  1  0.05396600  0.85396500  0.00062800  1
  O  O74  1  0.14187000  0.51099700  0.38631300  1
  O  O75  1  0.12312500  0.65976200  0.78355700  1
