# generated using pymatgen
data_LiSb(PO3)4
_symmetry_space_group_name_H-M   'P 1'
_cell_length_a   8.34477600
_cell_length_b   9.92278300
_cell_length_c   13.47690200
_cell_angle_alpha   90.00000000
_cell_angle_beta   90.00000000
_cell_angle_gamma   90.00000000
_symmetry_Int_Tables_number   1
_chemical_formula_structural   LiSb(PO3)4
_chemical_formula_sum   'Li4 Sb4 P16 O48'
_cell_volume   1115.93332636
_cell_formula_units_Z   4
loop_
 _symmetry_equiv_pos_site_id
 _symmetry_equiv_pos_as_xyz
  1  'x, y, z'
loop_
 _atom_site_type_symbol
 _atom_site_label
 _atom_site_symmetry_multiplicity
 _atom_site_fract_x
 _atom_site_fract_y
 _atom_site_fract_z
 _atom_site_occupancy
  Li  Li0  1  0.48621100  0.75000000  0.50000000  1
  Li  Li1  1  0.01378900  0.25000000  0.00000000  1
  Li  Li2  1  0.51378900  0.25000000  0.50000000  1
  Li  Li3  1  0.98621100  0.75000000  0.00000000  1
  Sb  Sb4  1  0.12519900  0.25000000  0.50000000  1
  Sb  Sb5  1  0.62519900  0.25000000  0.00000000  1
  Sb  Sb6  1  0.87480100  0.75000000  0.50000000  1
  Sb  Sb7  1  0.37480100  0.75000000  0.00000000  1
  P  P8  1  0.03707100  0.50891300  0.34205700  1
  P  P9  1  0.17224800  0.99679100  0.86151700  1
  P  P10  1  0.96292900  0.00891300  0.34205700  1
  P  P11  1  0.82775200  0.49679100  0.86151700  1
  P  P12  1  0.46292900  0.00891300  0.15794300  1
  P  P13  1  0.32775200  0.00320900  0.36151700  1
  P  P14  1  0.67224800  0.50320900  0.36151700  1
  P  P15  1  0.17224800  0.50320900  0.13848300  1
  P  P16  1  0.03707100  0.99108700  0.65794300  1
  P  P17  1  0.53707100  0.50891300  0.15794300  1
  P  P18  1  0.82775200  0.00320900  0.13848300  1
  P  P19  1  0.32775200  0.49679100  0.63848300  1
  P  P20  1  0.46292900  0.49108700  0.84205700  1
  P  P21  1  0.53707100  0.99108700  0.84205700  1
  P  P22  1  0.67224800  0.99679100  0.63848300  1
  P  P23  1  0.96292900  0.49108700  0.65794300  1
  O  O24  1  0.62804300  0.38047300  0.13796700  1
  O  O25  1  0.94730000  0.11873200  0.41924400  1
  O  O26  1  0.37195700  0.88047300  0.13796700  1
  O  O27  1  0.44730000  0.11873200  0.08075600  1
  O  O28  1  0.40561200  0.06858100  0.26205200  1
  O  O29  1  0.40365300  0.62523000  0.60697000  1
  O  O30  1  0.17177900  0.62258500  0.06705500  1
  O  O31  1  0.40561200  0.43141900  0.73794800  1
  O  O32  1  0.17177900  0.87741500  0.93294500  1
  O  O33  1  0.35253800  0.02661100  0.82272900  1
  O  O34  1  0.85253800  0.02661100  0.67727100  1
  O  O35  1  0.09438800  0.93141900  0.76205200  1
  O  O36  1  0.12804300  0.38047300  0.36203300  1
  O  O37  1  0.64746200  0.52661100  0.82272900  1
  O  O38  1  0.44730000  0.38126800  0.91924400  1
  O  O39  1  0.05270000  0.88126800  0.58075600  1
  O  O40  1  0.55270000  0.88126800  0.91924400  1
  O  O41  1  0.59634700  0.12523000  0.60697000  1
  O  O42  1  0.37195700  0.61952700  0.86203300  1
  O  O43  1  0.94730000  0.38126800  0.58075600  1
  O  O44  1  0.90561200  0.06858100  0.23794800  1
  O  O45  1  0.40365300  0.87477000  0.39303000  1
  O  O46  1  0.82822100  0.12258500  0.06705500  1
  O  O47  1  0.32822100  0.12258500  0.43294500  1
  O  O48  1  0.85253800  0.47338900  0.32272900  1
  O  O49  1  0.55270000  0.61873200  0.08075600  1
  O  O50  1  0.12804300  0.11952700  0.63796700  1
  O  O51  1  0.09438800  0.56858100  0.23794800  1
  O  O52  1  0.67177900  0.87741500  0.56705500  1
  O  O53  1  0.87195700  0.61952700  0.63796700  1
  O  O54  1  0.59438800  0.93141900  0.73794800  1
  O  O55  1  0.67177900  0.62258500  0.43294500  1
  O  O56  1  0.32822100  0.37741500  0.56705500  1
  O  O57  1  0.87195700  0.88047300  0.36203300  1
  O  O58  1  0.05270000  0.61873200  0.41924400  1
  O  O59  1  0.59438800  0.56858100  0.26205200  1
  O  O60  1  0.90561200  0.43141900  0.76205200  1
  O  O61  1  0.90365300  0.87477000  0.10697000  1
  O  O62  1  0.14746200  0.97338900  0.32272900  1
  O  O63  1  0.90365300  0.62523000  0.89303000  1
  O  O64  1  0.62804300  0.11952700  0.86203300  1
  O  O65  1  0.09634700  0.12523000  0.89303000  1
  O  O66  1  0.09634700  0.37477000  0.10697000  1
  O  O67  1  0.64746200  0.97338900  0.17727100  1
  O  O68  1  0.14746200  0.52661100  0.67727100  1
  O  O69  1  0.59634700  0.37477000  0.39303000  1
  O  O70  1  0.82822100  0.37741500  0.93294500  1
  O  O71  1  0.35253800  0.47338900  0.17727100  1
