# generated using pymatgen
data_Li3Bi(PO4)2
_symmetry_space_group_name_H-M   'P 1'
_cell_length_a   8.54030964
_cell_length_b   8.54030964
_cell_length_c   7.56635700
_cell_angle_alpha   90.00000000
_cell_angle_beta   90.00000000
_cell_angle_gamma   119.99999721
_symmetry_Int_Tables_number   1
_chemical_formula_structural   Li3Bi(PO4)2
_chemical_formula_sum   'Li9 Bi3 P6 O24'
_cell_volume   477.93045544
_cell_formula_units_Z   3
loop_
 _symmetry_equiv_pos_site_id
 _symmetry_equiv_pos_as_xyz
  1  'x, y, z'
loop_
 _atom_site_type_symbol
 _atom_site_label
 _atom_site_symmetry_multiplicity
 _atom_site_fract_x
 _atom_site_fract_y
 _atom_site_fract_z
 _atom_site_occupancy
  Li  Li0  1  0.65433300  0.97876900  0.87044700  1
  Li  Li1  1  0.97876900  0.32443500  0.12955300  1
  Li  Li2  1  0.33333300  0.66666700  0.01618000  1
  Li  Li3  1  0.32443500  0.34566700  0.87044700  1
  Li  Li4  1  0.67556500  0.65433300  0.12955300  1
  Li  Li5  1  0.02123100  0.67556500  0.87044700  1
  Li  Li6  1  0.66666700  0.33333300  0.98382000  1
  Li  Li7  1  0.34566700  0.02123100  0.12955300  1
  Li  Li8  1  0.00000000  0.00000000  0.00000000  1
  Bi  Bi9  1  0.00000000  0.00000000  0.50000000  1
  Bi  Bi10  1  0.33333300  0.66666700  0.55083400  1
  Bi  Bi11  1  0.66666700  0.33333300  0.44916600  1
  P  P12  1  0.33470600  0.02587800  0.74871000  1
  P  P13  1  0.97412200  0.30882800  0.74871000  1
  P  P14  1  0.02587800  0.69117200  0.25129000  1
  P  P15  1  0.30882800  0.33470600  0.25129000  1
  P  P16  1  0.66529400  0.97412200  0.25129000  1
  P  P17  1  0.69117200  0.66529400  0.74871000  1
  O  O18  1  0.58562900  0.10514800  0.23798700  1
  O  O19  1  0.25334000  0.42318000  0.10492800  1
  O  O20  1  0.12699600  0.91507000  0.77589800  1
  O  O21  1  0.10514800  0.51951900  0.76201300  1
  O  O22  1  0.21192500  0.12699600  0.22410200  1
  O  O23  1  0.42318000  0.16984000  0.89507200  1
  O  O24  1  0.11443900  0.74471900  0.43707600  1
  O  O25  1  0.88556100  0.25528100  0.56292400  1
  O  O26  1  0.87300400  0.08493000  0.22410200  1
  O  O27  1  0.36971900  0.11443900  0.56292400  1
  O  O28  1  0.48048100  0.58562900  0.76201300  1
  O  O29  1  0.91507000  0.78807500  0.22410200  1
  O  O30  1  0.74666000  0.57682000  0.89507200  1
  O  O31  1  0.74471900  0.63028100  0.56292400  1
  O  O32  1  0.83016000  0.25334000  0.89507200  1
  O  O33  1  0.89485200  0.48048100  0.23798700  1
  O  O34  1  0.51951900  0.41437100  0.23798700  1
  O  O35  1  0.41437100  0.89485200  0.76201300  1
  O  O36  1  0.08493000  0.21192500  0.77589800  1
  O  O37  1  0.63028100  0.88556100  0.43707600  1
  O  O38  1  0.57682000  0.83016000  0.10492800  1
  O  O39  1  0.78807500  0.87300400  0.77589800  1
  O  O40  1  0.16984000  0.74666000  0.10492800  1
  O  O41  1  0.25528100  0.36971900  0.43707600  1
