# generated using pymatgen
data_LiSn(PO3)3
_symmetry_space_group_name_H-M   'P 1'
_cell_length_a   5.59930700
_cell_length_b   10.91466900
_cell_length_c   11.87284100
_cell_angle_alpha   90.00000000
_cell_angle_beta   90.00000000
_cell_angle_gamma   90.00000000
_symmetry_Int_Tables_number   1
_chemical_formula_structural   LiSn(PO3)3
_chemical_formula_sum   'Li4 Sn4 P12 O36'
_cell_volume   725.60372121
_cell_formula_units_Z   4
loop_
 _symmetry_equiv_pos_site_id
 _symmetry_equiv_pos_as_xyz
  1  'x, y, z'
loop_
 _atom_site_type_symbol
 _atom_site_label
 _atom_site_symmetry_multiplicity
 _atom_site_fract_x
 _atom_site_fract_y
 _atom_site_fract_z
 _atom_site_occupancy
  Li  Li0  1  0.41164400  0.52810700  0.63557900  1
  Li  Li1  1  0.91164400  0.97189300  0.36442100  1
  Li  Li2  1  0.58835600  0.02810700  0.86442100  1
  Li  Li3  1  0.08835600  0.47189300  0.13557900  1
  Sn  Sn4  1  0.60147600  0.39322200  0.91483200  1
  Sn  Sn5  1  0.39852400  0.89322200  0.58516800  1
  Sn  Sn6  1  0.10147600  0.10677800  0.08516800  1
  Sn  Sn7  1  0.89852400  0.60677800  0.41483200  1
  P  P8  1  0.11161700  0.85160300  0.85932800  1
  P  P9  1  0.59419300  0.29876600  0.18280200  1
  P  P10  1  0.38838300  0.14839700  0.35932800  1
  P  P11  1  0.61161700  0.64839700  0.14067200  1
  P  P12  1  0.11908900  0.58303800  0.87470400  1
  P  P13  1  0.88838300  0.35160300  0.64067200  1
  P  P14  1  0.61908900  0.91696200  0.12529600  1
  P  P15  1  0.09419300  0.20123400  0.81719800  1
  P  P16  1  0.90580700  0.70123400  0.68280200  1
  P  P17  1  0.40580700  0.79876600  0.31719800  1
  P  P18  1  0.88091100  0.08303800  0.62529600  1
  P  P19  1  0.38091100  0.41696200  0.37470400  1
  O  O20  1  0.62824300  0.80305900  0.38966400  1
  O  O21  1  0.41499600  0.90514300  0.22235100  1
  O  O22  1  0.87638200  0.22045900  0.57544800  1
  O  O23  1  0.12824300  0.69694100  0.61033600  1
  O  O24  1  0.58500400  0.40514300  0.27764900  1
  O  O25  1  0.14788500  0.45065900  0.31859100  1
  O  O26  1  0.08612400  0.32224200  0.73909000  1
  O  O27  1  0.62361800  0.77954100  0.07544800  1
  O  O28  1  0.91387600  0.82224200  0.76091000  1
  O  O29  1  0.35211500  0.54934100  0.81859100  1
  O  O30  1  0.00499600  0.44263600  0.56460900  1
  O  O31  1  0.64788500  0.04934100  0.68140900  1
  O  O32  1  0.15100700  0.11990000  0.30517500  1
  O  O33  1  0.01696000  0.49753300  0.96163200  1
  O  O34  1  0.84899300  0.61990000  0.19482500  1
  O  O35  1  0.49500400  0.55736400  0.06460900  1
  O  O36  1  0.37638200  0.27954100  0.42455200  1
  O  O37  1  0.91499600  0.59485700  0.77764900  1
  O  O38  1  0.12361800  0.72045900  0.92455200  1
  O  O39  1  0.66788300  0.69330800  0.62489200  1
  O  O40  1  0.98304000  0.99753300  0.53836800  1
  O  O41  1  0.41387600  0.67775800  0.23909000  1
  O  O42  1  0.85211500  0.95065900  0.18140900  1
  O  O43  1  0.99500400  0.94263600  0.93539100  1
  O  O44  1  0.37175700  0.30305900  0.11033600  1
  O  O45  1  0.08500400  0.09485700  0.72235100  1
  O  O46  1  0.48304000  0.50246700  0.46163200  1
  O  O47  1  0.16788300  0.80669200  0.37510800  1
  O  O48  1  0.87175700  0.19694100  0.88966400  1
  O  O49  1  0.34899300  0.88010000  0.80517500  1
  O  O50  1  0.83211700  0.30669200  0.12489200  1
  O  O51  1  0.58612400  0.17775800  0.26091000  1
  O  O52  1  0.51696000  0.00246700  0.03836800  1
  O  O53  1  0.33211700  0.19330800  0.87510800  1
  O  O54  1  0.50499600  0.05736400  0.43539100  1
  O  O55  1  0.65100700  0.38010000  0.69482500  1
