# generated using pymatgen
data_Li2SeO4
_symmetry_space_group_name_H-M   'P 1'
_cell_length_a   8.57074600
_cell_length_b   9.63279839
_cell_length_c   9.97343561
_cell_angle_alpha   97.78953499
_cell_angle_beta   108.43439617
_cell_angle_gamma   113.65767421
_symmetry_Int_Tables_number   1
_chemical_formula_structural   Li2SeO4
_chemical_formula_sum   'Li12 Se6 O24'
_cell_volume   682.10010242
_cell_formula_units_Z   6
loop_
 _symmetry_equiv_pos_site_id
 _symmetry_equiv_pos_as_xyz
  1  'x, y, z'
loop_
 _atom_site_type_symbol
 _atom_site_label
 _atom_site_symmetry_multiplicity
 _atom_site_fract_x
 _atom_site_fract_y
 _atom_site_fract_z
 _atom_site_occupancy
  Li  Li0  1  0.14401500  0.57492400  0.40306900  1
  Li  Li1  1  0.85631800  0.42264200  0.59580300  1
  Li  Li2  1  0.37891600  0.11684700  0.93955600  1
  Li  Li3  1  0.33951600  0.20551600  0.61439700  1
  Li  Li4  1  0.56693200  0.36467600  0.22497300  1
  Li  Li5  1  0.65871300  0.78903900  0.38268500  1
  Li  Li6  1  0.09038500  0.89396400  0.25887500  1
  Li  Li7  1  0.91952500  0.34524500  0.08994300  1
  Li  Li8  1  0.43545900  0.62921200  0.77389300  1
  Li  Li9  1  0.59622700  0.88608300  0.05427700  1
  Li  Li10  1  0.89752800  0.10468500  0.73931300  1
  Li  Li11  1  0.08314300  0.65876900  0.91177000  1
  Se  Se12  1  0.68119900  0.27811600  0.77460600  1
  Se  Se13  1  0.31903100  0.72702500  0.22953900  1
  Se  Se14  1  0.72285500  0.18170100  0.29258400  1
  Se  Se15  1  0.18837800  0.36131100  0.77867800  1
  Se  Se16  1  0.29007100  0.82060600  0.70800000  1
  Se  Se17  1  0.80923400  0.63357300  0.22019500  1
  O  O18  1  0.21524400  0.62700800  0.61143600  1
  O  O19  1  0.57544300  0.20813800  0.58885900  1
  O  O20  1  0.49604300  0.85236400  0.84716800  1
  O  O21  1  0.14517500  0.81195300  0.79549200  1
  O  O22  1  0.77516600  0.36790900  0.38918900  1
  O  O23  1  0.74450900  0.45780300  0.10705900  1
  O  O24  1  0.65785400  0.59635100  0.30150600  1
  O  O25  1  0.92859400  0.97322800  0.51552400  1
  O  O26  1  0.17790100  0.21557000  0.85733300  1
  O  O27  1  0.49877700  0.22146300  0.82082000  1
  O  O28  1  0.06615900  0.02544100  0.47890900  1
  O  O29  1  0.18841900  0.80465900  0.13991400  1
  O  O30  1  0.42763300  0.79479500  0.41545200  1
  O  O31  1  0.33539700  0.39660000  0.69311300  1
  O  O32  1  0.96873300  0.28327000  0.65137800  1
  O  O33  1  0.81855800  0.47387900  0.80992200  1
  O  O34  1  0.18071900  0.53112700  0.19136200  1
  O  O35  1  0.02856900  0.71350100  0.34919900  1
  O  O36  1  0.25715200  0.53730200  0.89392200  1
  O  O37  1  0.49939500  0.78080100  0.18044700  1
  O  O38  1  0.88625000  0.21067300  0.22155700  1
  O  O39  1  0.52077300  0.14274500  0.14376200  1
  O  O40  1  0.81499400  0.20401000  0.86622800  1
  O  O41  1  0.81509700  0.77547200  0.13829300  1
