# generated using pymatgen
data_LiSb2(PO4)3
_symmetry_space_group_name_H-M   'P 1'
_cell_length_a   9.06964400
_cell_length_b   8.77710700
_cell_length_c   15.46276970
_cell_angle_alpha   55.47122949
_cell_angle_beta   90.00000000
_cell_angle_gamma   90.00000000
_symmetry_Int_Tables_number   1
_chemical_formula_structural   LiSb2(PO4)3
_chemical_formula_sum   'Li4 Sb8 P12 O48'
_cell_volume   1014.08106910
_cell_formula_units_Z   4
loop_
 _symmetry_equiv_pos_site_id
 _symmetry_equiv_pos_as_xyz
  1  'x, y, z'
loop_
 _atom_site_type_symbol
 _atom_site_label
 _atom_site_symmetry_multiplicity
 _atom_site_fract_x
 _atom_site_fract_y
 _atom_site_fract_z
 _atom_site_occupancy
  Li  Li0  1  0.23890300  0.40750400  0.30725400  1
  Li  Li1  1  0.73890300  0.59249600  0.19274600  1
  Li  Li2  1  0.76109700  0.59249600  0.69274600  1
  Li  Li3  1  0.26109700  0.40750400  0.80725400  1
  Sb  Sb4  1  0.54723400  0.34800700  0.39733400  1
  Sb  Sb5  1  0.45276600  0.65199300  0.60266600  1
  Sb  Sb6  1  0.95276600  0.34800700  0.89733400  1
  Sb  Sb7  1  0.45567800  0.85825500  0.88755900  1
  Sb  Sb8  1  0.04432200  0.85825500  0.38755900  1
  Sb  Sb9  1  0.54432200  0.14174500  0.11244100  1
  Sb  Sb10  1  0.04723400  0.65199300  0.10266600  1
  Sb  Sb11  1  0.95567800  0.14174500  0.61244100  1
  P  P12  1  0.60602100  0.95935800  0.65779500  1
  P  P13  1  0.08961900  0.75242000  0.64108100  1
  P  P14  1  0.73937800  0.54435700  0.00744000  1
  P  P15  1  0.89397900  0.95935800  0.15779500  1
  P  P16  1  0.26062200  0.45564300  0.99256000  1
  P  P17  1  0.76062200  0.54435700  0.50744000  1
  P  P18  1  0.10602100  0.04064200  0.84220500  1
  P  P19  1  0.58961900  0.24758000  0.85891900  1
  P  P20  1  0.41038100  0.75242000  0.14108100  1
  P  P21  1  0.91038100  0.24758000  0.35891900  1
  P  P22  1  0.23937800  0.45564300  0.49256000  1
  P  P23  1  0.39397900  0.04064200  0.34220500  1
  O  O24  1  0.23709800  0.98631700  0.32560300  1
  O  O25  1  0.46246800  0.88933000  0.44843300  1
  O  O26  1  0.67505200  0.57734800  0.58178200  1
  O  O27  1  0.34204400  0.48370200  0.56001900  1
  O  O28  1  0.53753200  0.11067000  0.55156700  1
  O  O29  1  0.96054700  0.62336400  0.69823400  1
  O  O30  1  0.84204400  0.51629800  0.93998100  1
  O  O31  1  0.65795600  0.51629800  0.43998100  1
  O  O32  1  0.86506300  0.37602200  0.57966800  1
  O  O33  1  0.76290200  0.01368300  0.67439700  1
  O  O34  1  0.03753200  0.88933000  0.94843300  1
  O  O35  1  0.46054700  0.37663600  0.80176600  1
  O  O36  1  0.64497000  0.72040400  0.93290900  1
  O  O37  1  0.03945300  0.37663600  0.30176600  1
  O  O38  1  0.60397100  0.18419000  0.97704900  1
  O  O39  1  0.73862800  0.33514900  0.80924900  1
  O  O40  1  0.85503000  0.72040400  0.43290900  1
  O  O41  1  0.00201400  0.94467300  0.24099600  1
  O  O42  1  0.50201400  0.05532700  0.25900400  1
  O  O43  1  0.17505200  0.42265200  0.91821800  1
  O  O44  1  0.10397100  0.81581000  0.52295100  1
  O  O45  1  0.89602900  0.18419000  0.47704900  1
  O  O46  1  0.11537100  0.22461500  0.83143900  1
  O  O47  1  0.96246800  0.11067000  0.05156700  1
  O  O48  1  0.42340700  0.93103800  0.14078700  1
  O  O49  1  0.13493700  0.62397800  0.42033200  1
  O  O50  1  0.23862800  0.66485100  0.69075100  1
  O  O51  1  0.73709800  0.01368300  0.17439700  1
  O  O52  1  0.15795600  0.48370200  0.06001900  1
  O  O53  1  0.92340700  0.06896200  0.35921300  1
  O  O54  1  0.63493700  0.37602200  0.07966800  1
  O  O55  1  0.36506300  0.62397800  0.92033200  1
  O  O56  1  0.39602900  0.81581000  0.02295100  1
  O  O57  1  0.07659300  0.93103800  0.64078700  1
  O  O58  1  0.14497000  0.27959600  0.56709100  1
  O  O59  1  0.26137200  0.66485100  0.19075100  1
  O  O60  1  0.99798600  0.05532700  0.75900400  1
  O  O61  1  0.32494800  0.42265200  0.41821800  1
  O  O62  1  0.57659300  0.06896200  0.85921300  1
  O  O63  1  0.49798600  0.94467300  0.74099600  1
  O  O64  1  0.76137200  0.33514900  0.30924900  1
  O  O65  1  0.61537100  0.77538500  0.66856100  1
  O  O66  1  0.82494800  0.57734800  0.08178200  1
  O  O67  1  0.53945300  0.62336400  0.19823400  1
  O  O68  1  0.38462900  0.22461500  0.33143900  1
  O  O69  1  0.26290200  0.98631700  0.82560300  1
  O  O70  1  0.88462900  0.77538500  0.16856100  1
  O  O71  1  0.35503000  0.27959600  0.06709100  1
