# generated using pymatgen
data_Li4Re6S11
_symmetry_space_group_name_H-M   'P 1'
_cell_length_a   9.66125200
_cell_length_b   11.90277100
_cell_length_c   14.20382900
_cell_angle_alpha   90.00000000
_cell_angle_beta   90.00000000
_cell_angle_gamma   90.00000000
_symmetry_Int_Tables_number   1
_chemical_formula_structural   Li4Re6S11
_chemical_formula_sum   'Li16 Re24 S44'
_cell_volume   1633.37883426
_cell_formula_units_Z   4
loop_
 _symmetry_equiv_pos_site_id
 _symmetry_equiv_pos_as_xyz
  1  'x, y, z'
loop_
 _atom_site_type_symbol
 _atom_site_label
 _atom_site_symmetry_multiplicity
 _atom_site_fract_x
 _atom_site_fract_y
 _atom_site_fract_z
 _atom_site_occupancy
  Li  Li0  1  0.97820500  0.35630600  0.77888600  1
  Li  Li1  1  0.52179500  0.85630600  0.77888600  1
  Li  Li2  1  0.97820500  0.85630600  0.72111400  1
  Li  Li3  1  0.66795100  0.35219300  0.34428300  1
  Li  Li4  1  0.83204900  0.85219300  0.34428300  1
  Li  Li5  1  0.66795100  0.85219300  0.15571700  1
  Li  Li6  1  0.83204900  0.35219300  0.15571700  1
  Li  Li7  1  0.47820500  0.64369400  0.27888600  1
  Li  Li8  1  0.02179500  0.64369400  0.22111400  1
  Li  Li9  1  0.16795100  0.64780700  0.84428300  1
  Li  Li10  1  0.33204900  0.14780700  0.84428300  1
  Li  Li11  1  0.52179500  0.35630600  0.72111400  1
  Li  Li12  1  0.02179500  0.14369400  0.27888600  1
  Li  Li13  1  0.33204900  0.64780700  0.65571700  1
  Li  Li14  1  0.16795100  0.14780700  0.65571700  1
  Li  Li15  1  0.47820500  0.14369400  0.22111400  1
  Re  Re16  1  0.64594400  0.58218500  0.05330400  1
  Re  Re17  1  0.35405600  0.91781500  0.55330400  1
  Re  Re18  1  0.89167700  0.47817600  0.60813500  1
  Re  Re19  1  0.14594400  0.41781500  0.55330400  1
  Re  Re20  1  0.57062800  0.86794700  0.44986300  1
  Re  Re21  1  0.92937200  0.86794700  0.05013700  1
  Re  Re22  1  0.10832300  0.02182400  0.10813500  1
  Re  Re23  1  0.39167700  0.02182400  0.39186500  1
  Re  Re24  1  0.07062800  0.13205300  0.94986300  1
  Re  Re25  1  0.64594400  0.08218500  0.44669600  1
  Re  Re26  1  0.60832300  0.47817600  0.89186500  1
  Re  Re27  1  0.14594400  0.91781500  0.94669600  1
  Re  Re28  1  0.35405600  0.41781500  0.94669600  1
  Re  Re29  1  0.57062800  0.36794700  0.05013700  1
  Re  Re30  1  0.42937200  0.63205300  0.94986300  1
  Re  Re31  1  0.85405600  0.08218500  0.05330400  1
  Re  Re32  1  0.85405600  0.58218500  0.44669600  1
  Re  Re33  1  0.10832300  0.52182400  0.39186500  1
  Re  Re34  1  0.42937200  0.13205300  0.55013700  1
  Re  Re35  1  0.92937200  0.36794700  0.44986300  1
  Re  Re36  1  0.07062800  0.63205300  0.55013700  1
  Re  Re37  1  0.39167700  0.52182400  0.10813500  1
  Re  Re38  1  0.89167700  0.97817600  0.89186500  1
  Re  Re39  1  0.60832300  0.97817600  0.60813500  1
  S  S40  1  0.25000000  0.07499900  0.25000000  1
  S  S41  1  0.16791500  0.80161600  0.62580800  1
  S  S42  1  0.66791500  0.69838400  0.37419200  1
  S  S43  1  0.70163000  0.43517200  0.50400000  1
  S  S44  1  0.52798300  0.78146900  0.60093500  1
  S  S45  1  0.66476700  0.67275700  0.90333200  1
  S  S46  1  0.33523300  0.82724300  0.40333200  1
  S  S47  1  0.16476700  0.82724300  0.09666800  1
  S  S48  1  0.70163000  0.93517200  0.99600000  1
  S  S49  1  0.52798300  0.28146900  0.89906500  1
  S  S50  1  0.09874800  0.52813800  0.69643300  1
  S  S51  1  0.97201700  0.78146900  0.89906500  1
  S  S52  1  0.83208500  0.19838400  0.37419200  1
  S  S53  1  0.75000000  0.92500100  0.75000000  1
  S  S54  1  0.66476700  0.17275700  0.59666800  1
  S  S55  1  0.59874800  0.47186200  0.19643300  1
  S  S56  1  0.90125200  0.47186200  0.30356700  1
  S  S57  1  0.59874800  0.97186200  0.30356700  1
  S  S58  1  0.79837000  0.43517200  0.99600000  1
  S  S59  1  0.20163000  0.56482800  0.00400000  1
  S  S60  1  0.90125200  0.97186200  0.19643300  1
  S  S61  1  0.40125200  0.02813800  0.69643300  1
  S  S62  1  0.16476700  0.32724300  0.40333200  1
  S  S63  1  0.16791500  0.30161600  0.87419200  1
  S  S64  1  0.75000000  0.42500100  0.75000000  1
  S  S65  1  0.40125200  0.52813800  0.80356700  1
  S  S66  1  0.83523300  0.67275700  0.59666800  1
  S  S67  1  0.79837000  0.93517200  0.50400000  1
  S  S68  1  0.29837000  0.56482800  0.49600000  1
  S  S69  1  0.33208500  0.30161600  0.62580800  1
  S  S70  1  0.33523300  0.32724300  0.09666800  1
  S  S71  1  0.66791500  0.19838400  0.12580800  1
  S  S72  1  0.25000000  0.57499900  0.25000000  1
  S  S73  1  0.33208500  0.80161600  0.87419200  1
  S  S74  1  0.97201700  0.28146900  0.60093500  1
  S  S75  1  0.02798300  0.71853100  0.39906500  1
  S  S76  1  0.47201700  0.21853100  0.39906500  1
  S  S77  1  0.09874800  0.02813800  0.80356700  1
  S  S78  1  0.20163000  0.06482800  0.49600000  1
  S  S79  1  0.29837000  0.06482800  0.00400000  1
  S  S80  1  0.83523300  0.17275700  0.90333200  1
  S  S81  1  0.83208500  0.69838400  0.12580800  1
  S  S82  1  0.02798300  0.21853100  0.10093500  1
  S  S83  1  0.47201700  0.71853100  0.10093500  1
