# generated using pymatgen
data_Li2FeP2HO8
_symmetry_space_group_name_H-M   'P 1'
_cell_length_a   7.55730300
_cell_length_b   6.27238200
_cell_length_c   7.87920701
_cell_angle_alpha   55.52161500
_cell_angle_beta   90.00000000
_cell_angle_gamma   90.00000000
_symmetry_Int_Tables_number   1
_chemical_formula_structural   Li2FeP2HO8
_chemical_formula_sum   'Li4 Fe2 P4 H2 O16'
_cell_volume   307.88470796
_cell_formula_units_Z   2
loop_
 _symmetry_equiv_pos_site_id
 _symmetry_equiv_pos_as_xyz
  1  'x, y, z'
loop_
 _atom_site_type_symbol
 _atom_site_label
 _atom_site_symmetry_multiplicity
 _atom_site_fract_x
 _atom_site_fract_y
 _atom_site_fract_z
 _atom_site_occupancy
  Li  Li0  1  0.04627100  0.97480700  0.65886500  1
  Li  Li1  1  0.37650100  0.01140100  0.81153200  1
  Li  Li2  1  0.95372900  0.97480700  0.15886500  1
  Li  Li3  1  0.62349900  0.01140100  0.31153200  1
  Fe  Fe4  1  0.24885200  0.59861900  0.43192400  1
  Fe  Fe5  1  0.75114800  0.59861900  0.93192400  1
  P  P6  1  0.67305500  0.52316500  0.37822300  1
  P  P7  1  0.19468500  0.18278700  0.30228900  1
  P  P8  1  0.32694500  0.52316500  0.87822300  1
  P  P9  1  0.80531500  0.18278700  0.80228900  1
  H  H10  1  0.73769200  0.98023900  0.59552500  1
  H  H11  1  0.26230800  0.98023900  0.09552500  1
  O  O12  1  0.77059000  0.89025500  0.95474600  1
  O  O13  1  0.32864800  0.39216700  0.76102400  1
  O  O14  1  0.65375000  0.27471400  0.62521200  1
  O  O15  1  0.49567600  0.68529800  0.84489700  1
  O  O16  1  0.24161300  0.28350400  0.43762700  1
  O  O17  1  0.98664400  0.24481800  0.71032700  1
  O  O18  1  0.16756500  0.67670200  0.86086200  1
  O  O19  1  0.67135200  0.39216700  0.26102400  1
  O  O20  1  0.81862800  0.83452300  0.64494800  1
  O  O21  1  0.34625000  0.27471400  0.12521200  1
  O  O22  1  0.50432400  0.68529800  0.34489700  1
  O  O23  1  0.22941000  0.89025500  0.45474600  1
  O  O24  1  0.01335600  0.24481800  0.21032700  1
  O  O25  1  0.83243500  0.67670200  0.36086200  1
  O  O26  1  0.18137200  0.83452300  0.14494800  1
  O  O27  1  0.75838700  0.28350400  0.93762700  1
