# generated using pymatgen
data_LiCrP2O7
_symmetry_space_group_name_H-M   'P 1'
_cell_length_a   7.84216871
_cell_length_b   7.84216871
_cell_length_c   10.58962313
_cell_angle_alpha   89.55809958
_cell_angle_beta   89.55809958
_cell_angle_gamma   116.14308208
_symmetry_Int_Tables_number   1
_chemical_formula_structural   LiCrP2O7
_chemical_formula_sum   'Li4 Cr4 P8 O28'
_cell_volume   584.56959476
_cell_formula_units_Z   4
loop_
 _symmetry_equiv_pos_site_id
 _symmetry_equiv_pos_as_xyz
  1  'x, y, z'
loop_
 _atom_site_type_symbol
 _atom_site_label
 _atom_site_symmetry_multiplicity
 _atom_site_fract_x
 _atom_site_fract_y
 _atom_site_fract_z
 _atom_site_occupancy
  Li  Li0  1  0.28732000  0.71823100  0.49901900  1
  Li  Li1  1  0.71268000  0.28176900  0.50098100  1
  Li  Li2  1  0.28176900  0.71268000  0.00098100  1
  Li  Li3  1  0.71823100  0.28732000  0.99901900  1
  Cr  Cr4  1  0.31033700  0.30805100  0.11075000  1
  Cr  Cr5  1  0.30805100  0.31033700  0.61075000  1
  Cr  Cr6  1  0.69194900  0.68966300  0.38925000  1
  Cr  Cr7  1  0.68966300  0.69194900  0.88925000  1
  P  P8  1  0.28826600  0.08279600  0.36950400  1
  P  P9  1  0.91720400  0.71173400  0.13049600  1
  P  P10  1  0.31718400  0.09256700  0.86661100  1
  P  P11  1  0.68281600  0.90743300  0.13338900  1
  P  P12  1  0.08279600  0.28826600  0.86950400  1
  P  P13  1  0.09256700  0.31718400  0.36661100  1
  P  P14  1  0.71173400  0.91720400  0.63049600  1
  P  P15  1  0.90743300  0.68281600  0.63338900  1
  O  O16  1  0.11948800  0.75439700  0.11943400  1
  O  O17  1  0.88051200  0.24560300  0.88056600  1
  O  O18  1  0.90995400  0.89373300  0.61879700  1
  O  O19  1  0.79237300  0.58637500  0.01892200  1
  O  O20  1  0.19721100  0.39934100  0.24020000  1
  O  O21  1  0.62035000  0.81504500  0.75651200  1
  O  O22  1  0.20762700  0.41362500  0.98107800  1
  O  O23  1  0.60065900  0.80278900  0.25980000  1
  O  O24  1  0.80278900  0.60065900  0.75980000  1
  O  O25  1  0.10228500  0.70116700  0.62272400  1
  O  O26  1  0.29883300  0.89771500  0.87727600  1
  O  O27  1  0.10626700  0.09004600  0.88120300  1
  O  O28  1  0.89373300  0.90995400  0.11879700  1
  O  O29  1  0.37965000  0.18495500  0.24348800  1
  O  O30  1  0.77070600  0.56740200  0.52263300  1
  O  O31  1  0.56740200  0.77070600  0.02263300  1
  O  O32  1  0.18495500  0.37965000  0.74348800  1
  O  O33  1  0.39934100  0.19721100  0.74020000  1
  O  O34  1  0.43259800  0.22929400  0.97736700  1
  O  O35  1  0.75439700  0.11948800  0.61943400  1
  O  O36  1  0.22929400  0.43259800  0.47736700  1
  O  O37  1  0.58637500  0.79237300  0.51892200  1
  O  O38  1  0.09004600  0.10626700  0.38120300  1
  O  O39  1  0.41362500  0.20762700  0.48107800  1
  O  O40  1  0.24560300  0.88051200  0.38056600  1
  O  O41  1  0.70116700  0.10228500  0.12272400  1
  O  O42  1  0.81504500  0.62035000  0.25651200  1
  O  O43  1  0.89771500  0.29883300  0.37727600  1
