# generated using pymatgen
data_Li3V2P5O18
_symmetry_space_group_name_H-M   'P 1'
_cell_length_a   6.43949600
_cell_length_b   9.33155384
_cell_length_c   10.57703889
_cell_angle_alpha   95.75780362
_cell_angle_beta   93.06072578
_cell_angle_gamma   91.90268262
_symmetry_Int_Tables_number   1
_chemical_formula_structural   Li3V2P5O18
_chemical_formula_sum   'Li6 V4 P10 O36'
_cell_volume   630.99519645
_cell_formula_units_Z   2
loop_
 _symmetry_equiv_pos_site_id
 _symmetry_equiv_pos_as_xyz
  1  'x, y, z'
loop_
 _atom_site_type_symbol
 _atom_site_label
 _atom_site_symmetry_multiplicity
 _atom_site_fract_x
 _atom_site_fract_y
 _atom_site_fract_z
 _atom_site_occupancy
  Li  Li0  1  0.12612000  0.20859400  0.66706600  1
  Li  Li1  1  0.44693800  0.73107400  0.40132800  1
  Li  Li2  1  0.99419900  0.06088000  0.86854200  1
  Li  Li3  1  0.87388000  0.79140600  0.33293400  1
  Li  Li4  1  0.55306200  0.26892600  0.59867200  1
  Li  Li5  1  0.00580100  0.93912000  0.13145800  1
  V  V6  1  0.22737500  0.34564700  0.40937500  1
  V  V7  1  0.66951700  0.22808100  0.04767000  1
  V  V8  1  0.33048300  0.77191900  0.95233000  1
  V  V9  1  0.77262500  0.65435300  0.59062500  1
  P  P10  1  0.82966700  0.72749500  0.89690900  1
  P  P11  1  0.72187200  0.41474500  0.35146000  1
  P  P12  1  0.51509400  0.95548700  0.20237400  1
  P  P13  1  0.77999400  0.99092200  0.60244300  1
  P  P14  1  0.83018600  0.41651900  0.82584500  1
  P  P15  1  0.22000600  0.00907800  0.39755700  1
  P  P16  1  0.17033300  0.27250500  0.10309100  1
  P  P17  1  0.16981400  0.58348100  0.17415500  1
  P  P18  1  0.48490600  0.04451300  0.79762600  1
  P  P19  1  0.27812800  0.58525500  0.64854000  1
  O  O20  1  0.58142000  0.95320800  0.68390900  1
  O  O21  1  0.78193400  0.83661800  0.51976700  1
  O  O22  1  0.90988600  0.56960700  0.90361800  1
  O  O23  1  0.33160500  0.91858000  0.10038500  1
  O  O24  1  0.60972600  0.82540000  0.24963800  1
  O  O25  1  0.66839500  0.08142000  0.89961500  1
  O  O26  1  0.72460400  0.11236000  0.52638400  1
  O  O27  1  0.99438100  0.68243900  0.19035300  1
  O  O28  1  0.06313900  0.64044400  0.59785800  1
  O  O29  1  0.01642900  0.82361800  0.95521200  1
  O  O30  1  0.31344300  0.63545500  0.06897500  1
  O  O31  1  0.26247800  0.42189900  0.59904300  1
  O  O32  1  0.68655700  0.36454500  0.93102500  1
  O  O33  1  0.98357100  0.17638200  0.04478800  1
  O  O34  1  0.27539600  0.88764000  0.47361600  1
  O  O35  1  0.21806600  0.16338200  0.48023300  1
  O  O36  1  0.71881500  0.45303500  0.70113600  1
  O  O37  1  0.02692300  0.98219800  0.31046200  1
  O  O38  1  0.30688100  0.62478200  0.79253600  1
  O  O39  1  0.69311900  0.37521800  0.20746400  1
  O  O40  1  0.09011400  0.43039300  0.09638200  1
  O  O41  1  0.21461100  0.25142400  0.24250800  1
  O  O42  1  0.36441400  0.24025200  0.03046800  1
  O  O43  1  0.78538900  0.74857600  0.75749200  1
  O  O44  1  0.28118500  0.54696500  0.29886400  1
  O  O45  1  0.33458500  0.93297000  0.85023800  1
  O  O46  1  0.66541500  0.06703000  0.14976200  1
  O  O47  1  0.39027400  0.17460000  0.75036200  1
  O  O48  1  0.97307700  0.01780200  0.68953800  1
  O  O49  1  0.46509900  0.64981000  0.58088100  1
  O  O50  1  0.00561900  0.31756100  0.80964700  1
  O  O51  1  0.63558600  0.75974800  0.96953200  1
  O  O52  1  0.73752200  0.57810100  0.40095700  1
  O  O53  1  0.41858000  0.04679200  0.31609100  1
  O  O54  1  0.53490100  0.35019000  0.41911900  1
  O  O55  1  0.93686100  0.35955600  0.40214200  1
