# generated using pymatgen
data_LiMo(PO3)5
_symmetry_space_group_name_H-M   'P 1'
_cell_length_a   13.82708000
_cell_length_b   9.46586300
_cell_length_c   10.63651220
_cell_angle_alpha   68.13330380
_cell_angle_beta   90.00000000
_cell_angle_gamma   90.00000000
_symmetry_Int_Tables_number   1
_chemical_formula_structural   LiMo(PO3)5
_chemical_formula_sum   'Li4 Mo4 P20 O60'
_cell_volume   1292.00045087
_cell_formula_units_Z   4
loop_
 _symmetry_equiv_pos_site_id
 _symmetry_equiv_pos_as_xyz
  1  'x, y, z'
loop_
 _atom_site_type_symbol
 _atom_site_label
 _atom_site_symmetry_multiplicity
 _atom_site_fract_x
 _atom_site_fract_y
 _atom_site_fract_z
 _atom_site_occupancy
  Li  Li0  1  0.13280500  0.07329800  0.23451900  1
  Li  Li1  1  0.63280500  0.92670200  0.26548100  1
  Li  Li2  1  0.36719500  0.07329800  0.73451900  1
  Li  Li3  1  0.86719500  0.92670200  0.76548100  1
  Mo  Mo4  1  0.00077100  0.49820300  0.25180100  1
  Mo  Mo5  1  0.49922900  0.49820300  0.75180100  1
  Mo  Mo6  1  0.50077100  0.50179700  0.24819900  1
  Mo  Mo7  1  0.99922900  0.50179700  0.74819900  1
  P  P8  1  0.41305500  0.82335900  0.01587300  1
  P  P9  1  0.25118700  0.01528200  0.51403500  1
  P  P10  1  0.57573900  0.18301400  0.49416000  1
  P  P11  1  0.14176000  0.52333600  0.98991600  1
  P  P12  1  0.74881300  0.98471800  0.48596500  1
  P  P13  1  0.64338000  0.47402400  0.00756800  1
  P  P14  1  0.35824000  0.52333600  0.48991600  1
  P  P15  1  0.07573900  0.81698600  0.00584000  1
  P  P16  1  0.35662000  0.52597600  0.99243200  1
  P  P17  1  0.92426100  0.18301400  0.99416000  1
  P  P18  1  0.08694500  0.82335900  0.51587300  1
  P  P19  1  0.42426100  0.81698600  0.50584000  1
  P  P20  1  0.14338000  0.52597600  0.49243200  1
  P  P21  1  0.85662000  0.47402400  0.50756800  1
  P  P22  1  0.85824000  0.47666400  0.01008400  1
  P  P23  1  0.75118700  0.98471800  0.98596500  1
  P  P24  1  0.58694500  0.17664100  0.98412700  1
  P  P25  1  0.24881300  0.01528200  0.01403500  1
  P  P26  1  0.64176000  0.47666400  0.51008400  1
  P  P27  1  0.91305500  0.17664100  0.48412700  1
  O  O28  1  0.65600200  0.10520900  0.43881900  1
  O  O29  1  0.47805100  0.71467500  0.63628800  1
  O  O30  1  0.01949400  0.72268700  0.63025000  1
  O  O31  1  0.07788500  0.43484200  0.10883300  1
  O  O32  1  0.97805100  0.28532500  0.86371200  1
  O  O33  1  0.84399800  0.10520900  0.93881900  1
  O  O34  1  0.64964200  0.30064200  0.02967400  1
  O  O35  1  0.51949400  0.27731300  0.86975000  1
  O  O36  1  0.42229600  0.43846200  0.10875200  1
  O  O37  1  0.75083600  0.53341100  0.96546700  1
  O  O38  1  0.85035800  0.30064200  0.52967400  1
  O  O39  1  0.98050600  0.27731300  0.36975000  1
  O  O40  1  0.12309800  0.50461600  0.35979000  1
  O  O41  1  0.34399800  0.89479100  0.56118100  1
  O  O42  1  0.51461400  0.09068200  0.60785600  1
  O  O43  1  0.64348100  0.30203900  0.53796300  1
  O  O44  1  0.87690200  0.49538400  0.64021000  1
  O  O45  1  0.92211500  0.56515800  0.89116700  1
  O  O46  1  0.37792700  0.50153600  0.35736300  1
  O  O47  1  0.26670900  0.06954100  0.86602500  1
  O  O48  1  0.74916400  0.53341100  0.46546700  1
  O  O49  1  0.42211500  0.43484200  0.60883300  1
  O  O50  1  0.85651900  0.30203900  0.03796300  1
  O  O51  1  0.12207300  0.50153600  0.85736300  1
  O  O52  1  0.87792700  0.49846400  0.14263700  1
  O  O53  1  0.66605000  0.11543300  0.90893200  1
  O  O54  1  0.35651900  0.69796100  0.46203700  1
  O  O55  1  0.07770400  0.43846200  0.60875200  1
  O  O56  1  0.54425600  0.06466100  0.10797300  1
  O  O57  1  0.25083600  0.46658900  0.53453300  1
  O  O58  1  0.01461400  0.90931800  0.89214400  1
  O  O59  1  0.37690200  0.50461600  0.85979000  1
  O  O60  1  0.33395000  0.88456700  0.09106800  1
  O  O61  1  0.62207300  0.49846400  0.64263700  1
  O  O62  1  0.23331900  0.11545500  0.09070300  1
  O  O63  1  0.73331900  0.88454500  0.40929700  1
  O  O64  1  0.57770400  0.56153800  0.89124800  1
  O  O65  1  0.57788500  0.56515800  0.39116700  1
  O  O66  1  0.35035800  0.69935800  0.97032600  1
  O  O67  1  0.83395000  0.11543300  0.40893200  1
  O  O68  1  0.92229600  0.56153800  0.39124800  1
  O  O69  1  0.62309800  0.49538400  0.14021000  1
  O  O70  1  0.15600200  0.89479100  0.06118100  1
  O  O71  1  0.76668100  0.88454500  0.90929700  1
  O  O72  1  0.95574400  0.06466100  0.60797300  1
  O  O73  1  0.14348100  0.69796100  0.96203700  1
  O  O74  1  0.24916400  0.46658900  0.03453300  1
  O  O75  1  0.48538600  0.90931800  0.39214400  1
  O  O76  1  0.26668100  0.11545500  0.59070300  1
  O  O77  1  0.14964200  0.69935800  0.47032600  1
  O  O78  1  0.73329100  0.93045900  0.13397500  1
  O  O79  1  0.45574400  0.93533900  0.89202700  1
  O  O80  1  0.52194900  0.28532500  0.36371200  1
  O  O81  1  0.02194900  0.71467500  0.13628800  1
  O  O82  1  0.04425600  0.93533900  0.39202700  1
  O  O83  1  0.98538600  0.09068200  0.10785600  1
  O  O84  1  0.23329100  0.06954100  0.36602500  1
  O  O85  1  0.16605000  0.88456700  0.59106800  1
  O  O86  1  0.76670900  0.93045900  0.63397500  1
  O  O87  1  0.48050600  0.72268700  0.13025000  1
