# generated using pymatgen
data_LiMn2O4
_symmetry_space_group_name_H-M   'P 1'
_cell_length_a   17.56024182
_cell_length_b   13.17380371
_cell_length_c   13.12715453
_cell_angle_alpha   83.77407876
_cell_angle_beta   48.22627350
_cell_angle_gamma   47.99964774
_symmetry_Int_Tables_number   1
_chemical_formula_structural   LiMn2O4
_chemical_formula_sum   'Li18 Mn36 O72'
_cell_volume   1335.40019382
_cell_formula_units_Z   18
loop_
 _symmetry_equiv_pos_site_id
 _symmetry_equiv_pos_as_xyz
  1  'x, y, z'
loop_
 _atom_site_type_symbol
 _atom_site_label
 _atom_site_symmetry_multiplicity
 _atom_site_fract_x
 _atom_site_fract_y
 _atom_site_fract_z
 _atom_site_occupancy
  Li  Li0  1  0.83503800  0.83503800  0.16496200  1
  Li  Li1  1  0.16496200  0.16496200  0.83503800  1
  Li  Li2  1  0.41868500  0.74476600  0.74858100  1
  Li  Li3  1  0.83131500  0.50523400  0.50141900  1
  Li  Li4  1  0.74858100  0.08796700  0.41868500  1
  Li  Li5  1  0.41873000  0.08127000  0.41873000  1
  Li  Li6  1  0.16873000  0.83127000  0.16873000  1
  Li  Li7  1  0.75000000  0.75000000  0.75000000  1
  Li  Li8  1  0.08503800  0.08503800  0.41496200  1
  Li  Li9  1  0.83127000  0.16873000  0.83127000  1
  Li  Li10  1  0.08127000  0.41873000  0.08127000  1
  Li  Li11  1  0.50523400  0.83131500  0.16203300  1
  Li  Li12  1  0.16203300  0.50141900  0.50523400  1
  Li  Li13  1  0.41496200  0.41496200  0.08503800  1
  Li  Li14  1  0.74476600  0.41868500  0.08796700  1
  Li  Li15  1  0.08796700  0.74858100  0.74476600  1
  Li  Li16  1  0.50000000  0.50000000  0.50000000  1
  Li  Li17  1  0.50141900  0.16203300  0.83131500  1
  Mn  Mn18  1  0.79291200  0.95236200  0.79046400  1
  Mn  Mn19  1  0.62847400  0.45672100  0.78983800  1
  Mn  Mn20  1  0.46016200  0.12503300  0.62152600  1
  Mn  Mn21  1  0.95468700  0.46043800  0.79820800  1
  Mn  Mn22  1  0.46426300  0.79046400  0.95236200  1
  Mn  Mn23  1  0.46043800  0.95468700  0.78666600  1
  Mn  Mn24  1  0.12503300  0.46016200  0.79327900  1
  Mn  Mn25  1  0.45708800  0.29763800  0.45953600  1
  Mn  Mn26  1  0.11938100  0.46110800  0.29657100  1
  Mn  Mn27  1  0.45672100  0.62847400  0.12496700  1
  Mn  Mn28  1  0.62152600  0.79327900  0.46016200  1
  Mn  Mn29  1  0.78573700  0.45953600  0.29763800  1
  Mn  Mn30  1  0.95236200  0.79291200  0.46426300  1
  Mn  Mn31  1  0.29531300  0.78956200  0.45179200  1
  Mn  Mn32  1  0.12294100  0.29657100  0.46110800  1
  Mn  Mn33  1  0.79046400  0.46426300  0.79291200  1
  Mn  Mn34  1  0.29763800  0.45708800  0.78573700  1
  Mn  Mn35  1  0.62500000  0.12500000  0.12500000  1
  Mn  Mn36  1  0.79820800  0.78666600  0.95468700  1
  Mn  Mn37  1  0.78889200  0.13061900  0.12705900  1
  Mn  Mn38  1  0.29657100  0.12294100  0.11938100  1
  Mn  Mn39  1  0.46110800  0.11938100  0.12294100  1
  Mn  Mn40  1  0.13061900  0.78889200  0.95342900  1
  Mn  Mn41  1  0.12500000  0.12500000  0.62500000  1
  Mn  Mn42  1  0.95342900  0.12705900  0.13061900  1
  Mn  Mn43  1  0.12500000  0.12500000  0.12500000  1
  Mn  Mn44  1  0.12500000  0.62500000  0.12500000  1
  Mn  Mn45  1  0.12705900  0.95342900  0.78889200  1
  Mn  Mn46  1  0.45179200  0.46333400  0.29531300  1
  Mn  Mn47  1  0.46333400  0.45179200  0.78956200  1
  Mn  Mn48  1  0.79327900  0.62152600  0.12503300  1
  Mn  Mn49  1  0.45953600  0.78573700  0.45708800  1
  Mn  Mn50  1  0.78666600  0.79820800  0.46043800  1
  Mn  Mn51  1  0.78983800  0.12496700  0.62847400  1
  Mn  Mn52  1  0.12496700  0.78983800  0.45672100  1
  Mn  Mn53  1  0.78956200  0.29531300  0.46333400  1
  O  O54  1  0.05858200  0.36750900  0.36325200  1
  O  O55  1  0.23225600  0.17545400  0.02098900  1
  O  O56  1  0.85637500  0.54301900  0.21620300  1
  O  O57  1  0.38812400  0.03333000  0.70465500  1
  O  O58  1  0.37911500  0.85942600  0.38161900  1
  O  O59  1  0.55648800  0.69209300  0.51692300  1
  O  O60  1  0.86187600  0.21667000  0.54534500  1
  O  O61  1  0.87016100  0.86838100  0.39057400  1
  O  O62  1  0.86559700  0.03379700  0.70698100  1
  O  O63  1  0.01258300  0.22496300  0.07720400  1
  O  O64  1  0.21065600  0.36325200  0.36750900  1
  O  O65  1  0.73666400  0.69093500  0.02497900  1
  O  O66  1  0.02098900  0.57130000  0.23225600  1
  O  O67  1  0.70257800  0.22502100  0.55906500  1
  O  O68  1  0.85942600  0.37911500  0.37983900  1
  O  O69  1  0.69351200  0.55790700  0.73307700  1
  O  O70  1  0.03934400  0.88674800  0.88249100  1
  O  O71  1  0.57130000  0.02098900  0.17545400  1
  O  O72  1  0.67870000  0.22901100  0.07454600  1
  O  O73  1  0.39057400  0.87088500  0.87016100  1
  O  O74  1  0.55790700  0.69351200  0.01550400  1
  O  O75  1  0.71910000  0.87202000  0.87777700  1
  O  O76  1  0.87202000  0.71910000  0.53110300  1
  O  O77  1  0.17545400  0.23225600  0.57130000  1
  O  O78  1  0.86838100  0.87016100  0.87088500  1
  O  O79  1  0.23741700  0.02503700  0.17279600  1
  O  O80  1  0.03379700  0.86559700  0.39362500  1
  O  O81  1  0.88674800  0.03934400  0.19141800  1
  O  O82  1  0.69093500  0.73666400  0.54742200  1
  O  O83  1  0.07454600  0.01774400  0.67870000  1
  O  O84  1  0.38440300  0.21620300  0.54301900  1
  O  O85  1  0.07720400  0.68525000  0.01258300  1
  O  O86  1  0.21667000  0.86187600  0.37610900  1
  O  O87  1  0.03333000  0.38812400  0.87389100  1
  O  O88  1  0.23449600  0.51692300  0.69209300  1
  O  O89  1  0.02503700  0.23741700  0.56475000  1
  O  O90  1  0.22496300  0.01258300  0.68525000  1
  O  O91  1  0.53090000  0.37798000  0.37222300  1
  O  O92  1  0.87088500  0.39057400  0.86838100  1
  O  O93  1  0.37798000  0.53090000  0.71889700  1
  O  O94  1  0.55906500  0.51333600  0.70257800  1
  O  O95  1  0.39362500  0.70698100  0.03379700  1
  O  O96  1  0.53110300  0.87777700  0.87202000  1
  O  O97  1  0.17279600  0.56475000  0.23741700  1
  O  O98  1  0.69209300  0.55648800  0.23449600  1
  O  O99  1  0.37222300  0.71889700  0.53090000  1
  O  O100  1  0.68525000  0.07720400  0.22496300  1
  O  O101  1  0.70465500  0.87389100  0.38812400  1
  O  O102  1  0.51692300  0.23449600  0.55648800  1
  O  O103  1  0.02497900  0.54742200  0.73666400  1
  O  O104  1  0.21620300  0.38440300  0.85637500  1
  O  O105  1  0.54301900  0.85637500  0.38440300  1
  O  O106  1  0.51333600  0.55906500  0.22502100  1
  O  O107  1  0.87389100  0.70465500  0.03333000  1
  O  O108  1  0.38161900  0.37983900  0.37911500  1
  O  O109  1  0.70698100  0.39362500  0.86559700  1
  O  O110  1  0.56475000  0.17279600  0.02503700  1
  O  O111  1  0.88249100  0.19141800  0.03934400  1
  O  O112  1  0.01550400  0.73307700  0.55790700  1
  O  O113  1  0.37983900  0.38161900  0.85942600  1
  O  O114  1  0.54742200  0.02497900  0.69093500  1
  O  O115  1  0.71889700  0.37222300  0.37798000  1
  O  O116  1  0.73307700  0.01550400  0.69351200  1
  O  O117  1  0.36325200  0.21065600  0.05858200  1
  O  O118  1  0.19141800  0.88249100  0.88674800  1
  O  O119  1  0.87777700  0.53110300  0.71910000  1
  O  O120  1  0.22502100  0.70257800  0.51333600  1
  O  O121  1  0.36750900  0.05858200  0.21065600  1
  O  O122  1  0.22901100  0.67870000  0.01774400  1
  O  O123  1  0.54534500  0.37610900  0.86187600  1
  O  O124  1  0.37610900  0.54534500  0.21667000  1
  O  O125  1  0.01774400  0.07454600  0.22901100  1
