# generated using pymatgen
data_Li2V(PO3)4
_symmetry_space_group_name_H-M   'P 1'
_cell_length_a   10.29417900
_cell_length_b   9.25270200
_cell_length_c   9.47620523
_cell_angle_alpha   88.15507640
_cell_angle_beta   90.00000000
_cell_angle_gamma   90.00000000
_symmetry_Int_Tables_number   1
_chemical_formula_structural   Li2V(PO3)4
_chemical_formula_sum   'Li8 V4 P16 O48'
_cell_volume   902.13090871
_cell_formula_units_Z   4
loop_
 _symmetry_equiv_pos_site_id
 _symmetry_equiv_pos_as_xyz
  1  'x, y, z'
loop_
 _atom_site_type_symbol
 _atom_site_label
 _atom_site_symmetry_multiplicity
 _atom_site_fract_x
 _atom_site_fract_y
 _atom_site_fract_z
 _atom_site_occupancy
  Li  Li0  1  0.82574800  0.60300500  0.99899900  1
  Li  Li1  1  0.17425200  0.39699500  0.00100100  1
  Li  Li2  1  0.32574800  0.39699500  0.50100100  1
  Li  Li3  1  0.17735900  0.10264500  0.99707400  1
  Li  Li4  1  0.67425200  0.60300500  0.49899900  1
  Li  Li5  1  0.82264100  0.89735500  0.00292600  1
  Li  Li6  1  0.67735900  0.89735500  0.50292600  1
  Li  Li7  1  0.32264100  0.10264500  0.49707400  1
  V  V8  1  0.80362000  0.25309000  0.98279700  1
  V  V9  1  0.30362000  0.74691000  0.51720300  1
  V  V10  1  0.69638000  0.25309000  0.48279700  1
  V  V11  1  0.19638000  0.74691000  0.01720300  1
  P  P12  1  0.02596500  0.75987900  0.73193200  1
  P  P13  1  0.88741700  0.04945700  0.70479900  1
  P  P14  1  0.11258300  0.95054300  0.29520100  1
  P  P15  1  0.52596500  0.24012100  0.76806800  1
  P  P16  1  0.10270200  0.26897800  0.69653500  1
  P  P17  1  0.10495900  0.51905200  0.29835200  1
  P  P18  1  0.47403500  0.75987900  0.23193200  1
  P  P19  1  0.39729800  0.26897800  0.19653500  1
  P  P20  1  0.61258300  0.04945700  0.20479900  1
  P  P21  1  0.38741700  0.95054300  0.79520100  1
  P  P22  1  0.89504100  0.48094800  0.70164800  1
  P  P23  1  0.60270200  0.73102200  0.80346500  1
  P  P24  1  0.60495900  0.48094800  0.20164800  1
  P  P25  1  0.89729800  0.73102200  0.30346500  1
  P  P26  1  0.97403500  0.24012100  0.26806800  1
  P  P27  1  0.39504100  0.51905200  0.79835200  1
  O  O28  1  0.12301200  0.55180600  0.14192500  1
  O  O29  1  0.96272300  0.57636300  0.34503000  1
  O  O30  1  0.03727700  0.42363700  0.65497000  1
  O  O31  1  0.37372700  0.93892600  0.63751300  1
  O  O32  1  0.87372700  0.06107400  0.86248700  1
  O  O33  1  0.97896100  0.24559800  0.10910000  1
  O  O34  1  0.58267300  0.65040500  0.17265000  1
  O  O35  1  0.23080500  0.94085700  0.38946800  1
  O  O36  1  0.15270100  0.73723000  0.66195100  1
  O  O37  1  0.20997300  0.56218800  0.39954400  1
  O  O38  1  0.26919500  0.94085700  0.88946800  1
  O  O39  1  0.96445700  0.90636600  0.66705700  1
  O  O40  1  0.87698800  0.44819400  0.85807500  1
  O  O41  1  0.34729900  0.73723000  0.16195100  1
  O  O42  1  0.12627300  0.93892600  0.13751300  1
  O  O43  1  0.76919500  0.05914300  0.61053200  1
  O  O44  1  0.41732700  0.34959500  0.82735000  1
  O  O45  1  0.73080500  0.05914300  0.11053200  1
  O  O46  1  0.62162900  0.74663100  0.64725200  1
  O  O47  1  0.91732700  0.65040500  0.67265000  1
  O  O48  1  0.98580700  0.16843700  0.64241800  1
  O  O49  1  0.47896100  0.75440200  0.39090000  1
  O  O50  1  0.65270100  0.26277000  0.83804900  1
  O  O51  1  0.62627300  0.06107400  0.36248700  1
  O  O52  1  0.70997300  0.43781200  0.10045600  1
  O  O53  1  0.52103900  0.24559800  0.60910000  1
  O  O54  1  0.48580700  0.83156300  0.85758200  1
  O  O55  1  0.78300800  0.75090400  0.39894200  1
  O  O56  1  0.71699200  0.75090400  0.89894200  1
  O  O57  1  0.37837100  0.25336900  0.35274800  1
  O  O58  1  0.62301200  0.44819400  0.35807500  1
  O  O59  1  0.21699200  0.24909600  0.60105800  1
  O  O60  1  0.87837100  0.74663100  0.14725200  1
  O  O61  1  0.08267300  0.34959500  0.32735000  1
  O  O62  1  0.53554300  0.90636600  0.16705700  1
  O  O63  1  0.29002700  0.56218800  0.89954400  1
  O  O64  1  0.51419300  0.16843700  0.14241800  1
  O  O65  1  0.84729900  0.26277000  0.33804900  1
  O  O66  1  0.46445700  0.09363400  0.83294300  1
  O  O67  1  0.28300800  0.24909600  0.10105800  1
  O  O68  1  0.53727700  0.57636300  0.84503000  1
  O  O69  1  0.03554300  0.09363400  0.33294300  1
  O  O70  1  0.01419300  0.83156300  0.35758200  1
  O  O71  1  0.02103900  0.75440200  0.89090000  1
  O  O72  1  0.46272300  0.42363700  0.15497000  1
  O  O73  1  0.37698800  0.55180600  0.64192500  1
  O  O74  1  0.12162900  0.25336900  0.85274800  1
  O  O75  1  0.79002700  0.43781200  0.60045600  1
