# generated using pymatgen
data_Li9CrN5
_symmetry_space_group_name_H-M   'P 1'
_cell_length_a   5.85314500
_cell_length_b   6.79159803
_cell_length_c   7.62233430
_cell_angle_alpha   76.91324644
_cell_angle_beta   75.10066979
_cell_angle_gamma   73.41383414
_symmetry_Int_Tables_number   1
_chemical_formula_structural   Li9CrN5
_chemical_formula_sum   'Li18 Cr2 N10'
_cell_volume   276.77645331
_cell_formula_units_Z   2
loop_
 _symmetry_equiv_pos_site_id
 _symmetry_equiv_pos_as_xyz
  1  'x, y, z'
loop_
 _atom_site_type_symbol
 _atom_site_label
 _atom_site_symmetry_multiplicity
 _atom_site_fract_x
 _atom_site_fract_y
 _atom_site_fract_z
 _atom_site_occupancy
  Li  Li0  1  0.74157500  0.25621200  0.23362800  1
  Li  Li1  1  0.62541000  0.84937700  0.94082000  1
  Li  Li2  1  0.92251200  0.04674900  0.85867700  1
  Li  Li3  1  0.83896000  0.16059600  0.54621000  1
  Li  Li4  1  0.63130200  0.36837900  0.94375200  1
  Li  Li5  1  0.14752400  0.36023700  0.43098800  1
  Li  Li6  1  0.07418100  0.44104100  0.13950500  1
  Li  Li7  1  0.92581900  0.55895900  0.86049500  1
  Li  Li8  1  0.85247600  0.63976300  0.56901200  1
  Li  Li9  1  0.36869800  0.63162100  0.05624800  1
  Li  Li10  1  0.25842500  0.74378800  0.76637200  1
  Li  Li11  1  0.07748800  0.95325100  0.14132300  1
  Li  Li12  1  0.16104000  0.83940400  0.45379000  1
  Li  Li13  1  0.55544000  0.92974900  0.64333500  1
  Li  Li14  1  0.37459000  0.15062300  0.05918000  1
  Li  Li15  1  0.44649200  0.53103400  0.35133500  1
  Li  Li16  1  0.55350800  0.46896600  0.64866500  1
  Li  Li17  1  0.44456000  0.07025100  0.35666500  1
  Cr  Cr18  1  0.75273000  0.75111300  0.25186500  1
  Cr  Cr19  1  0.24727000  0.24888700  0.74813500  1
  N  N20  1  0.59554000  0.65360200  0.79999900  1
  N  N21  1  0.55192800  0.16328800  0.78227000  1
  N  N22  1  0.79694200  0.49202000  0.37486000  1
  N  N23  1  0.95775900  0.75654000  0.03724600  1
  N  N24  1  0.81111700  0.92227900  0.37700900  1
  N  N25  1  0.18888300  0.07772100  0.62299100  1
  N  N26  1  0.04224100  0.24346000  0.96275400  1
  N  N27  1  0.40446000  0.34639800  0.20000100  1
  N  N28  1  0.20305800  0.50798000  0.62514000  1
  N  N29  1  0.44807200  0.83671200  0.21773000  1
