# generated using pymatgen
data_Li5Ti7In(PO4)12
_symmetry_space_group_name_H-M   'P 1'
_cell_length_a   8.63524300
_cell_length_b   8.65012801
_cell_length_c   14.99834941
_cell_angle_alpha   90.16937383
_cell_angle_beta   106.64950814
_cell_angle_gamma   119.73278782
_symmetry_Int_Tables_number   1
_chemical_formula_structural   Li5Ti7In(PO4)12
_chemical_formula_sum   'Li5 Ti7 In1 P12 O48'
_cell_volume   917.76214629
_cell_formula_units_Z   1
loop_
 _symmetry_equiv_pos_site_id
 _symmetry_equiv_pos_as_xyz
  1  'x, y, z'
loop_
 _atom_site_type_symbol
 _atom_site_label
 _atom_site_symmetry_multiplicity
 _atom_site_fract_x
 _atom_site_fract_y
 _atom_site_fract_z
 _atom_site_occupancy
  Li  Li0  1  0.00445700  0.00957500  0.00035100  1
  Li  Li1  1  0.00157800  0.50175400  0.50068300  1
  Li  Li2  1  0.50036400  0.75121700  0.25011700  1
  Li  Li3  1  0.49297400  0.24365400  0.74534200  1
  Li  Li4  1  0.75102700  0.57022100  0.93056900  1
  Ti  Ti5  1  0.85790800  0.20941600  0.07211600  1
  Ti  Ti6  1  0.64505300  0.53908200  0.18373800  1
  Ti  Ti7  1  0.85766500  0.71120200  0.57043400  1
  Ti  Ti8  1  0.63938600  0.03509900  0.67552600  1
  Ti  Ti9  1  0.35896300  0.96312500  0.32118600  1
  Ti  Ti10  1  0.14149000  0.28709600  0.42862300  1
  Ti  Ti11  1  0.34891800  0.46325400  0.81826600  1
  In  In12  1  0.15060900  0.79199500  0.92922100  1
  P  P13  1  0.25105200  0.27078400  0.23077600  1
  P  P14  1  0.96074400  0.83629400  0.37586400  1
  P  P15  1  0.55400800  0.77229000  0.02318400  1
  P  P16  1  0.45920000  0.72862500  0.47828000  1
  P  P17  1  0.03747200  0.66179900  0.12846800  1
  P  P18  1  0.24711900  0.77109800  0.72335200  1
  P  P19  1  0.74909400  0.22758700  0.27072000  1
  P  P20  1  0.94878600  0.32671100  0.87584700  1
  P  P21  1  0.54009100  0.27105700  0.51961800  1
  P  P22  1  0.46452200  0.23733400  0.98228300  1
  P  P23  1  0.04067700  0.16408500  0.62451100  1
  P  P24  1  0.74378800  0.72793600  0.76823000  1
  O  O25  1  0.80474600  0.18741400  0.18800000  1
  O  O26  1  0.62278000  0.19156100  0.00252100  1
  O  O27  1  0.99669500  0.47014800  0.09803800  1
  O  O28  1  0.69084100  0.36898500  0.25130400  1
  O  O29  1  0.51846400  0.38226200  0.06390900  1
  O  O30  1  0.08622700  0.19496600  0.13638800  1
  O  O31  1  0.88151000  0.64487000  0.16518700  1
  O  O32  1  0.41634500  0.45174200  0.22307700  1
  O  O33  1  0.94324300  0.72974800  0.45843400  1
  O  O34  1  0.80848300  0.68963600  0.68916300  1
  O  O35  1  0.77012300  0.73755900  0.29453200  1
  O  O36  1  0.62556900  0.69506200  0.50085900  1
  O  O37  1  0.57522100  0.70053300  0.11783700  1
  O  O38  1  0.27097600  0.55497800  0.47092200  1
  O  O39  1  0.99995000  0.97178800  0.59757100  1
  O  O40  1  0.68094600  0.86422200  0.74230100  1
  O  O41  1  0.74559400  0.94512100  0.03197300  1
  O  O42  1  0.44305900  0.79987600  0.38377400  1
  O  O43  1  0.50127600  0.86893400  0.55890400  1
  O  O44  1  0.23188100  0.76680200  0.20675500  1
  O  O45  1  0.08433300  0.68493600  0.62731700  1
  O  O46  1  0.87661300  0.15142600  0.65201900  1
  O  O47  1  0.02413000  0.75773300  0.04218000  1
  O  O48  1  0.41327400  0.94682200  0.71135000  1
  O  O49  1  0.58423800  0.04637500  0.27922400  1
  O  O50  1  0.94090000  0.21734000  0.95744000  1
  O  O51  1  0.12585800  0.85049200  0.34788900  1
  O  O52  1  0.91619800  0.30593800  0.36487500  1
  O  O53  1  0.76503900  0.21725900  0.79073300  1
  O  O54  1  0.49882400  0.13276200  0.43747700  1
  O  O55  1  0.55799800  0.20191300  0.61461500  1
  O  O56  1  0.26931200  0.07650400  0.97414200  1
  O  O57  1  0.30603300  0.12631700  0.25167500  1
  O  O58  1  0.00411300  0.02921100  0.40351600  1
  O  O59  1  0.72901500  0.44535800  0.52794800  1
  O  O60  1  0.46594900  0.31801300  0.88924800  1
  O  O61  1  0.37565400  0.30599000  0.49855600  1
  O  O62  1  0.22933300  0.26327300  0.70939100  1
  O  O63  1  0.19403300  0.30969800  0.31294700  1
  O  O64  1  0.05955100  0.27188600  0.54247600  1
  O  O65  1  0.58118000  0.54378800  0.77827700  1
  O  O66  1  0.12585700  0.36150400  0.85012900  1
  O  O67  1  0.89460200  0.80342900  0.86756900  1
  O  O68  1  0.51357900  0.63575700  0.93907300  1
  O  O69  1  0.30421300  0.62710100  0.75057300  1
  O  O70  1  0.96029700  0.50379400  0.90266500  1
  O  O71  1  0.39767400  0.81145100  0.01017800  1
  O  O72  1  0.19132600  0.82393500  0.79926700  1
