# generated using pymatgen
data_Li2Cr(PO3)4
_symmetry_space_group_name_H-M   'P 1'
_cell_length_a   10.15920900
_cell_length_b   9.40003000
_cell_length_c   9.47136605
_cell_angle_alpha   88.12112881
_cell_angle_beta   90.00000000
_cell_angle_gamma   90.00000000
_symmetry_Int_Tables_number   1
_chemical_formula_structural   Li2Cr(PO3)4
_chemical_formula_sum   'Li8 Cr4 P16 O48'
_cell_volume   903.99953166
_cell_formula_units_Z   4
loop_
 _symmetry_equiv_pos_site_id
 _symmetry_equiv_pos_as_xyz
  1  'x, y, z'
loop_
 _atom_site_type_symbol
 _atom_site_label
 _atom_site_symmetry_multiplicity
 _atom_site_fract_x
 _atom_site_fract_y
 _atom_site_fract_z
 _atom_site_occupancy
  Li  Li0  1  0.67456600  0.60571700  0.50083900  1
  Li  Li1  1  0.17751800  0.10525400  0.99554200  1
  Li  Li2  1  0.32248200  0.10525400  0.49554200  1
  Li  Li3  1  0.82543400  0.60571700  0.00083900  1
  Li  Li4  1  0.32543400  0.39428300  0.49916100  1
  Li  Li5  1  0.67751800  0.89474600  0.50445800  1
  Li  Li6  1  0.82248200  0.89474600  0.00445800  1
  Li  Li7  1  0.17456600  0.39428300  0.99916100  1
  Cr  Cr8  1  0.68962000  0.25293700  0.48204700  1
  Cr  Cr9  1  0.31038000  0.74706300  0.51795300  1
  Cr  Cr10  1  0.18962000  0.74706300  0.01795300  1
  Cr  Cr11  1  0.81038000  0.25293700  0.98204700  1
  P  P12  1  0.59967500  0.73232700  0.80253500  1
  P  P13  1  0.39737400  0.51105800  0.79821500  1
  P  P14  1  0.53761000  0.23822300  0.77197100  1
  P  P15  1  0.96239000  0.23822300  0.27197100  1
  P  P16  1  0.09967500  0.26767300  0.69746500  1
  P  P17  1  0.89056100  0.04097900  0.70637300  1
  P  P18  1  0.46239000  0.76177700  0.22802900  1
  P  P19  1  0.10943900  0.95902100  0.29362700  1
  P  P20  1  0.60943900  0.04097900  0.20637300  1
  P  P21  1  0.60262600  0.48894200  0.20178500  1
  P  P22  1  0.90032500  0.73232700  0.30253500  1
  P  P23  1  0.10262600  0.51105800  0.29821500  1
  P  P24  1  0.03761000  0.76177700  0.72802900  1
  P  P25  1  0.89737400  0.48894200  0.70178500  1
  P  P26  1  0.39056100  0.95902100  0.79362700  1
  P  P27  1  0.40032500  0.26767300  0.19746500  1
  O  O28  1  0.48117700  0.83236400  0.85530400  1
  O  O29  1  0.01882300  0.83236400  0.35530400  1
  O  O30  1  0.03517600  0.41945800  0.65212200  1
  O  O31  1  0.56853700  0.65398100  0.16568000  1
  O  O32  1  0.02972500  0.75465600  0.88722100  1
  O  O33  1  0.23012000  0.95644800  0.38554900  1
  O  O34  1  0.96482400  0.58054200  0.34787800  1
  O  O35  1  0.38173500  0.53646200  0.64071700  1
  O  O36  1  0.47027500  0.75465600  0.38722100  1
  O  O37  1  0.46482400  0.41945800  0.15212200  1
  O  O38  1  0.98051800  0.90760500  0.66378900  1
  O  O39  1  0.33032200  0.73913600  0.16490600  1
  O  O40  1  0.28700400  0.54794800  0.89611800  1
  O  O41  1  0.78305600  0.75279600  0.39603500  1
  O  O42  1  0.76988000  0.04355200  0.61445100  1
  O  O43  1  0.88391900  0.74535000  0.14573400  1
  O  O44  1  0.71694400  0.75279600  0.89603500  1
  O  O45  1  0.83032200  0.26086400  0.33509400  1
  O  O46  1  0.48051800  0.09239500  0.83621100  1
  O  O47  1  0.73012000  0.04355200  0.11445100  1
  O  O48  1  0.01948200  0.09239500  0.33621100  1
  O  O49  1  0.06853700  0.34601900  0.33432000  1
  O  O50  1  0.28305600  0.24720400  0.10396500  1
  O  O51  1  0.98117700  0.16763600  0.64469600  1
  O  O52  1  0.52972500  0.24534400  0.61277900  1
  O  O53  1  0.11608100  0.25465000  0.85426600  1
  O  O54  1  0.71299600  0.45205200  0.10388200  1
  O  O55  1  0.61608100  0.74535000  0.64573400  1
  O  O56  1  0.21694400  0.24720400  0.60396500  1
  O  O57  1  0.61826500  0.46353800  0.35928300  1
  O  O58  1  0.51948200  0.90760500  0.16378900  1
  O  O59  1  0.53517600  0.58054200  0.84787800  1
  O  O60  1  0.93146300  0.65398100  0.66568000  1
  O  O61  1  0.43146300  0.34601900  0.83432000  1
  O  O62  1  0.11826500  0.53646200  0.14071700  1
  O  O63  1  0.97027500  0.24534400  0.11277900  1
  O  O64  1  0.62079800  0.04741100  0.36462200  1
  O  O65  1  0.38391900  0.25465000  0.35426600  1
  O  O66  1  0.51882300  0.16763600  0.14469600  1
  O  O67  1  0.21299600  0.54794800  0.39611800  1
  O  O68  1  0.26988000  0.95644800  0.88554900  1
  O  O69  1  0.66967800  0.26086400  0.83509400  1
  O  O70  1  0.37920200  0.95258900  0.63537800  1
  O  O71  1  0.16967800  0.73913600  0.66490600  1
  O  O72  1  0.12079800  0.95258900  0.13537800  1
  O  O73  1  0.88173500  0.46353800  0.85928300  1
  O  O74  1  0.78700400  0.45205200  0.60388200  1
  O  O75  1  0.87920200  0.04741100  0.86462200  1
