# generated using pymatgen
data_Li7Mn10O20
_symmetry_space_group_name_H-M   'P 1'
_cell_length_a   5.71673100
_cell_length_b   6.12420098
_cell_length_c   12.34195817
_cell_angle_alpha   94.38992594
_cell_angle_beta   92.13263426
_cell_angle_gamma   116.25484202
_symmetry_Int_Tables_number   1
_chemical_formula_structural   Li7Mn10O20
_chemical_formula_sum   'Li7 Mn10 O20'
_cell_volume   385.16058468
_cell_formula_units_Z   1
loop_
 _symmetry_equiv_pos_site_id
 _symmetry_equiv_pos_as_xyz
  1  'x, y, z'
loop_
 _atom_site_type_symbol
 _atom_site_label
 _atom_site_symmetry_multiplicity
 _atom_site_fract_x
 _atom_site_fract_y
 _atom_site_fract_z
 _atom_site_occupancy
  Li  Li0  1  0.18141000  0.16527300  0.99108400  1
  Li  Li1  1  0.62483000  0.51805600  0.44016100  1
  Li  Li2  1  0.74439200  0.86714900  0.32847200  1
  Li  Li3  1  0.11282600  0.55672000  0.41394000  1
  Li  Li4  1  0.37631400  0.02607300  0.79724300  1
  Li  Li5  1  0.61303300  0.59507800  0.64238100  1
  Li  Li6  1  0.93389500  0.41956000  0.75429100  1
  Mn  Mn7  1  0.66439000  0.09923300  0.01104700  1
  Mn  Mn8  1  0.50052700  0.53445200  0.15962900  1
  Mn  Mn9  1  0.30862500  0.94480300  0.25172000  1
  Mn  Mn10  1  0.98538700  0.30464800  0.22713700  1
  Mn  Mn11  1  0.67078900  0.13913700  0.51966600  1
  Mn  Mn12  1  0.15894100  0.13581500  0.51001300  1
  Mn  Mn13  1  0.17140800  0.70687000  0.61444000  1
  Mn  Mn14  1  0.87792600  0.00054700  0.78760200  1
  Mn  Mn15  1  0.47841000  0.58260000  0.88691700  1
  Mn  Mn16  1  0.95886500  0.62834800  0.99471300  1
  O  O17  1  0.22452500  0.26345400  0.83338700  1
  O  O18  1  0.83441500  0.85486300  0.94689800  1
  O  O19  1  0.64488900  0.02345100  0.17010700  1
  O  O20  1  0.80141400  0.49525300  0.27960500  1
  O  O21  1  0.33080600  0.63928500  0.28316700  1
  O  O22  1  0.22695900  0.17606700  0.18321400  1
  O  O23  1  0.90628900  0.72511800  0.22608500  1
  O  O24  1  0.91742400  0.17826800  0.40764600  1
  O  O25  1  0.81643000  0.46286000  0.56865400  1
  O  O26  1  0.42714800  0.15199500  0.40914900  1
  O  O27  1  0.33810600  0.53350900  0.53161100  1
  O  O28  1  0.39398100  0.06791200  0.61293800  1
  O  O29  1  0.90864900  0.10693400  0.61994500  1
  O  O30  1  0.98783200  0.80621100  0.46626800  1
  O  O31  1  0.73726500  0.20954700  0.85966400  1
  O  O32  1  0.01259700  0.76507000  0.74040600  1
  O  O33  1  0.31869200  0.82529600  0.96670200  1
  O  O34  1  0.50873000  0.74244600  0.75755700  1
  O  O35  1  0.01054500  0.37654200  0.05970700  1
  O  O36  1  0.57333700  0.43555500  0.01283500  1
