# generated using pymatgen
data_LiMg7N5
_symmetry_space_group_name_H-M   'P 1'
_cell_length_a   8.69065300
_cell_length_b   8.70993767
_cell_length_c   14.21887400
_cell_angle_alpha   90.08493128
_cell_angle_beta   90.12315548
_cell_angle_gamma   109.74780849
_symmetry_Int_Tables_number   1
_chemical_formula_structural   LiMg7N5
_chemical_formula_sum   'Li6 Mg42 N30'
_cell_volume   1012.99494565
_cell_formula_units_Z   6
loop_
 _symmetry_equiv_pos_site_id
 _symmetry_equiv_pos_as_xyz
  1  'x, y, z'
loop_
 _atom_site_type_symbol
 _atom_site_label
 _atom_site_symmetry_multiplicity
 _atom_site_fract_x
 _atom_site_fract_y
 _atom_site_fract_z
 _atom_site_occupancy
  Li  Li0  1  0.02621600  0.71370400  0.25792600  1
  Li  Li1  1  0.13762400  0.08656000  0.63598100  1
  Li  Li2  1  0.33659900  0.88897500  0.62267900  1
  Li  Li3  1  0.48475400  0.25971000  0.25100100  1
  Li  Li4  1  0.59860900  0.60032900  0.38109600  1
  Li  Li5  1  0.84544600  0.39092300  0.11888800  1
  Mg  Mg6  1  0.15514800  0.61076700  0.87952000  1
  Mg  Mg7  1  0.47707600  0.20821800  0.75468800  1
  Mg  Mg8  1  0.39920300  0.90781900  0.86343800  1
  Mg  Mg9  1  0.36111700  0.40478300  0.86933600  1
  Mg  Mg10  1  0.36193500  0.40219800  0.63720500  1
  Mg  Mg11  1  0.49252500  0.73255100  0.72851000  1
  Mg  Mg12  1  0.53431900  0.77190600  0.50678500  1
  Mg  Mg13  1  0.65065600  0.08686300  0.37520400  1
  Mg  Mg14  1  0.65067100  0.11411200  0.61655700  1
  Mg  Mg15  1  0.74646400  0.01742200  0.97872800  1
  Mg  Mg16  1  0.76250200  0.00219900  0.77135900  1
  Mg  Mg17  1  0.93743300  0.41581900  0.36548700  1
  Mg  Mg18  1  0.52607400  0.25505400  0.98242100  1
  Mg  Mg19  1  0.65428000  0.65299500  0.88320700  1
  Mg  Mg20  1  0.85379600  0.86048800  0.61609900  1
  Mg  Mg21  1  0.97915600  0.24103500  0.52304000  1
  Mg  Mg22  1  0.87761400  0.91166200  0.38437500  1
  Mg  Mg23  1  0.73561700  0.49885800  0.73291200  1
  Mg  Mg24  1  0.90018500  0.91985900  0.11895700  1
  Mg  Mg25  1  0.99149200  0.22992800  0.22730700  1
  Mg  Mg26  1  0.76310900  0.50496600  0.53668800  1
  Mg  Mg27  1  0.03614100  0.27168700  0.00504900  1
  Mg  Mg28  1  0.14326800  0.61219200  0.11698600  1
  Mg  Mg29  1  0.96515100  0.72557900  0.99259700  1
  Mg  Mg30  1  0.84650100  0.37738900  0.88478300  1
  Mg  Mg31  1  0.25528200  0.51576700  0.47950600  1
  Mg  Mg32  1  0.00670200  0.77673700  0.76489800  1
  Mg  Mg33  1  0.12709200  0.09514500  0.86495500  1
  Mg  Mg34  1  0.26883600  0.49278300  0.27094800  1
  Mg  Mg35  1  0.03352300  0.75585700  0.48518100  1
  Mg  Mg36  1  0.16323400  0.15984200  0.38220300  1
  Mg  Mg37  1  0.34078300  0.34124300  0.11630300  1
  Mg  Mg38  1  0.47034200  0.75011400  0.01701400  1
  Mg  Mg39  1  0.23134000  0.00119200  0.22972400  1
  Mg  Mg40  1  0.11152900  0.60293300  0.63807200  1
  Mg  Mg41  1  0.25124900  0.98725400  0.01979800  1
  Mg  Mg42  1  0.01956900  0.28432200  0.74309100  1
  Mg  Mg43  1  0.43461900  0.20356300  0.51586700  1
  Mg  Mg44  1  0.33894900  0.88326400  0.38805700  1
  Mg  Mg45  1  0.63127300  0.57847500  0.11016700  1
  Mg  Mg46  1  0.60995200  0.10761200  0.13782700  1
  Mg  Mg47  1  0.47923700  0.78656400  0.24131400  1
  N  N48  1  0.25204400  0.25429500  0.75285200  1
  N  N49  1  0.14086400  0.86055900  0.88976800  1
  N  N50  1  0.59204400  0.34359300  0.62174700  1
  N  N51  1  0.49978900  0.00118000  0.00171900  1
  N  N52  1  0.51787100  0.98800000  0.73700500  1
  N  N53  1  0.40846400  0.65942900  0.87544100  1
  N  N54  1  0.26370300  0.23428300  0.98563200  1
  N  N55  1  0.09763200  0.84246500  0.12473600  1
  N  N56  1  0.61117800  0.39265000  0.86008400  1
  N  N57  1  0.74837000  0.74988300  0.74887800  1
  N  N58  1  0.99635300  0.49703900  0.49966400  1
  N  N59  1  0.02741900  0.48526100  0.23728000  1
  N  N60  1  0.76172800  0.72980600  0.48008300  1
  N  N61  1  0.90029100  0.15757000  0.37404200  1
  N  N62  1  0.88295500  0.10834300  0.64068300  1
  N  N63  1  0.98537500  0.51316400  0.76401800  1
  N  N64  1  0.08509900  0.83425400  0.62359900  1
  N  N65  1  0.23589300  0.27291200  0.50990200  1
  N  N66  1  0.10821400  0.89832600  0.36209000  1
  N  N67  1  0.24302500  0.24642400  0.24804600  1
  N  N68  1  0.90508400  0.15514400  0.87594400  1
  N  N69  1  0.39650600  0.60873300  0.14008100  1
  N  N70  1  0.36081400  0.63584000  0.60659000  1
  N  N71  1  0.48338100  0.01782800  0.26545000  1
  N  N72  1  0.58882000  0.34010400  0.12360100  1
  N  N73  1  0.73866400  0.76638900  0.01693700  1
  N  N74  1  0.50787800  0.00794700  0.49400700  1
  N  N75  1  0.40343600  0.66445500  0.37203000  1
  N  N76  1  0.85861100  0.13308000  0.10916900  1
  N  N77  1  0.00630500  0.50182600  0.99718600  1
