# generated using pymatgen
data_LiAlSiH2O5
_symmetry_space_group_name_H-M   'P 1'
_cell_length_a   4.87992300
_cell_length_b   8.86554300
_cell_length_c   12.06616800
_cell_angle_alpha   90.00000000
_cell_angle_beta   90.00000000
_cell_angle_gamma   90.00000000
_symmetry_Int_Tables_number   1
_chemical_formula_structural   LiAlSiH2O5
_chemical_formula_sum   'Li4 Al4 Si4 H8 O20'
_cell_volume   522.02064357
_cell_formula_units_Z   4
loop_
 _symmetry_equiv_pos_site_id
 _symmetry_equiv_pos_as_xyz
  1  'x, y, z'
loop_
 _atom_site_type_symbol
 _atom_site_label
 _atom_site_symmetry_multiplicity
 _atom_site_fract_x
 _atom_site_fract_y
 _atom_site_fract_z
 _atom_site_occupancy
  Li  Li0  1  0.07117700  0.92247300  0.38236400  1
  Li  Li1  1  0.07117700  0.57752700  0.88236400  1
  Li  Li2  1  0.57117700  0.07752700  0.61763600  1
  Li  Li3  1  0.57117700  0.42247300  0.11763600  1
  Al  Al4  1  0.60590500  0.68020100  0.72522000  1
  Al  Al5  1  0.10590500  0.18020100  0.77478000  1
  Al  Al6  1  0.60590500  0.81979900  0.22522000  1
  Al  Al7  1  0.10590500  0.31979900  0.27478000  1
  Si  Si8  1  0.82986500  0.63114400  0.29631700  1
  Si  Si9  1  0.32986500  0.36885600  0.70368300  1
  Si  Si10  1  0.32986500  0.13114400  0.20368300  1
  Si  Si11  1  0.82986500  0.86885600  0.79631700  1
  H  H12  1  0.22010400  0.82385100  0.57232500  1
  H  H13  1  0.41280500  0.12469100  0.42123100  1
  H  H14  1  0.91280500  0.87530900  0.57876900  1
  H  H15  1  0.72010400  0.32385100  0.92767500  1
  H  H16  1  0.72010400  0.17614900  0.42767500  1
  H  H17  1  0.41280500  0.37530900  0.92123100  1
  H  H18  1  0.91280500  0.62469100  0.07876900  1
  H  H19  1  0.22010400  0.67614900  0.07232500  1
  O  O20  1  0.57607800  0.77963000  0.85999300  1
  O  O21  1  0.15835200  0.37519300  0.83059900  1
  O  O22  1  0.65835200  0.62480700  0.16940100  1
  O  O23  1  0.57607800  0.72037000  0.35999300  1
  O  O24  1  0.08854300  0.61091300  0.03602600  1
  O  O25  1  0.49470400  0.29143800  0.24049400  1
  O  O26  1  0.99470400  0.79143800  0.25950600  1
  O  O27  1  0.07607800  0.27963000  0.64000700  1
  O  O28  1  0.48236700  0.51954700  0.66598200  1
  O  O29  1  0.07607800  0.22037000  0.14000700  1
  O  O30  1  0.48236700  0.98045300  0.16598200  1
  O  O31  1  0.99470400  0.70856200  0.75950600  1
  O  O32  1  0.98236700  0.01954700  0.83401800  1
  O  O33  1  0.58854300  0.11091300  0.46397400  1
  O  O34  1  0.65835200  0.87519300  0.66940100  1
  O  O35  1  0.49470400  0.20856200  0.74049400  1
  O  O36  1  0.15835200  0.12480700  0.33059900  1
  O  O37  1  0.08854300  0.88908700  0.53602600  1
  O  O38  1  0.58854300  0.38908700  0.96397400  1
  O  O39  1  0.98236700  0.48045300  0.33401800  1
