# generated using pymatgen
data_Li2SO4
_symmetry_space_group_name_H-M   'P 1'
_cell_length_a   5.39082300
_cell_length_b   5.40071526
_cell_length_c   5.67311656
_cell_angle_alpha   91.76612852
_cell_angle_beta   90.70967133
_cell_angle_gamma   90.32006230
_symmetry_Int_Tables_number   1
_chemical_formula_structural   Li2SO4
_chemical_formula_sum   'Li4 S2 O8'
_cell_volume   165.07474878
_cell_formula_units_Z   2
loop_
 _symmetry_equiv_pos_site_id
 _symmetry_equiv_pos_as_xyz
  1  'x, y, z'
loop_
 _atom_site_type_symbol
 _atom_site_label
 _atom_site_symmetry_multiplicity
 _atom_site_fract_x
 _atom_site_fract_y
 _atom_site_fract_z
 _atom_site_occupancy
  Li  Li0  1  0.48983100  0.98615300  0.61990300  1
  Li  Li1  1  0.01696400  0.51830800  0.38258400  1
  Li  Li2  1  0.49474500  0.98673700  0.11992800  1
  Li  Li3  1  0.00540100  0.50832400  0.88408900  1
  S  S4  1  0.99251600  0.01220600  0.00073400  1
  S  S5  1  0.50505600  0.49015700  0.49818700  1
  O  O6  1  0.03032800  0.24532100  0.14360000  1
  O  O7  1  0.95670300  0.79325700  0.15032800  1
  O  O8  1  0.76432500  0.04085900  0.85396200  1
  O  O9  1  0.52849500  0.24924400  0.36677800  1
  O  O10  1  0.29093800  0.47039200  0.65868100  1
  O  O11  1  0.21712600  0.96788500  0.85569400  1
  O  O12  1  0.74443400  0.54360400  0.62676600  1
  O  O13  1  0.45339000  0.70178600  0.34219100  1
