# generated using pymatgen
data_K3LiMg4(Si2O5)6
_symmetry_space_group_name_H-M   'P 1'
_cell_length_a   10.43620931
_cell_length_b   10.43620931
_cell_length_c   14.03219600
_cell_angle_alpha   90.00000000
_cell_angle_beta   90.00000000
_cell_angle_gamma   120.07735943
_symmetry_Int_Tables_number   1
_chemical_formula_structural   K3LiMg4(Si2O5)6
_chemical_formula_sum   'K6 Li2 Mg8 Si24 O60'
_cell_volume   1322.52156897
_cell_formula_units_Z   2
loop_
 _symmetry_equiv_pos_site_id
 _symmetry_equiv_pos_as_xyz
  1  'x, y, z'
loop_
 _atom_site_type_symbol
 _atom_site_label
 _atom_site_symmetry_multiplicity
 _atom_site_fract_x
 _atom_site_fract_y
 _atom_site_fract_z
 _atom_site_occupancy
  K  K0  1  0.66874800  0.33273700  0.49999700  1
  K  K1  1  0.00000000  0.00000000  0.74999500  1
  K  K2  1  0.66726300  0.33125200  0.99999700  1
  K  K3  1  0.33273700  0.66874800  0.99999700  1
  K  K4  1  0.33125200  0.66726300  0.49999700  1
  K  K5  1  0.00000000  0.00000000  0.24999500  1
  Li  Li6  1  0.00000000  0.50000000  0.74993700  1
  Li  Li7  1  0.50000000  0.00000000  0.24993700  1
  Mg  Mg8  1  0.67809800  0.33885200  0.75003400  1
  Mg  Mg9  1  0.66114800  0.32190200  0.25003400  1
  Mg  Mg10  1  0.00000000  0.50000000  0.25001000  1
  Mg  Mg11  1  0.32190200  0.66114800  0.75003400  1
  Mg  Mg12  1  0.50000000  0.00000000  0.75001000  1
  Mg  Mg13  1  0.33885200  0.67809800  0.25003400  1
  Mg  Mg14  1  0.50000000  0.50000000  0.75008700  1
  Mg  Mg15  1  0.50000000  0.50000000  0.25008700  1
  Si  Si16  1  0.34165900  0.23081800  0.38409100  1
  Si  Si17  1  0.34212100  0.23250800  0.61616800  1
  Si  Si18  1  0.34557700  0.11086900  0.11670700  1
  Si  Si19  1  0.34194100  0.10937700  0.88414200  1
  Si  Si20  1  0.76918200  0.65834100  0.88409100  1
  Si  Si21  1  0.76749200  0.65787900  0.11616800  1
  Si  Si22  1  0.88913100  0.65442300  0.61670700  1
  Si  Si23  1  0.89062300  0.65805900  0.38414200  1
  Si  Si24  1  0.76954300  0.11053400  0.61572500  1
  Si  Si25  1  0.76581900  0.11071000  0.38319600  1
  Si  Si26  1  0.11071000  0.76581900  0.88319600  1
  Si  Si27  1  0.11053400  0.76954300  0.11572500  1
  Si  Si28  1  0.88929000  0.23418100  0.88319600  1
  Si  Si29  1  0.88946600  0.23045700  0.11572500  1
  Si  Si30  1  0.23045700  0.88946600  0.61572500  1
  Si  Si31  1  0.23418100  0.88929000  0.38319600  1
  Si  Si32  1  0.11086900  0.34557700  0.61670700  1
  Si  Si33  1  0.10937700  0.34194100  0.38414200  1
  Si  Si34  1  0.23081800  0.34165900  0.88409100  1
  Si  Si35  1  0.23250800  0.34212100  0.11616800  1
  Si  Si36  1  0.65442300  0.88913100  0.11670700  1
  Si  Si37  1  0.65805900  0.89062300  0.88414200  1
  Si  Si38  1  0.65834100  0.76918200  0.38409100  1
  Si  Si39  1  0.65787900  0.76749200  0.61616800  1
  O  O40  1  0.27473000  0.21633300  0.85343200  1
  O  O41  1  0.27476500  0.21643100  0.14650100  1
  O  O42  1  0.27447400  0.05889800  0.64724400  1
  O  O43  1  0.27178300  0.05757300  0.35347000  1
  O  O44  1  0.36053200  0.23996000  0.50016000  1
  O  O45  1  0.35858400  0.11894400  0.99999900  1
  O  O46  1  0.49743800  0.34204400  0.66768500  1
  O  O47  1  0.49693700  0.34220700  0.33299900  1
  O  O48  1  0.65779300  0.50306300  0.83299900  1
  O  O49  1  0.65795600  0.50256200  0.16768500  1
  O  O50  1  0.50111600  0.16012900  0.16500700  1
  O  O51  1  0.49717300  0.15546600  0.83244200  1
  O  O52  1  0.78356900  0.72523500  0.64650100  1
  O  O53  1  0.78366700  0.72527000  0.35343200  1
  O  O54  1  0.76004000  0.63946800  0.00016000  1
  O  O55  1  0.88105600  0.64141600  0.49999900  1
  O  O56  1  0.94242700  0.72821700  0.85347000  1
  O  O57  1  0.94110200  0.72552600  0.14724400  1
  O  O58  1  0.65891400  0.15994700  0.33506900  1
  O  O59  1  0.65810900  0.15446900  0.66676600  1
  O  O60  1  0.83987100  0.49888400  0.66500700  1
  O  O61  1  0.84453400  0.50282700  0.33244200  1
  O  O62  1  0.05721000  0.78549200  0.64668300  1
  O  O63  1  0.05844800  0.78396800  0.35265700  1
  O  O64  1  0.84005300  0.34108600  0.83506900  1
  O  O65  1  0.84553100  0.34189100  0.16676600  1
  O  O66  1  0.76106400  0.11839900  0.49981400  1
  O  O67  1  0.21603200  0.94155200  0.85265700  1
  O  O68  1  0.21450800  0.94279000  0.14668300  1
  O  O69  1  0.11839900  0.76106400  0.99981400  1
  O  O70  1  0.88160100  0.23893600  0.99981400  1
  O  O71  1  0.78396800  0.05844800  0.85265700  1
  O  O72  1  0.78549200  0.05721000  0.14668300  1
  O  O73  1  0.23893600  0.88160100  0.49981400  1
  O  O74  1  0.15994700  0.65891400  0.83506900  1
  O  O75  1  0.15446900  0.65810900  0.16676600  1
  O  O76  1  0.94155200  0.21603200  0.35265700  1
  O  O77  1  0.94279000  0.21450800  0.64668300  1
  O  O78  1  0.16012900  0.50111600  0.66500700  1
  O  O79  1  0.15546600  0.49717300  0.33244200  1
  O  O80  1  0.34108600  0.84005300  0.33506900  1
  O  O81  1  0.34189100  0.84553100  0.66676600  1
  O  O82  1  0.05757300  0.27178300  0.85347000  1
  O  O83  1  0.05889800  0.27447400  0.14724400  1
  O  O84  1  0.11894400  0.35858400  0.49999900  1
  O  O85  1  0.23996000  0.36053200  0.00016000  1
  O  O86  1  0.21643100  0.27476500  0.64650100  1
  O  O87  1  0.21633300  0.27473000  0.35343200  1
  O  O88  1  0.49888400  0.83987100  0.16500700  1
  O  O89  1  0.50282700  0.84453400  0.83244200  1
  O  O90  1  0.34220700  0.49693700  0.83299900  1
  O  O91  1  0.34204400  0.49743800  0.16768500  1
  O  O92  1  0.50256200  0.65795600  0.66768500  1
  O  O93  1  0.50306300  0.65779300  0.33299900  1
  O  O94  1  0.64141600  0.88105600  0.99999900  1
  O  O95  1  0.63946800  0.76004000  0.50016000  1
  O  O96  1  0.72552600  0.94110200  0.64724400  1
  O  O97  1  0.72821700  0.94242700  0.35347000  1
  O  O98  1  0.72527000  0.78366700  0.85343200  1
  O  O99  1  0.72523500  0.78356900  0.14650100  1
