# generated using pymatgen
data_Li2UBr6
_symmetry_space_group_name_H-M   'P 1'
_cell_length_a   6.95430629
_cell_length_b   6.95430629
_cell_length_c   26.96817700
_cell_angle_alpha   90.00000000
_cell_angle_beta   90.00000000
_cell_angle_gamma   120.00000279
_symmetry_Int_Tables_number   1
_chemical_formula_structural   Li2UBr6
_chemical_formula_sum   'Li8 U4 Br24'
_cell_volume   1129.50937198
_cell_formula_units_Z   4
loop_
 _symmetry_equiv_pos_site_id
 _symmetry_equiv_pos_as_xyz
  1  'x, y, z'
loop_
 _atom_site_type_symbol
 _atom_site_label
 _atom_site_symmetry_multiplicity
 _atom_site_fract_x
 _atom_site_fract_y
 _atom_site_fract_z
 _atom_site_occupancy
  Li  Li0  1  0.00000000  0.00000000  0.25000000  1
  Li  Li1  1  0.00000000  0.00000000  0.75000000  1
  Li  Li2  1  0.33333300  0.66666700  0.00153700  1
  Li  Li3  1  0.33333300  0.66666700  0.49846300  1
  Li  Li4  1  0.33333300  0.66666700  0.25000000  1
  Li  Li5  1  0.66666700  0.33333300  0.75000000  1
  Li  Li6  1  0.66666700  0.33333300  0.99846300  1
  Li  Li7  1  0.66666700  0.33333300  0.50153700  1
  U  U8  1  0.00000000  0.00000000  0.00000000  1
  U  U9  1  0.00000000  0.00000000  0.50000000  1
  U  U10  1  0.33333300  0.66666700  0.75000000  1
  U  U11  1  0.66666700  0.33333300  0.25000000  1
  Br  Br12  1  0.33356700  0.00003100  0.30770000  1
  Br  Br13  1  0.33353600  0.99996900  0.80770000  1
  Br  Br14  1  0.99827800  0.33244000  0.05767300  1
  Br  Br15  1  0.00172200  0.33416200  0.55767300  1
  Br  Br16  1  0.99996900  0.33353600  0.30770000  1
  Br  Br17  1  0.00003100  0.33356700  0.80770000  1
  Br  Br18  1  0.33356700  0.33353600  0.19230000  1
  Br  Br19  1  0.33353600  0.33356700  0.69230000  1
  Br  Br20  1  0.33416200  0.33244000  0.44232700  1
  Br  Br21  1  0.33244000  0.33416200  0.94232700  1
  Br  Br22  1  0.66756000  0.00172200  0.44232700  1
  Br  Br23  1  0.33416200  0.00172200  0.05767300  1
  Br  Br24  1  0.33244000  0.99827800  0.55767300  1
  Br  Br25  1  0.66756000  0.66583800  0.05767300  1
  Br  Br26  1  0.66583800  0.66756000  0.55767300  1
  Br  Br27  1  0.66646400  0.66643300  0.30770000  1
  Br  Br28  1  0.66643300  0.66646400  0.80770000  1
  Br  Br29  1  0.99996900  0.66643300  0.19230000  1
  Br  Br30  1  0.00003100  0.66646400  0.69230000  1
  Br  Br31  1  0.99827800  0.66583800  0.44232700  1
  Br  Br32  1  0.00172200  0.66756000  0.94232700  1
  Br  Br33  1  0.66583800  0.99827800  0.94232700  1
  Br  Br34  1  0.66646400  0.00003100  0.19230000  1
  Br  Br35  1  0.66643300  0.99996900  0.69230000  1
