# generated using pymatgen
data_Li7(NiO2)8
_symmetry_space_group_name_H-M   'P 1'
_cell_length_a   6.45116100
_cell_length_b   6.55424040
_cell_length_c   7.58124092
_cell_angle_alpha   65.07788953
_cell_angle_beta   75.84798093
_cell_angle_gamma   72.20231843
_symmetry_Int_Tables_number   1
_chemical_formula_structural   Li7(NiO2)8
_chemical_formula_sum   'Li7 Ni8 O16'
_cell_volume   274.29561403
_cell_formula_units_Z   1
loop_
 _symmetry_equiv_pos_site_id
 _symmetry_equiv_pos_as_xyz
  1  'x, y, z'
loop_
 _atom_site_type_symbol
 _atom_site_label
 _atom_site_symmetry_multiplicity
 _atom_site_fract_x
 _atom_site_fract_y
 _atom_site_fract_z
 _atom_site_occupancy
  Li  Li0  1  0.50000000  0.50000000  0.50000000  1
  Li  Li1  1  0.75685800  0.24647400  0.24726500  1
  Li  Li2  1  0.36581300  0.63377300  0.12235400  1
  Li  Li3  1  0.24314200  0.75352600  0.75273500  1
  Li  Li4  1  0.87737500  0.12331900  0.62944400  1
  Li  Li5  1  0.12262500  0.87668100  0.37055600  1
  Li  Li6  1  0.63418700  0.36622700  0.87764600  1
  Ni  Ni7  1  0.68192700  0.81120100  0.56582100  1
  Ni  Ni8  1  0.18803800  0.30764600  0.06453300  1
  Ni  Ni9  1  0.43518200  0.06101600  0.80827000  1
  Ni  Ni10  1  0.05966200  0.43615100  0.68871400  1
  Ni  Ni11  1  0.94033800  0.56384900  0.31128600  1
  Ni  Ni12  1  0.56481800  0.93898400  0.19173000  1
  Ni  Ni13  1  0.81196200  0.69235400  0.93546700  1
  Ni  Ni14  1  0.31807300  0.18879900  0.43417900  1
  O  O15  1  0.32147600  0.39003400  0.78942800  1
  O  O16  1  0.81783600  0.88945500  0.30297600  1
  O  O17  1  0.05327600  0.22524400  0.33592600  1
  O  O18  1  0.09795900  0.61799500  0.04205100  1
  O  O19  1  0.53400000  0.73860000  0.82683700  1
  O  O20  1  0.69683800  0.01144100  0.90623900  1
  O  O21  1  0.57703300  0.15952300  0.52941200  1
  O  O22  1  0.80496600  0.46646500  0.59369700  1
  O  O23  1  0.19503400  0.53353500  0.40630300  1
  O  O24  1  0.42296700  0.84047700  0.47058800  1
  O  O25  1  0.30316200  0.98855900  0.09376100  1
  O  O26  1  0.46600000  0.26140000  0.17316300  1
  O  O27  1  0.90204100  0.38200500  0.95794900  1
  O  O28  1  0.94672400  0.77475600  0.66407400  1
  O  O29  1  0.18216400  0.11054500  0.69702400  1
  O  O30  1  0.67852400  0.60996600  0.21057200  1
