# generated using pymatgen
data_LiSn4(PO4)3
_symmetry_space_group_name_H-M   'P 1'
_cell_length_a   10.00548809
_cell_length_b   10.00548809
_cell_length_c   10.00548776
_cell_angle_alpha   58.55048000
_cell_angle_beta   58.55048000
_cell_angle_gamma   58.55047768
_symmetry_Int_Tables_number   1
_chemical_formula_structural   LiSn4(PO4)3
_chemical_formula_sum   'Li2 Sn8 P6 O24'
_cell_volume   684.79266158
_cell_formula_units_Z   2
loop_
 _symmetry_equiv_pos_site_id
 _symmetry_equiv_pos_as_xyz
  1  'x, y, z'
loop_
 _atom_site_type_symbol
 _atom_site_label
 _atom_site_symmetry_multiplicity
 _atom_site_fract_x
 _atom_site_fract_y
 _atom_site_fract_z
 _atom_site_occupancy
  Li  Li0  1  0.04313300  0.04313300  0.04313300  1
  Li  Li1  1  0.54313300  0.54313300  0.54313300  1
  Sn  Sn2  1  0.58708800  0.25718000  0.12816700  1
  Sn  Sn3  1  0.75718000  0.08708800  0.62816700  1
  Sn  Sn4  1  0.25718000  0.12816700  0.58708800  1
  Sn  Sn5  1  0.19028000  0.19028000  0.19028000  1
  Sn  Sn6  1  0.69028000  0.69028000  0.69028000  1
  Sn  Sn7  1  0.62816700  0.75718000  0.08708800  1
  Sn  Sn8  1  0.08708800  0.62816700  0.75718000  1
  Sn  Sn9  1  0.12816700  0.58708800  0.25718000  1
  P  P10  1  0.29077800  0.73364300  0.82942200  1
  P  P11  1  0.82942200  0.29077800  0.73364300  1
  P  P12  1  0.23364300  0.79077800  0.32942200  1
  P  P13  1  0.32942200  0.23364300  0.79077800  1
  P  P14  1  0.79077800  0.32942200  0.23364300  1
  P  P15  1  0.73364300  0.82942200  0.29077800  1
  O  O16  1  0.50026700  0.15503700  0.67216100  1
  O  O17  1  0.25611000  0.74305000  0.68899200  1
  O  O18  1  0.25852800  0.91160300  0.81114500  1
  O  O19  1  0.65503700  0.00026700  0.17216100  1
  O  O20  1  0.15503700  0.67216100  0.50026700  1
  O  O21  1  0.41160300  0.75852800  0.31114500  1
  O  O22  1  0.67216100  0.50026700  0.15503700  1
  O  O23  1  0.24305000  0.75611000  0.18899200  1
  O  O24  1  0.62026500  0.81511900  0.47517500  1
  O  O25  1  0.31114500  0.41160300  0.75852800  1
  O  O26  1  0.81511900  0.47517500  0.62026500  1
  O  O27  1  0.00026700  0.17216100  0.65503700  1
  O  O28  1  0.97517500  0.31511900  0.12026500  1
  O  O29  1  0.75611000  0.18899200  0.24305000  1
  O  O30  1  0.81114500  0.25852800  0.91160300  1
  O  O31  1  0.12026500  0.97517500  0.31511900  1
  O  O32  1  0.74305000  0.68899200  0.25611000  1
  O  O33  1  0.47517500  0.62026500  0.81511900  1
  O  O34  1  0.68899200  0.25611000  0.74305000  1
  O  O35  1  0.91160300  0.81114500  0.25852800  1
  O  O36  1  0.18899200  0.24305000  0.75611000  1
  O  O37  1  0.75852800  0.31114500  0.41160300  1
  O  O38  1  0.31511900  0.12026500  0.97517500  1
  O  O39  1  0.17216100  0.65503700  0.00026700  1
