# generated using pymatgen
data_Li2Cr3(P2O7)2
_symmetry_space_group_name_H-M   'P 1'
_cell_length_a   5.44090600
_cell_length_b   6.47017315
_cell_length_c   16.84207185
_cell_angle_alpha   92.29328075
_cell_angle_beta   96.22384848
_cell_angle_gamma   108.32897648
_symmetry_Int_Tables_number   1
_chemical_formula_structural   Li2Cr3(P2O7)2
_chemical_formula_sum   'Li4 Cr6 P8 O28'
_cell_volume   557.77643543
_cell_formula_units_Z   2
loop_
 _symmetry_equiv_pos_site_id
 _symmetry_equiv_pos_as_xyz
  1  'x, y, z'
loop_
 _atom_site_type_symbol
 _atom_site_label
 _atom_site_symmetry_multiplicity
 _atom_site_fract_x
 _atom_site_fract_y
 _atom_site_fract_z
 _atom_site_occupancy
  Li  Li0  1  0.90735200  0.18768600  0.99457500  1
  Li  Li1  1  0.55468400  0.69607400  0.89009200  1
  Li  Li2  1  0.44531600  0.30392600  0.10990800  1
  Li  Li3  1  0.09264800  0.81231400  0.00542500  1
  Cr  Cr4  1  0.86076000  0.37972800  0.81849100  1
  Cr  Cr5  1  0.75879400  0.72051800  0.58241200  1
  Cr  Cr6  1  0.58503500  0.02522800  0.33336800  1
  Cr  Cr7  1  0.24120600  0.27948200  0.41758800  1
  Cr  Cr8  1  0.41496500  0.97477200  0.66663200  1
  Cr  Cr9  1  0.13924000  0.62027200  0.18150900  1
  P  P10  1  0.01349400  0.08376900  0.20108700  1
  P  P11  1  0.69657500  0.56682300  0.32103800  1
  P  P12  1  0.30342500  0.43317700  0.67896200  1
  P  P13  1  0.84968200  0.22956000  0.54775100  1
  P  P14  1  0.37495200  0.24161200  0.92704000  1
  P  P15  1  0.15031800  0.77044000  0.45224900  1
  P  P16  1  0.98650600  0.91623100  0.79891300  1
  P  P17  1  0.62504800  0.75838800  0.07296000  1
  O  O18  1  0.48183300  0.29931700  0.70395500  1
  O  O19  1  0.30122400  0.97506400  0.41141000  1
  O  O20  1  0.85856300  0.69020000  0.40503700  1
  O  O21  1  0.67161200  0.30416800  0.92552200  1
  O  O22  1  0.07399700  0.88641100  0.71780000  1
  O  O23  1  0.71980700  0.40323900  0.55204300  1
  O  O24  1  0.14143700  0.30980000  0.59496300  1
  O  O25  1  0.86360400  0.70034200  0.83729700  1
  O  O26  1  0.89317300  0.16562900  0.46308500  1
  O  O27  1  0.28019300  0.59676100  0.44795700  1
  O  O28  1  0.80080000  0.04991800  0.80114200  1
  O  O29  1  0.27084400  0.42925800  0.90823900  1
  O  O30  1  0.69877600  0.02493600  0.58859000  1
  O  O31  1  0.71957700  0.85886800  0.99537900  1
  O  O32  1  0.28042300  0.14113200  0.00462100  1
  O  O33  1  0.53517600  0.33803500  0.34404500  1
  O  O34  1  0.19920000  0.95008200  0.19885800  1
  O  O35  1  0.92600300  0.11358900  0.28220000  1
  O  O36  1  0.51816700  0.70068300  0.29604500  1
  O  O37  1  0.46482400  0.66196500  0.65595500  1
  O  O38  1  0.74394000  0.96093400  0.14161300  1
  O  O39  1  0.72915600  0.57074200  0.09176100  1
  O  O40  1  0.12198500  0.45616500  0.73752500  1
  O  O41  1  0.32838800  0.69583200  0.07447800  1
  O  O42  1  0.87801500  0.54383500  0.26247500  1
  O  O43  1  0.10682700  0.83437100  0.53691500  1
  O  O44  1  0.13639600  0.29965800  0.16270300  1
  O  O45  1  0.25606000  0.03906600  0.85838700  1
