# generated using pymatgen
data_LiMn4P7O24
_symmetry_space_group_name_H-M   'P 1'
_cell_length_a   10.31290200
_cell_length_b   10.47742382
_cell_length_c   10.77161187
_cell_angle_alpha   109.86704881
_cell_angle_beta   111.33068255
_cell_angle_gamma   105.63535246
_symmetry_Int_Tables_number   1
_chemical_formula_structural   LiMn4P7O24
_chemical_formula_sum   'Li2 Mn8 P14 O48'
_cell_volume   911.21268212
_cell_formula_units_Z   2
loop_
 _symmetry_equiv_pos_site_id
 _symmetry_equiv_pos_as_xyz
  1  'x, y, z'
loop_
 _atom_site_type_symbol
 _atom_site_label
 _atom_site_symmetry_multiplicity
 _atom_site_fract_x
 _atom_site_fract_y
 _atom_site_fract_z
 _atom_site_occupancy
  Li  Li0  1  0.55922900  0.23871200  0.66080000  1
  Li  Li1  1  0.44077100  0.76128800  0.33920000  1
  Mn  Mn2  1  0.49688900  0.10287400  0.25783600  1
  Mn  Mn3  1  0.01303200  0.17630400  0.58595400  1
  Mn  Mn4  1  0.98696800  0.82369600  0.41404600  1
  Mn  Mn5  1  0.50311100  0.89712600  0.74216400  1
  Mn  Mn6  1  0.01076900  0.38179200  0.07399900  1
  Mn  Mn7  1  0.50904300  0.66403200  0.89140800  1
  Mn  Mn8  1  0.49095700  0.33596800  0.10859200  1
  Mn  Mn9  1  0.98923100  0.61820800  0.92600100  1
  P  P10  1  0.80545400  0.06318600  0.73341100  1
  P  P11  1  0.19488700  0.61884300  0.43455600  1
  P  P12  1  0.19454600  0.93681400  0.26658900  1
  P  P13  1  0.26318400  0.02273700  0.75691400  1
  P  P14  1  0.25106700  0.38959900  0.52392500  1
  P  P15  1  0.74893300  0.61040100  0.47607500  1
  P  P16  1  0.80511300  0.38115700  0.56544400  1
  P  P17  1  0.22718800  0.20712700  0.22640000  1
  P  P18  1  0.73286000  0.18703100  0.11316900  1
  P  P19  1  0.74767800  0.54710300  0.04621700  1
  P  P20  1  0.25232200  0.45289700  0.95378300  1
  P  P21  1  0.77281200  0.79287300  0.77360000  1
  P  P22  1  0.26714000  0.81296900  0.88683100  1
  P  P23  1  0.73681600  0.97726300  0.24308600  1
  O  O24  1  0.66430100  0.83263000  0.09673700  1
  O  O25  1  0.88319100  0.75851200  0.87370100  1
  O  O26  1  0.36133000  0.59400900  0.96737700  1
  O  O27  1  0.82914300  0.44256000  0.72793600  1
  O  O28  1  0.33569900  0.16737000  0.90326300  1
  O  O29  1  0.63405100  0.79266400  0.79593300  1
  O  O30  1  0.37235700  0.01632600  0.35516900  1
  O  O31  1  0.86811400  0.21433300  0.87185200  1
  O  O32  1  0.12595800  0.67773300  0.84460300  1
  O  O33  1  0.09106900  0.68527400  0.46291100  1
  O  O34  1  0.62073500  0.99772500  0.29790600  1
  O  O35  1  0.64261800  0.06532900  0.94781000  1
  O  O36  1  0.37926500  0.00227500  0.70209400  1
  O  O37  1  0.39641500  0.49428600  0.67599300  1
  O  O38  1  0.83191500  0.68556700  0.20509300  1
  O  O39  1  0.86391400  0.07202600  0.62533400  1
  O  O40  1  0.60358500  0.50571400  0.32400700  1
  O  O41  1  0.87404200  0.32226700  0.15539700  1
  O  O42  1  0.62756700  0.27562600  0.46535000  1
  O  O43  1  0.13188600  0.78566700  0.12814800  1
  O  O44  1  0.87888000  0.99296900  0.37373600  1
  O  O45  1  0.63867000  0.40599100  0.03262300  1
  O  O46  1  0.37651900  0.76846000  0.83002300  1
  O  O47  1  0.86533700  0.95366500  0.79319100  1
  O  O48  1  0.15798200  0.47560800  0.46799400  1
  O  O49  1  0.80583100  0.11652100  0.21661800  1
  O  O50  1  0.30974800  0.33072000  0.40536400  1
  O  O51  1  0.13001000  0.48667600  0.99753200  1
  O  O52  1  0.85734600  0.75179800  0.49285200  1
  O  O53  1  0.12112000  0.00703100  0.62626400  1
  O  O54  1  0.35738200  0.93467100  0.05219000  1
  O  O55  1  0.19416900  0.88347900  0.78338200  1
  O  O56  1  0.11680900  0.24148800  0.12629900  1
  O  O57  1  0.62348100  0.23154000  0.16997700  1
  O  O58  1  0.34990200  0.42413600  0.08172800  1
  O  O59  1  0.36594900  0.20733600  0.20406700  1
  O  O60  1  0.17085700  0.55744000  0.27206400  1
  O  O61  1  0.69025200  0.66928000  0.59463600  1
  O  O62  1  0.14265400  0.24820200  0.50714800  1
  O  O63  1  0.86999000  0.51332400  0.00246800  1
  O  O64  1  0.13466300  0.04633500  0.20680900  1
  O  O65  1  0.13608600  0.92797400  0.37466600  1
  O  O66  1  0.65009800  0.57586400  0.91827200  1
  O  O67  1  0.16808500  0.31443300  0.79490700  1
  O  O68  1  0.37243300  0.72437400  0.53465000  1
  O  O69  1  0.90893100  0.31472600  0.53708900  1
  O  O70  1  0.84201800  0.52439200  0.53200600  1
  O  O71  1  0.62764300  0.98367300  0.64483100  1
