# generated using pymatgen
data_Li2HN
_symmetry_space_group_name_H-M   'P 1'
_cell_length_a   7.12447201
_cell_length_b   7.12447201
_cell_length_c   7.12447201
_cell_angle_alpha   120.22684461
_cell_angle_beta   119.94977385
_cell_angle_gamma   89.84727980
_symmetry_Int_Tables_number   1
_chemical_formula_structural   Li2HN
_chemical_formula_sum   'Li16 H8 N8'
_cell_volume   255.36308716
_cell_formula_units_Z   8
loop_
 _symmetry_equiv_pos_site_id
 _symmetry_equiv_pos_as_xyz
  1  'x, y, z'
loop_
 _atom_site_type_symbol
 _atom_site_label
 _atom_site_symmetry_multiplicity
 _atom_site_fract_x
 _atom_site_fract_y
 _atom_site_fract_z
 _atom_site_occupancy
  Li  Li0  1  0.36721100  0.11721100  0.25000000  1
  Li  Li1  1  0.63278900  0.88278900  0.75000000  1
  Li  Li2  1  0.87356300  0.62356300  0.25000000  1
  Li  Li3  1  0.12643700  0.37643700  0.75000000  1
  Li  Li4  1  0.64413100  0.39413100  0.25000000  1
  Li  Li5  1  0.35586900  0.60586900  0.75000000  1
  Li  Li6  1  0.50000000  0.00000000  0.00000000  1
  Li  Li7  1  0.50000000  0.50000000  0.50000000  1
  Li  Li8  1  0.89200900  0.15115400  0.27427100  1
  Li  Li9  1  0.10799100  0.38226100  0.25914500  1
  Li  Li10  1  0.37688400  0.15115400  0.75914500  1
  Li  Li11  1  0.62311600  0.38226100  0.77427100  1
  Li  Li12  1  0.62311600  0.84884600  0.24085500  1
  Li  Li13  1  0.37688400  0.61773900  0.22572900  1
  Li  Li14  1  0.10799100  0.84884600  0.72572900  1
  Li  Li15  1  0.89200900  0.61773900  0.74085500  1
  H  H16  1  0.19947900  0.80852000  0.10904100  1
  H  H17  1  0.80052100  0.90956300  0.60904100  1
  H  H18  1  0.19947900  0.09043700  0.39095900  1
  H  H19  1  0.80052100  0.19148000  0.89095900  1
  H  H20  1  0.88729500  0.80543200  0.08186300  1
  H  H21  1  0.11270500  0.19456800  0.91813700  1
  H  H22  1  0.22356900  0.80543200  0.41813700  1
  H  H23  1  0.77643100  0.19456800  0.58186300  1
  N  N24  1  0.74129900  0.73111900  0.48982100  1
  N  N25  1  0.25870100  0.74852200  0.98982100  1
  N  N26  1  0.74129900  0.25147800  0.01017900  1
  N  N27  1  0.25870100  0.26888100  0.51017900  1
  N  N28  1  0.72860500  0.25938400  0.46922100  1
  N  N29  1  0.27139500  0.74061600  0.53077900  1
  N  N30  1  0.29016300  0.25938400  0.03077900  1
  N  N31  1  0.70983700  0.74061600  0.96922100  1
