# generated using pymatgen
data_Li7Mn11O24
_symmetry_space_group_name_H-M   'P 1'
_cell_length_a   5.86218527
_cell_length_b   5.86218531
_cell_length_c   53.34637066
_cell_angle_alpha   59.60108983
_cell_angle_beta   59.60108984
_cell_angle_gamma   60.78786997
_symmetry_Int_Tables_number   1
_chemical_formula_structural   Li7Mn11O24
_chemical_formula_sum   'Li21 Mn33 O72'
_cell_volume   1295.83901093
_cell_formula_units_Z   3
loop_
 _symmetry_equiv_pos_site_id
 _symmetry_equiv_pos_as_xyz
  1  'x, y, z'
loop_
 _atom_site_type_symbol
 _atom_site_label
 _atom_site_symmetry_multiplicity
 _atom_site_fract_x
 _atom_site_fract_y
 _atom_site_fract_z
 _atom_site_occupancy
  Li  Li0  1  0.12948700  0.12948700  0.01174400  1
  Li  Li1  1  0.12578800  0.12578800  0.12571300  1
  Li  Li2  1  0.12578500  0.12578500  0.23556200  1
  Li  Li3  1  0.87434300  0.87434300  0.09606000  1
  Li  Li4  1  0.12706000  0.12706000  0.34677400  1
  Li  Li5  1  0.12565700  0.12565700  0.45949500  1
  Li  Li6  1  0.87294000  0.87294000  0.20878100  1
  Li  Li7  1  0.87421500  0.87421500  0.31999300  1
  Li  Li8  1  0.11450000  0.11450000  0.57073000  1
  Li  Li9  1  0.87421200  0.87421200  0.42984300  1
  Li  Li10  1  0.12652200  0.12652200  0.67906700  1
  Li  Li11  1  0.49981900  0.49981900  0.61137600  1
  Li  Li12  1  0.87051300  0.87051300  0.54381200  1
  Li  Li13  1  0.11738500  0.11738500  0.79439900  1
  Li  Li14  1  0.88798500  0.88798500  0.65137200  1
  Li  Li15  1  0.50000000  0.50000000  0.77777800  1
  Li  Li16  1  0.11201500  0.11201500  0.90418400  1
  Li  Li17  1  0.88261500  0.88261500  0.76115800  1
  Li  Li18  1  0.50018100  0.50018100  0.94417900  1
  Li  Li19  1  0.87347800  0.87347800  0.87648900  1
  Li  Li20  1  0.88550000  0.88550000  0.98482500  1
  Mn  Mn21  1  0.00294700  0.49890200  0.05444800  1
  Mn  Mn22  1  0.49890200  0.00294700  0.05444800  1
  Mn  Mn23  1  0.50622500  0.50622500  0.99775600  1
  Mn  Mn24  1  0.50156600  0.50156600  0.05443200  1
  Mn  Mn25  1  0.00145700  0.50306600  0.16677300  1
  Mn  Mn26  1  0.49790200  0.49790200  0.11053000  1
  Mn  Mn27  1  0.49991200  0.49991200  0.16678300  1
  Mn  Mn28  1  0.00000000  0.50000000  0.27777800  1
  Mn  Mn29  1  0.50306600  0.00145700  0.16677300  1
  Mn  Mn30  1  0.49778900  0.49778900  0.22228800  1
  Mn  Mn31  1  0.50000000  0.50000000  0.27777800  1
  Mn  Mn32  1  0.99854300  0.49693400  0.38878300  1
  Mn  Mn33  1  0.50221100  0.50221100  0.33326700  1
  Mn  Mn34  1  0.50000000  0.00000000  0.27777800  1
  Mn  Mn35  1  0.50008800  0.50008800  0.38877300  1
  Mn  Mn36  1  0.99705300  0.50109800  0.50110800  1
  Mn  Mn37  1  0.49693400  0.99854300  0.38878300  1
  Mn  Mn38  1  0.50109800  0.99705300  0.50110800  1
  Mn  Mn39  1  0.50209800  0.50209800  0.44502500  1
  Mn  Mn40  1  0.49843400  0.49843400  0.50112400  1
  Mn  Mn41  1  0.99853000  0.49837300  0.61128100  1
  Mn  Mn42  1  0.49837300  0.99853000  0.61128100  1
  Mn  Mn43  1  0.49377500  0.49377500  0.55780000  1
  Mn  Mn44  1  0.99602900  0.50255500  0.72213900  1
  Mn  Mn45  1  0.50261500  0.50261500  0.66580500  1
  Mn  Mn46  1  0.50255500  0.99602900  0.72213900  1
  Mn  Mn47  1  0.50114100  0.50114100  0.72224200  1
  Mn  Mn48  1  0.00397100  0.49744500  0.83341600  1
  Mn  Mn49  1  0.49885900  0.49885900  0.83331300  1
  Mn  Mn50  1  0.00147000  0.50162700  0.94427400  1
  Mn  Mn51  1  0.49744500  0.00397100  0.83341600  1
  Mn  Mn52  1  0.50162700  0.00147000  0.94427400  1
  Mn  Mn53  1  0.49738500  0.49738500  0.88975100  1
  O  O54  1  0.26715100  0.26715100  0.02819100  1
  O  O55  1  0.26453900  0.26453900  0.07890200  1
  O  O56  1  0.27024800  0.70783100  0.02884600  1
  O  O57  1  0.70783100  0.27024800  0.02884600  1
  O  O58  1  0.28491400  0.74700700  0.07891400  1
  O  O59  1  0.26656300  0.26656300  0.13915500  1
  O  O60  1  0.74700700  0.28491400  0.07891400  1
  O  O61  1  0.26793600  0.26793600  0.19102100  1
  O  O62  1  0.26028200  0.71306400  0.14241600  1
  O  O63  1  0.73678100  0.73678100  0.03094700  1
  O  O64  1  0.73574600  0.73574600  0.08064000  1
  O  O65  1  0.71306400  0.26028200  0.14241600  1
  O  O66  1  0.26207400  0.26207400  0.25058200  1
  O  O67  1  0.29353400  0.73088700  0.19311700  1
  O  O68  1  0.73088700  0.29353400  0.19311700  1
  O  O69  1  0.73398800  0.73398800  0.14218200  1
  O  O70  1  0.26737100  0.26737100  0.30142000  1
  O  O71  1  0.25597000  0.71367400  0.24915400  1
  O  O72  1  0.71367400  0.25597000  0.24915400  1
  O  O73  1  0.73068500  0.73068500  0.19518800  1
  O  O74  1  0.28632600  0.74403000  0.30640200  1
  O  O75  1  0.26931500  0.26931500  0.36036800  1
  O  O76  1  0.26601200  0.26601200  0.41337300  1
  O  O77  1  0.74403000  0.28632600  0.30640200  1
  O  O78  1  0.26911300  0.70646600  0.36243900  1
  O  O79  1  0.73262900  0.73262900  0.25413500  1
  O  O80  1  0.70646600  0.26911300  0.36243900  1
  O  O81  1  0.73792600  0.73792600  0.30497400  1
  O  O82  1  0.26425400  0.26425400  0.47491600  1
  O  O83  1  0.28693600  0.73971800  0.41314000  1
  O  O84  1  0.25299300  0.71508600  0.47664200  1
  O  O85  1  0.26321900  0.26321900  0.52460800  1
  O  O86  1  0.73206400  0.73206400  0.36453400  1
  O  O87  1  0.73971800  0.28693600  0.41314000  1
  O  O88  1  0.71508600  0.25299300  0.47664200  1
  O  O89  1  0.73343700  0.73343700  0.41640100  1
  O  O90  1  0.25667100  0.25667100  0.58567100  1
  O  O91  1  0.29216900  0.72975200  0.52671000  1
  O  O92  1  0.25467100  0.25467100  0.63368100  1
  O  O93  1  0.72975200  0.29216900  0.52671000  1
  O  O94  1  0.73546100  0.73546100  0.47665400  1
  O  O95  1  0.25825200  0.71095700  0.58178100  1
  O  O96  1  0.73284900  0.73284900  0.52736500  1
  O  O97  1  0.71095700  0.25825200  0.58178100  1
  O  O98  1  0.28949900  0.74287300  0.63983700  1
  O  O99  1  0.26622700  0.26622700  0.69564800  1
  O  O100  1  0.26114600  0.26114600  0.74546200  1
  O  O101  1  0.74287300  0.28949900  0.63983700  1
  O  O102  1  0.27003500  0.70665600  0.69582800  1
  O  O103  1  0.74597200  0.74597200  0.58844800  1
  O  O104  1  0.70665600  0.27003500  0.69582800  1
  O  O105  1  0.74227300  0.74227300  0.63670800  1
  O  O106  1  0.24839900  0.24839900  0.81087000  1
  O  O107  1  0.29110300  0.74766500  0.74518600  1
  O  O108  1  0.26043400  0.26043400  0.85719500  1
  O  O109  1  0.73956600  0.73956600  0.69836100  1
  O  O110  1  0.25233500  0.70889700  0.81036900  1
  O  O111  1  0.74766500  0.29110300  0.74518600  1
  O  O112  1  0.70889700  0.25233500  0.81036900  1
  O  O113  1  0.75160100  0.75160100  0.74468600  1
  O  O114  1  0.25772700  0.25772700  0.91884700  1
  O  O115  1  0.29334400  0.72996500  0.85972700  1
  O  O116  1  0.25712700  0.71050100  0.91571800  1
  O  O117  1  0.25402800  0.25402800  0.96710800  1
  O  O118  1  0.72996500  0.29334400  0.85972700  1
  O  O119  1  0.73885400  0.73885400  0.81009400  1
  O  O120  1  0.71050100  0.25712700  0.91571800  1
  O  O121  1  0.73377300  0.73377300  0.85990700  1
  O  O122  1  0.28904300  0.74174800  0.97377400  1
  O  O123  1  0.74174800  0.28904300  0.97377400  1
  O  O124  1  0.74532900  0.74532900  0.92187500  1
  O  O125  1  0.74332900  0.74332900  0.96988400  1
