# generated using pymatgen
data_Sr5Li25La7(BiO6)8
_symmetry_space_group_name_H-M   'P 1'
_cell_length_a   11.61383143
_cell_length_b   11.54710639
_cell_length_c   11.59260907
_cell_angle_alpha   109.71164068
_cell_angle_beta   108.82509662
_cell_angle_gamma   109.80694822
_symmetry_Int_Tables_number   1
_chemical_formula_structural   Sr5Li25La7(BiO6)8
_chemical_formula_sum   'Sr5 Li25 La7 Bi8 O48'
_cell_volume   1197.71489508
_cell_formula_units_Z   1
loop_
 _symmetry_equiv_pos_site_id
 _symmetry_equiv_pos_as_xyz
  1  'x, y, z'
loop_
 _atom_site_type_symbol
 _atom_site_label
 _atom_site_symmetry_multiplicity
 _atom_site_fract_x
 _atom_site_fract_y
 _atom_site_fract_z
 _atom_site_occupancy
  Sr  Sr0  1  0.12616097  0.37631132  0.74206822  1
  Sr  Sr1  1  0.12289328  0.23775040  0.37216294  1
  Sr  Sr2  1  0.60622425  0.86871110  0.76765580  1
  Sr  Sr3  1  0.61630868  0.24880401  0.86985442  1
  Sr  Sr4  1  0.74814969  0.14137743  0.35406727  1
  Li  Li5  1  0.27093929  0.65249630  0.36600919  1
  Li  Li6  1  0.25458730  0.10317908  0.86300451  1
  Li  Li7  1  0.37850439  0.61546975  0.76842827  1
  Li  Li8  1  0.35769770  0.24853303  0.63273173  1
  Li  Li9  1  0.55260260  0.72376223  0.37093496  1
  Li  Li10  1  0.53989606  0.28501597  0.58864216  1
  Li  Li11  1  0.68364209  0.79829850  0.25842887  1
  Li  Li12  1  0.74110158  0.37827127  0.57986417  1
  Li  Li13  1  0.58933062  0.53814814  0.28594810  1
  Li  Li14  1  0.75266624  0.86629894  0.11906940  1
  Li  Li15  1  0.64960836  0.37873224  0.30077609  1
  Li  Li16  1  0.97088862  0.58977131  0.78035421  1
  Li  Li17  1  0.72328881  0.88232862  0.61225081  1
  Li  Li18  1  0.21872992  0.75095723  0.84415279  1
  Li  Li19  1  0.46411301  0.25528585  0.06596674  1
  Li  Li20  1  0.11795096  0.86663848  0.24253301  1
  Li  Li21  1  0.79963029  0.24944689  0.68201607  1
  Li  Li22  1  0.87887688  0.12524640  0.76758825  1
  Li  Li23  1  0.75500777  0.98692470  0.50208854  1
  Li  Li24  1  0.29297825  0.59126652  0.54086825  1
  Li  Li25  1  0.05321119  0.09249304  0.79197065  1
  Li  Li26  1  0.76378165  0.28335721  0.15633205  1
  Li  Li27  1  0.88732640  0.22872526  0.00136103  1
  Li  Li28  1  0.03887174  0.44239865  0.25165904  1
  Li  Li29  1  0.82580708  0.07260269  0.09893576  1
  La  La30  1  0.24640707  0.87664898  0.61698544  1
  La  La31  1  0.36293118  0.74129267  0.11671099  1
  La  La32  1  0.23679744  0.36304834  0.11973153  1
  La  La33  1  0.36392366  0.10800722  0.24089683  1
  La  La34  1  0.73660743  0.62105859  0.86892803  1
  La  La35  1  0.88442274  0.74787753  0.62255477  1
  La  La36  1  0.86916057  0.62406394  0.23820957  1
  Bi  Bi37  1  0.00611115  0.50278537  0.50210075  1
  Bi  Bi38  1  0.99555323  0.50301098  0.99684266  1
  Bi  Bi39  1  0.99608627  0.98089253  0.98919460  1
  Bi  Bi40  1  0.48890575  0.48921068  0.49454237  1
  Bi  Bi41  1  0.49367653  0.99168839  0.48990449  1
  Bi  Bi42  1  0.49314371  0.49314415  0.99637956  1
  Bi  Bi43  1  0.50064589  0.99293420  0.99587378  1
  Bi  Bi44  1  0.00225481  0.00556080  0.49922813  1
  O  O45  1  0.09362107  0.96911327  0.67377683  1
  O  O46  1  0.00144212  0.30967432  0.91243547  1
  O  O47  1  0.12293362  0.59816426  0.91898892  1
  O  O48  1  0.08003977  0.70688153  0.67334080  1
  O  O49  1  0.06619184  0.86158527  0.40179424  1
  O  O50  1  0.12060110  0.62124606  0.42587497  1
  O  O51  1  0.18096812  0.48020740  0.59339869  1
  O  O52  1  0.38941989  0.80489672  0.79390783  1
  O  O53  1  0.37310766  0.57681192  0.91600871  1
  O  O54  1  0.31228063  0.30792779  0.94347226  1
  O  O55  1  0.32051383  0.91117443  0.29074714  1
  O  O56  1  0.01016120  0.18301977  0.10909797  1
  O  O57  1  0.17215219  0.20141655  0.57872003  1
  O  O58  1  0.18997249  0.56592312  0.16924856  1
  O  O59  1  0.40602808  0.82821811  0.53520220  1
  O  O60  1  0.29530956  0.47965867  0.37151479  1
  O  O61  1  0.33448521  0.90609168  0.03790678  1
  O  O62  1  0.12739753  0.01360976  0.18728690  1
  O  O63  1  0.40989652  0.07963841  0.87837346  1
  O  O64  1  0.50271762  0.61431855  0.68684630  1
  O  O65  1  0.53064990  0.40895683  0.82631477  1
  O  O66  1  0.37760984  0.28268242  0.46543843  1
  O  O67  1  0.56923070  0.88764382  0.36059498  1
  O  O68  1  0.18505785  0.11169431  0.99823607  1
  O  O69  1  0.79543601  0.87885698  0.97655310  1
  O  O70  1  0.43719951  0.11339898  0.61856254  1
  O  O71  1  0.62580853  0.68105242  0.50887747  1
  O  O72  1  0.47660469  0.59629651  0.18358516  1
  O  O73  1  0.47177192  0.37066730  0.28760707  1
  O  O74  1  0.60752794  0.92197602  0.11605886  1
  O  O75  1  0.88313176  0.96776882  0.78701062  1
  O  O76  1  0.68853858  0.10148557  0.98139214  1
  O  O77  1  0.67740920  0.50160751  0.62166070  1
  O  O78  1  0.60396813  0.17912411  0.47752977  1
  O  O79  1  0.80448820  0.41857514  0.80543530  1
  O  O80  1  0.80284844  0.82694330  0.44157155  1
  O  O81  1  0.93655613  0.76356306  0.84861001  1
  O  O82  1  0.68919176  0.05044030  0.65954745  1
  O  O83  1  0.70052440  0.67948017  0.09813341  1
  O  O84  1  0.62072402  0.43017246  0.12158816  1
  O  O85  1  0.57975704  0.18717736  0.18531056  1
  O  O86  1  0.83316613  0.54134373  0.40646081  1
  O  O87  1  0.90833602  0.39700962  0.59167926  1
  O  O88  1  0.93728017  0.12791013  0.62895080  1
  O  O89  1  0.91898444  0.31079023  0.31011265  1
  O  O90  1  0.87738775  0.40581152  0.08883512  1
  O  O91  1  0.95345812  0.66825132  0.08405254  1
  O  O92  1  0.88350970  0.01381558  0.32044103  1
