# generated using pymatgen
data_LiHO
_symmetry_space_group_name_H-M   'P 1'
_cell_length_a   3.56121150
_cell_length_b   3.56121150
_cell_length_c   4.55612900
_cell_angle_alpha   90.00000000
_cell_angle_beta   90.00000000
_cell_angle_gamma   90.21185389
_symmetry_Int_Tables_number   1
_chemical_formula_structural   LiHO
_chemical_formula_sum   'Li2 H2 O2'
_cell_volume   57.78146893
_cell_formula_units_Z   2
loop_
 _symmetry_equiv_pos_site_id
 _symmetry_equiv_pos_as_xyz
  1  'x, y, z'
loop_
 _atom_site_type_symbol
 _atom_site_label
 _atom_site_symmetry_multiplicity
 _atom_site_fract_x
 _atom_site_fract_y
 _atom_site_fract_z
 _atom_site_occupancy
  Li  Li0  1  0.46007300  0.46007300  0.50000000  1
  Li  Li1  1  0.96007300  0.96007300  0.50000000  1
  H  H2  1  0.42044200  0.92044200  0.10306100  1
  H  H3  1  0.92044200  0.42044200  0.89693900  1
  O  O4  1  0.45834200  0.95834200  0.31016100  1
  O  O5  1  0.95834200  0.45834200  0.68983900  1
