# generated using pymatgen
data_Li(ReO3)5
_symmetry_space_group_name_H-M   'P 1'
_cell_length_a   6.48536000
_cell_length_b   10.60039094
_cell_length_c   16.30369578
_cell_angle_alpha   108.91042204
_cell_angle_beta   97.76576335
_cell_angle_gamma   90.07844911
_symmetry_Int_Tables_number   1
_chemical_formula_structural   Li(ReO3)5
_chemical_formula_sum   'Li4 Re20 O60'
_cell_volume   1049.39564237
_cell_formula_units_Z   4
loop_
 _symmetry_equiv_pos_site_id
 _symmetry_equiv_pos_as_xyz
  1  'x, y, z'
loop_
 _atom_site_type_symbol
 _atom_site_label
 _atom_site_symmetry_multiplicity
 _atom_site_fract_x
 _atom_site_fract_y
 _atom_site_fract_z
 _atom_site_occupancy
  Li  Li0  1  0.20063800  0.29997900  0.60026000  1
  Li  Li1  1  0.70052100  0.29991700  0.10017700  1
  Li  Li2  1  0.79936200  0.70002100  0.39974000  1
  Li  Li3  1  0.29947900  0.70008300  0.89982300  1
  Re  Re4  1  0.69880900  0.29956400  0.59986300  1
  Re  Re5  1  0.69880000  0.80020600  0.60104800  1
  Re  Re6  1  0.40075600  0.09759900  0.70049700  1
  Re  Re7  1  0.30120000  0.19979400  0.39895200  1
  Re  Re8  1  0.30119100  0.70043600  0.40013700  1
  Re  Re9  1  0.00000000  0.50000000  0.50000000  1
  Re  Re10  1  0.90246700  0.09853300  0.20035500  1
  Re  Re11  1  0.90186400  0.60287900  0.20012100  1
  Re  Re12  1  0.00000000  0.00000000  0.50000000  1
  Re  Re13  1  0.59924400  0.90240100  0.29950300  1
  Re  Re14  1  0.50000000  0.00000000  0.00000000  1
  Re  Re15  1  0.59897400  0.39896200  0.30080300  1
  Re  Re16  1  0.19899400  0.30013300  0.09998500  1
  Re  Re17  1  0.09813600  0.39712100  0.79987900  1
  Re  Re18  1  0.09753300  0.90146700  0.79964500  1
  Re  Re19  1  0.20014900  0.80160300  0.10130300  1
  Re  Re20  1  0.80100600  0.69986700  0.90001500  1
  Re  Re21  1  0.79985100  0.19839700  0.89869700  1
  Re  Re22  1  0.50000000  0.50000000  0.00000000  1
  Re  Re23  1  0.40102600  0.60103800  0.69919700  1
  O  O24  1  0.49384800  0.21319400  0.64050700  1
  O  O25  1  0.20080900  0.01687700  0.59894100  1
  O  O26  1  0.09504700  0.61339500  0.44029800  1
  O  O27  1  0.93789700  0.84159700  0.68724100  1
  O  O28  1  0.80201900  0.41688600  0.39939000  1
  O  O29  1  0.85591100  0.14294400  0.56993200  1
  O  O30  1  0.83811000  0.86960600  0.52575800  1
  O  O31  1  0.70630400  0.01148600  0.24213500  1
  O  O32  1  0.80478300  0.62990200  0.54360200  1
  O  O33  1  0.59463300  0.96935600  0.65539300  1
  O  O34  1  0.53941100  0.24199500  0.48730900  1
  O  O35  1  0.40264000  0.81828800  0.19926000  1
  O  O36  1  0.54486600  0.45651300  0.63035600  1
  O  O37  1  0.55908500  0.72399300  0.66970600  1
  O  O38  1  0.44091500  0.27600700  0.33029400  1
  O  O39  1  0.45513400  0.54348700  0.36964400  1
  O  O40  1  0.40536700  0.03064400  0.34460700  1
  O  O41  1  0.30477900  0.41143300  0.04270700  1
  O  O42  1  0.46058900  0.75800500  0.51269100  1
  O  O43  1  0.19521700  0.37009800  0.45639800  1
  O  O44  1  0.13958600  0.64219600  0.28695300  1
  O  O45  1  0.00137400  0.21730200  0.99999900  1
  O  O46  1  0.14408900  0.85705600  0.43006800  1
  O  O47  1  0.16189000  0.13039400  0.47424200  1
  O  O48  1  0.05348300  0.94254400  0.16853100  1
  O  O49  1  0.04079300  0.67613200  0.13093100  1
  O  O50  1  0.19798100  0.58311400  0.60061000  1
  O  O51  1  0.90377700  0.81057400  0.84256400  1
  O  O52  1  0.99390300  0.42665500  0.14385300  1
  O  O53  1  0.06210300  0.15840300  0.31275900  1
  O  O54  1  0.79532500  0.77011500  0.25607200  1
  O  O55  1  0.73902000  0.04265800  0.08657900  1
  O  O56  1  0.90495300  0.38660500  0.55970200  1
  O  O57  1  0.60080500  0.61679900  0.79969400  1
  O  O58  1  0.76151500  0.53142100  0.27469400  1
  O  O59  1  0.74484300  0.26001100  0.22656000  1
  O  O60  1  0.65463700  0.34061000  0.97312100  1
  O  O61  1  0.63992500  0.07439900  0.93043700  1
  O  O62  1  0.79919100  0.98312300  0.40105900  1
  O  O63  1  0.66066500  0.55746800  0.11309000  1
  O  O64  1  0.59580100  0.82571700  0.94367500  1
  O  O65  1  0.50615200  0.78680600  0.35949300  1
  O  O66  1  0.40419900  0.17428300  0.05632500  1
  O  O67  1  0.33933500  0.44253200  0.88691000  1
  O  O68  1  0.34536300  0.65939000  0.02687900  1
  O  O69  1  0.36007500  0.92560100  0.06956300  1
  O  O70  1  0.25515700  0.73998900  0.77344000  1
  O  O71  1  0.23848500  0.46857900  0.72530600  1
  O  O72  1  0.39919500  0.38320100  0.20030600  1
  O  O73  1  0.26098000  0.95734200  0.91342100  1
  O  O74  1  0.20467500  0.22988500  0.74392800  1
  O  O75  1  0.00609700  0.57334500  0.85614700  1
  O  O76  1  0.09622300  0.18942600  0.15743600  1
  O  O77  1  0.95920700  0.32386800  0.86906900  1
  O  O78  1  0.94651700  0.05745600  0.83146900  1
  O  O79  1  0.99862600  0.78269800  0.00000100  1
  O  O80  1  0.86041400  0.35780400  0.71304700  1
  O  O81  1  0.69522100  0.58856700  0.95729300  1
  O  O82  1  0.59736000  0.18171200  0.80074000  1
  O  O83  1  0.29369600  0.98851400  0.75786500  1
