# generated using pymatgen
data_LiSbP2O7
_symmetry_space_group_name_H-M   'P 1'
_cell_length_a   8.69620600
_cell_length_b   7.16725200
_cell_length_c   9.90846353
_cell_angle_alpha   70.91350872
_cell_angle_beta   90.00000000
_cell_angle_gamma   90.00000000
_symmetry_Int_Tables_number   1
_chemical_formula_structural   LiSbP2O7
_chemical_formula_sum   'Li4 Sb4 P8 O28'
_cell_volume   583.62324615
_cell_formula_units_Z   4
loop_
 _symmetry_equiv_pos_site_id
 _symmetry_equiv_pos_as_xyz
  1  'x, y, z'
loop_
 _atom_site_type_symbol
 _atom_site_label
 _atom_site_symmetry_multiplicity
 _atom_site_fract_x
 _atom_site_fract_y
 _atom_site_fract_z
 _atom_site_occupancy
  Li  Li0  1  0.04014100  0.29954500  0.21513100  1
  Li  Li1  1  0.45985900  0.29954500  0.71513100  1
  Li  Li2  1  0.95985900  0.70045500  0.78486900  1
  Li  Li3  1  0.54014100  0.70045500  0.28486900  1
  Sb  Sb4  1  0.50884400  0.74599600  0.75041300  1
  Sb  Sb5  1  0.49115600  0.25400400  0.24958700  1
  Sb  Sb6  1  0.00884400  0.25400400  0.74958700  1
  Sb  Sb7  1  0.99115600  0.74599600  0.25041300  1
  P  P8  1  0.75791600  0.90127200  0.96705000  1
  P  P9  1  0.74208400  0.90127200  0.46705000  1
  P  P10  1  0.77946800  0.34775500  0.44207700  1
  P  P11  1  0.24208400  0.09872800  0.03295000  1
  P  P12  1  0.27946800  0.65224500  0.05792300  1
  P  P13  1  0.22053200  0.65224500  0.55792300  1
  P  P14  1  0.72053200  0.34775500  0.94207700  1
  P  P15  1  0.25791600  0.09872800  0.53295000  1
  O  O16  1  0.12800800  0.55157600  0.11723600  1
  O  O17  1  0.25752200  0.17710700  0.36929500  1
  O  O18  1  0.72123700  0.13755500  0.91391600  1
  O  O19  1  0.09150200  0.12408000  0.10346700  1
  O  O20  1  0.74247800  0.82289300  0.63070500  1
  O  O21  1  0.91925700  0.44936400  0.34602800  1
  O  O22  1  0.75752200  0.82289300  0.13070500  1
  O  O23  1  0.61509700  0.82032300  0.91232100  1
  O  O24  1  0.30237400  0.68420000  0.90008700  1
  O  O25  1  0.90849800  0.87592000  0.89653300  1
  O  O26  1  0.80237400  0.31580000  0.59991300  1
  O  O27  1  0.38490300  0.17967700  0.08767900  1
  O  O28  1  0.62800800  0.44842400  0.38276400  1
  O  O29  1  0.58074200  0.44936400  0.84602800  1
  O  O30  1  0.40849800  0.12408000  0.60346700  1
  O  O31  1  0.11509700  0.17967700  0.58767900  1
  O  O32  1  0.87199200  0.44842400  0.88276400  1
  O  O33  1  0.19762600  0.68420000  0.40008700  1
  O  O34  1  0.27876300  0.86244500  0.08608400  1
  O  O35  1  0.41925700  0.55063600  0.15397200  1
  O  O36  1  0.88490300  0.82032300  0.41232100  1
  O  O37  1  0.37199200  0.55157600  0.61723600  1
  O  O38  1  0.24247800  0.17710700  0.86929500  1
  O  O39  1  0.59150200  0.87592000  0.39653300  1
  O  O40  1  0.69762600  0.31580000  0.09991300  1
  O  O41  1  0.08074300  0.55063600  0.65397200  1
  O  O42  1  0.77876300  0.13755500  0.41391600  1
  O  O43  1  0.22123700  0.86244500  0.58608400  1
