# generated using pymatgen
data_Li2MoO3
_symmetry_space_group_name_H-M   'P 1'
_cell_length_a   6.06354591
_cell_length_b   18.15964683
_cell_length_c   16.09507577
_cell_angle_alpha   19.20088062
_cell_angle_beta   55.26567990
_cell_angle_gamma   59.91908017
_symmetry_Int_Tables_number   1
_chemical_formula_structural   Li2MoO3
_chemical_formula_sum   'Li16 Mo8 O24'
_cell_volume   474.52419162
_cell_formula_units_Z   8
loop_
 _symmetry_equiv_pos_site_id
 _symmetry_equiv_pos_as_xyz
  1  'x, y, z'
loop_
 _atom_site_type_symbol
 _atom_site_label
 _atom_site_symmetry_multiplicity
 _atom_site_fract_x
 _atom_site_fract_y
 _atom_site_fract_z
 _atom_site_occupancy
  Li  Li0  1  0.97834200  0.00166900  0.00943200  1
  Li  Li1  1  0.50767800  0.01031600  0.99684300  1
  Li  Li2  1  0.50527100  0.18101700  0.98105200  1
  Li  Li3  1  0.97883300  0.48587400  0.01758700  1
  Li  Li4  1  0.50048600  0.33183600  0.99928900  1
  Li  Li5  1  0.01999900  0.18571900  0.97549100  1
  Li  Li6  1  0.50099700  0.50502900  0.99340600  1
  Li  Li7  1  0.99181400  0.33230300  0.50275600  1
  Li  Li8  1  0.00784700  0.33269400  0.99307100  1
  Li  Li9  1  0.49301800  0.16784900  0.50164400  1
  Li  Li10  1  0.49006900  0.64975700  0.01252100  1
  Li  Li11  1  0.01428100  0.66661200  0.49416200  1
  Li  Li12  1  0.01067700  0.65377700  0.01078000  1
  Li  Li13  1  0.49743700  0.49143400  0.51860700  1
  Li  Li14  1  0.99295300  0.83079200  0.00591300  1
  Li  Li15  1  0.98806900  0.00152500  0.49859600  1
  Mo  Mo16  1  0.48639200  0.01054200  0.49710700  1
  Mo  Mo17  1  0.99863600  0.49517200  0.50160500  1
  Mo  Mo18  1  0.49771900  0.33359200  0.50000300  1
  Mo  Mo19  1  0.49749800  0.82672200  0.00775600  1
  Mo  Mo20  1  0.01969000  0.17090700  0.49128300  1
  Mo  Mo21  1  0.00496400  0.83135000  0.49944700  1
  Mo  Mo22  1  0.49022700  0.66449200  0.50643000  1
  Mo  Mo23  1  0.49543700  0.83223000  0.50033600  1
  O  O24  1  0.23185300  0.07079200  0.26584100  1
  O  O25  1  0.24126600  0.24484000  0.25775500  1
  O  O26  1  0.24064000  0.39597500  0.27063700  1
  O  O27  1  0.73804300  0.07965600  0.26214900  1
  O  O28  1  0.71360500  0.22722400  0.27619900  1
  O  O29  1  0.25288200  0.58086300  0.24666500  1
  O  O30  1  0.27174900  0.08000000  0.75324500  1
  O  O31  1  0.26094900  0.26461700  0.72812600  1
  O  O32  1  0.26171500  0.74678600  0.24463000  1
  O  O33  1  0.74809900  0.40067400  0.27207000  1
  O  O34  1  0.75351700  0.08320300  0.74715000  1
  O  O35  1  0.73680000  0.58292100  0.24754600  1
  O  O36  1  0.24970700  0.91446300  0.25669100  1
  O  O37  1  0.26263000  0.43600300  0.73072500  1
  O  O38  1  0.77095700  0.26300200  0.73440000  1
  O  O39  1  0.23291400  0.57124400  0.76856000  1
  O  O40  1  0.76276900  0.73845900  0.26623400  1
  O  O41  1  0.74848200  0.43688700  0.72436000  1
  O  O42  1  0.73824200  0.91286400  0.25538000  1
  O  O43  1  0.26604800  0.77693700  0.72407400  1
  O  O44  1  0.75533100  0.59560400  0.73962300  1
  O  O45  1  0.25078600  0.91315800  0.75154000  1
  O  O46  1  0.73964500  0.76799000  0.72632400  1
  O  O47  1  0.75098400  0.92110700  0.75449300  1
