# generated using pymatgen
data_LiFeP2O7
_symmetry_space_group_name_H-M   'P 1'
_cell_length_a   8.05507200
_cell_length_b   7.19284400
_cell_length_c   9.60371688
_cell_angle_alpha   69.15493503
_cell_angle_beta   90.00000000
_cell_angle_gamma   90.00000000
_symmetry_Int_Tables_number   1
_chemical_formula_structural   LiFeP2O7
_chemical_formula_sum   'Li4 Fe4 P8 O28'
_cell_volume   520.00813574
_cell_formula_units_Z   4
loop_
 _symmetry_equiv_pos_site_id
 _symmetry_equiv_pos_as_xyz
  1  'x, y, z'
loop_
 _atom_site_type_symbol
 _atom_site_label
 _atom_site_symmetry_multiplicity
 _atom_site_fract_x
 _atom_site_fract_y
 _atom_site_fract_z
 _atom_site_occupancy
  Li  Li0  1  0.52224800  0.69214300  0.27481700  1
  Li  Li1  1  0.47775200  0.30785700  0.72518300  1
  Li  Li2  1  0.02224800  0.30785700  0.22518300  1
  Li  Li3  1  0.97775200  0.69214300  0.77481700  1
  Fe  Fe4  1  0.99461900  0.74125700  0.25102500  1
  Fe  Fe5  1  0.00538100  0.25874300  0.74897500  1
  Fe  Fe6  1  0.49461900  0.25874300  0.24897500  1
  Fe  Fe7  1  0.50538100  0.74125700  0.75102500  1
  P  P8  1  0.76142100  0.91517200  0.95476900  1
  P  P9  1  0.73857900  0.91517200  0.45476900  1
  P  P10  1  0.78857500  0.33035900  0.45021300  1
  P  P11  1  0.71142500  0.33035900  0.95021300  1
  P  P12  1  0.23857900  0.08482800  0.04523100  1
  P  P13  1  0.26142100  0.08482800  0.54523100  1
  P  P14  1  0.21142500  0.66964100  0.54978700  1
  P  P15  1  0.28857500  0.66964100  0.04978700  1
  O  O16  1  0.70062300  0.31285500  0.11301900  1
  O  O17  1  0.70829300  0.80832000  0.62134800  1
  O  O18  1  0.42177300  0.54309100  0.15504500  1
  O  O19  1  0.86273500  0.79868600  0.39997800  1
  O  O20  1  0.33769400  0.88133400  0.06457900  1
  O  O21  1  0.20062300  0.68714500  0.38698100  1
  O  O22  1  0.58128300  0.97151200  0.35769300  1
  O  O23  1  0.57822700  0.45690900  0.84495500  1
  O  O24  1  0.13726500  0.20131400  0.60002200  1
  O  O25  1  0.91871700  0.97151200  0.85769300  1
  O  O26  1  0.79170700  0.80832000  0.12134800  1
  O  O27  1  0.11121500  0.61672800  0.11043100  1
  O  O28  1  0.41871700  0.02848800  0.64230700  1
  O  O29  1  0.61121500  0.38327200  0.38956900  1
  O  O30  1  0.36273500  0.20131400  0.10002200  1
  O  O31  1  0.63726500  0.79868600  0.89997800  1
  O  O32  1  0.92177300  0.45690900  0.34495500  1
  O  O33  1  0.16230600  0.88133400  0.56457900  1
  O  O34  1  0.29937700  0.68714500  0.88698100  1
  O  O35  1  0.88878500  0.38327200  0.88956900  1
  O  O36  1  0.08128300  0.02848800  0.14230700  1
  O  O37  1  0.20829300  0.19168000  0.87865200  1
  O  O38  1  0.66230600  0.11866600  0.93542100  1
  O  O39  1  0.29170700  0.19168000  0.37865200  1
  O  O40  1  0.38878500  0.61672800  0.61043100  1
  O  O41  1  0.83769400  0.11866600  0.43542100  1
  O  O42  1  0.07822700  0.54309100  0.65504500  1
  O  O43  1  0.79937700  0.31285500  0.61301900  1
