# generated using pymatgen
data_LiYb8Ge13
_symmetry_space_group_name_H-M   'P 1'
_cell_length_a   15.33741700
_cell_length_b   11.57050800
_cell_length_c   12.41100733
_cell_angle_alpha   76.43776423
_cell_angle_beta   90.00000000
_cell_angle_gamma   90.00000000
_symmetry_Int_Tables_number   1
_chemical_formula_structural   LiYb8Ge13
_chemical_formula_sum   'Li4 Yb32 Ge52'
_cell_volume   2141.06412652
_cell_formula_units_Z   4
loop_
 _symmetry_equiv_pos_site_id
 _symmetry_equiv_pos_as_xyz
  1  'x, y, z'
loop_
 _atom_site_type_symbol
 _atom_site_label
 _atom_site_symmetry_multiplicity
 _atom_site_fract_x
 _atom_site_fract_y
 _atom_site_fract_z
 _atom_site_occupancy
  Li  Li0  1  0.86927700  0.10649700  0.58166000  1
  Li  Li1  1  0.63072300  0.10649700  0.08166000  1
  Li  Li2  1  0.13072300  0.89350300  0.41834000  1
  Li  Li3  1  0.36927700  0.89350300  0.91834000  1
  Yb  Yb4  1  0.18912500  0.13064000  0.39479800  1
  Yb  Yb5  1  0.81375500  0.69390400  0.02105900  1
  Yb  Yb6  1  0.96760300  0.15214000  0.06158600  1
  Yb  Yb7  1  0.42133500  0.62962100  0.95508100  1
  Yb  Yb8  1  0.57866500  0.37037900  0.04491900  1
  Yb  Yb9  1  0.31087500  0.13064000  0.89479800  1
  Yb  Yb10  1  0.81087500  0.86936000  0.60520200  1
  Yb  Yb11  1  0.38014500  0.08269400  0.17647400  1
  Yb  Yb12  1  0.89517400  0.10070300  0.82449300  1
  Yb  Yb13  1  0.07866500  0.62962100  0.45508100  1
  Yb  Yb14  1  0.92133500  0.37037900  0.54491900  1
  Yb  Yb15  1  0.61985500  0.91730600  0.82352600  1
  Yb  Yb16  1  0.60482600  0.10070300  0.32449300  1
  Yb  Yb17  1  0.38418600  0.57729600  0.28887000  1
  Yb  Yb18  1  0.46760300  0.84786000  0.43841400  1
  Yb  Yb19  1  0.11581400  0.57729600  0.78887000  1
  Yb  Yb20  1  0.88418600  0.42270400  0.21113000  1
  Yb  Yb21  1  0.16988700  0.63301600  0.10970400  1
  Yb  Yb22  1  0.53239700  0.15214000  0.56158600  1
  Yb  Yb23  1  0.18624500  0.30609600  0.97894100  1
  Yb  Yb24  1  0.61581400  0.42270400  0.71113000  1
  Yb  Yb25  1  0.68624500  0.69390400  0.52105900  1
  Yb  Yb26  1  0.10482600  0.89929700  0.17550700  1
  Yb  Yb27  1  0.66988700  0.36698400  0.39029600  1
  Yb  Yb28  1  0.31375500  0.30609600  0.47894100  1
  Yb  Yb29  1  0.33011300  0.63301600  0.60970400  1
  Yb  Yb30  1  0.03239700  0.84786000  0.93841400  1
  Yb  Yb31  1  0.88014500  0.91730600  0.32352600  1
  Yb  Yb32  1  0.39517400  0.89929700  0.67550700  1
  Yb  Yb33  1  0.68912500  0.86936000  0.10520200  1
  Yb  Yb34  1  0.83011300  0.36698400  0.89029600  1
  Yb  Yb35  1  0.11985500  0.08269400  0.67647400  1
  Ge  Ge36  1  0.25550600  0.76266400  0.34578100  1
  Ge  Ge37  1  0.43604800  0.46519900  0.80136500  1
  Ge  Ge38  1  0.78744000  0.10290900  0.01836600  1
  Ge  Ge39  1  0.11493900  0.33097200  0.49526200  1
  Ge  Ge40  1  0.51480700  0.10841900  0.94592600  1
  Ge  Ge41  1  0.30039400  0.47222000  0.07845100  1
  Ge  Ge42  1  0.69960600  0.52778000  0.92154900  1
  Ge  Ge43  1  0.01480700  0.89158100  0.55407400  1
  Ge  Ge44  1  0.06395200  0.46519900  0.30136500  1
  Ge  Ge45  1  0.08390500  0.31167400  0.19048200  1
  Ge  Ge46  1  0.49631400  0.39514800  0.49720700  1
  Ge  Ge47  1  0.41609500  0.31167400  0.69048200  1
  Ge  Ge48  1  0.47597500  0.32740000  0.29458900  1
  Ge  Ge49  1  0.97597500  0.67260000  0.20541100  1
  Ge  Ge50  1  0.50368600  0.60485200  0.50279300  1
  Ge  Ge51  1  0.88860700  0.91478800  0.07856400  1
  Ge  Ge52  1  0.58390500  0.68832600  0.30951800  1
  Ge  Ge53  1  0.11139300  0.08521200  0.92143600  1
  Ge  Ge54  1  0.91609500  0.68832600  0.80951800  1
  Ge  Ge55  1  0.95528100  0.91196800  0.73094100  1
  Ge  Ge56  1  0.54471900  0.91196800  0.23094100  1
  Ge  Ge57  1  0.99631400  0.60485200  0.00279300  1
  Ge  Ge58  1  0.38506100  0.33097200  0.99526200  1
  Ge  Ge59  1  0.24449400  0.76266400  0.84578100  1
  Ge  Ge60  1  0.28744000  0.89709100  0.48163400  1
  Ge  Ge61  1  0.82060100  0.17657200  0.35607100  1
  Ge  Ge62  1  0.52402500  0.67260000  0.70541100  1
  Ge  Ge63  1  0.88506100  0.66902800  0.50473800  1
  Ge  Ge64  1  0.61139300  0.91478800  0.57856400  1
  Ge  Ge65  1  0.48519300  0.89158100  0.05407400  1
  Ge  Ge66  1  0.75550600  0.23733600  0.15421900  1
  Ge  Ge67  1  0.61493900  0.66902800  0.00473800  1
  Ge  Ge68  1  0.67939900  0.17657200  0.85607100  1
  Ge  Ge69  1  0.56395200  0.53480100  0.19863500  1
  Ge  Ge70  1  0.19960600  0.47222000  0.57845100  1
  Ge  Ge71  1  0.32060100  0.82342800  0.14392900  1
  Ge  Ge72  1  0.21256000  0.89709100  0.98163400  1
  Ge  Ge73  1  0.71256000  0.10290900  0.51836600  1
  Ge  Ge74  1  0.74339800  0.69974800  0.78087100  1
  Ge  Ge75  1  0.80039400  0.52778000  0.42154900  1
  Ge  Ge76  1  0.75660200  0.69974800  0.28087100  1
  Ge  Ge77  1  0.04471900  0.08803200  0.26905900  1
  Ge  Ge78  1  0.38860700  0.08521200  0.42143600  1
  Ge  Ge79  1  0.25660200  0.30025200  0.21912900  1
  Ge  Ge80  1  0.74449400  0.23733600  0.65421900  1
  Ge  Ge81  1  0.45528100  0.08803200  0.76905900  1
  Ge  Ge82  1  0.24339800  0.30025200  0.71912900  1
  Ge  Ge83  1  0.17939900  0.82342800  0.64392900  1
  Ge  Ge84  1  0.02402500  0.32740000  0.79458900  1
  Ge  Ge85  1  0.00368600  0.39514800  0.99720700  1
  Ge  Ge86  1  0.98519300  0.10841900  0.44592600  1
  Ge  Ge87  1  0.93604800  0.53480100  0.69863500  1
