# generated using pymatgen
data_Li3Bi2(PO4)3
_symmetry_space_group_name_H-M   'P 1'
_cell_length_a   9.23342600
_cell_length_b   9.22418300
_cell_length_c   16.03576682
_cell_angle_alpha   56.32682854
_cell_angle_beta   90.00000000
_cell_angle_gamma   90.00000000
_symmetry_Int_Tables_number   1
_chemical_formula_structural   Li3Bi2(PO4)3
_chemical_formula_sum   'Li12 Bi8 P12 O48'
_cell_volume   1136.62040162
_cell_formula_units_Z   4
loop_
 _symmetry_equiv_pos_site_id
 _symmetry_equiv_pos_as_xyz
  1  'x, y, z'
loop_
 _atom_site_type_symbol
 _atom_site_label
 _atom_site_symmetry_multiplicity
 _atom_site_fract_x
 _atom_site_fract_y
 _atom_site_fract_z
 _atom_site_occupancy
  Li  Li0  1  0.23509400  0.39571900  0.81992100  1
  Li  Li1  1  0.26582300  0.00598100  0.18300400  1
  Li  Li2  1  0.09513000  0.23135200  0.71303700  1
  Li  Li3  1  0.76490600  0.60428100  0.18007900  1
  Li  Li4  1  0.23417700  0.00598100  0.68300400  1
  Li  Li5  1  0.73417700  0.99401900  0.81699600  1
  Li  Li6  1  0.76582300  0.99401900  0.31699600  1
  Li  Li7  1  0.73509400  0.60428100  0.68007900  1
  Li  Li8  1  0.40487000  0.23135200  0.21303700  1
  Li  Li9  1  0.26490600  0.39571900  0.31992100  1
  Li  Li10  1  0.90487000  0.76864800  0.28696300  1
  Li  Li11  1  0.59513000  0.76864800  0.78696300  1
  Bi  Bi12  1  0.94596000  0.16182100  0.09695100  1
  Bi  Bi13  1  0.55404000  0.16182100  0.59695100  1
  Bi  Bi14  1  0.44596000  0.83817900  0.40304900  1
  Bi  Bi15  1  0.05404000  0.83817900  0.90304900  1
  Bi  Bi16  1  0.55870600  0.34470600  0.89602300  1
  Bi  Bi17  1  0.05870600  0.65529400  0.60397700  1
  Bi  Bi18  1  0.94129400  0.34470600  0.39602300  1
  Bi  Bi19  1  0.44129400  0.65529400  0.10397700  1
  P  P20  1  0.74085300  0.57905800  0.99135100  1
  P  P21  1  0.75914700  0.57905800  0.49135100  1
  P  P22  1  0.58517800  0.26501000  0.33625800  1
  P  P23  1  0.08517800  0.73499000  0.16374200  1
  P  P24  1  0.25914700  0.42094200  0.00864900  1
  P  P25  1  0.91482200  0.26501000  0.83625800  1
  P  P26  1  0.24085300  0.42094200  0.50864900  1
  P  P27  1  0.10814500  0.05832000  0.33912500  1
  P  P28  1  0.60814500  0.94168000  0.16087500  1
  P  P29  1  0.39185500  0.05832000  0.83912500  1
  P  P30  1  0.89185500  0.94168000  0.66087500  1
  P  P31  1  0.41482200  0.73499000  0.66374200  1
  O  O32  1  0.52455400  0.04459900  0.78398300  1
  O  O33  1  0.83359400  0.58891700  0.57526200  1
  O  O34  1  0.72797600  0.36975800  0.29901000  1
  O  O35  1  0.97544600  0.04459900  0.28398300  1
  O  O36  1  0.65118400  0.42785300  0.54075800  1
  O  O37  1  0.04499800  0.38001500  0.76793600  1
  O  O38  1  0.34881600  0.57214700  0.45924200  1
  O  O39  1  0.39430100  0.23403200  0.83202300  1
  O  O40  1  0.60569900  0.76596800  0.16797700  1
  O  O41  1  0.12822800  0.43379700  0.57615800  1
  O  O42  1  0.84881600  0.42785300  0.04075800  1
  O  O43  1  0.54499800  0.61998500  0.73206400  1
  O  O44  1  0.15118400  0.57214700  0.95924200  1
  O  O45  1  0.44743200  0.79998500  0.55447900  1
  O  O46  1  0.02455400  0.95540100  0.71601700  1
  O  O47  1  0.40788900  0.89145100  0.67617800  1
  O  O48  1  0.94743200  0.20001500  0.94552100  1
  O  O49  1  0.66640600  0.58891700  0.07526200  1
  O  O50  1  0.88947700  0.09758500  0.54977500  1
  O  O51  1  0.25340900  0.05370500  0.29017500  1
  O  O52  1  0.27202400  0.63024200  0.70099000  1
  O  O53  1  0.16640600  0.41108300  0.42473800  1
  O  O54  1  0.81948400  0.75814600  0.92086800  1
  O  O55  1  0.33359400  0.41108300  0.92473800  1
  O  O56  1  0.89430100  0.76596800  0.66797700  1
  O  O57  1  0.24659100  0.05370500  0.79017500  1
  O  O58  1  0.38947700  0.90241500  0.95022500  1
  O  O59  1  0.74659100  0.94629500  0.70982500  1
  O  O60  1  0.77202400  0.36975800  0.79901000  1
  O  O61  1  0.47544600  0.95540100  0.21601700  1
  O  O62  1  0.05256800  0.79998500  0.05447900  1
  O  O63  1  0.87177200  0.56620300  0.42384200  1
  O  O64  1  0.37177200  0.43379700  0.07615800  1
  O  O65  1  0.31948400  0.24185400  0.57913200  1
  O  O66  1  0.22797600  0.63024200  0.20099000  1
  O  O67  1  0.90788900  0.10854900  0.82382200  1
  O  O68  1  0.10569900  0.23403200  0.33202300  1
  O  O69  1  0.61052300  0.09758500  0.04977500  1
  O  O70  1  0.45500200  0.38001500  0.26793600  1
  O  O71  1  0.09211100  0.89145100  0.17617800  1
  O  O72  1  0.62822800  0.56620300  0.92384200  1
  O  O73  1  0.75340900  0.94629500  0.20982500  1
  O  O74  1  0.59211100  0.10854900  0.32382200  1
  O  O75  1  0.95500200  0.61998500  0.23206400  1
  O  O76  1  0.18051600  0.24185400  0.07913200  1
  O  O77  1  0.55256800  0.20001500  0.44552100  1
  O  O78  1  0.68051600  0.75814600  0.42086800  1
  O  O79  1  0.11052300  0.90241500  0.45022500  1
