# generated using pymatgen
data_Li3Fe2(PO4)3
_symmetry_space_group_name_H-M   'P 1'
_cell_length_a   8.74862300
_cell_length_b   8.71543200
_cell_length_c   15.03112278
_cell_angle_alpha   54.75206409
_cell_angle_beta   90.00000000
_cell_angle_gamma   90.00000000
_symmetry_Int_Tables_number   1
_chemical_formula_structural   Li3Fe2(PO4)3
_chemical_formula_sum   'Li12 Fe8 P12 O48'
_cell_volume   935.97139344
_cell_formula_units_Z   4
loop_
 _symmetry_equiv_pos_site_id
 _symmetry_equiv_pos_as_xyz
  1  'x, y, z'
loop_
 _atom_site_type_symbol
 _atom_site_label
 _atom_site_symmetry_multiplicity
 _atom_site_fract_x
 _atom_site_fract_y
 _atom_site_fract_z
 _atom_site_occupancy
  Li  Li0  1  0.93661800  0.34597700  0.71246300  1
  Li  Li1  1  0.43661800  0.65402300  0.78753700  1
  Li  Li2  1  0.06338200  0.65402300  0.28753700  1
  Li  Li3  1  0.56338200  0.34597700  0.21246300  1
  Li  Li4  1  0.76848800  0.61637300  0.68574800  1
  Li  Li5  1  0.26848800  0.38362700  0.81425200  1
  Li  Li6  1  0.23151200  0.38362700  0.31425200  1
  Li  Li7  1  0.73151200  0.61637300  0.18574800  1
  Li  Li8  1  0.77126500  0.96198600  0.81835300  1
  Li  Li9  1  0.27126500  0.03801400  0.68164700  1
  Li  Li10  1  0.22873500  0.03801400  0.18164700  1
  Li  Li11  1  0.72873500  0.96198600  0.31835300  1
  Fe  Fe12  1  0.95978500  0.36456100  0.89471800  1
  Fe  Fe13  1  0.45978500  0.63543900  0.60528200  1
  Fe  Fe14  1  0.04021500  0.63543900  0.10528200  1
  Fe  Fe15  1  0.54021500  0.36456100  0.39471800  1
  Fe  Fe16  1  0.95717600  0.13490800  0.60991400  1
  Fe  Fe17  1  0.45717600  0.86509200  0.89008600  1
  Fe  Fe18  1  0.04282400  0.86509200  0.39008600  1
  Fe  Fe19  1  0.54282400  0.13490800  0.10991400  1
  P  P20  1  0.74456500  0.54201800  0.00375100  1
  P  P21  1  0.24456500  0.45798200  0.49624900  1
  P  P22  1  0.25543500  0.45798200  0.99624900  1
  P  P23  1  0.75543500  0.54201800  0.50375100  1
  P  P24  1  0.60939800  0.25351800  0.85222400  1
  P  P25  1  0.10939800  0.74648200  0.64777600  1
  P  P26  1  0.39060200  0.74648200  0.14777600  1
  P  P27  1  0.89060200  0.25351800  0.35222400  1
  P  P28  1  0.59938700  0.96097500  0.64719400  1
  P  P29  1  0.09938700  0.03902500  0.85280600  1
  P  P30  1  0.40061300  0.03902500  0.35280600  1
  P  P31  1  0.90061300  0.96097500  0.14719400  1
  O  O32  1  0.77394700  0.34046000  0.81500900  1
  O  O33  1  0.27394700  0.65954000  0.68499100  1
  O  O34  1  0.22605300  0.65954000  0.18499100  1
  O  O35  1  0.72605300  0.34046000  0.31500900  1
  O  O36  1  0.75951500  0.98935800  0.67872500  1
  O  O37  1  0.25951500  0.01064200  0.82127500  1
  O  O38  1  0.24048500  0.01064200  0.32127500  1
  O  O39  1  0.74048500  0.98935800  0.17872500  1
  O  O40  1  0.66321500  0.56299100  0.58474900  1
  O  O41  1  0.16321500  0.43700900  0.91525100  1
  O  O42  1  0.33678500  0.43700900  0.41525100  1
  O  O43  1  0.83678500  0.56299100  0.08474900  1
  O  O44  1  0.66102700  0.73129500  0.92466700  1
  O  O45  1  0.16102700  0.26870500  0.57533300  1
  O  O46  1  0.33897300  0.26870500  0.07533300  1
  O  O47  1  0.83897300  0.73129500  0.42466700  1
  O  O48  1  0.84613300  0.50685400  0.93409200  1
  O  O49  1  0.34613300  0.49314600  0.56590800  1
  O  O50  1  0.15386700  0.49314600  0.06590800  1
  O  O51  1  0.65386700  0.50685400  0.43409200  1
  O  O52  1  0.86889800  0.37973100  0.57654800  1
  O  O53  1  0.36889800  0.62026900  0.92345200  1
  O  O54  1  0.13110200  0.62026900  0.42345200  1
  O  O55  1  0.63110200  0.37973100  0.07654800  1
  O  O56  1  0.55242300  0.12399200  0.53301600  1
  O  O57  1  0.05242300  0.87600800  0.96698400  1
  O  O58  1  0.44757700  0.87600800  0.46698400  1
  O  O59  1  0.94757700  0.12399200  0.03301600  1
  O  O60  1  0.58459500  0.18129800  0.97124900  1
  O  O61  1  0.08459500  0.81870200  0.52875100  1
  O  O62  1  0.41540500  0.81870200  0.02875100  1
  O  O63  1  0.91540500  0.18129800  0.47124900  1
  O  O64  1  0.98776100  0.59012800  0.71873700  1
  O  O65  1  0.48776100  0.40987200  0.78126300  1
  O  O66  1  0.01223900  0.40987200  0.28126300  1
  O  O67  1  0.51223900  0.59012800  0.21873700  1
  O  O68  1  0.97682700  0.06521500  0.76933200  1
  O  O69  1  0.47682700  0.93478500  0.73066800  1
  O  O70  1  0.02317300  0.93478500  0.23066800  1
  O  O71  1  0.52317300  0.06521500  0.26933200  1
  O  O72  1  0.59621400  0.76960900  0.66060800  1
  O  O73  1  0.09621400  0.23039100  0.83939200  1
  O  O74  1  0.40378600  0.23039100  0.33939200  1
  O  O75  1  0.90378600  0.76960900  0.16060800  1
  O  O76  1  0.59702200  0.09275400  0.83726900  1
  O  O77  1  0.09702200  0.90724600  0.66273100  1
  O  O78  1  0.40297800  0.90724600  0.16273100  1
  O  O79  1  0.90297800  0.09275400  0.33726900  1
