# generated using pymatgen
data_Li2Cr2H4O9
_symmetry_space_group_name_H-M   'P 1'
_cell_length_a   5.46645850
_cell_length_b   5.46645850
_cell_length_c   12.97302450
_cell_angle_alpha   85.57715643
_cell_angle_beta   85.57715643
_cell_angle_gamma   91.71497828
_symmetry_Int_Tables_number   1
_chemical_formula_structural   Li2Cr2H4O9
_chemical_formula_sum   'Li4 Cr4 H8 O18'
_cell_volume   385.10566270
_cell_formula_units_Z   2
loop_
 _symmetry_equiv_pos_site_id
 _symmetry_equiv_pos_as_xyz
  1  'x, y, z'
loop_
 _atom_site_type_symbol
 _atom_site_label
 _atom_site_symmetry_multiplicity
 _atom_site_fract_x
 _atom_site_fract_y
 _atom_site_fract_z
 _atom_site_occupancy
  Li  Li0  1  0.50000000  0.00000000  0.50000000  1
  Li  Li1  1  0.00000000  0.50000000  0.00000000  1
  Li  Li2  1  0.22281000  0.77719000  0.75000000  1
  Li  Li3  1  0.77719000  0.22281000  0.25000000  1
  Cr  Cr4  1  0.73908700  0.01104300  0.85989200  1
  Cr  Cr5  1  0.01104300  0.73908700  0.35989200  1
  Cr  Cr6  1  0.26091300  0.98895700  0.14010800  1
  Cr  Cr7  1  0.98895700  0.26091300  0.64010800  1
  H  H8  1  0.41920600  0.57864500  0.59902800  1
  H  H9  1  0.57864500  0.41920600  0.09902800  1
  H  H10  1  0.58079400  0.42135500  0.40097200  1
  H  H11  1  0.42135500  0.58079400  0.90097200  1
  H  H12  1  0.63386800  0.70108200  0.65046400  1
  H  H13  1  0.70108200  0.63386800  0.15046400  1
  H  H14  1  0.36613200  0.29891800  0.34953600  1
  H  H15  1  0.29891800  0.36613200  0.84953600  1
  O  O16  1  0.96545500  0.03454500  0.75000000  1
  O  O17  1  0.03454500  0.96545500  0.25000000  1
  O  O18  1  0.46678000  0.05811700  0.81901600  1
  O  O19  1  0.05811700  0.46678000  0.31901600  1
  O  O20  1  0.53322000  0.94188300  0.18098400  1
  O  O21  1  0.94188300  0.53322000  0.68098400  1
  O  O22  1  0.74614800  0.73403800  0.91657500  1
  O  O23  1  0.73403800  0.74614800  0.41657500  1
  O  O24  1  0.25385200  0.26596200  0.08342500  1
  O  O25  1  0.26596200  0.25385200  0.58342500  1
  O  O26  1  0.78592700  0.19189300  0.56119800  1
  O  O27  1  0.19189300  0.78592700  0.06119800  1
  O  O28  1  0.21407300  0.80810700  0.43880200  1
  O  O29  1  0.80810700  0.21407300  0.93880200  1
  O  O30  1  0.46755300  0.73122000  0.62959200  1
  O  O31  1  0.73122000  0.46755300  0.12959200  1
  O  O32  1  0.53244700  0.26878000  0.37040800  1
  O  O33  1  0.26878000  0.53244700  0.87040800  1
