# generated using pymatgen
data_Li2Fe(PO3)8
_symmetry_space_group_name_H-M   'P 1'
_cell_length_a   7.25657201
_cell_length_b   7.29751237
_cell_length_c   9.77324039
_cell_angle_alpha   69.57794706
_cell_angle_beta   82.02154830
_cell_angle_gamma   109.91361930
_symmetry_Int_Tables_number   1
_chemical_formula_structural   Li2Fe(PO3)8
_chemical_formula_sum   'Li2 Fe1 P8 O24'
_cell_volume   436.08109297
_cell_formula_units_Z   1
loop_
 _symmetry_equiv_pos_site_id
 _symmetry_equiv_pos_as_xyz
  1  'x, y, z'
loop_
 _atom_site_type_symbol
 _atom_site_label
 _atom_site_symmetry_multiplicity
 _atom_site_fract_x
 _atom_site_fract_y
 _atom_site_fract_z
 _atom_site_occupancy
  Li  Li0  1  0.48793594  0.99711342  0.50532186  1
  Li  Li1  1  0.05224643  0.80243071  0.75204934  1
  Fe  Fe2  1  0.94994257  0.19485502  0.24676212  1
  P  P3  1  0.70572663  0.50790142  0.29649584  1
  P  P4  1  0.25827625  0.29186825  0.47249228  1
  P  P5  1  0.68576613  0.99268955  0.81099962  1
  P  P6  1  0.30228820  0.49634224  0.68987803  1
  P  P7  1  0.72453736  0.27205637  0.98141906  1
  P  P8  1  0.26320841  0.73087116  0.02782560  1
  P  P9  1  0.75282699  0.70560712  0.52071069  1
  P  P10  1  0.30437270  0.00310741  0.20282780  1
  O  O11  1  0.19096092  0.86723086  0.91542306  1
  O  O12  1  0.48714601  0.20547686  0.06126030  1
  O  O13  1  0.72683780  0.89849297  0.41346403  1
  O  O14  1  0.73408035  0.30524681  0.31140255  1
  O  O15  1  0.76982299  0.55456716  0.43608646  1
  O  O16  1  0.23144448  0.44464392  0.55457714  1
  O  O17  1  0.88101543  0.96036616  0.80818062  1
  O  O18  1  0.92144220  0.74354496  0.59177072  1
  O  O19  1  0.81652404  0.70202387  0.14802263  1
  O  O20  1  0.50121678  0.78776288  0.94667927  1
  O  O21  1  0.46516968  0.45759468  0.33104943  1
  O  O22  1  0.08361871  0.25206383  0.40390421  1
  O  O23  1  0.11490988  0.04513915  0.19450858  1
  O  O24  1  0.28562066  0.79802233  0.16775257  1
  O  O25  1  0.65009505  0.03552042  0.65731333  1
  O  O26  1  0.18926552  0.30712159  0.84474574  1
  O  O27  1  0.80744919  0.14277529  0.09252992  1
  O  O28  1  0.35510730  0.96293405  0.34914966  1
  O  O29  1  0.27639715  0.69423680  0.68442494  1
  O  O30  1  0.83390836  0.51110067  0.90864348  1
  O  O31  1  0.15713554  0.48902177  0.09657230  1
  O  O32  1  0.69944752  0.19260080  0.84706792  1
  O  O33  1  0.53998511  0.54213862  0.65413334  1
  O  O34  1  0.29235173  0.11176288  0.57860958  1
