# generated using pymatgen
data_NaLiH4C2O5
_symmetry_space_group_name_H-M   'P 1'
_cell_length_a   7.13992900
_cell_length_b   8.30498323
_cell_length_c   10.50438274
_cell_angle_alpha   109.56122058
_cell_angle_beta   99.40892665
_cell_angle_gamma   90.42197204
_symmetry_Int_Tables_number   1
_chemical_formula_structural   NaLiH4C2O5
_chemical_formula_sum   'Na4 Li4 H16 C8 O20'
_cell_volume   577.73886686
_cell_formula_units_Z   4
loop_
 _symmetry_equiv_pos_site_id
 _symmetry_equiv_pos_as_xyz
  1  'x, y, z'
loop_
 _atom_site_type_symbol
 _atom_site_label
 _atom_site_symmetry_multiplicity
 _atom_site_fract_x
 _atom_site_fract_y
 _atom_site_fract_z
 _atom_site_occupancy
  Na  Na0  1  0.40753900  0.13856000  0.64507600  1
  Na  Na1  1  0.59246100  0.86144000  0.35492400  1
  Na  Na2  1  0.91006300  0.14614000  0.64728500  1
  Na  Na3  1  0.08993700  0.85386000  0.35271500  1
  Li  Li4  1  0.21615600  0.43878600  0.86288500  1
  Li  Li5  1  0.78384400  0.56121400  0.13711500  1
  Li  Li6  1  0.69409900  0.86783500  0.79462300  1
  Li  Li7  1  0.30590100  0.13216500  0.20537700  1
  H  H8  1  0.54846200  0.46552700  0.82688700  1
  H  H9  1  0.45153800  0.53447300  0.17311300  1
  H  H10  1  0.43836500  0.55799900  0.73001600  1
  H  H11  1  0.56163500  0.44200100  0.26998400  1
  H  H12  1  0.86864900  0.46484300  0.83579200  1
  H  H13  1  0.13135100  0.53515700  0.16420800  1
  H  H14  1  0.92507900  0.56622800  0.74047000  1
  H  H15  1  0.07492100  0.43377200  0.25953000  1
  H  H16  1  0.03417500  0.38635000  0.49945800  1
  H  H17  1  0.96582500  0.61365000  0.50054200  1
  H  H18  1  0.36500800  0.58729300  0.48107700  1
  H  H19  1  0.63499200  0.41270700  0.51892300  1
  H  H20  1  0.20249700  0.96920700  0.86586200  1
  H  H21  1  0.79750300  0.03079300  0.13413800  1
  H  H22  1  0.72928700  0.19842100  0.01692000  1
  H  H23  1  0.27071300  0.80157900  0.98308000  1
  C  C24  1  0.09137600  0.26754500  0.43547500  1
  C  C25  1  0.90862400  0.73245500  0.56452500  1
  C  C26  1  0.39631100  0.71885800  0.55743200  1
  C  C27  1  0.60368900  0.28114200  0.44256800  1
  C  C28  1  0.22194200  0.11169100  0.90880700  1
  C  C29  1  0.77805800  0.88830900  0.09119300  1
  C  C30  1  0.72302200  0.23619700  0.92481300  1
  C  C31  1  0.27697800  0.76380300  0.07518700  1
  O  O32  1  0.12234800  0.15132600  0.48775700  1
  O  O33  1  0.87765200  0.84867400  0.51224300  1
  O  O34  1  0.11843800  0.26247200  0.31785600  1
  O  O35  1  0.88156200  0.73752800  0.68214400  1
  O  O36  1  0.37859000  0.84137300  0.51098500  1
  O  O37  1  0.62141000  0.15862700  0.48901500  1
  O  O38  1  0.45026200  0.73224600  0.68226500  1
  O  O39  1  0.54973800  0.26775400  0.31773500  1
  O  O40  1  0.20047900  0.18827900  0.82050300  1
  O  O41  1  0.79952100  0.81172100  0.17949700  1
  O  O42  1  0.26207200  0.18237300  0.03681600  1
  O  O43  1  0.73792800  0.81762700  0.96318400  1
  O  O44  1  0.69976900  0.11805100  0.80861600  1
  O  O45  1  0.30023100  0.88194900  0.19138400  1
  O  O46  1  0.73830600  0.39666900  0.94624800  1
  O  O47  1  0.26169400  0.60333100  0.05375200  1
  O  O48  1  0.42988000  0.45684600  0.76156500  1
  O  O49  1  0.57012000  0.54315400  0.23843500  1
  O  O50  1  0.95376400  0.46526800  0.77027000  1
  O  O51  1  0.04623600  0.53473200  0.22973000  1
