# generated using pymatgen
data_LiTi2O4
_symmetry_space_group_name_H-M   'P 1'
_cell_length_a   5.34922854
_cell_length_b   5.34922854
_cell_length_c   5.34922854
_cell_angle_alpha   137.95018124
_cell_angle_beta   135.33659134
_cell_angle_gamma   63.01152411
_symmetry_Int_Tables_number   1
_chemical_formula_structural   LiTi2O4
_chemical_formula_sum   'Li1 Ti2 O4'
_cell_volume   71.16070997
_cell_formula_units_Z   1
loop_
 _symmetry_equiv_pos_site_id
 _symmetry_equiv_pos_as_xyz
  1  'x, y, z'
loop_
 _atom_site_type_symbol
 _atom_site_label
 _atom_site_symmetry_multiplicity
 _atom_site_fract_x
 _atom_site_fract_y
 _atom_site_fract_z
 _atom_site_occupancy
  Li  Li0  1  0.67626100  0.67626100  0.00000000  1
  Ti  Ti1  1  0.38717200  0.88717200  0.50000000  1
  Ti  Ti2  1  0.10866900  0.10866900  0.00000000  1
  O  O3  1  0.34434300  0.34434300  0.00000000  1
  O  O4  1  0.89382800  0.89382800  0.00000000  1
  O  O5  1  0.60461400  0.10461400  0.50000000  1
  O  O6  1  0.15276300  0.65276300  0.50000000  1
