# generated using pymatgen
data_Li2FeP2O7
_symmetry_space_group_name_H-M   'P 1'
_cell_length_a   5.10030094
_cell_length_b   7.05176959
_cell_length_c   8.28774985
_cell_angle_alpha   66.83357932
_cell_angle_beta   87.81989505
_cell_angle_gamma   89.08807579
_symmetry_Int_Tables_number   1
_chemical_formula_structural   Li2FeP2O7
_chemical_formula_sum   'Li4 Fe2 P4 O14'
_cell_volume   273.84468840
_cell_formula_units_Z   2
loop_
 _symmetry_equiv_pos_site_id
 _symmetry_equiv_pos_as_xyz
  1  'x, y, z'
loop_
 _atom_site_type_symbol
 _atom_site_label
 _atom_site_symmetry_multiplicity
 _atom_site_fract_x
 _atom_site_fract_y
 _atom_site_fract_z
 _atom_site_occupancy
  Li  Li0  1  0.23012000  0.80177300  0.56516100  1
  Li  Li1  1  0.76985300  0.19836000  0.43490400  1
  Li  Li2  1  0.29380000  0.83982400  0.99519200  1
  Li  Li3  1  0.70635400  0.16010000  0.00474100  1
  Fe  Fe4  1  0.23471900  0.23735300  0.71989400  1
  Fe  Fe5  1  0.76520800  0.76281600  0.28011600  1
  P  P6  1  0.21863000  0.11612200  0.17879000  1
  P  P7  1  0.78148100  0.88381100  0.82118200  1
  P  P8  1  0.71740400  0.55069700  0.69802100  1
  P  P9  1  0.28248600  0.44931300  0.30199500  1
  O  O10  1  0.07914800  0.91699400  0.78201800  1
  O  O11  1  0.92098200  0.08286900  0.21800900  1
  O  O12  1  0.28253600  0.34993200  0.15485900  1
  O  O13  1  0.71744900  0.64997300  0.84521100  1
  O  O14  1  0.57313300  0.47281100  0.33173600  1
  O  O15  1  0.42672500  0.52729600  0.66828600  1
  O  O16  1  0.61326800  0.03425900  0.67740200  1
  O  O17  1  0.38686100  0.96563100  0.32253600  1
  O  O18  1  0.85907000  0.34500900  0.78464300  1
  O  O19  1  0.14074700  0.65495000  0.21530300  1
  O  O20  1  0.69748100  0.87550500  0.00469500  1
  O  O21  1  0.30262500  0.12454000  0.99523700  1
  O  O22  1  0.13461900  0.29451500  0.46454400  1
  O  O23  1  0.86530200  0.70554600  0.53552600  1
