# generated using pymatgen
data_Li3In2(PO4)3
_symmetry_space_group_name_H-M   'P 1'
_cell_length_a   9.30945021
_cell_length_b   9.30945021
_cell_length_c   9.30944971
_cell_angle_alpha   55.37587232
_cell_angle_beta   55.37587232
_cell_angle_gamma   55.37586830
_symmetry_Int_Tables_number   1
_chemical_formula_structural   Li3In2(PO4)3
_chemical_formula_sum   'Li6 In4 P6 O24'
_cell_volume   509.21800305
_cell_formula_units_Z   2
loop_
 _symmetry_equiv_pos_site_id
 _symmetry_equiv_pos_as_xyz
  1  'x, y, z'
loop_
 _atom_site_type_symbol
 _atom_site_label
 _atom_site_symmetry_multiplicity
 _atom_site_fract_x
 _atom_site_fract_y
 _atom_site_fract_z
 _atom_site_occupancy
  Li  Li0  1  0.66417600  0.92751600  0.26717400  1
  Li  Li1  1  0.26717400  0.66417600  0.92751600  1
  Li  Li2  1  0.92751600  0.26717400  0.66417600  1
  Li  Li3  1  0.33582400  0.07248400  0.73282600  1
  Li  Li4  1  0.73282600  0.33582400  0.07248400  1
  Li  Li5  1  0.07248400  0.73282600  0.33582400  1
  In  In6  1  0.34551300  0.34551300  0.34551300  1
  In  In7  1  0.65448700  0.65448700  0.65448700  1
  In  In8  1  0.85341900  0.85341900  0.85341900  1
  In  In9  1  0.14658100  0.14658100  0.14658100  1
  P  P10  1  0.74958000  0.04603200  0.45137700  1
  P  P11  1  0.45137700  0.74958000  0.04603200  1
  P  P12  1  0.04603200  0.45137700  0.74958000  1
  P  P13  1  0.25042000  0.95396800  0.54862300  1
  P  P14  1  0.54862300  0.25042000  0.95396800  1
  P  P15  1  0.95396800  0.54862300  0.25042000  1
  O  O16  1  0.13793300  0.84790800  0.74980400  1
  O  O17  1  0.74980400  0.13793300  0.84790800  1
  O  O18  1  0.84790800  0.74980400  0.13793300  1
  O  O19  1  0.86206700  0.15209200  0.25019600  1
  O  O20  1  0.99534200  0.40313500  0.19221200  1
  O  O21  1  0.40313500  0.19221200  0.99534200  1
  O  O22  1  0.19221200  0.99534200  0.40313500  1
  O  O23  1  0.00465800  0.59686500  0.80778800  1
  O  O24  1  0.59686500  0.80778800  0.00465800  1
  O  O25  1  0.80778800  0.00465800  0.59686500  1
  O  O26  1  0.85709200  0.44283100  0.79571500  1
  O  O27  1  0.44283100  0.79571500  0.85709200  1
  O  O28  1  0.79571500  0.85709200  0.44283100  1
  O  O29  1  0.14290800  0.55716900  0.20428500  1
  O  O30  1  0.55716900  0.20428500  0.14290800  1
  O  O31  1  0.20428500  0.14290800  0.55716900  1
  O  O32  1  0.84263800  0.50267400  0.46445900  1
  O  O33  1  0.50267400  0.46445900  0.84263800  1
  O  O34  1  0.46445900  0.84263800  0.50267400  1
  O  O35  1  0.15736200  0.49732600  0.53554100  1
  O  O36  1  0.49732600  0.53554100  0.15736200  1
  O  O37  1  0.53554100  0.15736200  0.49732600  1
  O  O38  1  0.15209200  0.25019600  0.86206700  1
  O  O39  1  0.25019600  0.86206700  0.15209200  1
