# generated using pymatgen
data_Li2UBr6
_symmetry_space_group_name_H-M   'P 1'
_cell_length_a   24.11177500
_cell_length_b   7.11379800
_cell_length_c   7.15687332
_cell_angle_alpha   69.29616313
_cell_angle_beta   90.00000000
_cell_angle_gamma   90.00000000
_symmetry_Int_Tables_number   1
_chemical_formula_structural   Li2UBr6
_chemical_formula_sum   'Li8 U4 Br24'
_cell_volume   1148.31452610
_cell_formula_units_Z   4
loop_
 _symmetry_equiv_pos_site_id
 _symmetry_equiv_pos_as_xyz
  1  'x, y, z'
loop_
 _atom_site_type_symbol
 _atom_site_label
 _atom_site_symmetry_multiplicity
 _atom_site_fract_x
 _atom_site_fract_y
 _atom_site_fract_z
 _atom_site_occupancy
  Li  Li0  1  0.08513700  0.00000000  0.50000000  1
  Li  Li1  1  0.16625200  0.00000000  0.00000000  1
  Li  Li2  1  0.58329000  0.00000000  0.50000000  1
  Li  Li3  1  0.42210800  0.50000000  0.00000000  1
  Li  Li4  1  0.32886100  0.50000000  0.50000000  1
  Li  Li5  1  0.67082100  0.50000000  0.50000000  1
  Li  Li6  1  0.92017000  0.50000000  0.00000000  1
  Li  Li7  1  0.82831000  0.50000000  0.50000000  1
  U  U8  1  0.25115600  0.00000000  0.50000000  1
  U  U9  1  0.50030700  0.00000000  0.00000000  1
  U  U10  1  0.75086700  0.00000000  0.50000000  1
  U  U11  1  0.99872800  0.00000000  0.00000000  1
  Br  Br12  1  0.25033800  0.76645100  0.25635000  1
  Br  Br13  1  0.08340500  0.77194500  0.24909500  1
  Br  Br14  1  0.49939900  0.76791600  0.75701100  1
  Br  Br15  1  0.16730800  0.76949700  0.74670100  1
  Br  Br16  1  0.33172200  0.73375200  0.72476300  1
  Br  Br17  1  0.08340500  0.22805500  0.75090500  1
  Br  Br18  1  0.74989000  0.75372300  0.26550200  1
  Br  Br19  1  0.41824600  0.73310300  0.22250500  1
  Br  Br20  1  0.58090900  0.76529600  0.25870300  1
  Br  Br21  1  0.16730800  0.23050300  0.25329900  1
  Br  Br22  1  0.33172200  0.26624800  0.27523700  1
  Br  Br23  1  0.99977000  0.76870800  0.75681800  1
  Br  Br24  1  0.99977000  0.23129200  0.24318200  1
  Br  Br25  1  0.66594800  0.74586000  0.72219600  1
  Br  Br26  1  0.83197300  0.73637500  0.72910600  1
  Br  Br27  1  0.41824600  0.26689700  0.77749500  1
  Br  Br28  1  0.58090900  0.23470400  0.74129700  1
  Br  Br29  1  0.25033800  0.23354900  0.74365000  1
  Br  Br30  1  0.91808900  0.73084700  0.22617300  1
  Br  Br31  1  0.66594800  0.25414000  0.27780400  1
  Br  Br32  1  0.83197300  0.26362500  0.27089400  1
  Br  Br33  1  0.49939900  0.23208400  0.24298900  1
  Br  Br34  1  0.91808900  0.26915300  0.77382700  1
  Br  Br35  1  0.74989000  0.24627700  0.73449800  1
