# generated using pymatgen
data_Li4Mn13O24
_symmetry_space_group_name_H-M   'P 1'
_cell_length_a   6.03020000
_cell_length_b   8.34405788
_cell_length_c   10.29110657
_cell_angle_alpha   113.56745985
_cell_angle_beta   105.44286358
_cell_angle_gamma   90.47345449
_symmetry_Int_Tables_number   1
_chemical_formula_structural   Li4Mn13O24
_chemical_formula_sum   'Li4 Mn13 O24'
_cell_volume   453.61105359
_cell_formula_units_Z   1
loop_
 _symmetry_equiv_pos_site_id
 _symmetry_equiv_pos_as_xyz
  1  'x, y, z'
loop_
 _atom_site_type_symbol
 _atom_site_label
 _atom_site_symmetry_multiplicity
 _atom_site_fract_x
 _atom_site_fract_y
 _atom_site_fract_z
 _atom_site_occupancy
  Li  Li0  1  0.07545200  0.20739800  0.66330100  1
  Li  Li1  1  0.41629900  0.54365300  0.33572900  1
  Li  Li2  1  0.59040800  0.45687900  0.66771400  1
  Li  Li3  1  0.91801700  0.78733300  0.33047900  1
  Mn  Mn4  1  0.16755500  0.66126900  0.83419600  1
  Mn  Mn5  1  0.00174900  0.49929600  0.00035500  1
  Mn  Mn6  1  0.82707500  0.83110100  0.65983400  1
  Mn  Mn7  1  0.48720300  0.99061900  0.48908300  1
  Mn  Mn8  1  0.66525600  0.16577300  0.82373100  1
  Mn  Mn9  1  0.50116000  0.49846100  0.99827600  1
  Mn  Mn10  1  0.33058500  0.83222700  0.65852900  1
  Mn  Mn11  1  0.84467700  0.34369700  0.17645000  1
  Mn  Mn12  1  0.00765400  0.50124500  0.50739600  1
  Mn  Mn13  1  0.67431300  0.17118400  0.33942700  1
  Mn  Mn14  1  0.32986400  0.82586600  0.16443600  1
  Mn  Mn15  1  0.16961900  0.17379500  0.34058800  1
  Mn  Mn16  1  0.25468300  0.12058800  0.99968900  1
  O  O17  1  0.45959700  0.72757500  0.99685100  1
  O  O18  1  0.15914800  0.43559300  0.84800200  1
  O  O19  1  0.03683600  0.73281400  0.00086000  1
  O  O20  1  0.78806200  0.06409100  0.64745700  1
  O  O21  1  0.64013800  0.91928700  0.79716900  1
  O  O22  1  0.48198300  0.76978700  0.50430300  1
  O  O23  1  0.69723200  0.41197500  0.85056700  1
  O  O24  1  0.33555000  0.05734700  0.64421600  1
  O  O25  1  0.30568000  0.59688600  0.66905300  1
  O  O26  1  0.16187500  0.41824200  0.35700900  1
  O  O27  1  0.17916900  0.89103200  0.81801900  1
  O  O28  1  0.99814300  0.27287800  0.50122900  1
  O  O29  1  0.85666700  0.12425100  0.20262700  1
  O  O30  1  0.01582300  0.74560700  0.52194700  1
  O  O31  1  0.87183100  0.59912000  0.67366800  1
  O  O32  1  0.71209400  0.42432000  0.35136100  1
  O  O33  1  0.62411100  0.91494100  0.32566400  1
  O  O34  1  0.30728400  0.58305200  0.14765600  1
  O  O35  1  0.48766800  0.22049800  0.47713900  1
  O  O36  1  0.34090800  0.06512500  0.17573400  1
  O  O37  1  0.19579200  0.92408400  0.32931400  1
  O  O38  1  0.99038200  0.26821900  0.00639900  1
  O  O39  1  0.84083800  0.56151100  0.15031200  1
  O  O40  1  0.52067300  0.26241800  0.99131100  1
