# generated using pymatgen
data_Li3Bi2(PO4)3
_symmetry_space_group_name_H-M   'P 1'
_cell_length_a   8.87513384
_cell_length_b   8.87513384
_cell_length_c   9.25401976
_cell_angle_alpha   63.64111874
_cell_angle_beta   63.64111874
_cell_angle_gamma   63.32593937
_symmetry_Int_Tables_number   1
_chemical_formula_structural   Li3Bi2(PO4)3
_chemical_formula_sum   'Li6 Bi4 P6 O24'
_cell_volume   555.70615230
_cell_formula_units_Z   2
loop_
 _symmetry_equiv_pos_site_id
 _symmetry_equiv_pos_as_xyz
  1  'x, y, z'
loop_
 _atom_site_type_symbol
 _atom_site_label
 _atom_site_symmetry_multiplicity
 _atom_site_fract_x
 _atom_site_fract_y
 _atom_site_fract_z
 _atom_site_occupancy
  Li  Li0  1  0.10817900  0.89182100  0.25000000  1
  Li  Li1  1  0.53915700  0.82195200  0.21028900  1
  Li  Li2  1  0.82195200  0.53915700  0.71028900  1
  Li  Li3  1  0.46084300  0.17804800  0.78971100  1
  Li  Li4  1  0.17804800  0.46084300  0.28971100  1
  Li  Li5  1  0.89182100  0.10817900  0.75000000  1
  Bi  Bi6  1  0.84747400  0.33751100  0.35691800  1
  Bi  Bi7  1  0.15252600  0.66248900  0.64308200  1
  Bi  Bi8  1  0.33751100  0.84747400  0.85691800  1
  Bi  Bi9  1  0.66248900  0.15252600  0.14308200  1
  P  P10  1  0.75325600  0.95674600  0.57555400  1
  P  P11  1  0.24674400  0.04325400  0.42444600  1
  P  P12  1  0.58251400  0.41748600  0.75000000  1
  P  P13  1  0.95674600  0.75325600  0.07555400  1
  P  P14  1  0.04325400  0.24674400  0.92444600  1
  P  P15  1  0.41748600  0.58251400  0.25000000  1
  O  O16  1  0.92683400  0.17889400  0.89798200  1
  O  O17  1  0.23232300  0.59501900  0.39235500  1
  O  O18  1  0.40498100  0.76767700  0.10764500  1
  O  O19  1  0.76767700  0.40498100  0.60764500  1
  O  O20  1  0.02709700  0.76021900  0.88820800  1
  O  O21  1  0.82110600  0.07316600  0.60201800  1
  O  O22  1  0.76021900  0.02709700  0.38820800  1
  O  O23  1  0.23978100  0.97290300  0.61179200  1
  O  O24  1  0.24093700  0.12775500  0.88200300  1
  O  O25  1  0.97290300  0.23978100  0.11179200  1
  O  O26  1  0.44546100  0.43518200  0.18577400  1
  O  O27  1  0.17889400  0.92683400  0.39798200  1
  O  O28  1  0.56175100  0.97273500  0.70057600  1
  O  O29  1  0.43824900  0.02726500  0.29942400  1
  O  O30  1  0.02726500  0.43824900  0.79942400  1
  O  O31  1  0.55453900  0.56481800  0.81422600  1
  O  O32  1  0.12775500  0.24093700  0.38200300  1
  O  O33  1  0.97273500  0.56175100  0.20057600  1
  O  O34  1  0.87224500  0.75906300  0.61799700  1
  O  O35  1  0.59501900  0.23232300  0.89235500  1
  O  O36  1  0.56481800  0.55453900  0.31422600  1
  O  O37  1  0.43518200  0.44546100  0.68577400  1
  O  O38  1  0.75906300  0.87224500  0.11799700  1
  O  O39  1  0.07316600  0.82110600  0.10201800  1
