# generated using pymatgen
data_RbLiSO4
_symmetry_space_group_name_H-M   'P 1'
_cell_length_a   8.89412400
_cell_length_b   5.36733100
_cell_length_c   10.71178460
_cell_angle_alpha   59.91862008
_cell_angle_beta   90.00000000
_cell_angle_gamma   90.00000000
_symmetry_Int_Tables_number   1
_chemical_formula_structural   RbLiSO4
_chemical_formula_sum   'Rb4 Li4 S4 O16'
_cell_volume   442.48372248
_cell_formula_units_Z   4
loop_
 _symmetry_equiv_pos_site_id
 _symmetry_equiv_pos_as_xyz
  1  'x, y, z'
loop_
 _atom_site_type_symbol
 _atom_site_label
 _atom_site_symmetry_multiplicity
 _atom_site_fract_x
 _atom_site_fract_y
 _atom_site_fract_z
 _atom_site_occupancy
  Rb  Rb0  1  0.50438800  0.99066800  0.77561600  1
  Rb  Rb1  1  0.00438800  0.00933200  0.72438400  1
  Rb  Rb2  1  0.49561200  0.00933200  0.22438400  1
  Rb  Rb3  1  0.99561200  0.99066800  0.27561600  1
  Li  Li4  1  0.67857700  0.33333800  0.40970300  1
  Li  Li5  1  0.82142300  0.33333800  0.90970300  1
  Li  Li6  1  0.32142300  0.66666200  0.59029700  1
  Li  Li7  1  0.17857700  0.66666200  0.09029700  1
  S  S8  1  0.70642600  0.66836100  0.57728300  1
  S  S9  1  0.20642600  0.33163900  0.92271700  1
  S  S10  1  0.29357400  0.33163900  0.42271700  1
  S  S11  1  0.79357400  0.66836100  0.07728300  1
  O  O12  1  0.74759300  0.62874700  0.45286500  1
  O  O13  1  0.75240700  0.62874700  0.95286500  1
  O  O14  1  0.25240700  0.37125300  0.54713500  1
  O  O15  1  0.24759300  0.37125300  0.04713500  1
  O  O16  1  0.77454200  0.43137900  0.71164200  1
  O  O17  1  0.27454200  0.56862100  0.78835800  1
  O  O18  1  0.22545800  0.56862100  0.28835800  1
  O  O19  1  0.72545800  0.43137900  0.21164200  1
  O  O20  1  0.95958500  0.66087800  0.09374200  1
  O  O21  1  0.45958500  0.33912200  0.40625800  1
  O  O22  1  0.04041500  0.33912200  0.90625800  1
  O  O23  1  0.54041500  0.66087800  0.59374200  1
  O  O24  1  0.73465600  0.95292100  0.04943700  1
  O  O25  1  0.23465600  0.04707900  0.45056300  1
  O  O26  1  0.26534400  0.04707900  0.95056300  1
  O  O27  1  0.76534400  0.95292100  0.54943700  1
