# generated using pymatgen
data_LiBiP2O7
_symmetry_space_group_name_H-M   'P 1'
_cell_length_a   6.78392370
_cell_length_b   6.78392370
_cell_length_c   13.94764158
_cell_angle_alpha   75.46476669
_cell_angle_beta   75.46476669
_cell_angle_gamma   82.96500499
_symmetry_Int_Tables_number   1
_chemical_formula_structural   LiBiP2O7
_chemical_formula_sum   'Li4 Bi4 P8 O28'
_cell_volume   600.24781904
_cell_formula_units_Z   4
loop_
 _symmetry_equiv_pos_site_id
 _symmetry_equiv_pos_as_xyz
  1  'x, y, z'
loop_
 _atom_site_type_symbol
 _atom_site_label
 _atom_site_symmetry_multiplicity
 _atom_site_fract_x
 _atom_site_fract_y
 _atom_site_fract_z
 _atom_site_occupancy
  Li  Li0  1  0.99527900  0.77066300  0.62462000  1
  Li  Li1  1  0.77066300  0.99527900  0.12462000  1
  Li  Li2  1  0.22933700  0.00472100  0.87538000  1
  Li  Li3  1  0.00472100  0.22933700  0.37538000  1
  Bi  Bi4  1  0.86118700  0.39505200  0.85931200  1
  Bi  Bi5  1  0.13881300  0.60494800  0.14068800  1
  Bi  Bi6  1  0.39505200  0.86118700  0.35931200  1
  Bi  Bi7  1  0.60494800  0.13881300  0.64068800  1
  P  P8  1  0.41517100  0.32133200  0.42797400  1
  P  P9  1  0.32133200  0.41517100  0.92797400  1
  P  P10  1  0.58482900  0.67866800  0.57202600  1
  P  P11  1  0.11069200  0.25229700  0.62888700  1
  P  P12  1  0.67866800  0.58482900  0.07202600  1
  P  P13  1  0.25229700  0.11069200  0.12888700  1
  P  P14  1  0.88930800  0.74770300  0.37111300  1
  P  P15  1  0.74770300  0.88930800  0.87111300  1
  O  O16  1  0.19463100  0.29909400  0.88559300  1
  O  O17  1  0.12319100  0.97646400  0.09725500  1
  O  O18  1  0.98997500  0.42348300  0.67784500  1
  O  O19  1  0.20244800  0.59947800  0.96701100  1
  O  O20  1  0.01002500  0.57651700  0.32215500  1
  O  O21  1  0.11386200  0.25111700  0.19356300  1
  O  O22  1  0.40052200  0.79755200  0.53298900  1
  O  O23  1  0.79755200  0.40052200  0.03298900  1
  O  O24  1  0.47098800  0.52411500  0.35622300  1
  O  O25  1  0.74888300  0.88613800  0.30643700  1
  O  O26  1  0.29909400  0.19463100  0.38559300  1
  O  O27  1  0.97646400  0.12319100  0.59725500  1
  O  O28  1  0.70090600  0.80536900  0.61440700  1
  O  O29  1  0.87680900  0.02353600  0.90274500  1
  O  O30  1  0.52411500  0.47098800  0.85622300  1
  O  O31  1  0.52901200  0.47588500  0.64377700  1
  O  O32  1  0.38079700  0.25175800  0.02624500  1
  O  O33  1  0.25175800  0.38079700  0.52624500  1
  O  O34  1  0.02353600  0.87680900  0.40274500  1
  O  O35  1  0.42348300  0.98997500  0.17784500  1
  O  O36  1  0.25111700  0.11386200  0.69356300  1
  O  O37  1  0.74824200  0.61920300  0.47375500  1
  O  O38  1  0.80536900  0.70090600  0.11440700  1
  O  O39  1  0.61920300  0.74824200  0.97375500  1
  O  O40  1  0.59947800  0.20244800  0.46701100  1
  O  O41  1  0.57651700  0.01002500  0.82215500  1
  O  O42  1  0.47588500  0.52901200  0.14377700  1
  O  O43  1  0.88613800  0.74888300  0.80643700  1
