# generated using pymatgen
data_Li11Sc7Ti(PO4)12
_symmetry_space_group_name_H-M   'P 1'
_cell_length_a   9.49872600
_cell_length_b   9.95544476
_cell_length_c   10.18287401
_cell_angle_alpha   89.96207261
_cell_angle_beta   92.50878192
_cell_angle_gamma   96.16086946
_symmetry_Int_Tables_number   1
_chemical_formula_structural   Li11Sc7Ti(PO4)12
_chemical_formula_sum   'Li11 Sc7 Ti1 P12 O48'
_cell_volume   956.44678006
_cell_formula_units_Z   1
loop_
 _symmetry_equiv_pos_site_id
 _symmetry_equiv_pos_as_xyz
  1  'x, y, z'
loop_
 _atom_site_type_symbol
 _atom_site_label
 _atom_site_symmetry_multiplicity
 _atom_site_fract_x
 _atom_site_fract_y
 _atom_site_fract_z
 _atom_site_occupancy
  Li  Li0  1  0.21939400  0.26960800  0.75126200  1
  Li  Li1  1  0.93646000  0.17779300  0.83696500  1
  Li  Li2  1  0.34916400  0.65066300  0.69201900  1
  Li  Li3  1  0.64057300  0.69692700  0.74671000  1
  Li  Li4  1  0.24237300  0.43130200  0.54122300  1
  Li  Li5  1  0.63446800  0.60936500  0.51957800  1
  Li  Li6  1  0.33270800  0.25068000  0.25486000  1
  Li  Li7  1  0.69392200  0.20576700  0.33579300  1
  Li  Li8  1  0.74427100  0.76592800  0.21562000  1
  Li  Li9  1  0.18817600  0.78064000  0.13527900  1
  Li  Li10  1  0.76308300  0.15172400  0.04875200  1
  Sc  Sc11  1  0.98166100  0.63962200  0.74923000  1
  Sc  Sc12  1  0.51832800  0.41287500  0.77993400  1
  Sc  Sc13  1  0.57512000  0.05601300  0.75886900  1
  Sc  Sc14  1  0.44915800  0.95920000  0.25435600  1
  Sc  Sc15  1  0.59359500  0.51410400  0.25130200  1
  Sc  Sc16  1  0.01571800  0.08590700  0.28492800  1
  Sc  Sc17  1  0.98952900  0.41736600  0.26022300  1
  Ti  Ti18  1  0.20038700  0.94640900  0.74477600  1
  P  P19  1  0.50333600  0.74940700  0.00130200  1
  P  P20  1  0.79298300  0.87389000  0.92124200  1
  P  P21  1  0.24405400  0.53499300  0.97631400  1
  P  P22  1  0.75731000  0.35391400  0.58775400  1
  P  P23  1  0.32792000  0.13378400  0.49273900  1
  P  P24  1  0.94982500  0.25587100  0.54418300  1
  P  P25  1  0.00896900  0.83551600  0.49523200  1
  P  P26  1  0.70099300  0.90847600  0.51952600  1
  P  P27  1  0.26575100  0.64696900  0.37465900  1
  P  P28  1  0.75951000  0.41126800  0.00446000  1
  P  P29  1  0.19185300  0.08811300  0.02934000  1
  P  P30  1  0.42133100  0.14969000  0.99282900  1
  O  O31  1  0.57258200  0.12273700  0.94710100  1
  O  O32  1  0.38780900  0.27657400  0.91206700  1
  O  O33  1  0.84502600  0.30723200  0.94803000  1
  O  O34  1  0.11824100  0.06244000  0.88765800  1
  O  O35  1  0.61568800  0.82807500  0.90063000  1
  O  O36  1  0.40151400  0.66472000  0.90155600  1
  O  O37  1  0.38104100  0.99057800  0.81629900  1
  O  O38  1  0.69416100  0.49815300  0.89829700  1
  O  O39  1  0.84633400  0.77134100  0.82570400  1
  O  O40  1  0.16010700  0.77416300  0.77821000  1
  O  O41  1  0.15639900  0.49642500  0.82724300  1
  O  O42  1  0.79493300  0.01819600  0.86636000  1
  O  O43  1  0.52278000  0.55302900  0.66543500  1
  O  O44  1  0.33265900  0.00484100  0.57775000  1
  O  O45  1  0.64618600  0.27659200  0.68353100  1
  O  O46  1  0.32939100  0.25813200  0.58283600  1
  O  O47  1  0.26798100  0.46282000  0.73723100  1
  O  O48  1  0.70846700  0.03212000  0.60839900  1
  O  O49  1  0.82711600  0.48201100  0.65967800  1
  O  O50  1  0.02635500  0.23618100  0.67623600  1
  O  O51  1  0.61107800  0.79488000  0.58269900  1
  O  O52  1  0.25692900  0.65829600  0.52130800  1
  O  O53  1  0.97141400  0.69689600  0.56685100  1
  O  O54  1  0.05462800  0.94244200  0.60827200  1
  O  O55  1  0.03257100  0.36781900  0.45875700  1
  O  O56  1  0.91412800  0.13063900  0.45621300  1
  O  O57  1  0.68854900  0.37537100  0.44967500  1
  O  O58  1  0.44951300  0.14036800  0.39518600  1
  O  O59  1  0.83867200  0.87156300  0.45931800  1
  O  O60  1  0.13280900  0.58831800  0.29551900  1
  O  O61  1  0.19568000  0.12761500  0.39071700  1
  O  O62  1  0.83287400  0.54225700  0.22871600  1
  O  O63  1  0.32514900  0.77862100  0.30589400  1
  O  O64  1  0.64903900  0.66395900  0.34970200  1
  O  O65  1  0.36854400  0.52100100  0.37666200  1
  O  O66  1  0.63205700  0.97990700  0.38604300  1
  O  O67  1  0.15830000  0.97059900  0.12830800  1
  O  O68  1  0.88321600  0.50985800  0.09358300  1
  O  O69  1  0.15196300  0.21402100  0.10182800  1
  O  O70  1  0.90152700  0.22509100  0.22115000  1
  O  O71  1  0.37313400  0.44917000  0.24723800  1
  O  O72  1  0.66572700  0.94857200  0.24845300  1
  O  O73  1  0.65200100  0.36182500  0.10621300  1
  O  O74  1  0.45024100  0.14555800  0.14733100  1
  O  O75  1  0.84130100  0.86679800  0.06317800  1
  O  O76  1  0.14272600  0.62945400  0.02400800  1
  O  O77  1  0.58698300  0.66410800  0.09185400  1
  O  O78  1  0.42915500  0.85584700  0.07181400  1
