# generated using pymatgen
data_Li9(RuO3)10
_symmetry_space_group_name_H-M   'P 1'
_cell_length_a   29.93239796
_cell_length_b   16.29970625
_cell_length_c   10.72293250
_cell_angle_alpha   24.93528808
_cell_angle_beta   26.25309409
_cell_angle_gamma   16.94137801
_symmetry_Int_Tables_number   1
_chemical_formula_structural   Li9(RuO3)10
_chemical_formula_sum   'Li9 Ru10 O30'
_cell_volume   624.00480882
_cell_formula_units_Z   1
loop_
 _symmetry_equiv_pos_site_id
 _symmetry_equiv_pos_as_xyz
  1  'x, y, z'
loop_
 _atom_site_type_symbol
 _atom_site_label
 _atom_site_symmetry_multiplicity
 _atom_site_fract_x
 _atom_site_fract_y
 _atom_site_fract_z
 _atom_site_occupancy
  Li  Li0  1  0.00095200  0.99762300  0.99871800  1
  Li  Li1  1  0.20130400  0.99958900  0.99261200  1
  Li  Li2  1  0.39869600  0.00041100  0.00738800  1
  Li  Li3  1  0.59904800  0.00237700  0.00128200  1
  Li  Li4  1  0.19858000  0.50563400  0.49571200  1
  Li  Li5  1  0.80000000  0.00000000  0.00000000  1
  Li  Li6  1  0.40142000  0.49436600  0.50428800  1
  Li  Li7  1  0.60323300  0.49547300  0.49781400  1
  Li  Li8  1  0.99676700  0.50452700  0.50218600  1
  Ru  Ru9  1  0.07084600  0.32262200  0.32584500  1
  Ru  Ru10  1  0.26666300  0.33193400  0.32346700  1
  Ru  Ru11  1  0.13127700  0.67276700  0.67753800  1
  Ru  Ru12  1  0.46872300  0.32723300  0.32246200  1
  Ru  Ru13  1  0.33333700  0.66806600  0.67653300  1
  Ru  Ru14  1  0.67376400  0.31910000  0.32162500  1
  Ru  Ru15  1  0.52915400  0.67737800  0.67415500  1
  Ru  Ru16  1  0.86526600  0.33487500  0.34068500  1
  Ru  Ru17  1  0.73473400  0.66512500  0.65931500  1
  Ru  Ru18  1  0.92623600  0.68090000  0.67837500  1
  O  O19  1  0.11964500  0.07811600  0.68334600  1
  O  O20  1  0.14490100  0.43639100  0.08796500  1
  O  O21  1  0.14151800  0.32166100  0.56378300  1
  O  O22  1  0.05319000  0.69410400  0.42534600  1
  O  O23  1  0.31481900  0.08597900  0.68346500  1
  O  O24  1  0.34348100  0.44110400  0.08523600  1
  O  O25  1  0.06133700  0.55219600  0.91363700  1
  O  O26  1  0.07816200  0.93019400  0.31675500  1
  O  O27  1  0.34341200  0.32147100  0.55414200  1
  O  O28  1  0.25658800  0.67852900  0.44585800  1
  O  O29  1  0.52183800  0.06980600  0.68324500  1
  O  O30  1  0.53866300  0.44780400  0.08636300  1
  O  O31  1  0.25651900  0.55889600  0.91476400  1
  O  O32  1  0.28518100  0.91402100  0.31653500  1
  O  O33  1  0.54681000  0.30589600  0.57465400  1
  O  O34  1  0.45848200  0.67833900  0.43621700  1
  O  O35  1  0.71712000  0.08834600  0.68212300  1
  O  O36  1  0.75030300  0.43178500  0.06945400  1
  O  O37  1  0.45509900  0.56360900  0.91203500  1
  O  O38  1  0.48035500  0.92188400  0.31665400  1
  O  O39  1  0.74556400  0.31722400  0.56619700  1
  O  O40  1  0.64831600  0.69286900  0.44388900  1
  O  O41  1  0.92163100  0.06628800  0.69888000  1
  O  O42  1  0.94651000  0.44267200  0.07412200  1
  O  O43  1  0.65349000  0.55732800  0.92587800  1
  O  O44  1  0.67836900  0.93371200  0.30112000  1
  O  O45  1  0.95168400  0.30713100  0.55611100  1
  O  O46  1  0.85443600  0.68277600  0.43380300  1
  O  O47  1  0.84969700  0.56821500  0.93054600  1
  O  O48  1  0.88288000  0.91165400  0.31787700  1
