# generated using pymatgen
data_LiAlSiH2O5
_symmetry_space_group_name_H-M   'P 1'
_cell_length_a   5.10937900
_cell_length_b   8.49259500
_cell_length_c   11.94630900
_cell_angle_alpha   90.00000000
_cell_angle_beta   90.00000000
_cell_angle_gamma   90.00000000
_symmetry_Int_Tables_number   1
_chemical_formula_structural   LiAlSiH2O5
_chemical_formula_sum   'Li4 Al4 Si4 H8 O20'
_cell_volume   518.37288480
_cell_formula_units_Z   4
loop_
 _symmetry_equiv_pos_site_id
 _symmetry_equiv_pos_as_xyz
  1  'x, y, z'
loop_
 _atom_site_type_symbol
 _atom_site_label
 _atom_site_symmetry_multiplicity
 _atom_site_fract_x
 _atom_site_fract_y
 _atom_site_fract_z
 _atom_site_occupancy
  Li  Li0  1  0.05927200  0.74716000  0.39505200  1
  Li  Li1  1  0.55927200  0.24716000  0.10494800  1
  Li  Li2  1  0.55927200  0.25284000  0.60494800  1
  Li  Li3  1  0.05927200  0.75284000  0.89505200  1
  Al  Al4  1  0.75471100  0.64691600  0.65365200  1
  Al  Al5  1  0.25471100  0.14691600  0.84634800  1
  Al  Al6  1  0.75471100  0.85308400  0.15365200  1
  Al  Al7  1  0.25471100  0.35308400  0.34634800  1
  Si  Si8  1  0.21760500  0.46490900  0.72484800  1
  Si  Si9  1  0.71760500  0.96490900  0.77515200  1
  Si  Si10  1  0.71760500  0.53509100  0.27515200  1
  Si  Si11  1  0.21760500  0.03509100  0.22484800  1
  H  H12  1  0.96583600  0.02132900  0.37618000  1
  H  H13  1  0.46583600  0.52132900  0.12382000  1
  H  H14  1  0.46583600  0.97867100  0.62382000  1
  H  H15  1  0.28970800  0.13905000  0.45616300  1
  H  H16  1  0.78970800  0.86095000  0.54383700  1
  H  H17  1  0.78970800  0.63905000  0.04383700  1
  H  H18  1  0.96583600  0.47867100  0.87618000  1
  H  H19  1  0.28970800  0.36095000  0.95616300  1
  O  O20  1  0.44064100  0.52701000  0.34122800  1
  O  O21  1  0.94064100  0.02701000  0.15877200  1
  O  O22  1  0.33116000  0.25052900  0.97187900  1
  O  O23  1  0.13776800  0.97672300  0.35986100  1
  O  O24  1  0.93194300  0.08426300  0.82382900  1
  O  O25  1  0.93194300  0.41573700  0.32382900  1
  O  O26  1  0.83065300  0.71452500  0.26285600  1
  O  O27  1  0.83065300  0.78547500  0.76285600  1
  O  O28  1  0.43194300  0.58426300  0.67617100  1
  O  O29  1  0.43194300  0.91573700  0.17617100  1
  O  O30  1  0.83116000  0.74947100  0.02812100  1
  O  O31  1  0.33116000  0.24947100  0.47187900  1
  O  O32  1  0.83116000  0.75052900  0.52812100  1
  O  O33  1  0.33065300  0.21452500  0.23714400  1
  O  O34  1  0.94064100  0.47299000  0.65877200  1
  O  O35  1  0.13776800  0.52327700  0.85986100  1
  O  O36  1  0.63776800  0.02327700  0.64013900  1
  O  O37  1  0.33065300  0.28547500  0.73714400  1
  O  O38  1  0.44064100  0.97299000  0.84122800  1
  O  O39  1  0.63776800  0.47672300  0.14013900  1
