# generated using pymatgen
data_Li2MnP2O7
_symmetry_space_group_name_H-M   'P 1'
_cell_length_a   8.59639239
_cell_length_b   8.76664947
_cell_length_c   8.72437154
_cell_angle_alpha   71.48124919
_cell_angle_beta   111.93045811
_cell_angle_gamma   110.22975106
_symmetry_Int_Tables_number   1
_chemical_formula_structural   Li2MnP2O7
_chemical_formula_sum   'Li8 Mn4 P8 O28'
_cell_volume   558.70573046
_cell_formula_units_Z   4
loop_
 _symmetry_equiv_pos_site_id
 _symmetry_equiv_pos_as_xyz
  1  'x, y, z'
loop_
 _atom_site_type_symbol
 _atom_site_label
 _atom_site_symmetry_multiplicity
 _atom_site_fract_x
 _atom_site_fract_y
 _atom_site_fract_z
 _atom_site_occupancy
  Li  Li0  1  0.56926700  0.80981400  0.57262000  1
  Li  Li1  1  0.56927300  0.30979600  0.07265300  1
  Li  Li2  1  0.43074600  0.69020100  0.92738200  1
  Li  Li3  1  0.43073700  0.19020900  0.42734800  1
  Li  Li4  1  0.99457600  0.06591800  0.77188200  1
  Li  Li5  1  0.99460700  0.56590300  0.27188900  1
  Li  Li6  1  0.00542200  0.43408200  0.72811700  1
  Li  Li7  1  0.00539600  0.93409600  0.22811300  1
  Mn  Mn8  1  0.28352400  0.40332500  0.63470100  1
  Mn  Mn9  1  0.71646300  0.09665100  0.86537600  1
  Mn  Mn10  1  0.28346300  0.90336200  0.13455400  1
  Mn  Mn11  1  0.71649400  0.59660300  0.36545700  1
  P  P12  1  0.82015600  0.24176300  0.46154000  1
  P  P13  1  0.82014700  0.74177500  0.96153700  1
  P  P14  1  0.17984400  0.25824200  0.03845300  1
  P  P15  1  0.17985400  0.75822700  0.53845300  1
  P  P16  1  0.30010100  0.51376100  0.23440300  1
  P  P17  1  0.30007400  0.01374900  0.73437900  1
  P  P18  1  0.69989700  0.98624100  0.26559600  1
  P  P19  1  0.69992700  0.48625600  0.76561800  1
  O  O20  1  0.78683000  0.99097700  0.13923100  1
  O  O21  1  0.78688300  0.49096100  0.63928300  1
  O  O22  1  0.21317700  0.50902200  0.36077700  1
  O  O23  1  0.21311800  0.00903400  0.86071900  1
  O  O24  1  0.84684800  0.10878000  0.38611600  1
  O  O25  1  0.84689400  0.60879900  0.88613500  1
  O  O26  1  0.15315900  0.39122500  0.11387500  1
  O  O27  1  0.15311600  0.89121100  0.61384900  1
  O  O28  1  0.66390100  0.81477200  0.38432000  1
  O  O29  1  0.66388900  0.31478400  0.88433000  1
  O  O30  1  0.33610700  0.68523200  0.11568300  1
  O  O31  1  0.33611800  0.18522200  0.61567600  1
  O  O32  1  0.78205700  0.88987800  0.81278200  1
  O  O33  1  0.78205900  0.38986700  0.31279200  1
  O  O34  1  0.21795000  0.61013000  0.68721800  1
  O  O35  1  0.21794800  0.11014200  0.18720000  1
  O  O36  1  0.67528100  0.65606400  0.04583800  1
  O  O37  1  0.67529900  0.15608300  0.54586000  1
  O  O38  1  0.32472000  0.84393600  0.45414800  1
  O  O39  1  0.32469800  0.34391900  0.95412400  1
  O  O40  1  0.99998200  0.78704800  0.09057900  1
  O  O41  1  0.99998600  0.28703000  0.59057400  1
  O  O42  1  0.00001400  0.71295300  0.40941700  1
  O  O43  1  0.00001200  0.21297100  0.90942300  1
  O  O44  1  0.54226500  0.06009300  0.18339700  1
  O  O45  1  0.54230800  0.56012700  0.68339600  1
  O  O46  1  0.45772200  0.43989700  0.31659200  1
  O  O47  1  0.45769300  0.93987200  0.81659800  1
