# generated using pymatgen
data_Li2FeCl4
_symmetry_space_group_name_H-M   'P 1'
_cell_length_a   7.27066700
_cell_length_b   7.39344748
_cell_length_c   30.23603910
_cell_angle_alpha   83.03272505
_cell_angle_beta   84.27780197
_cell_angle_gamma   60.61044339
_symmetry_Int_Tables_number   1
_chemical_formula_structural   Li2FeCl4
_chemical_formula_sum   'Li20 Fe10 Cl40'
_cell_volume   1404.19518523
_cell_formula_units_Z   10
loop_
 _symmetry_equiv_pos_site_id
 _symmetry_equiv_pos_as_xyz
  1  'x, y, z'
loop_
 _atom_site_type_symbol
 _atom_site_label
 _atom_site_symmetry_multiplicity
 _atom_site_fract_x
 _atom_site_fract_y
 _atom_site_fract_z
 _atom_site_occupancy
  Li  Li0  1  0.44502100  0.60988500  0.00920700  1
  Li  Li1  1  0.00144400  0.49115700  0.00605400  1
  Li  Li2  1  0.80786800  0.30373600  0.10062200  1
  Li  Li3  1  0.10607000  0.08907700  0.20201600  1
  Li  Li4  1  0.39912100  0.89851200  0.30053000  1
  Li  Li5  1  0.70604800  0.68899900  0.40624600  1
  Li  Li6  1  0.99017600  0.01147400  0.49946100  1
  Li  Li7  1  0.00336500  0.49687600  0.49815100  1
  Li  Li8  1  0.10691400  0.62974800  0.67731000  1
  Li  Li9  1  0.27322500  0.35958700  0.59420500  1
  Li  Li10  1  0.60279900  0.59227700  0.69556300  1
  Li  Li11  1  0.60626400  0.10767100  0.69666200  1
  Li  Li12  1  0.80510000  0.29034700  0.59517300  1
  Li  Li13  1  0.70567700  0.21862600  0.89224900  1
  Li  Li14  1  0.87482000  0.96215200  0.79863200  1
  Li  Li15  1  0.19040200  0.20821400  0.90733200  1
  Li  Li16  1  0.20496900  0.69701900  0.90206100  1
  Li  Li17  1  0.48431300  0.93501000  0.57174300  1
  Li  Li18  1  0.08387400  0.51262300  0.78223500  1
  Li  Li19  1  0.68378700  0.11715300  0.98447500  1
  Fe  Fe20  1  0.80504900  0.79150300  0.10578500  1
  Fe  Fe21  1  0.28487200  0.30858500  0.10377700  1
  Fe  Fe22  1  0.60211500  0.09753800  0.20123500  1
  Fe  Fe23  1  0.89799600  0.90185200  0.29929900  1
  Fe  Fe24  1  0.20414400  0.68904600  0.39926500  1
  Fe  Fe25  1  0.39964800  0.39920600  0.29984600  1
  Fe  Fe26  1  0.48855300  0.50442900  0.49379900  1
  Fe  Fe27  1  0.09789700  0.09703500  0.69944600  1
  Fe  Fe28  1  0.41476000  0.88478000  0.80404700  1
  Fe  Fe29  1  0.68292400  0.70959500  0.89588700  1
  Cl  Cl30  1  0.67268200  0.65117400  0.05303700  1
  Cl  Cl31  1  0.95491500  0.45122000  0.14978600  1
  Cl  Cl32  1  0.14233400  0.64795000  0.05507300  1
  Cl  Cl33  1  0.15097700  0.17461900  0.05519200  1
  Cl  Cl34  1  0.45728600  0.41745100  0.15003000  1
  Cl  Cl35  1  0.27293200  0.24293800  0.24871000  1
  Cl  Cl36  1  0.45454800  0.95710200  0.15040100  1
  Cl  Cl37  1  0.56026600  0.05646400  0.34358700  1
  Cl  Cl38  1  0.74755900  0.24378400  0.25054800  1
  Cl  Cl39  1  0.64530700  0.14710300  0.05923600  1
  Cl  Cl40  1  0.93063300  0.95505300  0.15273200  1
  Cl  Cl41  1  0.74193200  0.77954400  0.25074300  1
  Cl  Cl42  1  0.06030500  0.01380500  0.34779600  1
  Cl  Cl43  1  0.88069400  0.82779700  0.44483200  1
  Cl  Cl44  1  0.05447900  0.55543400  0.34633000  1
  Cl  Cl45  1  0.23890100  0.74737100  0.25367800  1
  Cl  Cl46  1  0.16554800  0.65579400  0.54204100  1
  Cl  Cl47  1  0.35502900  0.83489000  0.44629400  1
  Cl  Cl48  1  0.52734600  0.55376200  0.34947400  1
  Cl  Cl49  1  0.34265400  0.36637500  0.44788700  1
  Cl  Cl50  1  0.66120500  0.61514500  0.54581100  1
  Cl  Cl51  1  0.45088600  0.44056400  0.65111100  1
  Cl  Cl52  1  0.63232600  0.16418500  0.54940000  1
  Cl  Cl53  1  0.82588100  0.35697900  0.45339100  1
  Cl  Cl54  1  0.95718600  0.43976500  0.65327200  1
  Cl  Cl55  1  0.77038300  0.24939000  0.74510300  1
  Cl  Cl56  1  0.14099000  0.16881400  0.55191800  1
  Cl  Cl57  1  0.93831600  0.97447300  0.65179800  1
  Cl  Cl58  1  0.27398100  0.20330300  0.74983200  1
  Cl  Cl59  1  0.06860600  0.03835000  0.84916800  1
  Cl  Cl60  1  0.36643700  0.84707600  0.94446300  1
  Cl  Cl61  1  0.23894600  0.74995800  0.75185700  1
  Cl  Cl62  1  0.55372400  0.04800000  0.84976700  1
  Cl  Cl63  1  0.43537500  0.94843300  0.65567900  1
  Cl  Cl64  1  0.54413400  0.55903900  0.84962800  1
  Cl  Cl65  1  0.74754800  0.75760600  0.75442800  1
  Cl  Cl66  1  0.86175100  0.82621000  0.94525600  1
  Cl  Cl67  1  0.84081800  0.35002900  0.94820400  1
  Cl  Cl68  1  0.03348600  0.55575400  0.85687700  1
  Cl  Cl69  1  0.36747800  0.34858300  0.94832000  1
