# generated using pymatgen
data_Li7Mn11O24
_symmetry_space_group_name_H-M   'P 1'
_cell_length_a   10.04194737
_cell_length_b   10.04194737
_cell_length_c   8.56348449
_cell_angle_alpha   66.43920436
_cell_angle_beta   66.43920436
_cell_angle_gamma   33.51742582
_symmetry_Int_Tables_number   1
_chemical_formula_structural   Li7Mn11O24
_chemical_formula_sum   'Li7 Mn11 O24'
_cell_volume   433.30668921
_cell_formula_units_Z   1
loop_
 _symmetry_equiv_pos_site_id
 _symmetry_equiv_pos_as_xyz
  1  'x, y, z'
loop_
 _atom_site_type_symbol
 _atom_site_label
 _atom_site_symmetry_multiplicity
 _atom_site_fract_x
 _atom_site_fract_y
 _atom_site_fract_z
 _atom_site_occupancy
  Li  Li0  1  0.77020800  0.43189200  0.76428900  1
  Li  Li1  1  0.41964500  0.08577300  0.11669100  1
  Li  Li2  1  0.08760500  0.75438800  0.45688400  1
  Li  Li3  1  0.24561200  0.91239500  0.54311600  1
  Li  Li4  1  0.91422700  0.58035500  0.88330900  1
  Li  Li5  1  0.56810800  0.22979200  0.23571100  1
  Li  Li6  1  0.65793200  0.34206800  0.00000000  1
  Mn  Mn7  1  0.33059600  0.99613000  0.84132100  1
  Mn  Mn8  1  0.00266500  0.16042400  0.15857100  1
  Mn  Mn9  1  0.16678700  0.33279000  0.49976000  1
  Mn  Mn10  1  0.83606100  0.50162900  0.31723100  1
  Mn  Mn11  1  0.00387000  0.66940400  0.15867900  1
  Mn  Mn12  1  0.49469200  0.66875700  0.15880200  1
  Mn  Mn13  1  0.66721000  0.83321300  0.50024000  1
  Mn  Mn14  1  0.83957600  0.99733500  0.84142900  1
  Mn  Mn15  1  0.49837100  0.16393900  0.68276900  1
  Mn  Mn16  1  0.66664600  0.33335400  0.50000000  1
  Mn  Mn17  1  0.33124300  0.50530800  0.84119800  1
  O  O18  1  0.50609100  0.67751400  0.93015500  1
  O  O19  1  0.32472100  0.99069300  0.07664500  1
  O  O20  1  0.01249200  0.17089000  0.93012800  1
  O  O21  1  0.13764700  0.36285100  0.24470100  1
  O  O22  1  0.82488600  0.49022200  0.10641100  1
  O  O23  1  0.84392000  0.50908200  0.54008300  1
  O  O24  1  0.99374400  0.66266200  0.39596900  1
  O  O25  1  0.69701200  0.80319600  0.24419300  1
  O  O26  1  0.63714900  0.86235300  0.75529900  1
  O  O27  1  0.80583300  0.02458600  0.60804900  1
  O  O28  1  0.49091800  0.15608000  0.45991700  1
  O  O29  1  0.33733800  0.00625600  0.60403100  1
  O  O30  1  0.50977800  0.17511400  0.89358900  1
  O  O31  1  0.65763300  0.32468000  0.77379000  1
  O  O32  1  0.19680400  0.30298800  0.75580700  1
  O  O33  1  0.35763800  0.47265100  0.60795600  1
  O  O34  1  0.32248600  0.49390900  0.06984500  1
  O  O35  1  0.15291700  0.81963300  0.76080700  1
  O  O36  1  0.18036700  0.84708300  0.23919300  1
  O  O37  1  0.00930700  0.67527900  0.92335500  1
  O  O38  1  0.82911000  0.98750800  0.06987200  1
  O  O39  1  0.97541400  0.19416700  0.39195100  1
  O  O40  1  0.67532000  0.34236700  0.22621000  1
  O  O41  1  0.52734900  0.64236200  0.39204400  1
