# generated using pymatgen
data_RbLiMnP3HO10
_symmetry_space_group_name_H-M   'P 1'
_cell_length_a   7.45920584
_cell_length_b   7.45920584
_cell_length_c   9.59117364
_cell_angle_alpha   75.12719300
_cell_angle_beta   75.12719300
_cell_angle_gamma   75.00776889
_symmetry_Int_Tables_number   1
_chemical_formula_structural   RbLiMnP3HO10
_chemical_formula_sum   'Rb2 Li2 Mn2 P6 H2 O20'
_cell_volume   487.75857479
_cell_formula_units_Z   2
loop_
 _symmetry_equiv_pos_site_id
 _symmetry_equiv_pos_as_xyz
  1  'x, y, z'
loop_
 _atom_site_type_symbol
 _atom_site_label
 _atom_site_symmetry_multiplicity
 _atom_site_fract_x
 _atom_site_fract_y
 _atom_site_fract_z
 _atom_site_occupancy
  Rb  Rb0  1  0.46260100  0.54544600  0.73532900  1
  Rb  Rb1  1  0.54544600  0.46260100  0.23532900  1
  Li  Li2  1  0.85321000  0.06902900  0.48195000  1
  Li  Li3  1  0.06902900  0.85321000  0.98195000  1
  Mn  Mn4  1  0.50708900  0.00096900  0.00017300  1
  Mn  Mn5  1  0.00096900  0.50708900  0.50017300  1
  P  P6  1  0.85148000  0.71708900  0.81112600  1
  P  P7  1  0.87394400  0.12315100  0.74400500  1
  P  P8  1  0.71708900  0.85148000  0.31112600  1
  P  P9  1  0.28377400  0.15066500  0.69296200  1
  P  P10  1  0.12315100  0.87394400  0.24400500  1
  P  P11  1  0.15066500  0.28377400  0.19296200  1
  H  H12  1  0.48511900  0.00383000  0.52034300  1
  H  H13  1  0.00383000  0.48511900  0.02034300  1
  O  O14  1  0.87494800  0.92876800  0.69857000  1
  O  O15  1  0.92876800  0.87494800  0.19857000  1
  O  O16  1  0.87308300  0.59334200  0.70364900  1
  O  O17  1  0.65497700  0.74848700  0.90947500  1
  O  O18  1  0.98312100  0.37217400  0.10629700  1
  O  O19  1  0.74848700  0.65497700  0.40947500  1
  O  O20  1  0.85616600  0.26240100  0.59916300  1
  O  O21  1  0.73578700  0.15251800  0.88382500  1
  O  O22  1  0.59334200  0.87308300  0.20364900  1
  O  O23  1  0.37217400  0.98312100  0.60629700  1
  O  O24  1  0.67118400  0.01454800  0.39543700  1
  O  O25  1  0.38511900  0.13966500  0.81192100  1
  O  O26  1  0.26240100  0.85616600  0.09916300  1
  O  O27  1  0.15251800  0.73578700  0.38382500  1
  O  O28  1  0.24814200  0.34249200  0.59263700  1
  O  O29  1  0.01454800  0.67118400  0.89543700  1
  O  O30  1  0.34249200  0.24814200  0.09263700  1
  O  O31  1  0.13966500  0.38511900  0.31192100  1
  O  O32  1  0.08065200  0.08689700  0.78413600  1
  O  O33  1  0.08689700  0.08065200  0.28413600  1
