# generated using pymatgen
data_Li24Mn5Cr7O36
_symmetry_space_group_name_H-M   'P 1'
_cell_length_a   5.01628000
_cell_length_b   9.74095948
_cell_length_c   13.26678561
_cell_angle_alpha   97.02865707
_cell_angle_beta   100.52481458
_cell_angle_gamma   94.80965986
_symmetry_Int_Tables_number   1
_chemical_formula_structural   Li24Mn5Cr7O36
_chemical_formula_sum   'Li24 Mn5 Cr7 O36'
_cell_volume   628.80656432
_cell_formula_units_Z   1
loop_
 _symmetry_equiv_pos_site_id
 _symmetry_equiv_pos_as_xyz
  1  'x, y, z'
loop_
 _atom_site_type_symbol
 _atom_site_label
 _atom_site_symmetry_multiplicity
 _atom_site_fract_x
 _atom_site_fract_y
 _atom_site_fract_z
 _atom_site_occupancy
  Li  Li0  1  0.16786800  0.99983200  0.83373300  1
  Li  Li1  1  0.05154700  0.00093700  0.61394000  1
  Li  Li2  1  0.00185100  0.74993500  0.25082900  1
  Li  Li3  1  0.33290900  0.74966100  0.91540000  1
  Li  Li4  1  0.04603600  0.49874800  0.11200200  1
  Li  Li5  1  0.37859800  0.50007600  0.77900800  1
  Li  Li6  1  0.16596900  0.50063900  0.33272300  1
  Li  Li7  1  0.49904000  0.49932300  0.99882000  1
  Li  Li8  1  0.28711400  0.49984100  0.55538600  1
  Li  Li9  1  0.33663500  0.25008100  0.41612800  1
  Li  Li10  1  0.49868000  0.99981200  0.50020800  1
  Li  Li11  1  0.28181600  0.00049600  0.05186500  1
  Li  Li12  1  0.61377600  0.99933300  0.71972400  1
  Li  Li13  1  0.38415100  0.00077800  0.28146700  1
  Li  Li14  1  0.71720600  0.99940700  0.94693300  1
  Li  Li15  1  0.66604800  0.75031500  0.58359100  1
  Li  Li16  1  0.71387300  0.49914400  0.44499400  1
  Li  Li17  1  0.83339700  0.49996700  0.66731700  1
  Li  Li18  1  0.61993900  0.50042800  0.22219600  1
  Li  Li19  1  0.95322600  0.50147700  0.88858100  1
  Li  Li20  1  0.66996400  0.24996800  0.08242400  1
  Li  Li21  1  0.83364400  0.00076300  0.16679400  1
  Li  Li22  1  0.00371100  0.24999200  0.74932200  1
  Li  Li23  1  0.94774700  0.99949000  0.38576100  1
  Mn  Mn24  1  0.11023400  0.25006200  0.97249400  1
  Mn  Mn25  1  0.11161200  0.75136900  0.47231600  1
  Mn  Mn26  1  0.44318600  0.25004700  0.63924200  1
  Mn  Mn27  1  0.77703100  0.74929900  0.80641100  1
  Mn  Mn28  1  0.77632200  0.25003600  0.30566100  1
  Cr  Cr29  1  0.21990400  0.75010000  0.69258500  1
  Cr  Cr30  1  0.22791400  0.25000600  0.19318600  1
  Cr  Cr31  1  0.56208000  0.24971200  0.85988900  1
  Cr  Cr32  1  0.43985500  0.74860900  0.13551300  1
  Cr  Cr33  1  0.56140900  0.75049700  0.36105700  1
  Cr  Cr34  1  0.89448700  0.24994900  0.52643800  1
  Cr  Cr35  1  0.89098700  0.75035400  0.03115600  1
  O  O36  1  0.99842100  0.86078400  0.92828800  1
  O  O37  1  0.06639100  0.63482200  0.78623500  1
  O  O38  1  0.99675700  0.36134200  0.42930700  1
  O  O39  1  0.14854400  0.36326400  0.64483300  1
  O  O40  1  0.26388000  0.36339700  0.88217900  1
  O  O41  1  0.33358000  0.86240500  0.59390300  1
  O  O42  1  0.06808800  0.13635100  0.28449500  1
  O  O43  1  0.18696200  0.13901400  0.52451400  1
  O  O44  1  0.40151500  0.13639300  0.95124100  1
  O  O45  1  0.13499600  0.86317500  0.14068800  1
  O  O46  1  0.25962300  0.86435400  0.38134500  1
  O  O47  1  0.47899600  0.86246500  0.81024300  1
  O  O48  1  0.32957500  0.13633100  0.73544000  1
  O  O49  1  0.19847100  0.63709300  0.02582700  1
  O  O50  1  0.40186800  0.63634700  0.45103400  1
  O  O51  1  0.52089000  0.63860800  0.69152200  1
  O  O52  1  0.33515800  0.63732000  0.23674900  1
  O  O53  1  0.66542500  0.63835100  0.90463200  1
  O  O54  1  0.33029500  0.36129900  0.09606200  1
  O  O55  1  0.66268700  0.36107500  0.76273000  1
  O  O56  1  0.48211800  0.36315100  0.31149200  1
  O  O57  1  0.59756800  0.36395500  0.54899900  1
  O  O58  1  0.81558200  0.36332100  0.97818100  1
  O  O59  1  0.66283100  0.86162300  0.26306200  1
  O  O60  1  0.52038000  0.13861400  0.19123400  1
  O  O61  1  0.73497700  0.13634800  0.61791400  1
  O  O62  1  0.85418100  0.13884800  0.85799700  1
  O  O63  1  0.59217200  0.86590900  0.05128500  1
  O  O64  1  0.81301200  0.86221700  0.47706600  1
  O  O65  1  0.93429000  0.86336600  0.71620900  1
  O  O66  1  0.66298100  0.13667700  0.40224700  1
  O  O67  1  0.74130400  0.63466000  0.11539000  1
  O  O68  1  0.85863800  0.63833600  0.35726800  1
  O  O69  1  0.00084800  0.63799000  0.57088200  1
  O  O70  1  0.93058400  0.36372500  0.21541900  1
  O  O71  1  0.99664700  0.13658300  0.06898800  1
