# generated using pymatgen
data_Li2CoP2O7
_symmetry_space_group_name_H-M   'P 1'
_cell_length_a   5.17986588
_cell_length_b   6.26691600
_cell_length_c   16.61699877
_cell_angle_alpha   86.77307220
_cell_angle_beta   91.38607319
_cell_angle_gamma   83.51094980
_symmetry_Int_Tables_number   1
_chemical_formula_structural   Li2CoP2O7
_chemical_formula_sum   'Li8 Co4 P8 O28'
_cell_volume   534.85800853
_cell_formula_units_Z   4
loop_
 _symmetry_equiv_pos_site_id
 _symmetry_equiv_pos_as_xyz
  1  'x, y, z'
loop_
 _atom_site_type_symbol
 _atom_site_label
 _atom_site_symmetry_multiplicity
 _atom_site_fract_x
 _atom_site_fract_y
 _atom_site_fract_z
 _atom_site_occupancy
  Li  Li0  1  0.20010300  0.55792100  0.22937000  1
  Li  Li1  1  0.20012000  0.05785600  0.72933800  1
  Li  Li2  1  0.79992500  0.94212400  0.27063100  1
  Li  Li3  1  0.79985200  0.44214000  0.77066600  1
  Li  Li4  1  0.30211500  0.51770200  0.41963500  1
  Li  Li5  1  0.30172400  0.01754800  0.91960300  1
  Li  Li6  1  0.69792700  0.98225800  0.08035400  1
  Li  Li7  1  0.69821900  0.48246900  0.58040800  1
  Co  Co8  1  0.23461100  0.56590300  0.87333600  1
  Co  Co9  1  0.76532600  0.93413600  0.62666100  1
  Co  Co10  1  0.23479200  0.06613100  0.37321400  1
  Co  Co11  1  0.76525600  0.43382100  0.12678900  1
  P  P12  1  0.21408000  0.73284700  0.06511800  1
  P  P13  1  0.21431600  0.23292000  0.56507800  1
  P  P14  1  0.78593400  0.76712200  0.43488500  1
  P  P15  1  0.78565100  0.26708900  0.93492300  1
  P  P16  1  0.28440400  0.07639600  0.17635300  1
  P  P17  1  0.28434300  0.57633900  0.67636000  1
  P  P18  1  0.71567000  0.42360500  0.32364100  1
  P  P19  1  0.71559800  0.92366400  0.82363900  1
  O  O20  1  0.06936600  0.78892500  0.41338000  1
  O  O21  1  0.06909600  0.28898500  0.91344000  1
  O  O22  1  0.93066000  0.71107200  0.08663900  1
  O  O23  1  0.93086700  0.21102400  0.58655000  1
  O  O24  1  0.10484200  0.28631100  0.16915500  1
  O  O25  1  0.10488000  0.78628000  0.66914900  1
  O  O26  1  0.89522200  0.21368200  0.33083900  1
  O  O27  1  0.89507900  0.71372400  0.83084800  1
  O  O28  1  0.26603900  0.23839500  0.47502400  1
  O  O29  1  0.26560700  0.73840000  0.97504300  1
  O  O30  1  0.73398900  0.26158500  0.02497700  1
  O  O31  1  0.73435900  0.76160800  0.52495400  1
  O  O32  1  0.20040000  0.91350400  0.23992200  1
  O  O33  1  0.20016200  0.41347900  0.73989000  1
  O  O34  1  0.79969000  0.58650000  0.26008800  1
  O  O35  1  0.79977400  0.08653100  0.76010600  1
  O  O36  1  0.26261200  0.97891500  0.08527100  1
  O  O37  1  0.26259000  0.47893300  0.58526400  1
  O  O38  1  0.73742800  0.52106400  0.41473100  1
  O  O39  1  0.73738200  0.02106400  0.91473200  1
  O  O40  1  0.42458700  0.39370900  0.31847700  1
  O  O41  1  0.42451100  0.89386200  0.81846900  1
  O  O42  1  0.57549200  0.10629900  0.18150600  1
  O  O43  1  0.57541500  0.60616300  0.68154000  1
  O  O44  1  0.40677400  0.58717400  0.11967900  1
  O  O45  1  0.40673300  0.08719500  0.61971300  1
  O  O46  1  0.59327600  0.91281000  0.38031700  1
  O  O47  1  0.59320100  0.41281400  0.88029300  1
