# generated using pymatgen
data_RbLi2Cr2(BO3)3
_symmetry_space_group_name_H-M   'P 1'
_cell_length_a   5.29532400
_cell_length_b   5.67268200
_cell_length_c   12.93151334
_cell_angle_alpha   87.62775399
_cell_angle_beta   90.00000000
_cell_angle_gamma   90.00000000
_symmetry_Int_Tables_number   1
_chemical_formula_structural   RbLi2Cr2(BO3)3
_chemical_formula_sum   'Rb2 Li4 Cr4 B6 O18'
_cell_volume   388.11281035
_cell_formula_units_Z   2
loop_
 _symmetry_equiv_pos_site_id
 _symmetry_equiv_pos_as_xyz
  1  'x, y, z'
loop_
 _atom_site_type_symbol
 _atom_site_label
 _atom_site_symmetry_multiplicity
 _atom_site_fract_x
 _atom_site_fract_y
 _atom_site_fract_z
 _atom_site_occupancy
  Rb  Rb0  1  0.75279700  0.00000000  0.75000000  1
  Rb  Rb1  1  0.24720300  0.00000000  0.25000000  1
  Li  Li2  1  0.90057800  0.51175000  0.85416500  1
  Li  Li3  1  0.90057800  0.48825000  0.64583500  1
  Li  Li4  1  0.09942200  0.51175000  0.35416500  1
  Li  Li5  1  0.09942200  0.48825000  0.14583500  1
  Cr  Cr6  1  0.35445400  0.73318200  0.52906600  1
  Cr  Cr7  1  0.64554600  0.73318200  0.02906600  1
  Cr  Cr8  1  0.35445400  0.26681800  0.97093400  1
  Cr  Cr9  1  0.64554600  0.26681800  0.47093400  1
  B  B10  1  0.19653300  0.78443100  0.96019900  1
  B  B11  1  0.80346700  0.78443100  0.46019900  1
  B  B12  1  0.39255300  0.50000000  0.75000000  1
  B  B13  1  0.60744700  0.50000000  0.25000000  1
  B  B14  1  0.19653300  0.21556900  0.53980100  1
  B  B15  1  0.80346700  0.21556900  0.03980100  1
  O  O16  1  0.38695800  0.92921300  0.91965700  1
  O  O17  1  0.61304200  0.92921300  0.41965700  1
  O  O18  1  0.94721100  0.80661700  0.94001400  1
  O  O19  1  0.05278900  0.80661700  0.44001400  1
  O  O20  1  0.70829700  0.60894000  0.53086600  1
  O  O21  1  0.29170300  0.60894000  0.03086600  1
  O  O22  1  0.24557600  0.59235200  0.66595500  1
  O  O23  1  0.75442400  0.59235200  0.16595500  1
  O  O24  1  0.64925400  0.50000000  0.75000000  1
  O  O25  1  0.35074600  0.50000000  0.25000000  1
  O  O26  1  0.24557600  0.40764800  0.83404500  1
  O  O27  1  0.75442400  0.40764800  0.33404500  1
  O  O28  1  0.70829700  0.39106000  0.96913400  1
  O  O29  1  0.29170300  0.39106000  0.46913400  1
  O  O30  1  0.94721100  0.19338300  0.55998600  1
  O  O31  1  0.05278900  0.19338300  0.05998600  1
  O  O32  1  0.38695800  0.07078700  0.58034300  1
  O  O33  1  0.61304200  0.07078700  0.08034300  1
