# generated using pymatgen
data_Li3Fe2F7
_symmetry_space_group_name_H-M   'P 1'
_cell_length_a   10.51152900
_cell_length_b   7.68322900
_cell_length_c   9.60000506
_cell_angle_alpha   54.44670265
_cell_angle_beta   90.00000000
_cell_angle_gamma   90.00000000
_symmetry_Int_Tables_number   1
_chemical_formula_structural   Li3Fe2F7
_chemical_formula_sum   'Li12 Fe8 F28'
_cell_volume   630.78117058
_cell_formula_units_Z   4
loop_
 _symmetry_equiv_pos_site_id
 _symmetry_equiv_pos_as_xyz
  1  'x, y, z'
loop_
 _atom_site_type_symbol
 _atom_site_label
 _atom_site_symmetry_multiplicity
 _atom_site_fract_x
 _atom_site_fract_y
 _atom_site_fract_z
 _atom_site_occupancy
  Li  Li0  1  0.58738800  0.73819800  0.72067800  1
  Li  Li1  1  0.20610600  0.35951900  0.02811300  1
  Li  Li2  1  0.91300600  0.11193100  0.19981400  1
  Li  Li3  1  0.08738800  0.26180200  0.77932200  1
  Li  Li4  1  0.29389400  0.35951900  0.52811300  1
  Li  Li5  1  0.41300600  0.88806900  0.30018600  1
  Li  Li6  1  0.58699400  0.11193100  0.69981400  1
  Li  Li7  1  0.70610600  0.64048100  0.47188700  1
  Li  Li8  1  0.91261200  0.73819800  0.22067800  1
  Li  Li9  1  0.08699400  0.88806900  0.80018600  1
  Li  Li10  1  0.79389400  0.64048100  0.97188700  1
  Li  Li11  1  0.41261200  0.26180200  0.27932200  1
  Fe  Fe12  1  0.27971700  0.71369100  0.62435100  1
  Fe  Fe13  1  0.91473000  0.76136400  0.61099300  1
  Fe  Fe14  1  0.41473000  0.23863600  0.88900700  1
  Fe  Fe15  1  0.77971700  0.28630900  0.87564900  1
  Fe  Fe16  1  0.22028300  0.71369100  0.12435100  1
  Fe  Fe17  1  0.58527000  0.76136400  0.11099300  1
  Fe  Fe18  1  0.08527000  0.23863600  0.38900700  1
  Fe  Fe19  1  0.72028300  0.28630900  0.37564900  1
  F  F20  1  0.44902600  0.56890000  0.74905500  1
  F  F21  1  0.37732300  0.22231000  0.10162900  1
  F  F22  1  0.72380500  0.60454500  0.68909600  1
  F  F23  1  0.79703700  0.34901900  0.06088600  1
  F  F24  1  0.88863500  0.12433600  0.41621500  1
  F  F25  1  0.08594500  0.19787500  0.20211800  1
  F  F26  1  0.37629900  0.97951900  0.44706400  1
  F  F27  1  0.22380500  0.39545500  0.81090400  1
  F  F28  1  0.94902600  0.43110000  0.75094500  1
  F  F29  1  0.12267700  0.22231000  0.60162900  1
  F  F30  1  0.87629900  0.02048100  0.05293600  1
  F  F31  1  0.70296300  0.34901900  0.56088600  1
  F  F32  1  0.58594500  0.80212500  0.29788200  1
  F  F33  1  0.61136500  0.12433600  0.91621500  1
  F  F34  1  0.38863500  0.87566400  0.08378500  1
  F  F35  1  0.41405500  0.19787500  0.70211800  1
  F  F36  1  0.29703700  0.65098100  0.43911400  1
  F  F37  1  0.12370100  0.97951900  0.94706400  1
  F  F38  1  0.87732300  0.77769000  0.39837100  1
  F  F39  1  0.05097400  0.56890000  0.24905500  1
  F  F40  1  0.77619500  0.60454500  0.18909600  1
  F  F41  1  0.62370100  0.02048100  0.55293600  1
  F  F42  1  0.91405500  0.80212500  0.79788200  1
  F  F43  1  0.11136500  0.87566400  0.58378500  1
  F  F44  1  0.20296300  0.65098100  0.93911400  1
  F  F45  1  0.27619500  0.39545500  0.31090400  1
  F  F46  1  0.62267700  0.77769000  0.89837100  1
  F  F47  1  0.55097400  0.43110000  0.25094500  1
