# generated using pymatgen
data_Li3V3P8O29
_symmetry_space_group_name_H-M   'P 1'
_cell_length_a   9.72726700
_cell_length_b   9.74030793
_cell_length_c   14.01147675
_cell_angle_alpha   89.76561308
_cell_angle_beta   89.86991824
_cell_angle_gamma   60.12871951
_symmetry_Int_Tables_number   1
_chemical_formula_structural   Li3V3P8O29
_chemical_formula_sum   'Li6 V6 P16 O58'
_cell_volume   1151.16151887
_cell_formula_units_Z   2
loop_
 _symmetry_equiv_pos_site_id
 _symmetry_equiv_pos_as_xyz
  1  'x, y, z'
loop_
 _atom_site_type_symbol
 _atom_site_label
 _atom_site_symmetry_multiplicity
 _atom_site_fract_x
 _atom_site_fract_y
 _atom_site_fract_z
 _atom_site_occupancy
  Li  Li0  1  0.32918700  0.90568700  0.44081300  1
  Li  Li1  1  0.90386800  0.32920500  0.94143900  1
  Li  Li2  1  0.76526800  0.32926700  0.43993000  1
  Li  Li3  1  0.33642800  0.33164700  0.89076900  1
  Li  Li4  1  0.01420200  0.96210300  0.99917200  1
  Li  Li5  1  0.98624000  0.97253600  0.49956200  1
  V  V6  1  0.42903300  0.57400500  0.75004900  1
  V  V7  1  0.56283500  0.43550200  0.24539000  1
  V  V8  1  0.99637800  0.57032200  0.25283500  1
  V  V9  1  0.00171800  0.43293800  0.74383700  1
  V  V10  1  0.57204700  0.99725400  0.75026300  1
  V  V11  1  0.43811500  0.00126400  0.24543000  1
  P  P12  1  0.77986700  0.91622500  0.15620700  1
  P  P13  1  0.91794800  0.77756600  0.65697800  1
  P  P14  1  0.31101000  0.91783400  0.65735900  1
  P  P15  1  0.66874500  0.66424100  0.87100200  1
  P  P16  1  0.66448900  0.66576400  0.37054400  1
  P  P17  1  0.30781000  0.77767700  0.15504900  1
  P  P18  1  0.22500100  0.69060200  0.34170800  1
  P  P19  1  0.91393600  0.31531400  0.15625500  1
  P  P20  1  0.08565500  0.69005500  0.84458300  1
  P  P21  1  0.77004000  0.31390500  0.65605400  1
  P  P22  1  0.68840100  0.22383000  0.84120300  1
  P  P23  1  0.33801100  0.33252200  0.62904000  1
  P  P24  1  0.32879100  0.33712000  0.13021300  1
  P  P25  1  0.69199200  0.08535700  0.34361700  1
  P  P26  1  0.08637300  0.22346200  0.34042400  1
  P  P27  1  0.22172500  0.08795600  0.84350600  1
  O  O28  1  0.78431500  0.00729300  0.43064800  1
  O  O29  1  0.74268800  0.91488300  0.66760100  1
  O  O30  1  0.00601300  0.78197500  0.93066800  1
  O  O31  1  0.91511200  0.74172400  0.16828700  1
  O  O32  1  0.61970800  0.91449000  0.17240000  1
  O  O33  1  0.66106600  0.81577900  0.82551400  1
  O  O34  1  0.47021200  0.91305000  0.67576800  1
  O  O35  1  0.20716300  0.00456200  0.92752100  1
  O  O36  1  0.34750800  0.91329700  0.16826500  1
  O  O37  1  0.81264700  0.66696300  0.32514100  1
  O  O38  1  0.91638700  0.61910700  0.67276000  1
  O  O39  1  0.51376500  0.81551200  0.32967600  1
  O  O40  1  0.66924000  0.65817200  0.97661900  1
  O  O41  1  0.66542200  0.65978700  0.47687800  1
  O  O42  1  0.52342700  0.65915100  0.82409900  1
  O  O43  1  0.90974900  0.47388900  0.17457900  1
  O  O44  1  0.81970800  0.51742500  0.82747400  1
  O  O45  1  0.34022300  0.74532600  0.66801200  1
  O  O46  1  0.20219600  0.79596000  0.24773500  1
  O  O47  1  0.21762600  0.78605900  0.42649500  1
  O  O48  1  0.21934500  0.78883800  0.06750000  1
  O  O49  1  0.46745400  0.61870800  0.17126600  1
  O  O50  1  0.66890700  0.51398500  0.32731500  1
  O  O51  1  0.26151800  0.65427200  0.83464000  1
  O  O52  1  0.61630500  0.47133100  0.67424600  1
  O  O53  1  0.91350900  0.34368800  0.66783200  1
  O  O54  1  0.00248900  0.79489300  0.75051800  1
  O  O55  1  0.99587700  0.78981700  0.56968700  1
  O  O56  1  0.99321900  0.21709000  0.42310100  1
  O  O57  1  0.08666600  0.65504200  0.33600500  1
  O  O58  1  0.38283500  0.53293300  0.32728100  1
  O  O59  1  0.74160200  0.34480200  0.16846700  1
  O  O60  1  0.33787700  0.47848300  0.67590800  1
  O  O61  1  0.52320300  0.37515800  0.83113900  1
  O  O62  1  0.78750100  0.21919700  0.92289900  1
  O  O63  1  0.77921500  0.23509500  0.56390600  1
  O  O64  1  0.78852800  0.20046900  0.74363800  1
  O  O65  1  0.65421500  0.26134500  0.33632300  1
  O  O66  1  0.18302600  0.48129100  0.17470600  1
  O  O67  1  0.09751400  0.52561200  0.83027900  1
  O  O68  1  0.47921300  0.33552300  0.17339300  1
  O  O69  1  0.33114100  0.33355700  0.02398900  1
  O  O70  1  0.33546000  0.33056000  0.52370900  1
  O  O71  1  0.48064100  0.18348000  0.67725900  1
  O  O72  1  0.08605300  0.38186500  0.32780500  1
  O  O73  1  0.18593000  0.33569900  0.67593000  1
  O  O74  1  0.65726600  0.08158100  0.83764000  1
  O  O75  1  0.79645900  0.00275000  0.24959800  1
  O  O76  1  0.78883700  0.99518000  0.06840900  1
  O  O77  1  0.53442500  0.08315600  0.32713000  1
  O  O78  1  0.33403500  0.18510100  0.17446300  1
  O  O79  1  0.37520800  0.09954900  0.83109200  1
  O  O80  1  0.07998600  0.26425900  0.83788100  1
  O  O81  1  0.98498100  0.23929700  0.06378500  1
  O  O82  1  0.01056900  0.19941400  0.24285600  1
  O  O83  1  0.25960100  0.08288400  0.33912400  1
  O  O84  1  0.23417700  0.98848400  0.56466500  1
  O  O85  1  0.19923900  0.01162800  0.74540500  1
