# generated using pymatgen
data_Li2CoH8(SO6)2
_symmetry_space_group_name_H-M   'P 1'
_cell_length_a   8.15334900
_cell_length_b   5.44875300
_cell_length_c   10.62741274
_cell_angle_alpha   80.23282312
_cell_angle_beta   90.00000000
_cell_angle_gamma   90.00000000
_symmetry_Int_Tables_number   1
_chemical_formula_structural   Li2CoH8(SO6)2
_chemical_formula_sum   'Li4 Co2 H16 S4 O24'
_cell_volume   465.28563175
_cell_formula_units_Z   2
loop_
 _symmetry_equiv_pos_site_id
 _symmetry_equiv_pos_as_xyz
  1  'x, y, z'
loop_
 _atom_site_type_symbol
 _atom_site_label
 _atom_site_symmetry_multiplicity
 _atom_site_fract_x
 _atom_site_fract_y
 _atom_site_fract_z
 _atom_site_occupancy
  Li  Li0  1  0.56370700  0.89559900  0.86548300  1
  Li  Li1  1  0.06370700  0.10440100  0.63451700  1
  Li  Li2  1  0.93629300  0.89559900  0.36548300  1
  Li  Li3  1  0.43629300  0.10440100  0.13451700  1
  Co  Co4  1  0.00000000  0.00000000  0.00000000  1
  Co  Co5  1  0.50000000  0.00000000  0.50000000  1
  H  H6  1  0.71543500  0.23506900  0.98441000  1
  H  H7  1  0.14033900  0.77752300  0.83658900  1
  H  H8  1  0.94419600  0.77650800  0.81295000  1
  H  H9  1  0.80162900  0.32793900  0.85575400  1
  H  H10  1  0.30162900  0.67206100  0.64424600  1
  H  H11  1  0.44419600  0.22349200  0.68705000  1
  H  H12  1  0.64033900  0.22247700  0.66341100  1
  H  H13  1  0.21543500  0.76493100  0.51559000  1
  H  H14  1  0.78456500  0.23506900  0.48441000  1
  H  H15  1  0.35966100  0.77752300  0.33658900  1
  H  H16  1  0.55580400  0.77650800  0.31295000  1
  H  H17  1  0.69837100  0.32793900  0.35575400  1
  H  H18  1  0.19837100  0.67206100  0.14424600  1
  H  H19  1  0.05580400  0.22349200  0.18705000  1
  H  H20  1  0.85966100  0.22247700  0.16341100  1
  H  H21  1  0.28456500  0.76493100  0.01559000  1
  S  S22  1  0.28988900  0.37128700  0.86699500  1
  S  S23  1  0.78988900  0.62871300  0.63300500  1
  S  S24  1  0.21011100  0.37128700  0.36699500  1
  S  S25  1  0.71011100  0.62871300  0.13300500  1
  O  O26  1  0.12787800  0.32800100  0.93132500  1
  O  O27  1  0.41523500  0.19631900  0.93101700  1
  O  O28  1  0.77899500  0.17331500  0.91687300  1
  O  O29  1  0.33857400  0.63673600  0.87004200  1
  O  O30  1  0.04133400  0.88507500  0.82490200  1
  O  O31  1  0.77336600  0.65710500  0.77092400  1
  O  O32  1  0.27336600  0.34289500  0.72907600  1
  O  O33  1  0.54133400  0.11492500  0.67509800  1
  O  O34  1  0.83857400  0.36326400  0.62995800  1
  O  O35  1  0.27899500  0.82668500  0.58312700  1
  O  O36  1  0.91523500  0.80368100  0.56898300  1
  O  O37  1  0.62787800  0.67199900  0.56867500  1
  O  O38  1  0.37212200  0.32800100  0.43132500  1
  O  O39  1  0.08476500  0.19631900  0.43101700  1
  O  O40  1  0.72100500  0.17331500  0.41687300  1
  O  O41  1  0.16142600  0.63673600  0.37004200  1
  O  O42  1  0.45866600  0.88507500  0.32490200  1
  O  O43  1  0.72663400  0.65710500  0.27092400  1
  O  O44  1  0.22663400  0.34289500  0.22907600  1
  O  O45  1  0.95866600  0.11492500  0.17509800  1
  O  O46  1  0.66142600  0.36326400  0.12995800  1
  O  O47  1  0.22100500  0.82668500  0.08312700  1
  O  O48  1  0.58476500  0.80368100  0.06898300  1
  O  O49  1  0.87212200  0.67199900  0.06867500  1
