# generated using pymatgen
data_Li2CuF5
_symmetry_space_group_name_H-M   'P 1'
_cell_length_a   5.02213100
_cell_length_b   5.63130401
_cell_length_c   7.49394077
_cell_angle_alpha   97.41396510
_cell_angle_beta   106.14392682
_cell_angle_gamma   115.16119358
_symmetry_Int_Tables_number   1
_chemical_formula_structural   Li2CuF5
_chemical_formula_sum   'Li4 Cu2 F10'
_cell_volume   176.65466772
_cell_formula_units_Z   2
loop_
 _symmetry_equiv_pos_site_id
 _symmetry_equiv_pos_as_xyz
  1  'x, y, z'
loop_
 _atom_site_type_symbol
 _atom_site_label
 _atom_site_symmetry_multiplicity
 _atom_site_fract_x
 _atom_site_fract_y
 _atom_site_fract_z
 _atom_site_occupancy
  Li  Li0  1  0.57267200  0.95311200  0.21611000  1
  Li  Li1  1  0.13183100  0.48932000  0.76001800  1
  Li  Li2  1  0.86816900  0.51068000  0.23998200  1
  Li  Li3  1  0.42732800  0.04688800  0.78389000  1
  Cu  Cu4  1  0.00000000  0.00000000  0.00000000  1
  Cu  Cu5  1  0.50000000  0.50000000  0.50000000  1
  F  F6  1  0.69234300  0.30305200  0.45981500  1
  F  F7  1  0.87722200  0.20972300  0.84677600  1
  F  F8  1  0.68313400  0.71166600  0.36154300  1
  F  F9  1  0.98546000  0.77583400  0.77339400  1
  F  F10  1  0.55568500  0.77947000  0.95590700  1
  F  F11  1  0.44431500  0.22053000  0.04409300  1
  F  F12  1  0.01454000  0.22416600  0.22660600  1
  F  F13  1  0.31686600  0.28833400  0.63845700  1
  F  F14  1  0.12277800  0.79027700  0.15322400  1
  F  F15  1  0.30765700  0.69694800  0.54018500  1
