# generated using pymatgen
data_Li2Mn7F18
_symmetry_space_group_name_H-M   'P 1'
_cell_length_a   7.22607700
_cell_length_b   7.66982917
_cell_length_c   7.90586649
_cell_angle_alpha   96.31745027
_cell_angle_beta   93.25632538
_cell_angle_gamma   117.02491544
_symmetry_Int_Tables_number   1
_chemical_formula_structural   Li2Mn7F18
_chemical_formula_sum   'Li2 Mn7 F18'
_cell_volume   385.11839668
_cell_formula_units_Z   1
loop_
 _symmetry_equiv_pos_site_id
 _symmetry_equiv_pos_as_xyz
  1  'x, y, z'
loop_
 _atom_site_type_symbol
 _atom_site_label
 _atom_site_symmetry_multiplicity
 _atom_site_fract_x
 _atom_site_fract_y
 _atom_site_fract_z
 _atom_site_occupancy
  Li  Li0  1  0.36540000  0.84995300  0.57197200  1
  Li  Li1  1  0.63460000  0.15004700  0.42802800  1
  Mn  Mn2  1  0.21727300  0.88789600  0.17729300  1
  Mn  Mn3  1  0.00000000  0.00000000  0.50000000  1
  Mn  Mn4  1  0.18549700  0.39451900  0.21276000  1
  Mn  Mn5  1  0.38329000  0.26726700  0.87369700  1
  Mn  Mn6  1  0.61671000  0.73273300  0.12630300  1
  Mn  Mn7  1  0.81450300  0.60548100  0.78724000  1
  Mn  Mn8  1  0.78272700  0.11210400  0.82270700  1
  F  F9  1  0.07573300  0.74473900  0.92850100  1
  F  F10  1  0.16225400  0.64618300  0.30191400  1
  F  F11  1  0.06455500  0.26072600  0.40059500  1
  F  F12  1  0.08013200  0.13885500  0.75228500  1
  F  F13  1  0.31060100  0.50522100  0.00492400  1
  F  F14  1  0.54103500  0.96161700  0.20184900  1
  F  F15  1  0.46894000  0.54543100  0.31598300  1
  F  F16  1  0.27654900  0.16695600  0.10696800  1
  F  F17  1  0.68395600  0.96712700  0.55113800  1
  F  F18  1  0.31604400  0.03287300  0.44886200  1
  F  F19  1  0.72345100  0.83304400  0.89303200  1
  F  F20  1  0.53106000  0.45456900  0.68401700  1
  F  F21  1  0.45896500  0.03838300  0.79815100  1
  F  F22  1  0.68939900  0.49477900  0.99507600  1
  F  F23  1  0.91986800  0.86114500  0.24771500  1
  F  F24  1  0.93544500  0.73927400  0.59940500  1
  F  F25  1  0.83774600  0.35381700  0.69808600  1
  F  F26  1  0.92426700  0.25526100  0.07149900  1
