# generated using pymatgen
data_LiNiPO4
_symmetry_space_group_name_H-M   'P 1'
_cell_length_a   4.28775106
_cell_length_b   14.29166300
_cell_length_c   4.76561006
_cell_angle_alpha   89.99989578
_cell_angle_beta   89.98168255
_cell_angle_gamma   89.99999999
_symmetry_Int_Tables_number   1
_chemical_formula_structural   LiNiPO4
_chemical_formula_sum   'Li4 Ni4 P4 O16'
_cell_volume   292.03224769
_cell_formula_units_Z   4
loop_
 _symmetry_equiv_pos_site_id
 _symmetry_equiv_pos_as_xyz
  1  'x, y, z'
loop_
 _atom_site_type_symbol
 _atom_site_label
 _atom_site_symmetry_multiplicity
 _atom_site_fract_x
 _atom_site_fract_y
 _atom_site_fract_z
 _atom_site_occupancy
  Li  Li0  1  0.99999900  0.24823300  0.75000300  1
  Li  Li1  1  0.99999800  0.75176800  0.24999800  1
  Li  Li2  1  0.49999900  0.25175300  0.24999700  1
  Li  Li3  1  0.49999800  0.74824700  0.75000500  1
  Ni  Ni4  1  0.50000100  0.43691900  0.74999900  1
  Ni  Ni5  1  0.50000000  0.56307800  0.25001000  1
  Ni  Ni6  1  0.00002200  0.06329700  0.24999600  1
  Ni  Ni7  1  0.00002100  0.93670100  0.74997000  1
  P  P8  1  0.99999600  0.38986300  0.24999800  1
  P  P9  1  0.99999500  0.61013700  0.75000200  1
  P  P10  1  0.49999800  0.88990000  0.24999100  1
  P  P11  1  0.50000100  0.11010200  0.75001300  1
  O  O12  1  0.18555400  0.32976700  0.46669700  1
  O  O13  1  0.18554800  0.67022900  0.96669700  1
  O  O14  1  0.31437400  0.17019300  0.96677900  1
  O  O15  1  0.31437500  0.82980500  0.46677500  1
  O  O16  1  0.68561800  0.17020100  0.53323200  1
  O  O17  1  0.68562500  0.82980500  0.03323000  1
  O  O18  1  0.81444000  0.32977100  0.03330400  1
  O  O19  1  0.81443900  0.67023100  0.53330100  1
  O  O20  1  0.25919600  0.04927200  0.58895900  1
  O  O21  1  0.25919400  0.95072800  0.08895300  1
  O  O22  1  0.24072700  0.45069000  0.08896800  1
  O  O23  1  0.24072300  0.54931000  0.58896800  1
  O  O24  1  0.75926700  0.54930900  0.91103900  1
  O  O25  1  0.75927000  0.45068900  0.41103700  1
  O  O26  1  0.74081300  0.04927200  0.91103900  1
  O  O27  1  0.74080700  0.95073100  0.41103800  1
