# generated using pymatgen
data_LiFeSiO4
_symmetry_space_group_name_H-M   'P 1'
_cell_length_a   8.11741700
_cell_length_b   8.75019100
_cell_length_c   17.50153816
_cell_angle_alpha   60.34731375
_cell_angle_beta   90.00000000
_cell_angle_gamma   90.00000000
_symmetry_Int_Tables_number   1
_chemical_formula_structural   LiFeSiO4
_chemical_formula_sum   'Li12 Fe12 Si12 O48'
_cell_volume   1080.31785675
_cell_formula_units_Z   12
loop_
 _symmetry_equiv_pos_site_id
 _symmetry_equiv_pos_as_xyz
  1  'x, y, z'
loop_
 _atom_site_type_symbol
 _atom_site_label
 _atom_site_symmetry_multiplicity
 _atom_site_fract_x
 _atom_site_fract_y
 _atom_site_fract_z
 _atom_site_occupancy
  Li  Li0  1  0.99399100  0.26086200  0.94018700  1
  Li  Li1  1  0.01603600  0.63083000  0.58491400  1
  Li  Li2  1  0.84356700  0.00433500  0.24702700  1
  Li  Li3  1  0.34356700  0.99566500  0.25297300  1
  Li  Li4  1  0.51603600  0.36917000  0.91508600  1
  Li  Li5  1  0.49399100  0.73913800  0.55981300  1
  Li  Li6  1  0.50600900  0.26086200  0.44018700  1
  Li  Li7  1  0.48396400  0.63083000  0.08491400  1
  Li  Li8  1  0.65643300  0.00433500  0.74702700  1
  Li  Li9  1  0.15643300  0.99566500  0.75297300  1
  Li  Li10  1  0.98396400  0.36917000  0.41508600  1
  Li  Li11  1  0.00600900  0.73913800  0.05981300  1
  Fe  Fe12  1  0.65941100  0.64976100  0.40566800  1
  Fe  Fe13  1  0.83344800  0.31340400  0.76688700  1
  Fe  Fe14  1  0.66015300  0.02562900  0.07726600  1
  Fe  Fe15  1  0.16015300  0.97437100  0.42273400  1
  Fe  Fe16  1  0.33344800  0.68659600  0.73311300  1
  Fe  Fe17  1  0.15941100  0.35023900  0.09433200  1
  Fe  Fe18  1  0.84058900  0.64976100  0.90566800  1
  Fe  Fe19  1  0.66655200  0.31340400  0.26688700  1
  Fe  Fe20  1  0.83984700  0.02562900  0.57726600  1
  Fe  Fe21  1  0.33984700  0.97437100  0.92273400  1
  Fe  Fe22  1  0.16655200  0.68659600  0.23311300  1
  Fe  Fe23  1  0.34058900  0.35023900  0.59433200  1
  Si  Si24  1  0.26314300  0.63847600  0.41168900  1
  Si  Si25  1  0.21856400  0.31346900  0.77146000  1
  Si  Si26  1  0.27015400  0.03791300  0.07178000  1
  Si  Si27  1  0.77015400  0.96208700  0.42822000  1
  Si  Si28  1  0.71856400  0.68653100  0.72854000  1
  Si  Si29  1  0.76314300  0.36152400  0.08831100  1
  Si  Si30  1  0.23685700  0.63847600  0.91168900  1
  Si  Si31  1  0.28143600  0.31346900  0.27146000  1
  Si  Si32  1  0.22984600  0.03791300  0.57178000  1
  Si  Si33  1  0.72984600  0.96208700  0.92822000  1
  Si  Si34  1  0.78143600  0.68653100  0.22854000  1
  Si  Si35  1  0.73685700  0.36152400  0.58831100  1
  O  O36  1  0.55390300  0.42960400  0.60066100  1
  O  O37  1  0.86808200  0.41569900  0.64332500  1
  O  O38  1  0.78504200  0.08003200  0.97405600  1
  O  O39  1  0.04063700  0.26229300  0.82443900  1
  O  O40  1  0.35972200  0.22220800  0.84876600  1
  O  O41  1  0.76808800  0.77164500  0.29438400  1
  O  O42  1  0.21398000  0.55106200  0.51621500  1
  O  O43  1  0.28034800  0.90622300  0.17936600  1
  O  O44  1  0.45131900  0.13257800  0.03472600  1
  O  O45  1  0.23109200  0.52675000  0.70649200  1
  O  O46  1  0.26296900  0.85503800  0.36863200  1
  O  O47  1  0.13535800  0.19592200  0.04687000  1
  O  O48  1  0.63535800  0.80407800  0.45313000  1
  O  O49  1  0.76296900  0.14496200  0.13136800  1
  O  O50  1  0.73109200  0.47325000  0.79350800  1
  O  O51  1  0.95131900  0.86742200  0.46527400  1
  O  O52  1  0.78034800  0.09377700  0.32063400  1
  O  O53  1  0.71398000  0.44893800  0.98378500  1
  O  O54  1  0.85972200  0.77779200  0.65123400  1
  O  O55  1  0.26808800  0.22835500  0.20561600  1
  O  O56  1  0.54063700  0.73770700  0.67556100  1
  O  O57  1  0.28504200  0.91996800  0.52594400  1
  O  O58  1  0.36808200  0.58430100  0.85667500  1
  O  O59  1  0.05390300  0.57039600  0.89933900  1
  O  O60  1  0.94609700  0.42960400  0.10066100  1
  O  O61  1  0.63191800  0.41569900  0.14332500  1
  O  O62  1  0.71495800  0.08003200  0.47405600  1
  O  O63  1  0.45936300  0.26229300  0.32443900  1
  O  O64  1  0.73191200  0.77164500  0.79438400  1
  O  O65  1  0.14027800  0.22220800  0.34876600  1
  O  O66  1  0.28602000  0.55106200  0.01621500  1
  O  O67  1  0.21965200  0.90622300  0.67936600  1
  O  O68  1  0.04868100  0.13257800  0.53472600  1
  O  O69  1  0.26890800  0.52675000  0.20649200  1
  O  O70  1  0.23703100  0.85503800  0.86863200  1
  O  O71  1  0.36464200  0.19592200  0.54687000  1
  O  O72  1  0.86464200  0.80407800  0.95313000  1
  O  O73  1  0.73703100  0.14496200  0.63136800  1
  O  O74  1  0.76890800  0.47325000  0.29350800  1
  O  O75  1  0.54868100  0.86742200  0.96527400  1
  O  O76  1  0.71965200  0.09377700  0.82063400  1
  O  O77  1  0.78602000  0.44893800  0.48378500  1
  O  O78  1  0.23191200  0.22835500  0.70561600  1
  O  O79  1  0.64027800  0.77779200  0.15123400  1
  O  O80  1  0.95936300  0.73770700  0.17556100  1
  O  O81  1  0.21495800  0.91996800  0.02594400  1
  O  O82  1  0.13191800  0.58430100  0.35667500  1
  O  O83  1  0.44609700  0.57039600  0.39933900  1
