# generated using pymatgen
data_Li3Mn5O2F9
_symmetry_space_group_name_H-M   'P 1'
_cell_length_a   6.64804800
_cell_length_b   6.93082704
_cell_length_c   10.76251350
_cell_angle_alpha   81.12898108
_cell_angle_beta   84.44906203
_cell_angle_gamma   77.73318848
_symmetry_Int_Tables_number   1
_chemical_formula_structural   Li3Mn5O2F9
_chemical_formula_sum   'Li6 Mn10 O4 F18'
_cell_volume   477.72821004
_cell_formula_units_Z   2
loop_
 _symmetry_equiv_pos_site_id
 _symmetry_equiv_pos_as_xyz
  1  'x, y, z'
loop_
 _atom_site_type_symbol
 _atom_site_label
 _atom_site_symmetry_multiplicity
 _atom_site_fract_x
 _atom_site_fract_y
 _atom_site_fract_z
 _atom_site_occupancy
  Li  Li0  1  0.79994900  0.79294000  0.99599000  1
  Li  Li1  1  0.77818200  0.86495100  0.53408600  1
  Li  Li2  1  0.57434300  0.57382700  0.73093200  1
  Li  Li3  1  0.42374200  0.41184100  0.25417600  1
  Li  Li4  1  0.18576400  0.15136300  0.45881000  1
  Li  Li5  1  0.26272000  0.20662000  0.04153100  1
  Mn  Mn6  1  0.99945300  0.97872600  0.76767600  1
  Mn  Mn7  1  0.53520800  0.91029600  0.26360100  1
  Mn  Mn8  1  0.89322500  0.52045700  0.21985500  1
  Mn  Mn9  1  0.31241400  0.69921500  0.98760400  1
  Mn  Mn10  1  0.29951500  0.67838700  0.51532900  1
  Mn  Mn11  1  0.64235900  0.34287700  0.49565200  1
  Mn  Mn12  1  0.71639800  0.29276200  0.99353800  1
  Mn  Mn13  1  0.11707500  0.49510600  0.78133700  1
  Mn  Mn14  1  0.45147000  0.12167900  0.74871700  1
  Mn  Mn15  1  0.02515600  0.94485300  0.25077200  1
  O  O16  1  0.82527400  0.82603200  0.17489100  1
  O  O17  1  0.25263700  0.90804000  0.37056600  1
  O  O18  1  0.39018400  0.42202000  0.66146900  1
  O  O19  1  0.05547700  0.72373500  0.88893600  1
  F  F20  1  0.73106500  0.03909400  0.38483000  1
  F  F21  1  0.61918900  0.67237100  0.54905800  1
  F  F22  1  0.81606800  0.42247200  0.80607700  1
  F  F23  1  0.48845400  0.80812000  0.81624100  1
  F  F24  1  0.94055600  0.34484200  0.40668900  1
  F  F25  1  0.31075500  0.92548400  0.10047800  1
  F  F26  1  0.97028100  0.25106300  0.12225200  1
  F  F27  1  0.64896400  0.57811400  0.05090300  1
  F  F28  1  0.59197300  0.56068800  0.31471000  1
  F  F29  1  0.40071900  0.39624400  0.92876800  1
  F  F30  1  0.71064200  0.05360700  0.89465900  1
  F  F31  1  0.01054700  0.72232700  0.61744600  1
  F  F32  1  0.51251900  0.20574100  0.15375900  1
  F  F33  1  0.74993500  0.08629500  0.63429300  1
  F  F34  1  0.20223300  0.53966400  0.16486600  1
  F  F35  1  0.35810900  0.33592500  0.42436200  1
  F  F36  1  0.16285400  0.15966900  0.86620800  1
  F  F37  1  0.23459200  0.03255800  0.62893200  1
