# generated using pymatgen
data_LiVCrO4
_symmetry_space_group_name_H-M   'P 1'
_cell_length_a   5.26708800
_cell_length_b   5.91647568
_cell_length_c   7.79079372
_cell_angle_alpha   98.84636407
_cell_angle_beta   108.76152918
_cell_angle_gamma   91.77774484
_symmetry_Int_Tables_number   1
_chemical_formula_structural   LiVCrO4
_chemical_formula_sum   'Li3 V3 Cr3 O12'
_cell_volume   226.30465649
_cell_formula_units_Z   3
loop_
 _symmetry_equiv_pos_site_id
 _symmetry_equiv_pos_as_xyz
  1  'x, y, z'
loop_
 _atom_site_type_symbol
 _atom_site_label
 _atom_site_symmetry_multiplicity
 _atom_site_fract_x
 _atom_site_fract_y
 _atom_site_fract_z
 _atom_site_occupancy
  Li  Li0  1  0.00077500  0.99704000  0.00166700  1
  Li  Li1  1  0.67055100  0.66286200  0.66757000  1
  Li  Li2  1  0.33089500  0.33995200  0.32916800  1
  V  V3  1  0.51733200  0.25793600  0.99106500  1
  V  V4  1  0.19168200  0.91957500  0.66125700  1
  V  V5  1  0.80866800  0.07655200  0.34025100  1
  Cr  Cr6  1  0.48524600  0.75286300  0.00591000  1
  Cr  Cr7  1  0.14874400  0.41676800  0.67199500  1
  Cr  Cr8  1  0.84615700  0.58150900  0.32757700  1
  O  O9  1  0.56121100  0.95896200  0.83821700  1
  O  O10  1  0.54266100  0.46721600  0.84289600  1
  O  O11  1  0.23061100  0.62750100  0.51264500  1
  O  O12  1  0.20178400  0.13376600  0.50766900  1
  O  O13  1  0.86432100  0.81422800  0.16912800  1
  O  O14  1  0.89340500  0.27845200  0.17925000  1
  O  O15  1  0.10041900  0.71915700  0.81633600  1
  O  O16  1  0.13628600  0.18424600  0.83405400  1
  O  O17  1  0.79254300  0.86728500  0.49228800  1
  O  O18  1  0.77168900  0.37300700  0.49142900  1
  O  O19  1  0.46424700  0.51885300  0.16216700  1
  O  O20  1  0.44077600  0.05227100  0.15746500  1
