# generated using pymatgen
data_Li3VOF6
_symmetry_space_group_name_H-M   'P 1'
_cell_length_a   5.20371000
_cell_length_b   5.21601000
_cell_length_c   16.12737500
_cell_angle_alpha   90.00000000
_cell_angle_beta   90.00000000
_cell_angle_gamma   90.00000000
_symmetry_Int_Tables_number   1
_chemical_formula_structural   Li3VOF6
_chemical_formula_sum   'Li12 V4 O4 F24'
_cell_volume   437.73894346
_cell_formula_units_Z   4
loop_
 _symmetry_equiv_pos_site_id
 _symmetry_equiv_pos_as_xyz
  1  'x, y, z'
loop_
 _atom_site_type_symbol
 _atom_site_label
 _atom_site_symmetry_multiplicity
 _atom_site_fract_x
 _atom_site_fract_y
 _atom_site_fract_z
 _atom_site_occupancy
  Li  Li0  1  0.20078300  0.49151800  0.99959400  1
  Li  Li1  1  0.23301600  0.99136900  0.87640800  1
  Li  Li2  1  0.23506700  0.46859500  0.25534600  1
  Li  Li3  1  0.26493300  0.53140500  0.75534600  1
  Li  Li4  1  0.26698400  0.00863100  0.37640800  1
  Li  Li5  1  0.29921700  0.50848200  0.49959400  1
  Li  Li6  1  0.70078300  0.00848200  0.00040600  1
  Li  Li7  1  0.73301600  0.50863100  0.12359200  1
  Li  Li8  1  0.73506700  0.03140500  0.74465400  1
  Li  Li9  1  0.76493300  0.96859500  0.24465400  1
  Li  Li10  1  0.76698400  0.49136900  0.62359200  1
  Li  Li11  1  0.79921700  0.99151800  0.50040600  1
  V  V12  1  0.24545700  0.00416500  0.62443300  1
  V  V13  1  0.25454300  0.99583500  0.12443300  1
  V  V14  1  0.74545700  0.49583500  0.37556700  1
  V  V15  1  0.75454300  0.50416500  0.87556700  1
  O  O16  1  0.01371700  0.33979200  0.39089800  1
  O  O17  1  0.48628300  0.66020800  0.89089800  1
  O  O18  1  0.51371700  0.16020800  0.60910200  1
  O  O19  1  0.98628300  0.83979200  0.10910200  1
  F  F20  1  0.04297400  0.26169700  0.55669500  1
  F  F21  1  0.09620500  0.33144900  0.86234600  1
  F  F22  1  0.08075500  0.24163800  0.69947800  1
  F  F23  1  0.12455100  0.34253200  0.12327600  1
  F  F24  1  0.13622300  0.08645400  0.24109700  1
  F  F25  1  0.21333200  0.87852100  0.50895400  1
  F  F26  1  0.28666800  0.12147900  0.00895400  1
  F  F27  1  0.36377700  0.91354600  0.74109700  1
  F  F28  1  0.37544900  0.65746800  0.62327600  1
  F  F29  1  0.41924500  0.75836200  0.19947800  1
  F  F30  1  0.40379500  0.66855100  0.36234600  1
  F  F31  1  0.45702600  0.73830300  0.05669500  1
  F  F32  1  0.54297400  0.23830300  0.44330500  1
  F  F33  1  0.59620500  0.16855100  0.13765400  1
  F  F34  1  0.58075500  0.25836200  0.30052200  1
  F  F35  1  0.62455100  0.15746800  0.87672400  1
  F  F36  1  0.63622300  0.41354600  0.75890300  1
  F  F37  1  0.71333200  0.62147900  0.49104600  1
  F  F38  1  0.78666800  0.37852100  0.99104600  1
  F  F39  1  0.86377700  0.58645400  0.25890300  1
  F  F40  1  0.87544900  0.84253200  0.37672400  1
  F  F41  1  0.91924500  0.74163800  0.80052200  1
  F  F42  1  0.90379500  0.83144900  0.63765400  1
  F  F43  1  0.95702600  0.76169700  0.94330500  1
