# generated using pymatgen
data_Li4Mn5(Fe2O9)2
_symmetry_space_group_name_H-M   'P 1'
_cell_length_a   9.11755047
_cell_length_b   24.90984111
_cell_length_c   2.90992600
_cell_angle_alpha   89.99959143
_cell_angle_beta   89.99994774
_cell_angle_gamma   89.81857850
_symmetry_Int_Tables_number   1
_chemical_formula_structural   Li4Mn5(Fe2O9)2
_chemical_formula_sum   'Li8 Mn10 Fe8 O36'
_cell_volume   660.88957456
_cell_formula_units_Z   2
loop_
 _symmetry_equiv_pos_site_id
 _symmetry_equiv_pos_as_xyz
  1  'x, y, z'
loop_
 _atom_site_type_symbol
 _atom_site_label
 _atom_site_symmetry_multiplicity
 _atom_site_fract_x
 _atom_site_fract_y
 _atom_site_fract_z
 _atom_site_occupancy
  Li  Li0  1  0.17837000  0.99315200  0.00001500  1
  Li  Li1  1  0.20593800  0.20364200  0.99999900  1
  Li  Li2  1  0.29164100  0.70439300  0.99999900  1
  Li  Li3  1  0.32128200  0.49336200  0.00000200  1
  Li  Li4  1  0.67863000  0.50608600  0.99999700  1
  Li  Li5  1  0.71154000  0.29383200  0.99999800  1
  Li  Li6  1  0.79371600  0.79641600  0.00000300  1
  Li  Li7  1  0.82301700  0.00615000  0.00000100  1
  Mn  Mn8  1  0.99933600  0.50001200  0.00000000  1
  Mn  Mn9  1  0.00586900  0.10493200  0.00001700  1
  Mn  Mn10  1  0.14941700  0.80929400  0.49996900  1
  Mn  Mn11  1  0.34920400  0.30902800  0.50000000  1
  Mn  Mn12  1  0.49420500  0.60465000  0.00000100  1
  Mn  Mn13  1  0.49798100  0.99895600  0.00003200  1
  Mn  Mn14  1  0.50619100  0.39508900  0.99999600  1
  Mn  Mn15  1  0.64731800  0.69187000  0.49999600  1
  Mn  Mn16  1  0.85118400  0.19165000  0.50000500  1
  Mn  Mn17  1  0.99208600  0.89534500  0.99996300  1
  Fe  Fe18  1  0.01928600  0.30823800  0.00000300  1
  Fe  Fe19  1  0.14752000  0.58835600  0.49999600  1
  Fe  Fe20  1  0.35103300  0.08845100  0.50002200  1
  Fe  Fe21  1  0.48650800  0.80785100  0.99999200  1
  Fe  Fe22  1  0.51408200  0.19461900  0.00000300  1
  Fe  Fe23  1  0.64821600  0.91153100  0.50000500  1
  Fe  Fe24  1  0.85367400  0.41079000  0.50000300  1
  Fe  Fe25  1  0.98664500  0.69390300  0.99999600  1
  O  O26  1  0.99790100  0.42286300  0.00000300  1
  O  O27  1  0.00294700  0.57827900  0.99999700  1
  O  O28  1  0.04191200  0.94161800  0.49995400  1
  O  O29  1  0.04877300  0.15846200  0.50001200  1
  O  O30  1  0.11823400  0.66836500  0.49999500  1
  O  O31  1  0.10246900  0.76123000  0.99997400  1
  O  O32  1  0.14214900  0.50356000  0.50000000  1
  O  O33  1  0.15216600  0.28271200  0.50000100  1
  O  O34  1  0.18514000  0.85845300  0.99996200  1
  O  O35  1  0.20363700  0.08104700  0.00002200  1
  O  O36  1  0.29804600  0.58150000  0.99999800  1
  O  O37  1  0.31216300  0.35861100  0.99999700  1
  O  O38  1  0.34843100  0.78515300  0.49998600  1
  O  O39  1  0.35561400  0.00191500  0.50003200  1
  O  O40  1  0.39332000  0.26107900  0.00000200  1
  O  O41  1  0.38674400  0.16642200  0.50000900  1
  O  O42  1  0.45265200  0.65879300  0.49999800  1
  O  O43  1  0.45513000  0.44184000  0.49999300  1
  O  O44  1  0.49464500  0.07603000  0.00002400  1
  O  O45  1  0.50326800  0.92099600  0.00001600  1
  O  O46  1  0.54728900  0.55866000  0.50000400  1
  O  O47  1  0.54584400  0.34153000  0.49999900  1
  O  O48  1  0.61727100  0.83300600  0.49999500  1
  O  O49  1  0.60248700  0.73969000  0.99999400  1
  O  O50  1  0.64091100  0.99604500  0.50002600  1
  O  O51  1  0.65103700  0.21699600  0.50000100  1
  O  O52  1  0.68608500  0.64260400  0.99999900  1
  O  O53  1  0.70419200  0.41726200  0.00000100  1
  O  O54  1  0.79659700  0.91853800  0.99999500  1
  O  O55  1  0.81536400  0.14149500  0.00001000  1
  O  O56  1  0.84899200  0.71672700  0.49999400  1
  O  O57  1  0.85705900  0.49644500  0.50000000  1
  O  O58  1  0.89570600  0.23832300  0.00000200  1
  O  O59  1  0.88374300  0.33268800  0.50000200  1
  O  O60  1  0.95213500  0.84121300  0.49996300  1
  O  O61  1  0.95605800  0.05825600  0.50002300  1
