# generated using pymatgen
data_Li4Mn3Cr3(TeO8)2
_symmetry_space_group_name_H-M   'P 1'
_cell_length_a   6.04972726
_cell_length_b   6.04972726
_cell_length_c   9.81677289
_cell_angle_alpha   88.44744929
_cell_angle_beta   88.44744929
_cell_angle_gamma   59.53324091
_symmetry_Int_Tables_number   1
_chemical_formula_structural   Li4Mn3Cr3(TeO8)2
_chemical_formula_sum   'Li4 Mn3 Cr3 Te2 O16'
_cell_volume   309.52618575
_cell_formula_units_Z   1
loop_
 _symmetry_equiv_pos_site_id
 _symmetry_equiv_pos_as_xyz
  1  'x, y, z'
loop_
 _atom_site_type_symbol
 _atom_site_label
 _atom_site_symmetry_multiplicity
 _atom_site_fract_x
 _atom_site_fract_y
 _atom_site_fract_z
 _atom_site_occupancy
  Li  Li0  1  0.66164500  0.66164500  0.09025600  1
  Li  Li1  1  0.99482000  0.99482000  0.01449300  1
  Li  Li2  1  0.00373900  0.00373900  0.51180700  1
  Li  Li3  1  0.33652100  0.33652100  0.59561600  1
  Mn  Mn4  1  0.83427600  0.83427600  0.78841000  1
  Mn  Mn5  1  0.17475100  0.65994900  0.28756200  1
  Mn  Mn6  1  0.65994900  0.17475100  0.28756200  1
  Cr  Cr7  1  0.33695000  0.83366900  0.78668500  1
  Cr  Cr8  1  0.83366900  0.33695000  0.78668500  1
  Cr  Cr9  1  0.17266000  0.17266000  0.28481600  1
  Te  Te10  1  0.67161800  0.67161800  0.51726900  1
  Te  Te11  1  0.32926800  0.32926800  0.01354200  1
  O  O12  1  0.34817700  0.83756900  0.41462000  1
  O  O13  1  0.52347900  0.52347900  0.65552800  1
  O  O14  1  0.66946500  0.66946500  0.88423500  1
  O  O15  1  0.99870400  0.99870400  0.69537600  1
  O  O16  1  0.00211900  0.00211900  0.20403400  1
  O  O17  1  0.83756900  0.34817700  0.41462000  1
  O  O18  1  0.51374300  0.96247900  0.64928000  1
  O  O19  1  0.96247900  0.51374300  0.64928000  1
  O  O20  1  0.15338100  0.15338100  0.89913000  1
  O  O21  1  0.83498500  0.83498500  0.41284700  1
  O  O22  1  0.02696200  0.46818300  0.15202600  1
  O  O23  1  0.46818300  0.02696200  0.15202600  1
  O  O24  1  0.33148900  0.33148900  0.38722000  1
  O  O25  1  0.16199800  0.67986400  0.90363000  1
  O  O26  1  0.47700500  0.47700500  0.14997300  1
  O  O27  1  0.67986400  0.16199800  0.90363000  1
