# generated using pymatgen
data_Li7Co(OF)3
_symmetry_space_group_name_H-M   'P 1'
_cell_length_a   5.69947669
_cell_length_b   8.46990095
_cell_length_c   5.76031214
_cell_angle_alpha   80.02460666
_cell_angle_beta   95.22241533
_cell_angle_gamma   88.45739146
_symmetry_Int_Tables_number   1
_chemical_formula_structural   Li7Co(OF)3
_chemical_formula_sum   'Li14 Co2 O6 F6'
_cell_volume   272.47416837
_cell_formula_units_Z   2
loop_
 _symmetry_equiv_pos_site_id
 _symmetry_equiv_pos_as_xyz
  1  'x, y, z'
loop_
 _atom_site_type_symbol
 _atom_site_label
 _atom_site_symmetry_multiplicity
 _atom_site_fract_x
 _atom_site_fract_y
 _atom_site_fract_z
 _atom_site_occupancy
  Li  Li0  1  0.33056100  0.44800300  0.95252000  1
  Li  Li1  1  0.83050100  0.94783900  0.45266800  1
  Li  Li2  1  0.84643000  0.29547800  0.07094200  1
  Li  Li3  1  0.34640600  0.79559100  0.57109600  1
  Li  Li4  1  0.96605800  0.34706300  0.66617300  1
  Li  Li5  1  0.46572800  0.84665300  0.16630400  1
  Li  Li6  1  0.08082600  0.68149800  0.32007000  1
  Li  Li7  1  0.58091900  0.18127300  0.82014100  1
  Li  Li8  1  0.18450500  0.70175600  0.92199800  1
  Li  Li9  1  0.68508900  0.20152500  0.42222800  1
  Li  Li10  1  0.66971600  0.55827500  0.10281100  1
  Li  Li11  1  0.16943400  0.05811500  0.60274700  1
  Li  Li12  1  0.83105200  0.61799400  0.71265000  1
  Li  Li13  1  0.33131200  0.11794700  0.21263400  1
  Co  Co14  1  0.92790100  0.98689200  0.01812400  1
  Co  Co15  1  0.42759800  0.48704100  0.51776200  1
  O  O16  1  0.36563200  0.59261600  0.18956100  1
  O  O17  1  0.86546600  0.09216900  0.68990600  1
  O  O18  1  0.16195800  0.58694900  0.65854200  1
  O  O19  1  0.66219500  0.08705400  0.15854600  1
  O  O20  1  0.65205700  0.42674800  0.81134200  1
  O  O21  1  0.15207900  0.92672700  0.31178000  1
  F  F22  1  0.15328400  0.26784600  0.98535700  1
  F  F23  1  0.65313300  0.76776800  0.48581300  1
  F  F24  1  0.82985300  0.39695900  0.33416400  1
  F  F25  1  0.32958100  0.89696000  0.83439800  1
  F  F26  1  0.87326600  0.72540200  0.00939400  1
  F  F27  1  0.37335700  0.22529900  0.50883500  1
