# generated using pymatgen
data_Li2Mn2(SO4)3
_symmetry_space_group_name_H-M   'P 1'
_cell_length_a   8.81881600
_cell_length_b   8.92161600
_cell_length_c   24.49527300
_cell_angle_alpha   90.00000000
_cell_angle_beta   90.00000000
_cell_angle_gamma   90.00000000
_symmetry_Int_Tables_number   1
_chemical_formula_structural   Li2Mn2(SO4)3
_chemical_formula_sum   'Li16 Mn16 S24 O96'
_cell_volume   1927.24129187
_cell_formula_units_Z   8
loop_
 _symmetry_equiv_pos_site_id
 _symmetry_equiv_pos_as_xyz
  1  'x, y, z'
loop_
 _atom_site_type_symbol
 _atom_site_label
 _atom_site_symmetry_multiplicity
 _atom_site_fract_x
 _atom_site_fract_y
 _atom_site_fract_z
 _atom_site_occupancy
  Li  Li0  1  0.96247900  0.37733800  0.70890700  1
  Li  Li1  1  0.53752100  0.62266200  0.20890700  1
  Li  Li2  1  0.46247900  0.37733800  0.79109300  1
  Li  Li3  1  0.14376800  0.56864900  0.50934500  1
  Li  Li4  1  0.64376800  0.56864900  0.99065500  1
  Li  Li5  1  0.85623200  0.43135100  0.49065500  1
  Li  Li6  1  0.96247900  0.12266200  0.20890700  1
  Li  Li7  1  0.85623200  0.06864900  0.99065500  1
  Li  Li8  1  0.46247900  0.12266200  0.29109300  1
  Li  Li9  1  0.64376800  0.93135100  0.49065500  1
  Li  Li10  1  0.35623200  0.06864900  0.50934500  1
  Li  Li11  1  0.03752100  0.87733800  0.79109300  1
  Li  Li12  1  0.14376800  0.93135100  0.00934500  1
  Li  Li13  1  0.03752100  0.62266200  0.29109300  1
  Li  Li14  1  0.35623200  0.43135100  0.00934500  1
  Li  Li15  1  0.53752100  0.87733800  0.70890700  1
  Mn  Mn16  1  0.49916600  0.90287000  0.06576400  1
  Mn  Mn17  1  0.99916600  0.59713000  0.93423600  1
  Mn  Mn18  1  0.50142600  0.70529900  0.82198400  1
  Mn  Mn19  1  0.99857400  0.20529900  0.82198400  1
  Mn  Mn20  1  0.00142600  0.70529900  0.67801600  1
  Mn  Mn21  1  0.50083400  0.09713000  0.93423600  1
  Mn  Mn22  1  0.50083400  0.40287000  0.43423600  1
  Mn  Mn23  1  0.99857400  0.29470100  0.32198400  1
  Mn  Mn24  1  0.49857400  0.29470100  0.17801600  1
  Mn  Mn25  1  0.50142600  0.79470100  0.32198400  1
  Mn  Mn26  1  0.00142600  0.79470100  0.17801600  1
  Mn  Mn27  1  0.00083400  0.09713000  0.56576400  1
  Mn  Mn28  1  0.49916600  0.59713000  0.56576400  1
  Mn  Mn29  1  0.49857400  0.20529900  0.67801600  1
  Mn  Mn30  1  0.00083400  0.40287000  0.06576400  1
  Mn  Mn31  1  0.99916600  0.90287000  0.43423600  1
  S  S32  1  0.80613600  0.90716500  0.88406100  1
  S  S33  1  0.19386400  0.09283500  0.11593900  1
  S  S34  1  0.14449000  0.55287000  0.79879900  1
  S  S35  1  0.85551000  0.05287000  0.70120100  1
  S  S36  1  0.64896300  0.24684400  0.55180100  1
  S  S37  1  0.35551000  0.05287000  0.79879900  1
  S  S38  1  0.80613600  0.59283500  0.38406100  1
  S  S39  1  0.19386400  0.40716500  0.61593900  1
  S  S40  1  0.35551000  0.44713000  0.29879900  1
  S  S41  1  0.64449000  0.55287000  0.70120100  1
  S  S42  1  0.14449000  0.94713000  0.29879900  1
  S  S43  1  0.64896300  0.25315600  0.05180100  1
  S  S44  1  0.85103700  0.75315600  0.05180100  1
  S  S45  1  0.35103700  0.74684400  0.94819900  1
  S  S46  1  0.30613600  0.59283500  0.11593900  1
  S  S47  1  0.14896300  0.25315600  0.44819900  1
  S  S48  1  0.69386400  0.40716500  0.88406100  1
  S  S49  1  0.69386400  0.09283500  0.38406100  1
  S  S50  1  0.35103700  0.75315600  0.44819900  1
  S  S51  1  0.14896300  0.24684400  0.94819900  1
  S  S52  1  0.85551000  0.44713000  0.20120100  1
  S  S53  1  0.30613600  0.90716500  0.61593900  1
  S  S54  1  0.64449000  0.94713000  0.20120100  1
  S  S55  1  0.85103700  0.74684400  0.55180100  1
  O  O56  1  0.40598100  0.81052500  0.58311400  1
  O  O57  1  0.09431800  0.67823400  0.76224600  1
  O  O58  1  0.90598100  0.81052500  0.91688600  1
  O  O59  1  0.14126300  0.23171100  0.38869100  1
  O  O60  1  0.91556400  0.88652200  0.52449100  1
  O  O61  1  0.64126300  0.23171100  0.11130900  1
  O  O62  1  0.06546300  0.11154100  0.96546300  1
  O  O63  1  0.31341300  0.54353800  0.79761600  1
  O  O64  1  0.35873700  0.76828900  0.88869100  1
  O  O65  1  0.41900600  0.59149200  0.27799400  1
  O  O66  1  0.58099400  0.40850800  0.72200600  1
  O  O67  1  0.81009200  0.26340700  0.03314400  1
  O  O68  1  0.41556400  0.61347800  0.47550900  1
  O  O69  1  0.68990800  0.73659300  0.53314400  1
  O  O70  1  0.59401900  0.31052500  0.91688600  1
  O  O71  1  0.09820000  0.01137200  0.15692500  1
  O  O72  1  0.58443600  0.38652200  0.52449100  1
  O  O73  1  0.91900600  0.90850800  0.72200600  1
  O  O74  1  0.85873700  0.76828900  0.61130900  1
  O  O75  1  0.41053900  0.41550700  0.35424900  1
  O  O76  1  0.56546300  0.38845900  0.03453700  1
  O  O77  1  0.40180000  0.51137200  0.15692500  1
  O  O78  1  0.31009200  0.23659300  0.96685600  1
  O  O79  1  0.08099400  0.40850800  0.77799400  1
  O  O80  1  0.81341300  0.95646200  0.20238400  1
  O  O81  1  0.81058800  0.17829700  0.35468200  1
  O  O82  1  0.31058800  0.32170300  0.64531800  1
  O  O83  1  0.23358500  0.48238900  0.07777200  1
  O  O84  1  0.18658700  0.04353800  0.79761600  1
  O  O85  1  0.85873700  0.73171100  0.11130900  1
  O  O86  1  0.58443600  0.11347800  0.02449100  1
  O  O87  1  0.08443600  0.38652200  0.97550900  1
  O  O88  1  0.90568200  0.17823400  0.73775400  1
  O  O89  1  0.08946100  0.58449300  0.85424900  1
  O  O90  1  0.93453700  0.61154100  0.53453700  1
  O  O91  1  0.73358500  0.48238900  0.42222800  1
  O  O92  1  0.09431800  0.82176600  0.26224600  1
  O  O93  1  0.09401900  0.18947500  0.08311400  1
  O  O94  1  0.90180000  0.98862800  0.84307500  1
  O  O95  1  0.43453700  0.88845900  0.46546300  1
  O  O96  1  0.90180000  0.51137200  0.34307500  1
  O  O97  1  0.09401900  0.31052500  0.58311400  1
  O  O98  1  0.68990800  0.76340700  0.03314400  1
  O  O99  1  0.18941200  0.67829700  0.14531800  1
  O  O100  1  0.40180000  0.98862800  0.65692500  1
  O  O101  1  0.08946100  0.91550700  0.35424900  1
  O  O102  1  0.58946100  0.91550700  0.14575100  1
  O  O103  1  0.81009200  0.23659300  0.53314400  1
  O  O104  1  0.06546300  0.38845900  0.46546300  1
  O  O105  1  0.40568200  0.32176600  0.26224600  1
  O  O106  1  0.14126300  0.26828900  0.88869100  1
  O  O107  1  0.31058800  0.17829700  0.14531800  1
  O  O108  1  0.08443600  0.11347800  0.47550900  1
  O  O109  1  0.91900600  0.59149200  0.22200600  1
  O  O110  1  0.08099400  0.09149200  0.27799400  1
  O  O111  1  0.35873700  0.73171100  0.38869100  1
  O  O112  1  0.73358500  0.01761100  0.92222800  1
  O  O113  1  0.40568200  0.17823400  0.76224600  1
  O  O114  1  0.68941200  0.67829700  0.35468200  1
  O  O115  1  0.68941200  0.82170300  0.85468200  1
  O  O116  1  0.81341300  0.54353800  0.70238400  1
  O  O117  1  0.90598100  0.68947500  0.41688600  1
  O  O118  1  0.31009200  0.26340700  0.46685600  1
  O  O119  1  0.90568200  0.32176600  0.23775400  1
  O  O120  1  0.31341300  0.95646200  0.29761600  1
  O  O121  1  0.91556400  0.61347800  0.02449100  1
  O  O122  1  0.59401900  0.18947500  0.41688600  1
  O  O123  1  0.68658700  0.45646200  0.20238400  1
  O  O124  1  0.91053900  0.08449300  0.64575100  1
  O  O125  1  0.40598100  0.68947500  0.08311400  1
  O  O126  1  0.41900600  0.90850800  0.77799400  1
  O  O127  1  0.26641500  0.51761100  0.57777200  1
  O  O128  1  0.18941200  0.82170300  0.64531800  1
  O  O129  1  0.26641500  0.98238900  0.07777200  1
  O  O130  1  0.09820000  0.48862800  0.65692500  1
  O  O131  1  0.18990800  0.76340700  0.46685600  1
  O  O132  1  0.59820000  0.48862800  0.84307500  1
  O  O133  1  0.64126300  0.26828900  0.61130900  1
  O  O134  1  0.76641500  0.98238900  0.42222800  1
  O  O135  1  0.59431800  0.67823400  0.73775400  1
  O  O136  1  0.18990800  0.73659300  0.96685600  1
  O  O137  1  0.59820000  0.01137200  0.34307500  1
  O  O138  1  0.68658700  0.04353800  0.70238400  1
  O  O139  1  0.76641500  0.51761100  0.92222800  1
  O  O140  1  0.81058800  0.32170300  0.85468200  1
  O  O141  1  0.58099400  0.09149200  0.22200600  1
  O  O142  1  0.41556400  0.88652200  0.97550900  1
  O  O143  1  0.58946100  0.58449300  0.64575100  1
  O  O144  1  0.41053900  0.08449300  0.85424900  1
  O  O145  1  0.56546300  0.11154100  0.53453700  1
  O  O146  1  0.18658700  0.45646200  0.29761600  1
  O  O147  1  0.91053900  0.41550700  0.14575100  1
  O  O148  1  0.93453700  0.88845900  0.03453700  1
  O  O149  1  0.23358500  0.01761100  0.57777200  1
  O  O150  1  0.43453700  0.61154100  0.96546300  1
  O  O151  1  0.59431800  0.82176600  0.23775400  1
