# generated using pymatgen
data_Li5Ni2(PO4)3
_symmetry_space_group_name_H-M   'P 1'
_cell_length_a   8.73981500
_cell_length_b   8.62670300
_cell_length_c   12.28751520
_cell_angle_alpha   89.20419939
_cell_angle_beta   90.00000000
_cell_angle_gamma   90.00000000
_symmetry_Int_Tables_number   1
_chemical_formula_structural   Li5Ni2(PO4)3
_chemical_formula_sum   'Li20 Ni8 P12 O48'
_cell_volume   926.33753542
_cell_formula_units_Z   4
loop_
 _symmetry_equiv_pos_site_id
 _symmetry_equiv_pos_as_xyz
  1  'x, y, z'
loop_
 _atom_site_type_symbol
 _atom_site_label
 _atom_site_symmetry_multiplicity
 _atom_site_fract_x
 _atom_site_fract_y
 _atom_site_fract_z
 _atom_site_occupancy
  Li  Li0  1  0.51995500  0.18001200  0.10060000  1
  Li  Li1  1  0.09418700  0.17944100  0.44562500  1
  Li  Li2  1  0.73592400  0.10467800  0.49820000  1
  Li  Li3  1  0.65879600  0.15428300  0.72457800  1
  Li  Li4  1  0.76945600  0.04443700  0.93381800  1
  Li  Li5  1  0.26945600  0.95556300  0.06618200  1
  Li  Li6  1  0.15879600  0.84571700  0.27542200  1
  Li  Li7  1  0.23592400  0.89532200  0.50180000  1
  Li  Li8  1  0.59418700  0.82055900  0.55437500  1
  Li  Li9  1  0.01995500  0.81998800  0.89940000  1
  Li  Li10  1  0.98486200  0.68726300  0.59478400  1
  Li  Li11  1  0.40587100  0.67642400  0.94535600  1
  Li  Li12  1  0.76929000  0.62241700  0.00595000  1
  Li  Li13  1  0.68270100  0.59487900  0.24230600  1
  Li  Li14  1  0.73741400  0.54921800  0.44605900  1
  Li  Li15  1  0.23741400  0.45078200  0.55394100  1
  Li  Li16  1  0.18270100  0.40512100  0.75769400  1
  Li  Li17  1  0.26929000  0.37758300  0.99405000  1
  Li  Li18  1  0.90587100  0.32357600  0.05464400  1
  Li  Li19  1  0.48486200  0.31273700  0.40521600  1
  Ni  Ni20  1  0.53414000  0.00007900  0.35426200  1
  Ni  Ni21  1  0.03414000  0.99992100  0.64573800  1
  Ni  Ni22  1  0.45153700  0.00254000  0.86146900  1
  Ni  Ni23  1  0.95153700  0.99746000  0.13853100  1
  Ni  Ni24  1  0.04271700  0.50249400  0.35375100  1
  Ni  Ni25  1  0.54271700  0.49750600  0.64624900  1
  Ni  Ni26  1  0.94718400  0.50470300  0.86063600  1
  Ni  Ni27  1  0.44718400  0.49529700  0.13936400  1
  P  P28  1  0.24571200  0.20144600  0.24337300  1
  P  P29  1  0.39412300  0.14387600  0.59964700  1
  P  P30  1  0.10056500  0.14194500  0.90367900  1
  P  P31  1  0.89412300  0.85612400  0.40035300  1
  P  P32  1  0.60056500  0.85805500  0.09632100  1
  P  P33  1  0.74571200  0.79855400  0.75662700  1
  P  P34  1  0.24896200  0.70390400  0.74180900  1
  P  P35  1  0.39844300  0.64720000  0.39704300  1
  P  P36  1  0.10719200  0.64478800  0.09796600  1
  P  P37  1  0.89844300  0.35280000  0.60295700  1
  P  P38  1  0.60719200  0.35521200  0.90203400  1
  P  P39  1  0.74896200  0.29609600  0.25819100  1
  O  O40  1  0.86217400  0.20416000  0.19009800  1
  O  O41  1  0.86614000  0.17567000  0.62214400  1
  O  O42  1  0.67934500  0.20484600  0.35697100  1
  O  O43  1  0.58773100  0.18258600  0.94071800  1
  O  O44  1  0.37172600  0.15876600  0.32722600  1
  O  O45  1  0.22709700  0.10132200  0.56793600  1
  O  O46  1  0.42179700  0.12510200  0.72136900  1
  O  O47  1  0.97524700  0.11737400  0.99243600  1
  O  O48  1  0.26070600  0.09116300  0.94316100  1
  O  O49  1  0.17634500  0.04835900  0.19799500  1
  O  O50  1  0.05074300  0.04697400  0.80535100  1
  O  O51  1  0.51142700  0.04193600  0.53554700  1
  O  O52  1  0.01142700  0.95806400  0.46445300  1
  O  O53  1  0.55074300  0.95302600  0.19464900  1
  O  O54  1  0.67634500  0.95164100  0.80200500  1
  O  O55  1  0.76070600  0.90883700  0.05683900  1
  O  O56  1  0.92179700  0.87489800  0.27863100  1
  O  O57  1  0.47524700  0.88262600  0.00756400  1
  O  O58  1  0.72709700  0.89867800  0.43206400  1
  O  O59  1  0.87172600  0.84123400  0.67277400  1
  O  O60  1  0.17934500  0.79515400  0.64302900  1
  O  O61  1  0.36614000  0.82433000  0.37785600  1
  O  O62  1  0.08773100  0.81741400  0.05928200  1
  O  O63  1  0.36217400  0.79584000  0.80990200  1
  O  O64  1  0.62657300  0.70607900  0.69328800  1
  O  O65  1  0.91993900  0.68374800  0.43788000  1
  O  O66  1  0.61043000  0.67765900  0.11307300  1
  O  O67  1  0.81653100  0.70822900  0.85589700  1
  O  O68  1  0.12212900  0.64924500  0.82244400  1
  O  O69  1  0.26694700  0.59066100  0.05684400  1
  O  O70  1  0.51894000  0.62631800  0.48992500  1
  O  O71  1  0.10558400  0.63454200  0.22246500  1
  O  O72  1  0.24509700  0.57164200  0.42898000  1
  O  O73  1  0.31962800  0.55156000  0.69394800  1
  O  O74  1  0.47072400  0.56647100  0.29781400  1
  O  O75  1  0.97994200  0.54696800  0.04336800  1
  O  O76  1  0.47994200  0.45303200  0.95663200  1
  O  O77  1  0.97072400  0.43352900  0.70218600  1
  O  O78  1  0.81962800  0.44844000  0.30605200  1
  O  O79  1  0.74509700  0.42835800  0.57102000  1
  O  O80  1  0.01894000  0.37368200  0.51007500  1
  O  O81  1  0.60558400  0.36545800  0.77753500  1
  O  O82  1  0.76694700  0.40933900  0.94315600  1
  O  O83  1  0.62212900  0.35075500  0.17755600  1
  O  O84  1  0.41993900  0.31625200  0.56212000  1
  O  O85  1  0.31653100  0.29177100  0.14410300  1
  O  O86  1  0.11043000  0.32234100  0.88692700  1
  O  O87  1  0.12657300  0.29392100  0.30671200  1
