# generated using pymatgen
data_Li32Mn11Cr5O48
_symmetry_space_group_name_H-M   'P 1'
_cell_length_a   5.00784399
_cell_length_b   5.00784399
_cell_length_c   38.34902288
_cell_angle_alpha   88.94932062
_cell_angle_beta   88.94932062
_cell_angle_gamma   119.80345233
_symmetry_Int_Tables_number   1
_chemical_formula_structural   Li32Mn11Cr5O48
_chemical_formula_sum   'Li32 Mn11 Cr5 O48'
_cell_volume   833.97442442
_cell_formula_units_Z   1
loop_
 _symmetry_equiv_pos_site_id
 _symmetry_equiv_pos_as_xyz
  1  'x, y, z'
loop_
 _atom_site_type_symbol
 _atom_site_label
 _atom_site_symmetry_multiplicity
 _atom_site_fract_x
 _atom_site_fract_y
 _atom_site_fract_z
 _atom_site_occupancy
  Li  Li0  1  0.91518900  0.46633600  0.93742300  1
  Li  Li1  1  0.99790100  0.87525200  0.68735200  1
  Li  Li2  1  0.93975300  0.81176700  0.87501300  1
  Li  Li3  1  0.87567400  0.74991300  0.06246400  1
  Li  Li4  1  0.80989900  0.68501200  0.24998900  1
  Li  Li5  1  0.75125900  0.62428400  0.43747100  1
  Li  Li6  1  0.68735800  0.56253400  0.62499900  1
  Li  Li7  1  0.96570400  0.16436900  0.81253700  1
  Li  Li8  1  0.62193600  0.49800200  0.81262800  1
  Li  Li9  1  0.83563100  0.03429600  0.18746300  1
  Li  Li10  1  0.71396200  0.91406200  0.56242900  1
  Li  Li11  1  0.56265000  0.43735000  0.00000000  1
  Li  Li12  1  0.50199800  0.37806400  0.18737200  1
  Li  Li13  1  0.58400300  0.78386000  0.93766100  1
  Li  Li14  1  0.46429200  0.66086000  0.31253100  1
  Li  Li15  1  0.78589000  0.33724700  0.31269100  1
  Li  Li16  1  0.66275300  0.21411000  0.68730900  1
  Li  Li17  1  0.33914000  0.53570800  0.68746900  1
  Li  Li18  1  0.21614000  0.41599700  0.06233900  1
  Li  Li19  1  0.53366400  0.08481100  0.06257700  1
  Li  Li20  1  0.41362900  0.96453300  0.43733300  1
  Li  Li21  1  0.43746600  0.31264200  0.37500100  1
  Li  Li22  1  0.28668800  0.83775200  0.81275700  1
  Li  Li23  1  0.16224800  0.71331200  0.18724300  1
  Li  Li24  1  0.37571600  0.24874100  0.56252900  1
  Li  Li25  1  0.03546700  0.58637100  0.56266700  1
  Li  Li26  1  0.31498800  0.19010100  0.75001100  1
  Li  Li27  1  0.25008700  0.12432600  0.93753600  1
  Li  Li28  1  0.18823300  0.06024700  0.12498700  1
  Li  Li29  1  0.12474800  0.00209900  0.31264800  1
  Li  Li30  1  0.06322900  0.93677100  0.50000000  1
  Li  Li31  1  0.08593800  0.28603800  0.43757100  1
  Mn  Mn32  1  0.89537900  0.10462100  0.00000000  1
  Mn  Mn33  1  0.77046600  0.97943200  0.37501500  1
  Mn  Mn34  1  0.64618300  0.85485000  0.75003600  1
  Mn  Mn35  1  0.52009900  0.72922000  0.12494600  1
  Mn  Mn36  1  0.72913800  0.27086200  0.50000000  1
  Mn  Mn37  1  0.27078000  0.47990100  0.87505400  1
  Mn  Mn38  1  0.35456800  0.89521700  0.62504400  1
  Mn  Mn39  1  0.22951000  0.77049000  0.00000000  1
  Mn  Mn40  1  0.10478300  0.64543200  0.37495600  1
  Mn  Mn41  1  0.14515000  0.35381700  0.24996400  1
  Mn  Mn42  1  0.02056800  0.22953400  0.62498500  1
  Cr  Cr43  1  0.98469600  0.52319300  0.75003300  1
  Cr  Cr44  1  0.85663000  0.39115700  0.12492400  1
  Cr  Cr45  1  0.39401500  0.60598500  0.50000000  1
  Cr  Cr46  1  0.60884300  0.14337000  0.87507600  1
  Cr  Cr47  1  0.47680700  0.01530400  0.24996700  1
  O  O48  1  0.91127600  0.42905800  0.02806400  1
  O  O49  1  0.95173000  0.46821200  0.84675900  1
  O  O50  1  0.92897500  0.80406300  0.97153200  1
  O  O51  1  0.80446700  0.67923700  0.34651900  1
  O  O52  1  0.94321600  0.81701200  0.77852800  1
  O  O53  1  0.81984900  0.69638600  0.15350900  1
  O  O54  1  0.69901800  0.57049800  0.52873600  1
  O  O55  1  0.67582200  0.55486300  0.72124500  1
  O  O56  1  0.55622200  0.43093100  0.09644300  1
  O  O57  1  0.92797600  0.16283000  0.90302800  1
  O  O58  1  0.56906900  0.44377800  0.90355700  1
  O  O59  1  0.80323500  0.03919300  0.27794300  1
  O  O60  1  0.67912600  0.91133500  0.65297900  1
  O  O61  1  0.96080700  0.19676500  0.72205700  1
  O  O62  1  0.83717000  0.07202400  0.09697200  1
  O  O63  1  0.71607300  0.94922400  0.47179600  1
  O  O64  1  0.78602600  0.30402200  0.40298200  1
  O  O65  1  0.82417700  0.34062500  0.22173900  1
  O  O66  1  0.69597800  0.21397400  0.59701800  1
  O  O67  1  0.55409400  0.78633400  0.02798700  1
  O  O68  1  0.42890900  0.66116400  0.40303900  1
  O  O69  1  0.58642400  0.82260100  0.84714100  1
  O  O70  1  0.46241800  0.69184700  0.22176500  1
  O  O71  1  0.33883600  0.57109100  0.59696100  1
  O  O72  1  0.65937500  0.17582300  0.77826100  1
  O  O73  1  0.53178800  0.04827000  0.15324100  1
  O  O74  1  0.41369100  0.92910600  0.52806300  1
  O  O75  1  0.57094200  0.08872400  0.97193600  1
  O  O76  1  0.44614200  0.96321900  0.34697900  1
  O  O77  1  0.30815300  0.53758200  0.77823500  1
  O  O78  1  0.17739900  0.41357600  0.15285900  1
  O  O79  1  0.21366600  0.44590600  0.97201300  1
  O  O80  1  0.28115100  0.79775100  0.90341000  1
  O  O81  1  0.16210700  0.67869300  0.27798000  1
  O  O82  1  0.03678100  0.55385800  0.65302100  1
  O  O83  1  0.32130700  0.83789300  0.72202000  1
  O  O84  1  0.20224900  0.71884900  0.09659000  1
  O  O85  1  0.42950200  0.30098200  0.47126400  1
  O  O86  1  0.07089400  0.58630900  0.47193700  1
  O  O87  1  0.44513700  0.32417800  0.27875500  1
  O  O88  1  0.32076300  0.19553300  0.65348100  1
  O  O89  1  0.30361400  0.18015100  0.84649100  1
  O  O90  1  0.18298800  0.05678400  0.22147200  1
  O  O91  1  0.05424900  0.92899000  0.59653900  1
  O  O92  1  0.19593700  0.07102500  0.02846800  1
  O  O93  1  0.07101000  0.94575100  0.40346100  1
  O  O94  1  0.05077600  0.28392700  0.52820400  1
  O  O95  1  0.08866500  0.32087400  0.34702100  1
