# generated using pymatgen
data_Li2MnF5
_symmetry_space_group_name_H-M   'P 1'
_cell_length_a   5.41666400
_cell_length_b   13.99243700
_cell_length_c   14.39201104
_cell_angle_alpha   87.25997512
_cell_angle_beta   90.00000000
_cell_angle_gamma   90.00000000
_symmetry_Int_Tables_number   1
_chemical_formula_structural   Li2MnF5
_chemical_formula_sum   'Li24 Mn12 F60'
_cell_volume   1089.55695677
_cell_formula_units_Z   12
loop_
 _symmetry_equiv_pos_site_id
 _symmetry_equiv_pos_as_xyz
  1  'x, y, z'
loop_
 _atom_site_type_symbol
 _atom_site_label
 _atom_site_symmetry_multiplicity
 _atom_site_fract_x
 _atom_site_fract_y
 _atom_site_fract_z
 _atom_site_occupancy
  Li  Li0  1  0.27143900  0.96995200  0.41359300  1
  Li  Li1  1  0.22856100  0.96995200  0.91359300  1
  Li  Li2  1  0.65665000  0.91516000  0.28488700  1
  Li  Li3  1  0.84335000  0.91516000  0.78488700  1
  Li  Li4  1  0.25523400  0.76247600  0.38328000  1
  Li  Li5  1  0.24476600  0.76247600  0.88328000  1
  Li  Li6  1  0.78751100  0.69729600  0.25259200  1
  Li  Li7  1  0.71248900  0.69729600  0.75259200  1
  Li  Li8  1  0.28390300  0.63974100  0.07158900  1
  Li  Li9  1  0.21609700  0.63974100  0.57158900  1
  Li  Li10  1  0.69740500  0.56622300  0.45200500  1
  Li  Li11  1  0.80259500  0.56622300  0.95200500  1
  Li  Li12  1  0.19740500  0.43377700  0.04799500  1
  Li  Li13  1  0.30259500  0.43377700  0.54799500  1
  Li  Li14  1  0.78390300  0.36025900  0.42841100  1
  Li  Li15  1  0.71609700  0.36025900  0.92841100  1
  Li  Li16  1  0.28751100  0.30270400  0.24740800  1
  Li  Li17  1  0.21248900  0.30270400  0.74740800  1
  Li  Li18  1  0.75523400  0.23752400  0.11672000  1
  Li  Li19  1  0.74476600  0.23752400  0.61672000  1
  Li  Li20  1  0.15665000  0.08484000  0.21511300  1
  Li  Li21  1  0.34335000  0.08484000  0.71511300  1
  Li  Li22  1  0.77143900  0.03004800  0.08640700  1
  Li  Li23  1  0.72856100  0.03004800  0.58640700  1
  Mn  Mn24  1  0.24599700  0.86344600  0.16513600  1
  Mn  Mn25  1  0.25400300  0.86344600  0.66513600  1
  Mn  Mn26  1  0.74097400  0.79504300  0.99046200  1
  Mn  Mn27  1  0.75902600  0.79504300  0.49046200  1
  Mn  Mn28  1  0.24684000  0.53834200  0.33489600  1
  Mn  Mn29  1  0.25316000  0.53834200  0.83489600  1
  Mn  Mn30  1  0.74684000  0.46165800  0.16510400  1
  Mn  Mn31  1  0.75316000  0.46165800  0.66510400  1
  Mn  Mn32  1  0.24097400  0.20495700  0.50953800  1
  Mn  Mn33  1  0.25902600  0.20495700  0.00953800  1
  Mn  Mn34  1  0.74599700  0.13655400  0.33486400  1
  Mn  Mn35  1  0.75400300  0.13655400  0.83486400  1
  F  F36  1  0.50668800  0.95436600  0.15191200  1
  F  F37  1  0.02286600  0.96631300  0.17195600  1
  F  F38  1  0.99331200  0.95436600  0.65191200  1
  F  F39  1  0.47713400  0.96631300  0.67195600  1
  F  F40  1  0.30234600  0.87163100  0.30810000  1
  F  F41  1  0.19765400  0.87163100  0.80810000  1
  F  F42  1  0.60371400  0.91419600  0.49685700  1
  F  F43  1  0.89628600  0.91419600  0.99685700  1
  F  F44  1  0.07279700  0.85654700  0.48159100  1
  F  F45  1  0.42720300  0.85654700  0.98159100  1
  F  F46  1  0.98019700  0.78089200  0.16596400  1
  F  F47  1  0.51980300  0.78089200  0.66596400  1
  F  F48  1  0.46743200  0.76218000  0.15459500  1
  F  F49  1  0.03256800  0.76218000  0.65459500  1
  F  F50  1  0.74899100  0.79819000  0.34603000  1
  F  F51  1  0.75100900  0.79819000  0.84603000  1
  F  F52  1  0.45003100  0.73239000  0.49194200  1
  F  F53  1  0.90267100  0.67199200  0.50009600  1
  F  F54  1  0.04996900  0.73239000  0.99194200  1
  F  F55  1  0.59732900  0.67199200  0.00009600  1
  F  F56  1  0.09608400  0.65918800  0.32396200  1
  F  F57  1  0.55064700  0.60234300  0.31295800  1
  F  F58  1  0.40391600  0.65918800  0.82396200  1
  F  F59  1  0.94935300  0.60234300  0.81295800  1
  F  F60  1  0.31952700  0.55251200  0.47495400  1
  F  F61  1  0.91138200  0.57841700  0.16794300  1
  F  F62  1  0.18047300  0.55251200  0.97495400  1
  F  F63  1  0.58861800  0.57841700  0.66794300  1
  F  F64  1  0.43843300  0.51961800  0.13669000  1
  F  F65  1  0.06156700  0.51961800  0.63669000  1
  F  F66  1  0.93843300  0.48038200  0.36331000  1
  F  F67  1  0.56156700  0.48038200  0.86331000  1
  F  F68  1  0.41138200  0.42158300  0.33205700  1
  F  F69  1  0.81952700  0.44748800  0.02504600  1
  F  F70  1  0.08861800  0.42158300  0.83205700  1
  F  F71  1  0.68047300  0.44748800  0.52504600  1
  F  F72  1  0.05064700  0.39765700  0.18704200  1
  F  F73  1  0.59608400  0.34081200  0.17603800  1
  F  F74  1  0.44935300  0.39765700  0.68704200  1
  F  F75  1  0.90391600  0.34081200  0.67603800  1
  F  F76  1  0.40267100  0.32800800  0.99990400  1
  F  F77  1  0.95003100  0.26761000  0.00805800  1
  F  F78  1  0.09732900  0.32800800  0.49990400  1
  F  F79  1  0.54996900  0.26761000  0.50805800  1
  F  F80  1  0.24899100  0.20181000  0.15397000  1
  F  F81  1  0.25100900  0.20181000  0.65397000  1
  F  F82  1  0.96743200  0.23782000  0.34540500  1
  F  F83  1  0.53256800  0.23782000  0.84540500  1
  F  F84  1  0.48019700  0.21910800  0.33403600  1
  F  F85  1  0.01980300  0.21910800  0.83403600  1
  F  F86  1  0.57279700  0.14345300  0.01840900  1
  F  F87  1  0.92720300  0.14345300  0.51840900  1
  F  F88  1  0.10371400  0.08580400  0.00314300  1
  F  F89  1  0.39628600  0.08580400  0.50314300  1
  F  F90  1  0.80234600  0.12836900  0.19190000  1
  F  F91  1  0.69765400  0.12836900  0.69190000  1
  F  F92  1  0.52286600  0.03368700  0.32804400  1
  F  F93  1  0.00668800  0.04563400  0.34808800  1
  F  F94  1  0.97713400  0.03368700  0.82804400  1
  F  F95  1  0.49331200  0.04563400  0.84808800  1
