# generated using pymatgen
data_Li4Fe3(BO3)4
_symmetry_space_group_name_H-M   'P 1'
_cell_length_a   8.94871600
_cell_length_b   5.25241200
_cell_length_c   11.05338900
_cell_angle_alpha   64.08366315
_cell_angle_beta   90.00000000
_cell_angle_gamma   90.00000000
_symmetry_Int_Tables_number   1
_chemical_formula_structural   Li4Fe3(BO3)4
_chemical_formula_sum   'Li8 Fe6 B8 O24'
_cell_volume   467.28719161
_cell_formula_units_Z   2
loop_
 _symmetry_equiv_pos_site_id
 _symmetry_equiv_pos_as_xyz
  1  'x, y, z'
loop_
 _atom_site_type_symbol
 _atom_site_label
 _atom_site_symmetry_multiplicity
 _atom_site_fract_x
 _atom_site_fract_y
 _atom_site_fract_z
 _atom_site_occupancy
  Li  Li0  1  0.23708000  0.51984600  0.31944500  1
  Li  Li1  1  0.91332800  0.45412300  0.38200200  1
  Li  Li2  1  0.23667400  0.89399900  0.92161400  1
  Li  Li3  1  0.73578700  0.08855100  0.61077200  1
  Li  Li4  1  0.76292000  0.51984600  0.81944500  1
  Li  Li5  1  0.76332600  0.89399900  0.42161400  1
  Li  Li6  1  0.08667200  0.45412300  0.88200200  1
  Li  Li7  1  0.26421300  0.08855100  0.11077200  1
  Fe  Fe8  1  0.57028200  0.97485600  0.87005700  1
  Fe  Fe9  1  0.69910700  0.47074500  0.16950100  1
  Fe  Fe10  1  0.06180300  0.01989800  0.62354600  1
  Fe  Fe11  1  0.42971800  0.97485600  0.37005700  1
  Fe  Fe12  1  0.93819700  0.01989800  0.12354600  1
  Fe  Fe13  1  0.30089300  0.47074500  0.66950100  1
  B  B14  1  0.57269700  0.44911100  0.38525300  1
  B  B15  1  0.91069800  0.97266700  0.86690400  1
  B  B16  1  0.05879000  0.56075900  0.11931800  1
  B  B17  1  0.40901800  0.02197500  0.62702600  1
  B  B18  1  0.08930200  0.97266700  0.36690400  1
  B  B19  1  0.42730300  0.44911100  0.88525300  1
  B  B20  1  0.59098200  0.02197500  0.12702600  1
  B  B21  1  0.94121000  0.56075900  0.61931800  1
  O  O22  1  0.58389100  0.82459600  0.07444100  1
  O  O23  1  0.91838700  0.33119900  0.59159300  1
  O  O24  1  0.16769500  0.74843100  0.11404100  1
  O  O25  1  0.91506000  0.61715900  0.15464300  1
  O  O26  1  0.53303800  0.11415100  0.67013500  1
  O  O27  1  0.26969900  0.12628200  0.64008700  1
  O  O28  1  0.43511500  0.35229700  0.36564700  1
  O  O29  1  0.03882200  0.87799200  0.82795900  1
  O  O30  1  0.70199400  0.29937300  0.38181900  1
  O  O31  1  0.77260300  0.86363500  0.85198300  1
  O  O32  1  0.08070700  0.17201900  0.41812500  1
  O  O33  1  0.41320900  0.69667900  0.89773200  1
  O  O34  1  0.08161300  0.33119900  0.09159300  1
  O  O35  1  0.41610900  0.82459600  0.57444100  1
  O  O36  1  0.46696200  0.11415100  0.17013500  1
  O  O37  1  0.83230500  0.74843100  0.61404100  1
  O  O38  1  0.73030100  0.12628200  0.14008700  1
  O  O39  1  0.08494000  0.61715900  0.65464300  1
  O  O40  1  0.96117800  0.87799200  0.32795900  1
  O  O41  1  0.56488500  0.35229700  0.86564700  1
  O  O42  1  0.22739700  0.86363500  0.35198300  1
  O  O43  1  0.29800600  0.29937300  0.88181900  1
  O  O44  1  0.58679100  0.69667900  0.39773200  1
  O  O45  1  0.91929300  0.17201900  0.91812500  1
