# generated using pymatgen
data_Li4V3P8O29
_symmetry_space_group_name_H-M   'P 1'
_cell_length_a   9.76059600
_cell_length_b   9.76946653
_cell_length_c   14.07588410
_cell_angle_alpha   90.03536990
_cell_angle_beta   90.06479411
_cell_angle_gamma   119.96212928
_symmetry_Int_Tables_number   1
_chemical_formula_structural   Li4V3P8O29
_chemical_formula_sum   'Li8 V6 P16 O58'
_cell_volume   1162.83587902
_cell_formula_units_Z   2
loop_
 _symmetry_equiv_pos_site_id
 _symmetry_equiv_pos_as_xyz
  1  'x, y, z'
loop_
 _atom_site_type_symbol
 _atom_site_label
 _atom_site_symmetry_multiplicity
 _atom_site_fract_x
 _atom_site_fract_y
 _atom_site_fract_z
 _atom_site_occupancy
  Li  Li0  1  0.90440900  0.66760100  0.05734800  1
  Li  Li1  1  0.76840800  0.09654700  0.05778200  1
  Li  Li2  1  0.33114900  0.23336700  0.05649500  1
  Li  Li3  1  0.68630400  0.91260600  0.44306600  1
  Li  Li4  1  0.32137600  0.09269800  0.56181300  1
  Li  Li5  1  0.08637400  0.77378200  0.44098800  1
  Li  Li6  1  0.22429700  0.31885200  0.44551800  1
  Li  Li7  1  0.00509700  0.00444700  0.99190300  1
  V  V8  1  0.56835800  0.00190600  0.24812100  1
  V  V9  1  0.43241600  0.99393900  0.75602000  1
  V  V10  1  0.56956600  0.56960100  0.74976900  1
  V  V11  1  0.43568700  0.43600400  0.24824600  1
  V  V12  1  0.99965300  0.56519900  0.25052900  1
  V  V13  1  0.00079400  0.43357200  0.74843700  1
  P  P14  1  0.91385200  0.68783300  0.84118400  1
  P  P15  1  0.76968800  0.68538800  0.34347600  1
  P  P16  1  0.91588800  0.23083900  0.34262700  1
  P  P17  1  0.66558400  0.33433300  0.12781800  1
  P  P18  1  0.66287200  0.33051100  0.63081200  1
  P  P19  1  0.77767100  0.08944000  0.84067400  1
  P  P20  1  0.68324300  0.91194500  0.65840400  1
  P  P21  1  0.31409400  0.22674500  0.84211800  1
  P  P22  1  0.69184400  0.77469600  0.15728700  1
  P  P23  1  0.32108200  0.08965900  0.34293900  1
  P  P24  1  0.22518200  0.91519100  0.15982000  1
  P  P25  1  0.33557800  0.66762900  0.37005200  1
  P  P26  1  0.33247200  0.66206600  0.87031600  1
  P  P27  1  0.08881100  0.77230600  0.65788000  1
  P  P28  1  0.22912000  0.31767300  0.66018400  1
  P  P29  1  0.08407900  0.30888500  0.15709400  1
  O  O30  1  0.00934400  0.76646300  0.56710500  1
  O  O31  1  0.91590700  0.66349000  0.34149300  1
  O  O32  1  0.78550400  0.77728900  0.07287200  1
  O  O33  1  0.74203400  0.65671700  0.83209500  1
  O  O34  1  0.91389500  0.53093700  0.82758400  1
  O  O35  1  0.81012300  0.48887000  0.16617400  1
  O  O36  1  0.90523700  0.38236200  0.32177500  1
  O  O37  1  0.99828100  0.20720100  0.07348500  1
  O  O38  1  0.91632300  0.26066000  0.83170000  1
  O  O39  1  0.65749100  0.47530000  0.67800500  1
  O  O40  1  0.61779200  0.52303400  0.32067300  1
  O  O41  1  0.81534500  0.33978400  0.67632900  1
  O  O42  1  0.65076600  0.33092000  0.02230600  1
  O  O43  1  0.66073300  0.33363900  0.52568400  1
  O  O44  1  0.67694800  0.18953300  0.16672300  1
  O  O45  1  0.46930900  0.38338000  0.82935600  1
  O  O46  1  0.50948500  0.32469900  0.17265000  1
  O  O47  1  0.74608800  0.08508500  0.33924500  1
  O  O48  1  0.79518500  0.00085700  0.74921200  1
  O  O49  1  0.75446800  0.99267400  0.56806800  1
  O  O50  1  0.78589700  0.01459700  0.93118600  1
  O  O51  1  0.61916200  0.08969800  0.82763100  1
  O  O52  1  0.51480400  0.17916700  0.67169700  1
  O  O53  1  0.66221600  0.91627900  0.15859100  1
  O  O54  1  0.48146100  0.10244800  0.32244800  1
  O  O55  1  0.33671600  0.25623100  0.33925800  1
  O  O56  1  0.79299000  0.79452900  0.25166400  1
  O  O57  1  0.75341300  0.76208400  0.42975200  1
  O  O58  1  0.23913600  0.23878800  0.57133300  1
  O  O59  1  0.65691600  0.74213400  0.66684900  1
  O  O60  1  0.52364400  0.90490100  0.68028900  1
  O  O61  1  0.34567800  0.08612300  0.83159300  1
  O  O62  1  0.48712900  0.81462800  0.32983300  1
  O  O63  1  0.38204400  0.91423000  0.17115600  1
  O  O64  1  0.21450000  0.00577000  0.07781900  1
  O  O65  1  0.24673700  0.00548000  0.43421000  1
  O  O66  1  0.20370400  0.99222400  0.25733800  1
  O  O67  1  0.25909300  0.91845000  0.66288600  1
  O  O68  1  0.48067000  0.66540600  0.82509100  1
  O  O69  1  0.53148200  0.61768300  0.17207000  1
  O  O70  1  0.33233100  0.81359200  0.82595500  1
  O  O71  1  0.33237400  0.66698400  0.97509700  1
  O  O72  1  0.33507200  0.65526400  0.47531900  1
  O  O73  1  0.18700700  0.67206600  0.33109800  1
  O  O74  1  0.38143700  0.47654300  0.67717400  1
  O  O75  1  0.33164600  0.51522700  0.32351900  1
  O  O76  1  0.08341400  0.74308500  0.16211400  1
  O  O77  1  0.00234100  0.79530300  0.74942300  1
  O  O78  1  0.98788300  0.77365700  0.93134400  1
  O  O79  1  0.09591000  0.61972200  0.67763200  1
  O  O80  1  0.18432800  0.51733200  0.82424900  1
  O  O81  1  0.08644500  0.46571900  0.16878900  1
  O  O82  1  0.25749400  0.33808200  0.16138600  1
  O  O83  1  0.22624300  0.21055000  0.93198500  1
  O  O84  1  0.20489200  0.20593700  0.75062800  1
  O  O85  1  0.08470700  0.34229900  0.66367300  1
  O  O86  1  0.00611100  0.24212000  0.42922200  1
  O  O87  1  0.00135500  0.20644200  0.25133500  1
