# generated using pymatgen
data_Li5V4(PO4)6
_symmetry_space_group_name_H-M   'P 1'
_cell_length_a   8.80156800
_cell_length_b   8.69277500
_cell_length_c   14.95384301
_cell_angle_alpha   54.57652561
_cell_angle_beta   90.00000000
_cell_angle_gamma   90.00000000
_symmetry_Int_Tables_number   1
_chemical_formula_structural   Li5V4(PO4)6
_chemical_formula_sum   'Li10 V8 P12 O48'
_cell_volume   932.33180952
_cell_formula_units_Z   2
loop_
 _symmetry_equiv_pos_site_id
 _symmetry_equiv_pos_as_xyz
  1  'x, y, z'
loop_
 _atom_site_type_symbol
 _atom_site_label
 _atom_site_symmetry_multiplicity
 _atom_site_fract_x
 _atom_site_fract_y
 _atom_site_fract_z
 _atom_site_occupancy
  Li  Li0  1  0.95411300  0.67865100  0.23299700  1
  Li  Li1  1  0.02236500  0.96392500  0.81870100  1
  Li  Li2  1  0.52370900  0.02436800  0.68252100  1
  Li  Li3  1  0.45850300  0.33378900  0.27710700  1
  Li  Li4  1  0.84236300  0.37663400  0.19880700  1
  Li  Li5  1  0.04588700  0.67865100  0.73299700  1
  Li  Li6  1  0.97763500  0.96392500  0.31870100  1
  Li  Li7  1  0.47629100  0.02436800  0.18252100  1
  Li  Li8  1  0.54149700  0.33378900  0.77710700  1
  Li  Li9  1  0.15763700  0.37663400  0.69880700  1
  V  V10  1  0.28094900  0.63050600  0.11396700  1
  V  V11  1  0.21149900  0.13448900  0.61049300  1
  V  V12  1  0.70917400  0.86319600  0.88594200  1
  V  V13  1  0.77949400  0.36734300  0.38850600  1
  V  V14  1  0.71905100  0.63050600  0.61396700  1
  V  V15  1  0.78850100  0.13448900  0.11049300  1
  V  V16  1  0.29082600  0.86319600  0.38594200  1
  V  V17  1  0.22050600  0.36734300  0.88850600  1
  P  P18  1  0.49909200  0.45896400  0.50487800  1
  P  P19  1  0.63635700  0.74967600  0.14313600  1
  P  P20  1  0.34916200  0.03701600  0.85364200  1
  P  P21  1  0.84911200  0.95858900  0.64675200  1
  P  P22  1  0.13522700  0.25280600  0.35043000  1
  P  P23  1  0.99999400  0.54465800  0.99356200  1
  P  P24  1  0.50090800  0.45896400  0.00487800  1
  P  P25  1  0.36364300  0.74967600  0.64313600  1
  P  P26  1  0.65083800  0.03701600  0.35364200  1
  P  P27  1  0.15088800  0.95858900  0.14675200  1
  P  P28  1  0.86477300  0.25280600  0.85043000  1
  P  P29  1  0.00000600  0.54465800  0.49356200  1
  O  O30  1  0.10848900  0.37709700  0.56948400  1
  O  O31  1  0.91775700  0.53067200  0.40760500  1
  O  O32  1  0.15158100  0.77463900  0.14933200  1
  O  O33  1  0.85040400  0.09082600  0.83633200  1
  O  O34  1  0.60325100  0.45749500  0.42377800  1
  O  O35  1  0.67183000  0.83404100  0.02403000  1
  O  O36  1  0.47169100  0.66843900  0.17493600  1
  O  O37  1  0.22557100  0.07621600  0.76769400  1
  O  O38  1  0.41729400  0.26539500  0.57661700  1
  O  O39  1  0.50853200  0.02225100  0.81618800  1
  O  O40  1  0.30322300  0.85960300  0.96561700  1
  O  O41  1  0.75484300  0.58738000  0.21706500  1
  O  O42  1  0.25345200  0.40937800  0.27110700  1
  O  O43  1  0.81001000  0.13230400  0.53499400  1
  O  O44  1  0.01457200  0.96286000  0.68349100  1
  O  O45  1  0.91644700  0.73416300  0.92935500  1
  O  O46  1  0.73186200  0.93442800  0.73048700  1
  O  O47  1  0.97095500  0.33264100  0.31799600  1
  O  O48  1  0.17333200  0.18690600  0.46678400  1
  O  O49  1  0.10837600  0.54621900  0.07567000  1
  O  O50  1  0.34651000  0.90343500  0.66476300  1
  O  O51  1  0.64623500  0.21705300  0.35212400  1
  O  O52  1  0.40850500  0.47503200  0.09014500  1
  O  O53  1  0.61259200  0.62142200  0.94056300  1
  O  O54  1  0.89151100  0.37709700  0.06948400  1
  O  O55  1  0.08224300  0.53067200  0.90760500  1
  O  O56  1  0.84841900  0.77463900  0.64933200  1
  O  O57  1  0.14959600  0.09082600  0.33633200  1
  O  O58  1  0.39674900  0.45749500  0.92377800  1
  O  O59  1  0.32817000  0.83404100  0.52403000  1
  O  O60  1  0.52830900  0.66843900  0.67493600  1
  O  O61  1  0.77442900  0.07621600  0.26769400  1
  O  O62  1  0.58270600  0.26539500  0.07661700  1
  O  O63  1  0.49146800  0.02225100  0.31618800  1
  O  O64  1  0.69677700  0.85960300  0.46561700  1
  O  O65  1  0.24515700  0.58738000  0.71706500  1
  O  O66  1  0.74654800  0.40937800  0.77110700  1
  O  O67  1  0.18999000  0.13230400  0.03499400  1
  O  O68  1  0.98542800  0.96286000  0.18349100  1
  O  O69  1  0.08355300  0.73416300  0.42935500  1
  O  O70  1  0.26813800  0.93442800  0.23048700  1
  O  O71  1  0.02904500  0.33264100  0.81799600  1
  O  O72  1  0.82666800  0.18690600  0.96678400  1
  O  O73  1  0.89162400  0.54621900  0.57567000  1
  O  O74  1  0.65349000  0.90343500  0.16476300  1
  O  O75  1  0.35376500  0.21705300  0.85212400  1
  O  O76  1  0.59149500  0.47503200  0.59014500  1
  O  O77  1  0.38740800  0.62142200  0.44056300  1
