# generated using pymatgen
data_Li2VF5
_symmetry_space_group_name_H-M   'P 1'
_cell_length_a   9.73735800
_cell_length_b   5.83589100
_cell_length_c   7.83459287
_cell_angle_alpha   73.70826993
_cell_angle_beta   90.00000000
_cell_angle_gamma   90.00000000
_symmetry_Int_Tables_number   1
_chemical_formula_structural   Li2VF5
_chemical_formula_sum   'Li8 V4 F20'
_cell_volume   427.33277939
_cell_formula_units_Z   4
loop_
 _symmetry_equiv_pos_site_id
 _symmetry_equiv_pos_as_xyz
  1  'x, y, z'
loop_
 _atom_site_type_symbol
 _atom_site_label
 _atom_site_symmetry_multiplicity
 _atom_site_fract_x
 _atom_site_fract_y
 _atom_site_fract_z
 _atom_site_occupancy
  Li  Li0  1  0.80597600  0.85938600  0.48254100  1
  Li  Li1  1  0.17681300  0.66616100  0.62653100  1
  Li  Li2  1  0.69402400  0.85938600  0.98254100  1
  Li  Li3  1  0.32318700  0.66616100  0.12653100  1
  Li  Li4  1  0.67681300  0.33383900  0.87346900  1
  Li  Li5  1  0.30597600  0.14061400  0.01745900  1
  Li  Li6  1  0.82318700  0.33383900  0.37346900  1
  Li  Li7  1  0.19402400  0.14061400  0.51745900  1
  V  V8  1  0.49337000  0.87017500  0.71037400  1
  V  V9  1  0.00663000  0.87017500  0.21037400  1
  V  V10  1  0.99337000  0.12982500  0.78962600  1
  V  V11  1  0.50663000  0.12982500  0.28962600  1
  F  F12  1  0.12474200  0.89928400  0.74607400  1
  F  F13  1  0.38411200  0.91460500  0.90592500  1
  F  F14  1  0.37525800  0.89928400  0.24607400  1
  F  F15  1  0.11588800  0.91460500  0.40592500  1
  F  F16  1  0.60856400  0.87005000  0.49246300  1
  F  F17  1  0.61691300  0.63494800  0.87580900  1
  F  F18  1  0.36887000  0.63641500  0.67555900  1
  F  F19  1  0.89143600  0.87005000  0.99246300  1
  F  F20  1  0.88308700  0.63494800  0.37580900  1
  F  F21  1  0.86887000  0.36358500  0.82444100  1
  F  F22  1  0.13113000  0.63641500  0.17555900  1
  F  F23  1  0.11691300  0.36505200  0.62419100  1
  F  F24  1  0.10856400  0.12995000  0.00753700  1
  F  F25  1  0.63113000  0.36358500  0.32444100  1
  F  F26  1  0.38308700  0.36505200  0.12419100  1
  F  F27  1  0.39143600  0.12995000  0.50753700  1
  F  F28  1  0.88411200  0.08539500  0.59407500  1
  F  F29  1  0.62474200  0.10071600  0.75392600  1
  F  F30  1  0.61588800  0.08539500  0.09407500  1
  F  F31  1  0.87525800  0.10071600  0.25392600  1
