# generated using pymatgen
data_Li3Mn5F15
_symmetry_space_group_name_H-M   'P 1'
_cell_length_a   13.06308200
_cell_length_b   13.06308200
_cell_length_c   3.94268500
_cell_angle_alpha   90.00000000
_cell_angle_beta   90.00000000
_cell_angle_gamma   90.00000000
_symmetry_Int_Tables_number   1
_chemical_formula_structural   Li3Mn5F15
_chemical_formula_sum   'Li6 Mn10 F30'
_cell_volume   672.79597811
_cell_formula_units_Z   2
loop_
 _symmetry_equiv_pos_site_id
 _symmetry_equiv_pos_as_xyz
  1  'x, y, z'
loop_
 _atom_site_type_symbol
 _atom_site_label
 _atom_site_symmetry_multiplicity
 _atom_site_fract_x
 _atom_site_fract_y
 _atom_site_fract_z
 _atom_site_occupancy
  Li  Li0  1  0.00000000  0.00000000  0.67344200  1
  Li  Li1  1  0.66212100  0.16212100  0.62970700  1
  Li  Li2  1  0.16212100  0.33787900  0.62970700  1
  Li  Li3  1  0.50000000  0.50000000  0.67344200  1
  Li  Li4  1  0.83787900  0.66212100  0.62970700  1
  Li  Li5  1  0.33787900  0.83787900  0.62970700  1
  Mn  Mn6  1  0.50000000  0.00000000  0.58344500  1
  Mn  Mn7  1  0.21267300  0.07992300  0.59824900  1
  Mn  Mn8  1  0.92007700  0.21267300  0.59824900  1
  Mn  Mn9  1  0.42007700  0.28732700  0.59824900  1
  Mn  Mn10  1  0.71267300  0.42007700  0.59824900  1
  Mn  Mn11  1  0.00000000  0.50000000  0.58344500  1
  Mn  Mn12  1  0.28732700  0.57992300  0.59824900  1
  Mn  Mn13  1  0.57992300  0.71267300  0.59824900  1
  Mn  Mn14  1  0.07992300  0.78732700  0.59824900  1
  Mn  Mn15  1  0.78732700  0.92007700  0.59824900  1
  F  F16  1  0.50000000  0.00000000  0.08489400  1
  F  F17  1  0.65948400  0.01496000  0.59381000  1
  F  F18  1  0.86803600  0.06291300  0.61263100  1
  F  F19  1  0.21553900  0.08176900  0.09917800  1
  F  F20  1  0.06291300  0.13196400  0.61263100  1
  F  F21  1  0.51496000  0.15948400  0.59381000  1
  F  F22  1  0.91823100  0.21553900  0.09917800  1
  F  F23  1  0.26391600  0.23608400  0.59986100  1
  F  F24  1  0.76391600  0.26391600  0.59986100  1
  F  F25  1  0.41823100  0.28446100  0.09917800  1
  F  F26  1  0.01496000  0.34051600  0.59381000  1
  F  F27  1  0.56291300  0.36803600  0.61263100  1
  F  F28  1  0.71553900  0.41823100  0.09917800  1
  F  F29  1  0.36803600  0.43708700  0.61263100  1
  F  F30  1  0.15948400  0.48504000  0.59381000  1
  F  F31  1  0.00000000  0.50000000  0.08489400  1
  F  F32  1  0.84051600  0.51496000  0.59381000  1
  F  F33  1  0.63196400  0.56291300  0.61263100  1
  F  F34  1  0.28446100  0.58176900  0.09917800  1
  F  F35  1  0.43708700  0.63196400  0.61263100  1
  F  F36  1  0.98504000  0.65948400  0.59381000  1
  F  F37  1  0.58176900  0.71553900  0.09917800  1
  F  F38  1  0.23608400  0.73608400  0.59986100  1
  F  F39  1  0.73608400  0.76391600  0.59986100  1
  F  F40  1  0.08176900  0.78446100  0.09917800  1
  F  F41  1  0.48504000  0.84051600  0.59381000  1
  F  F42  1  0.93708700  0.86803600  0.61263100  1
  F  F43  1  0.78446100  0.91823100  0.09917800  1
  F  F44  1  0.13196400  0.93708700  0.61263100  1
  F  F45  1  0.34051600  0.98504000  0.59381000  1
