# generated using pymatgen
data_Li2CrPO5
_symmetry_space_group_name_H-M   'P 1'
_cell_length_a   5.11341300
_cell_length_b   12.73555900
_cell_length_c   13.03115942
_cell_angle_alpha   61.47111739
_cell_angle_beta   90.00000000
_cell_angle_gamma   90.00000000
_symmetry_Int_Tables_number   1
_chemical_formula_structural   Li2CrPO5
_chemical_formula_sum   'Li16 Cr8 P8 O40'
_cell_volume   745.57529225
_cell_formula_units_Z   8
loop_
 _symmetry_equiv_pos_site_id
 _symmetry_equiv_pos_as_xyz
  1  'x, y, z'
loop_
 _atom_site_type_symbol
 _atom_site_label
 _atom_site_symmetry_multiplicity
 _atom_site_fract_x
 _atom_site_fract_y
 _atom_site_fract_z
 _atom_site_occupancy
  Li  Li0  1  0.73564800  0.82629800  0.35102000  1
  Li  Li1  1  0.76206800  0.34618500  0.07855900  1
  Li  Li2  1  0.21230800  0.17676400  0.15142300  1
  Li  Li3  1  0.73015200  0.58463500  0.57505500  1
  Li  Li4  1  0.23015200  0.91536500  0.42494500  1
  Li  Li5  1  0.71230800  0.32323600  0.84857700  1
  Li  Li6  1  0.76435200  0.32629800  0.35102000  1
  Li  Li7  1  0.73793200  0.84618500  0.07855900  1
  Li  Li8  1  0.26206800  0.15381500  0.92144100  1
  Li  Li9  1  0.23564800  0.67370200  0.64898000  1
  Li  Li10  1  0.28769200  0.67676400  0.15142300  1
  Li  Li11  1  0.76984800  0.08463500  0.57505500  1
  Li  Li12  1  0.26984800  0.41536500  0.42494500  1
  Li  Li13  1  0.78769200  0.82323600  0.84857700  1
  Li  Li14  1  0.23793200  0.65381500  0.92144100  1
  Li  Li15  1  0.26435200  0.17370200  0.64898000  1
  Cr  Cr16  1  0.72545000  0.13094200  0.06069700  1
  Cr  Cr17  1  0.26883500  0.69028300  0.43849700  1
  Cr  Cr18  1  0.77455000  0.63094200  0.06069700  1
  Cr  Cr19  1  0.76883500  0.80971700  0.56150300  1
  Cr  Cr20  1  0.23116500  0.19028300  0.43849700  1
  Cr  Cr21  1  0.22545000  0.36905800  0.93930300  1
  Cr  Cr22  1  0.73116500  0.30971700  0.56150300  1
  Cr  Cr23  1  0.27455000  0.86905800  0.93930300  1
  P  P24  1  0.22428300  0.92766700  0.16249300  1
  P  P25  1  0.22593600  0.41236700  0.66301700  1
  P  P26  1  0.27571700  0.42766700  0.16249300  1
  P  P27  1  0.72593600  0.08763300  0.33698300  1
  P  P28  1  0.27406400  0.91236700  0.66301700  1
  P  P29  1  0.72428300  0.57233300  0.83750700  1
  P  P30  1  0.77406400  0.58763300  0.33698300  1
  P  P31  1  0.77571700  0.07233300  0.83750700  1
  O  O32  1  0.92647400  0.95292100  0.13619400  1
  O  O33  1  0.03940100  0.21976100  0.99508900  1
  O  O34  1  0.37634300  0.04515900  0.12149100  1
  O  O35  1  0.61808600  0.65451200  0.38844700  1
  O  O36  1  0.26933800  0.85401000  0.29566600  1
  O  O37  1  0.16025000  0.35819900  0.10146800  1
  O  O38  1  0.79930700  0.14618300  0.20598700  1
  O  O39  1  0.92712200  0.40427900  0.64376600  1
  O  O40  1  0.95300000  0.72567400  0.49271200  1
  O  O41  1  0.57352600  0.45292100  0.13619400  1
  O  O42  1  0.46059900  0.71976100  0.99508900  1
  O  O43  1  0.31736200  0.54499100  0.60340600  1
  O  O44  1  0.81736200  0.95500900  0.39659400  1
  O  O45  1  0.12365700  0.54515900  0.12149100  1
  O  O46  1  0.45300000  0.77432600  0.50728800  1
  O  O47  1  0.42712200  0.09572100  0.35623400  1
  O  O48  1  0.88191400  0.15451200  0.38844700  1
  O  O49  1  0.23066200  0.35401000  0.29566600  1
  O  O50  1  0.29930700  0.35381700  0.79401300  1
  O  O51  1  0.66025000  0.14180100  0.89853200  1
  O  O52  1  0.33975000  0.85819900  0.10146800  1
  O  O53  1  0.70069300  0.64618300  0.20598700  1
  O  O54  1  0.76933800  0.64599000  0.70433400  1
  O  O55  1  0.11808600  0.84548800  0.61155300  1
  O  O56  1  0.57287800  0.90427900  0.64376600  1
  O  O57  1  0.54700000  0.22567400  0.49271200  1
  O  O58  1  0.87634300  0.45484100  0.87850900  1
  O  O59  1  0.18263800  0.04499100  0.60340600  1
  O  O60  1  0.68263800  0.45500900  0.39659400  1
  O  O61  1  0.53940100  0.28023900  0.00491100  1
  O  O62  1  0.42647400  0.54707900  0.86380600  1
  O  O63  1  0.04700000  0.27432600  0.50728800  1
  O  O64  1  0.07287800  0.59572100  0.35623400  1
  O  O65  1  0.20069300  0.85381700  0.79401300  1
  O  O66  1  0.83975000  0.64180100  0.89853200  1
  O  O67  1  0.73066200  0.14599000  0.70433400  1
  O  O68  1  0.38191400  0.34548800  0.61155300  1
  O  O69  1  0.62365700  0.95484100  0.87850900  1
  O  O70  1  0.96059900  0.78023900  0.00491100  1
  O  O71  1  0.07352600  0.04707900  0.86380600  1
