# generated using pymatgen
data_Li(BiO2)2
_symmetry_space_group_name_H-M   'P 1'
_cell_length_a   8.20971300
_cell_length_b   8.20971300
_cell_length_c   6.11689800
_cell_angle_alpha   90.00000000
_cell_angle_beta   90.00000000
_cell_angle_gamma   90.00000000
_symmetry_Int_Tables_number   1
_chemical_formula_structural   Li(BiO2)2
_chemical_formula_sum   'Li4 Bi8 O16'
_cell_volume   412.27517886
_cell_formula_units_Z   4
loop_
 _symmetry_equiv_pos_site_id
 _symmetry_equiv_pos_as_xyz
  1  'x, y, z'
loop_
 _atom_site_type_symbol
 _atom_site_label
 _atom_site_symmetry_multiplicity
 _atom_site_fract_x
 _atom_site_fract_y
 _atom_site_fract_z
 _atom_site_occupancy
  Li  Li0  1  0.50000000  0.00000000  0.05670400  1
  Li  Li1  1  0.50000000  0.00000000  0.55670400  1
  Li  Li2  1  0.00000000  0.50000000  0.94329600  1
  Li  Li3  1  0.00000000  0.50000000  0.44329600  1
  Bi  Bi4  1  0.17571800  0.17571800  0.25000000  1
  Bi  Bi5  1  0.82428200  0.17571800  0.75000000  1
  Bi  Bi6  1  0.32428200  0.32428200  0.75000000  1
  Bi  Bi7  1  0.67571800  0.32428200  0.25000000  1
  Bi  Bi8  1  0.32428200  0.67571800  0.25000000  1
  Bi  Bi9  1  0.67571800  0.67571800  0.75000000  1
  Bi  Bi10  1  0.17571800  0.82428200  0.75000000  1
  Bi  Bi11  1  0.82428200  0.82428200  0.25000000  1
  O  O12  1  0.27162000  0.08573200  0.58921200  1
  O  O13  1  0.72838000  0.08573200  0.08921200  1
  O  O14  1  0.41426800  0.22838000  0.08921200  1
  O  O15  1  0.58573200  0.22838000  0.58921200  1
  O  O16  1  0.08573200  0.27162000  0.91078800  1
  O  O17  1  0.91426800  0.27162000  0.41078800  1
  O  O18  1  0.22838000  0.41426800  0.41078800  1
  O  O19  1  0.77162000  0.41426800  0.91078800  1
  O  O20  1  0.22838000  0.58573200  0.91078800  1
  O  O21  1  0.77162000  0.58573200  0.41078800  1
  O  O22  1  0.08573200  0.72838000  0.41078800  1
  O  O23  1  0.91426800  0.72838000  0.91078800  1
  O  O24  1  0.41426800  0.77162000  0.58921200  1
  O  O25  1  0.58573200  0.77162000  0.08921200  1
  O  O26  1  0.27162000  0.91426800  0.08921200  1
  O  O27  1  0.72838000  0.91426800  0.58921200  1
