# generated using pymatgen
data_Li3Mn2F9
_symmetry_space_group_name_H-M   'P 1'
_cell_length_a   5.48373600
_cell_length_b   5.65954767
_cell_length_c   14.15021345
_cell_angle_alpha   89.15546124
_cell_angle_beta   93.87639653
_cell_angle_gamma   118.61212649
_symmetry_Int_Tables_number   1
_chemical_formula_structural   Li3Mn2F9
_chemical_formula_sum   'Li6 Mn4 F18'
_cell_volume   384.56916958
_cell_formula_units_Z   2
loop_
 _symmetry_equiv_pos_site_id
 _symmetry_equiv_pos_as_xyz
  1  'x, y, z'
loop_
 _atom_site_type_symbol
 _atom_site_label
 _atom_site_symmetry_multiplicity
 _atom_site_fract_x
 _atom_site_fract_y
 _atom_site_fract_z
 _atom_site_occupancy
  Li  Li0  1  0.09811900  0.58341900  0.24290200  1
  Li  Li1  1  0.00280800  0.71749200  0.45134500  1
  Li  Li2  1  0.22854400  0.71012300  0.04454500  1
  Li  Li3  1  0.99720300  0.41483600  0.75134300  1
  Li  Li4  1  0.99156800  0.28263700  0.54745300  1
  Li  Li5  1  0.77685700  0.29227300  0.95610000  1
  Mn  Mn6  1  0.11934100  0.97119200  0.84934100  1
  Mn  Mn7  1  0.34238800  0.97805600  0.65319200  1
  Mn  Mn8  1  0.65299100  0.03454300  0.34614800  1
  Mn  Mn9  1  0.86900800  0.01505100  0.15111700  1
  F  F10  1  0.89011200  0.75531500  0.74917200  1
  F  F11  1  0.24098000  0.80128300  0.35367600  1
  F  F12  1  0.61431700  0.84152500  0.05006200  1
  F  F13  1  0.01656200  0.32832500  0.07568800  1
  F  F14  1  0.33673200  0.22444400  0.74949200  1
  F  F15  1  0.80847000  0.32909600  0.43443000  1
  F  F16  1  0.62890700  0.24713600  0.24976200  1
  F  F17  1  0.92277500  0.18983100  0.85858000  1
  F  F18  1  0.25008100  0.15309800  0.55783400  1
  F  F19  1  0.74352800  0.84459100  0.43675000  1
  F  F20  1  0.08035300  0.80886000  0.14325500  1
  F  F21  1  0.35577000  0.76929300  0.75561000  1
  F  F22  1  0.60865500  0.77312400  0.24073900  1
  F  F23  1  0.99978100  0.67235000  0.93162300  1
  F  F24  1  0.19572300  0.67589300  0.56945400  1
  F  F25  1  0.75974600  0.19737800  0.64762900  1
  F  F26  1  0.39283300  0.16990400  0.94351500  1
  F  F27  1  0.07597000  0.21913100  0.25924200  1
