# generated using pymatgen
data_Li4MnSn(WO6)2
_symmetry_space_group_name_H-M   'P 1'
_cell_length_a   5.42903543
_cell_length_b   10.29177017
_cell_length_c   7.50157418
_cell_angle_alpha   89.97093018
_cell_angle_beta   85.73270661
_cell_angle_gamma   90.01445112
_symmetry_Int_Tables_number   1
_chemical_formula_structural   Li4MnSn(WO6)2
_chemical_formula_sum   'Li8 Mn2 Sn2 W4 O24'
_cell_volume   417.98380304
_cell_formula_units_Z   2
loop_
 _symmetry_equiv_pos_site_id
 _symmetry_equiv_pos_as_xyz
  1  'x, y, z'
loop_
 _atom_site_type_symbol
 _atom_site_label
 _atom_site_symmetry_multiplicity
 _atom_site_fract_x
 _atom_site_fract_y
 _atom_site_fract_z
 _atom_site_occupancy
  Li  Li0  1  0.56408900  0.00156200  0.29652100  1
  Li  Li1  1  0.56408200  0.50153800  0.29650900  1
  Li  Li2  1  0.08585700  0.24854800  0.77826600  1
  Li  Li3  1  0.08579600  0.74858000  0.77823900  1
  Li  Li4  1  0.55196700  0.00148100  0.76555700  1
  Li  Li5  1  0.55189900  0.50151000  0.76553200  1
  Li  Li6  1  0.07123900  0.24816500  0.29356800  1
  Li  Li7  1  0.07104900  0.74819200  0.29358600  1
  Mn  Mn8  1  0.50435100  0.24879400  0.50350900  1
  Mn  Mn9  1  0.50429700  0.74877500  0.50352500  1
  Sn  Sn10  1  0.00239600  0.00047100  0.00206600  1
  Sn  Sn11  1  0.00244400  0.50049400  0.00208600  1
  W  W12  1  0.00087400  0.99852200  0.50172100  1
  W  W13  1  0.50351500  0.25189800  0.00273700  1
  W  W14  1  0.50352800  0.75192000  0.00276700  1
  W  W15  1  0.00089900  0.49853700  0.50175200  1
  O  O16  1  0.79114500  0.14795000  0.43197600  1
  O  O17  1  0.79111500  0.64793600  0.43199500  1
  O  O18  1  0.97611600  0.06399800  0.74061200  1
  O  O19  1  0.97609900  0.56402200  0.74064700  1
  O  O20  1  0.17898900  0.16974800  0.05349300  1
  O  O21  1  0.17901100  0.66986100  0.05359300  1
  O  O22  1  0.29162700  0.10091800  0.43523200  1
  O  O23  1  0.29165600  0.60091600  0.43530200  1
  O  O24  1  0.32118200  0.40424300  0.92731700  1
  O  O25  1  0.32118300  0.90424200  0.92732700  1
  O  O26  1  0.47882000  0.18950200  0.74597400  1
  O  O27  1  0.47877700  0.68955900  0.74604400  1
  O  O28  1  0.49143000  0.30985000  0.24626700  1
  O  O29  1  0.49151300  0.80982300  0.24620100  1
  O  O30  1  0.66187300  0.09138000  0.05619900  1
  O  O31  1  0.66189800  0.59136900  0.05619000  1
  O  O32  1  0.68508700  0.40234700  0.55218300  1
  O  O33  1  0.68508000  0.90234000  0.55217200  1
  O  O34  1  0.80546600  0.33771700  0.92562200  1
  O  O35  1  0.80547500  0.83772900  0.92564800  1
  O  O36  1  0.98756100  0.43578400  0.25825700  1
  O  O37  1  0.98752300  0.93579800  0.25823800  1
  O  O38  1  0.18912400  0.34704900  0.55409400  1
  O  O39  1  0.18876800  0.84693300  0.55387200  1
