# generated using pymatgen
data_Li2Ti2O5
_symmetry_space_group_name_H-M   'P 1'
_cell_length_a   8.48860081
_cell_length_b   8.48860081
_cell_length_c   5.24714300
_cell_angle_alpha   90.00000000
_cell_angle_beta   90.00000000
_cell_angle_gamma   137.31846794
_symmetry_Int_Tables_number   1
_chemical_formula_structural   Li2Ti2O5
_chemical_formula_sum   'Li4 Ti4 O10'
_cell_volume   256.31577262
_cell_formula_units_Z   2
loop_
 _symmetry_equiv_pos_site_id
 _symmetry_equiv_pos_as_xyz
  1  'x, y, z'
loop_
 _atom_site_type_symbol
 _atom_site_label
 _atom_site_symmetry_multiplicity
 _atom_site_fract_x
 _atom_site_fract_y
 _atom_site_fract_z
 _atom_site_occupancy
  Li  Li0  1  0.59287300  0.70363300  0.35940700  1
  Li  Li1  1  0.70363300  0.59287300  0.85940700  1
  Li  Li2  1  0.40712700  0.29636700  0.35940700  1
  Li  Li3  1  0.29636700  0.40712700  0.85940700  1
  Ti  Ti4  1  0.98646400  0.70096300  0.35974100  1
  Ti  Ti5  1  0.70096300  0.98646400  0.85974100  1
  Ti  Ti6  1  0.29903700  0.01353600  0.85974100  1
  Ti  Ti7  1  0.01353600  0.29903700  0.35974100  1
  O  O8  1  0.00000000  0.50000000  0.43450000  1
  O  O9  1  0.59236900  0.72575900  0.97480900  1
  O  O10  1  0.72575900  0.59236900  0.47480900  1
  O  O11  1  0.99056900  0.24115600  0.01140700  1
  O  O12  1  0.24115600  0.99056900  0.51140700  1
  O  O13  1  0.75884400  0.00943100  0.51140700  1
  O  O14  1  0.00943100  0.75884400  0.01140700  1
  O  O15  1  0.40763100  0.27424100  0.97480900  1
  O  O16  1  0.27424100  0.40763100  0.47480900  1
  O  O17  1  0.50000000  0.00000000  0.93450000  1
