# generated using pymatgen
data_LiFe2(PO4)2
_symmetry_space_group_name_H-M   'P 1'
_cell_length_a   5.17604700
_cell_length_b   10.33519000
_cell_length_c   13.89348700
_cell_angle_alpha   90.00000000
_cell_angle_beta   90.00000000
_cell_angle_gamma   90.00000000
_symmetry_Int_Tables_number   1
_chemical_formula_structural   LiFe2(PO4)2
_chemical_formula_sum   'Li4 Fe8 P8 O32'
_cell_volume   743.23805007
_cell_formula_units_Z   4
loop_
 _symmetry_equiv_pos_site_id
 _symmetry_equiv_pos_as_xyz
  1  'x, y, z'
loop_
 _atom_site_type_symbol
 _atom_site_label
 _atom_site_symmetry_multiplicity
 _atom_site_fract_x
 _atom_site_fract_y
 _atom_site_fract_z
 _atom_site_occupancy
  Li  Li0  1  0.55229200  0.22262500  0.25067700  1
  Li  Li1  1  0.55229200  0.27737500  0.75067700  1
  Li  Li2  1  0.44770800  0.72262500  0.25067700  1
  Li  Li3  1  0.44770800  0.77737500  0.75067700  1
  Fe  Fe4  1  0.06158600  0.03743400  0.24636500  1
  Fe  Fe5  1  0.55768800  0.22382900  0.00075600  1
  Fe  Fe6  1  0.55768800  0.27617100  0.50075600  1
  Fe  Fe7  1  0.06158600  0.46256600  0.74636500  1
  Fe  Fe8  1  0.93841400  0.53743400  0.24636500  1
  Fe  Fe9  1  0.44231200  0.72382900  0.00075600  1
  Fe  Fe10  1  0.44231200  0.77617100  0.50075600  1
  Fe  Fe11  1  0.93841400  0.96256600  0.74636500  1
  P  P12  1  0.43785600  0.02973200  0.62434000  1
  P  P13  1  0.05491400  0.21615100  0.87134600  1
  P  P14  1  0.05491400  0.28384900  0.37134600  1
  P  P15  1  0.43785600  0.47026800  0.12434000  1
  P  P16  1  0.56214400  0.52973200  0.62434000  1
  P  P17  1  0.94508600  0.71615100  0.87134600  1
  P  P18  1  0.94508600  0.78384900  0.37134600  1
  P  P19  1  0.56214400  0.97026800  0.12434000  1
  O  O20  1  0.85616900  0.99222600  0.14187500  1
  O  O21  1  0.48071200  0.03303000  0.03011400  1
  O  O22  1  0.42185000  0.03876600  0.21289500  1
  O  O23  1  0.99285700  0.07170900  0.85093900  1
  O  O24  1  0.49761800  0.17620000  0.62756800  1
  O  O25  1  0.92651300  0.24376800  0.46496400  1
  O  O26  1  0.93697700  0.20550200  0.28302800  1
  O  O27  1  0.34858300  0.24431600  0.87109800  1
  O  O28  1  0.34858300  0.25568400  0.37109800  1
  O  O29  1  0.93697700  0.29449800  0.78302800  1
  O  O30  1  0.92651300  0.25623200  0.96496400  1
  O  O31  1  0.49761800  0.32380000  0.12756800  1
  O  O32  1  0.99285700  0.42829100  0.35093900  1
  O  O33  1  0.42185000  0.46123400  0.71289500  1
  O  O34  1  0.48071200  0.46697000  0.53011400  1
  O  O35  1  0.85616900  0.50777400  0.64187500  1
  O  O36  1  0.14383100  0.49222600  0.14187500  1
  O  O37  1  0.51928800  0.53303000  0.03011400  1
  O  O38  1  0.57815000  0.53876600  0.21289500  1
  O  O39  1  0.00714300  0.57170900  0.85093900  1
  O  O40  1  0.50238200  0.67620000  0.62756800  1
  O  O41  1  0.07348700  0.74376800  0.46496400  1
  O  O42  1  0.06302300  0.70550200  0.28302800  1
  O  O43  1  0.65141700  0.74431600  0.87109800  1
  O  O44  1  0.65141700  0.75568400  0.37109800  1
  O  O45  1  0.06302300  0.79449800  0.78302800  1
  O  O46  1  0.07348700  0.75623200  0.96496400  1
  O  O47  1  0.50238200  0.82380000  0.12756800  1
  O  O48  1  0.00714300  0.92829100  0.35093900  1
  O  O49  1  0.57815000  0.96123400  0.71289500  1
  O  O50  1  0.51928800  0.96697000  0.53011400  1
  O  O51  1  0.14383100  0.00777400  0.64187500  1
