# generated using pymatgen
data_Li3V(PO4)2
_symmetry_space_group_name_H-M   'P 1'
_cell_length_a   8.72930200
_cell_length_b   8.76497376
_cell_length_c   9.19945460
_cell_angle_alpha   86.82648936
_cell_angle_beta   87.20348096
_cell_angle_gamma   67.36176937
_symmetry_Int_Tables_number   1
_chemical_formula_structural   Li3V(PO4)2
_chemical_formula_sum   'Li12 V4 P8 O32'
_cell_volume   648.35428164
_cell_formula_units_Z   4
loop_
 _symmetry_equiv_pos_site_id
 _symmetry_equiv_pos_as_xyz
  1  'x, y, z'
loop_
 _atom_site_type_symbol
 _atom_site_label
 _atom_site_symmetry_multiplicity
 _atom_site_fract_x
 _atom_site_fract_y
 _atom_site_fract_z
 _atom_site_occupancy
  Li  Li0  1  0.12712600  0.35145100  0.20803200  1
  Li  Li1  1  0.36755500  0.12804400  0.70288800  1
  Li  Li2  1  0.84570800  0.03960900  0.54457800  1
  Li  Li3  1  0.89359400  0.07141700  0.23155900  1
  Li  Li4  1  0.41005300  0.56461200  0.23755900  1
  Li  Li5  1  0.11049600  0.90260700  0.77150300  1
  Li  Li6  1  0.56845200  0.43659400  0.75483400  1
  Li  Li7  1  0.15930000  0.96376000  0.46256200  1
  Li  Li8  1  0.95979400  0.14720800  0.96781400  1
  Li  Li9  1  0.60909500  0.87319200  0.32877100  1
  Li  Li10  1  0.86482300  0.62715800  0.77594000  1
  Li  Li11  1  0.89391900  0.72374100  0.10644100  1
  V  V12  1  0.51462500  0.22896200  0.09131600  1
  V  V13  1  0.23273300  0.51014600  0.59058900  1
  V  V14  1  0.76853200  0.49207200  0.40681300  1
  V  V15  1  0.48803500  0.77116200  0.90926900  1
  P  P16  1  0.28298600  0.01726000  0.06920300  1
  P  P17  1  0.01488700  0.28828700  0.56840800  1
  P  P18  1  0.57189800  0.23996300  0.43056200  1
  P  P19  1  0.23611000  0.57593600  0.93013500  1
  P  P20  1  0.75820500  0.43140300  0.07241500  1
  P  P21  1  0.43260300  0.76518700  0.57148600  1
  P  P22  1  0.99211500  0.71609500  0.42243900  1
  P  P23  1  0.72155300  0.98717600  0.92051600  1
  O  O24  1  0.11115000  0.03088400  0.12399400  1
  O  O25  1  0.02173400  0.11406200  0.61206400  1
  O  O26  1  0.32215200  0.15971700  0.13239400  1
  O  O27  1  0.16191600  0.31622200  0.63357700  1
  O  O28  1  0.63213500  0.05198300  0.44311200  1
  O  O29  1  0.04803200  0.62865500  0.94447000  1
  O  O30  1  0.72180400  0.96967800  0.09268900  1
  O  O31  1  0.97780500  0.68683000  0.59044000  1
  O  O32  1  0.16469900  0.57865600  0.37866200  1
  O  O33  1  0.56811500  0.15330000  0.88723900  1
  O  O34  1  0.33295700  0.47199700  0.06299700  1
  O  O35  1  0.46964600  0.32784600  0.56539600  1
  O  O36  1  0.47193600  0.31697900  0.29182600  1
  O  O37  1  0.31305100  0.47388400  0.79237300  1
  O  O38  1  0.73505900  0.27610600  0.41971100  1
  O  O39  1  0.27434000  0.73602600  0.91026700  1
  O  O40  1  0.73563000  0.26109100  0.08438900  1
  O  O41  1  0.27049000  0.72787500  0.57974400  1
  O  O42  1  0.67150300  0.53211200  0.20763100  1
  O  O43  1  0.53400200  0.68420700  0.70814900  1
  O  O44  1  0.54102800  0.68297600  0.43649600  1
  O  O45  1  0.66519800  0.52775100  0.93596700  1
  O  O46  1  0.42617600  0.84735300  0.11478100  1
  O  O47  1  0.84528500  0.42859900  0.61716700  1
  O  O48  1  0.01695400  0.31801800  0.39871700  1
  O  O49  1  0.30111800  0.02110500  0.89815900  1
  O  O50  1  0.94408200  0.38884100  0.06374100  1
  O  O51  1  0.37406800  0.95272800  0.55683500  1
  O  O52  1  0.85290200  0.68646000  0.33943100  1
  O  O53  1  0.68951700  0.83767900  0.86460700  1
  O  O54  1  0.98492400  0.89175300  0.38445300  1
  O  O55  1  0.88057400  0.99821300  0.85412100  1
