# generated using pymatgen
data_Li3VPCO7
_symmetry_space_group_name_H-M   'P 1'
_cell_length_a   6.61646600
_cell_length_b   8.50891991
_cell_length_c   9.97820890
_cell_angle_alpha   85.09826828
_cell_angle_beta   89.42896260
_cell_angle_gamma   89.07039731
_symmetry_Int_Tables_number   1
_chemical_formula_structural   Li3VPCO7
_chemical_formula_sum   'Li12 V4 P4 C4 O28'
_cell_volume   559.61402493
_cell_formula_units_Z   4
loop_
 _symmetry_equiv_pos_site_id
 _symmetry_equiv_pos_as_xyz
  1  'x, y, z'
loop_
 _atom_site_type_symbol
 _atom_site_label
 _atom_site_symmetry_multiplicity
 _atom_site_fract_x
 _atom_site_fract_y
 _atom_site_fract_z
 _atom_site_occupancy
  Li  Li0  1  0.25637100  0.90048600  0.60939700  1
  Li  Li1  1  0.25830800  0.90171400  0.11750100  1
  Li  Li2  1  0.48601200  0.71896100  0.89189400  1
  Li  Li3  1  0.01782900  0.72156800  0.36081700  1
  Li  Li4  1  0.47847200  0.71959600  0.36127800  1
  Li  Li5  1  0.74023800  0.65261200  0.12293800  1
  Li  Li6  1  0.52960900  0.28305600  0.62284600  1
  Li  Li7  1  0.97035000  0.28280900  0.62214600  1
  Li  Li8  1  0.53449200  0.28346800  0.12705300  1
  Li  Li9  1  0.96650400  0.28087100  0.12679500  1
  Li  Li10  1  0.74876800  0.10822900  0.89196600  1
  Li  Li11  1  0.74683200  0.09235800  0.37719700  1
  V  V12  1  0.99100300  0.74089700  0.88779200  1
  V  V13  1  0.74750000  0.67081400  0.59897300  1
  V  V14  1  0.25073900  0.33060400  0.89675000  1
  V  V15  1  0.25047100  0.32879300  0.39669100  1
  P  P16  1  0.24421000  0.59220100  0.63978300  1
  P  P17  1  0.25426700  0.58805000  0.14068400  1
  P  P18  1  0.75008200  0.41347200  0.85967600  1
  P  P19  1  0.74949700  0.40818500  0.36021000  1
  C  C20  1  0.75406300  0.96547800  0.65214700  1
  C  C21  1  0.75911300  0.95740600  0.14418200  1
  C  C22  1  0.25178000  0.03747600  0.84722800  1
  C  C23  1  0.24981300  0.03510700  0.34719700  1
  O  O24  1  0.74569100  0.92948800  0.52942000  1
  O  O25  1  0.24516300  0.89044400  0.81847900  1
  O  O26  1  0.77274400  0.92405600  0.01865500  1
  O  O27  1  0.75992600  0.84673000  0.74623100  1
  O  O28  1  0.24920700  0.88921900  0.31970900  1
  O  O29  1  0.75208800  0.84774600  0.24137800  1
  O  O30  1  0.06457200  0.69564100  0.58285400  1
  O  O31  1  0.42974100  0.69210600  0.59258700  1
  O  O32  1  0.06348100  0.68552500  0.09217200  1
  O  O33  1  0.43607100  0.69114200  0.09170700  1
  O  O34  1  0.74410700  0.57847000  0.91413600  1
  O  O35  1  0.22896000  0.57403700  0.79870300  1
  O  O36  1  0.74583800  0.57628200  0.40891600  1
  O  O37  1  0.24942600  0.56701300  0.29793700  1
  O  O38  1  0.75106100  0.43277100  0.70217500  1
  O  O39  1  0.25013600  0.42414000  0.59181300  1
  O  O40  1  0.75008500  0.42492000  0.20454600  1
  O  O41  1  0.25714800  0.42151800  0.08880600  1
  O  O42  1  0.93340500  0.31018000  0.91175200  1
  O  O43  1  0.56837200  0.31150400  0.91158800  1
  O  O44  1  0.56837400  0.30639100  0.41642400  1
  O  O45  1  0.93309100  0.30660300  0.41613000  1
  O  O46  1  0.25645400  0.14953500  0.75090800  1
  O  O47  1  0.75335400  0.10853900  0.68579500  1
  O  O48  1  0.24961800  0.14884400  0.25104400  1
  O  O49  1  0.25355200  0.07322900  0.97060800  1
  O  O50  1  0.75074100  0.10587000  0.17174000  1
  O  O51  1  0.25127100  0.07384700  0.47064700  1
