# generated using pymatgen
data_LiV(CO3)2
_symmetry_space_group_name_H-M   'P 1'
_cell_length_a   7.70755100
_cell_length_b   7.95652732
_cell_length_c   8.52834863
_cell_angle_alpha   100.69480303
_cell_angle_beta   103.09794193
_cell_angle_gamma   105.15015597
_symmetry_Int_Tables_number   1
_chemical_formula_structural   LiV(CO3)2
_chemical_formula_sum   'Li4 V4 C8 O24'
_cell_volume   474.73093841
_cell_formula_units_Z   4
loop_
 _symmetry_equiv_pos_site_id
 _symmetry_equiv_pos_as_xyz
  1  'x, y, z'
loop_
 _atom_site_type_symbol
 _atom_site_label
 _atom_site_symmetry_multiplicity
 _atom_site_fract_x
 _atom_site_fract_y
 _atom_site_fract_z
 _atom_site_occupancy
  Li  Li0  1  0.70111600  0.66625100  0.50541300  1
  Li  Li1  1  0.01874600  0.21709200  0.84142900  1
  Li  Li2  1  0.98125400  0.78290800  0.15857100  1
  Li  Li3  1  0.29888400  0.33374900  0.49458700  1
  V  V4  1  0.26076600  0.72077500  0.44430500  1
  V  V5  1  0.52994400  0.79291200  0.95510100  1
  V  V6  1  0.47005600  0.20708800  0.04489900  1
  V  V7  1  0.73923400  0.27922500  0.55569500  1
  C  C8  1  0.26192400  0.99242000  0.75800800  1
  C  C9  1  0.68048000  0.94122300  0.70458000  1
  C  C10  1  0.15625600  0.53068900  0.72983200  1
  C  C11  1  0.37732600  0.53851700  0.23004300  1
  C  C12  1  0.62267400  0.46148300  0.76995700  1
  C  C13  1  0.84374400  0.46931100  0.27016800  1
  C  C14  1  0.31952000  0.05877700  0.29542000  1
  C  C15  1  0.73807600  0.00758000  0.24199200  1
  O  O16  1  0.21201200  0.92057700  0.32409500  1
  O  O17  1  0.16805900  0.88246700  0.61863800  1
  O  O18  1  0.41383900  0.97770000  0.85498100  1
  O  O19  1  0.54340300  0.82414300  0.58400500  1
  O  O20  1  0.39340000  0.70574700  0.23978300  1
  O  O21  1  0.77367400  0.86335800  0.17612900  1
  O  O22  1  0.72643800  0.91591400  0.85170800  1
  O  O23  1  0.99311600  0.59078800  0.26988800  1
  O  O24  1  0.20407800  0.52927800  0.59301000  1
  O  O25  1  0.25678900  0.64538600  0.86860700  1
  O  O26  1  0.31270800  0.47947500  0.34504900  1
  O  O27  1  0.42358100  0.44309400  0.11950800  1
  O  O28  1  0.57641900  0.55690600  0.88049200  1
  O  O29  1  0.68729200  0.52052500  0.65495100  1
  O  O30  1  0.74321100  0.35461400  0.13139300  1
  O  O31  1  0.79592200  0.47072200  0.40699000  1
  O  O32  1  0.00688400  0.40921200  0.73011200  1
  O  O33  1  0.27356200  0.08408600  0.14829200  1
  O  O34  1  0.22632600  0.13664200  0.82387100  1
  O  O35  1  0.60660000  0.29425300  0.76021700  1
  O  O36  1  0.45659700  0.17585700  0.41599500  1
  O  O37  1  0.58616100  0.02230000  0.14501900  1
  O  O38  1  0.83194100  0.11753300  0.38136200  1
  O  O39  1  0.78798800  0.07942300  0.67590500  1
