# generated using pymatgen
data_Li2Ti3FeO8
_symmetry_space_group_name_H-M   'P 1'
_cell_length_a   8.51397200
_cell_length_b   8.51464959
_cell_length_c   8.51715627
_cell_angle_alpha   89.78794101
_cell_angle_beta   89.80555274
_cell_angle_gamma   89.94048125
_symmetry_Int_Tables_number   1
_chemical_formula_structural   Li2Ti3FeO8
_chemical_formula_sum   'Li8 Ti12 Fe4 O32'
_cell_volume   617.43025833
_cell_formula_units_Z   4
loop_
 _symmetry_equiv_pos_site_id
 _symmetry_equiv_pos_as_xyz
  1  'x, y, z'
loop_
 _atom_site_type_symbol
 _atom_site_label
 _atom_site_symmetry_multiplicity
 _atom_site_fract_x
 _atom_site_fract_y
 _atom_site_fract_z
 _atom_site_occupancy
  Li  Li0  1  0.99922200  0.99993700  0.00023700  1
  Li  Li1  1  0.24983300  0.25078800  0.75021900  1
  Li  Li2  1  0.75094100  0.74882500  0.75129500  1
  Li  Li3  1  0.49902000  0.00049300  0.50052100  1
  Li  Li4  1  0.00180200  0.50178000  0.50096700  1
  Li  Li5  1  0.74767700  0.24783700  0.24865900  1
  Li  Li6  1  0.24987300  0.75106600  0.24964700  1
  Li  Li7  1  0.50156300  0.49943900  0.99848600  1
  Ti  Ti8  1  0.62723200  0.11864100  0.87125800  1
  Ti  Ti9  1  0.87263800  0.37709300  0.87602300  1
  Ti  Ti10  1  0.13051100  0.62364700  0.87817300  1
  Ti  Ti11  1  0.62913900  0.37705200  0.62431400  1
  Ti  Ti12  1  0.37544000  0.62954000  0.62096700  1
  Ti  Ti13  1  0.11864100  0.87589300  0.62818300  1
  Ti  Ti14  1  0.37634800  0.37067900  0.38128700  1
  Ti  Ti15  1  0.12213800  0.12787000  0.37464300  1
  Ti  Ti16  1  0.87849900  0.87462200  0.36903500  1
  Ti  Ti17  1  0.37478900  0.13275600  0.12090000  1
  Ti  Ti18  1  0.61911300  0.87349700  0.12927000  1
  Ti  Ti19  1  0.87407500  0.62193800  0.12614300  1
  Fe  Fe20  1  0.37424100  0.87568800  0.87490700  1
  Fe  Fe21  1  0.87496500  0.12428800  0.62534800  1
  Fe  Fe22  1  0.62443900  0.62540200  0.37500400  1
  Fe  Fe23  1  0.12593800  0.37509600  0.12483100  1
  O  O24  1  0.39180800  0.12825000  0.89797500  1
  O  O25  1  0.62950600  0.89723200  0.89261700  1
  O  O26  1  0.88678000  0.61095300  0.88864100  1
  O  O27  1  0.85839500  0.14794300  0.87506800  1
  O  O28  1  0.10203300  0.39163700  0.87597300  1
  O  O29  1  0.63914700  0.36335300  0.86125000  1
  O  O30  1  0.35252900  0.62079700  0.85733000  1
  O  O31  1  0.12112000  0.85788000  0.85167300  1
  O  O32  1  0.62077400  0.14350400  0.64767400  1
  O  O33  1  0.85434700  0.37558200  0.64138000  1
  O  O34  1  0.13827000  0.63825100  0.63786700  1
  O  O35  1  0.60213800  0.60651600  0.62897900  1
  O  O36  1  0.35926200  0.85248300  0.62652000  1
  O  O37  1  0.38700600  0.38651200  0.61087200  1
  O  O38  1  0.12927400  0.10150800  0.60611700  1
  O  O39  1  0.89126900  0.87477700  0.60213600  1
  O  O40  1  0.60794300  0.37393300  0.39667700  1
  O  O41  1  0.37513000  0.60266600  0.39197500  1
  O  O42  1  0.11119400  0.88716100  0.38706400  1
  O  O43  1  0.14190700  0.35372200  0.37516700  1
  O  O44  1  0.89629800  0.10796600  0.37378400  1
  O  O45  1  0.36284700  0.13899300  0.36300000  1
  O  O46  1  0.64731900  0.87573400  0.35802900  1
  O  O47  1  0.87505000  0.64184600  0.35361800  1
  O  O48  1  0.37621300  0.35893600  0.14776000  1
  O  O49  1  0.14855800  0.12072600  0.14395100  1
  O  O50  1  0.86370600  0.86248100  0.13928400  1
  O  O51  1  0.39716900  0.89051900  0.12334900  1
  O  O52  1  0.64358800  0.64769400  0.12110700  1
  O  O53  1  0.61128900  0.11157900  0.11191600  1
  O  O54  1  0.87347500  0.39587800  0.10857000  1
  O  O55  1  0.10673000  0.62926600  0.10236100  1
