# generated using pymatgen
data_Li2BiBO4
_symmetry_space_group_name_H-M   'P 1'
_cell_length_a   4.82420900
_cell_length_b   6.85174800
_cell_length_c   10.33408200
_cell_angle_alpha   90.00000000
_cell_angle_beta   90.00000000
_cell_angle_gamma   90.00000000
_symmetry_Int_Tables_number   1
_chemical_formula_structural   Li2BiBO4
_chemical_formula_sum   'Li8 Bi4 B4 O16'
_cell_volume   341.58547842
_cell_formula_units_Z   4
loop_
 _symmetry_equiv_pos_site_id
 _symmetry_equiv_pos_as_xyz
  1  'x, y, z'
loop_
 _atom_site_type_symbol
 _atom_site_label
 _atom_site_symmetry_multiplicity
 _atom_site_fract_x
 _atom_site_fract_y
 _atom_site_fract_z
 _atom_site_occupancy
  Li  Li0  1  0.21538900  0.99539200  0.66031200  1
  Li  Li1  1  0.28461100  0.99539200  0.16031200  1
  Li  Li2  1  0.21538900  0.50460800  0.66031200  1
  Li  Li3  1  0.28461100  0.50460800  0.16031200  1
  Li  Li4  1  0.71538900  0.49539200  0.83968800  1
  Li  Li5  1  0.78461100  0.49539200  0.33968800  1
  Li  Li6  1  0.78461100  0.00460800  0.33968800  1
  Li  Li7  1  0.71538900  0.00460800  0.83968800  1
  Bi  Bi8  1  0.73257900  0.25000000  0.60168100  1
  Bi  Bi9  1  0.76742100  0.25000000  0.10168100  1
  Bi  Bi10  1  0.23257900  0.75000000  0.89831900  1
  Bi  Bi11  1  0.26742100  0.75000000  0.39831900  1
  B  B12  1  0.22645200  0.25000000  0.90160100  1
  B  B13  1  0.27354800  0.25000000  0.40160100  1
  B  B14  1  0.72645200  0.75000000  0.59839900  1
  B  B15  1  0.77354800  0.75000000  0.09839900  1
  O  O16  1  0.32649600  0.07404400  0.83683500  1
  O  O17  1  0.17350400  0.07404400  0.33683500  1
  O  O18  1  0.90346500  0.25000000  0.90041200  1
  O  O19  1  0.19479600  0.25000000  0.54766500  1
  O  O20  1  0.30520400  0.25000000  0.04766500  1
  O  O21  1  0.59653500  0.25000000  0.40041200  1
  O  O22  1  0.32649600  0.42595600  0.83683500  1
  O  O23  1  0.17350400  0.42595600  0.33683500  1
  O  O24  1  0.67350400  0.57404400  0.16316500  1
  O  O25  1  0.82649600  0.57404400  0.66316500  1
  O  O26  1  0.69479600  0.75000000  0.95233500  1
  O  O27  1  0.40346500  0.75000000  0.59958800  1
  O  O28  1  0.80520400  0.75000000  0.45233500  1
  O  O29  1  0.09653500  0.75000000  0.09958800  1
  O  O30  1  0.82649600  0.92595600  0.66316500  1
  O  O31  1  0.67350400  0.92595600  0.16316500  1
