# generated using pymatgen
data_LiMn2(PO3)5
_symmetry_space_group_name_H-M   'P 1'
_cell_length_a   7.29628020
_cell_length_b   7.29628020
_cell_length_c   12.92298911
_cell_angle_alpha   86.31920290
_cell_angle_beta   86.31920290
_cell_angle_gamma   114.46855648
_symmetry_Int_Tables_number   1
_chemical_formula_structural   LiMn2(PO3)5
_chemical_formula_sum   'Li2 Mn4 P10 O30'
_cell_volume   621.75646624
_cell_formula_units_Z   2
loop_
 _symmetry_equiv_pos_site_id
 _symmetry_equiv_pos_as_xyz
  1  'x, y, z'
loop_
 _atom_site_type_symbol
 _atom_site_label
 _atom_site_symmetry_multiplicity
 _atom_site_fract_x
 _atom_site_fract_y
 _atom_site_fract_z
 _atom_site_occupancy
  Li  Li0  1  0.12295400  0.95572300  0.78780500  1
  Li  Li1  1  0.95572300  0.12295400  0.28780500  1
  Mn  Mn2  1  0.77959600  0.31124400  0.76332900  1
  Mn  Mn3  1  0.31124400  0.77959600  0.26332900  1
  Mn  Mn4  1  0.21233000  0.27849800  0.59051100  1
  Mn  Mn5  1  0.27849800  0.21233000  0.09051100  1
  P  P6  1  0.35669900  0.97946100  0.50329800  1
  P  P7  1  0.68605200  0.60013100  0.56156600  1
  P  P8  1  0.61927400  0.84036000  0.83986400  1
  P  P9  1  0.97946100  0.35669900  0.00329800  1
  P  P10  1  0.60013100  0.68605200  0.06156600  1
  P  P11  1  0.84036000  0.61927400  0.33986400  1
  P  P12  1  0.80535000  0.06646400  0.53416600  1
  P  P13  1  0.06646400  0.80535000  0.03416600  1
  P  P14  1  0.23875400  0.45416300  0.80631100  1
  P  P15  1  0.45416300  0.23875400  0.30631100  1
  O  O16  1  0.82458900  0.85015800  0.81556700  1
  O  O17  1  0.85015900  0.82458900  0.31556700  1
  O  O18  1  0.73442200  0.51154700  0.65767400  1
  O  O19  1  0.51154700  0.73442200  0.15767400  1
  O  O20  1  0.78119300  0.84086400  0.56142100  1
  O  O21  1  0.84086400  0.78119300  0.06142100  1
  O  O22  1  0.55721700  0.80864300  0.96494400  1
  O  O23  1  0.80864300  0.55721700  0.46494400  1
  O  O24  1  0.56625200  0.00770600  0.79715000  1
  O  O25  1  0.00770600  0.56625200  0.29715000  1
  O  O26  1  0.80061600  0.29652000  0.94214100  1
  O  O27  1  0.29652000  0.80061600  0.44214100  1
  O  O28  1  0.16183600  0.93321200  0.93427100  1
  O  O29  1  0.46747200  0.53234000  0.54213400  1
  O  O30  1  0.93321200  0.16183600  0.43427100  1
  O  O31  1  0.45790600  0.63037100  0.80128800  1
  O  O32  1  0.53234000  0.46747200  0.04213400  1
  O  O33  1  0.63037100  0.45790600  0.30128800  1
  O  O34  1  0.89685900  0.18220400  0.62647700  1
  O  O35  1  0.18220400  0.89685900  0.12647700  1
  O  O36  1  0.58265500  0.05289300  0.53702500  1
  O  O37  1  0.05289300  0.58265500  0.03702500  1
  O  O38  1  0.08908300  0.52838700  0.76702500  1
  O  O39  1  0.52838700  0.08908300  0.26702500  1
  O  O40  1  0.18007600  0.37793500  0.92929700  1
  O  O41  1  0.37793500  0.18007600  0.42929700  1
  O  O42  1  0.25476600  0.28026400  0.75407200  1
  O  O43  1  0.28026400  0.25476600  0.25407200  1
  O  O44  1  0.23074400  0.98900000  0.59846300  1
  O  O45  1  0.98900000  0.23074400  0.09846300  1
