# generated using pymatgen
data_Li2V(CO3)3
_symmetry_space_group_name_H-M   'P 1'
_cell_length_a   6.24072639
_cell_length_b   6.24072639
_cell_length_c   9.79498000
_cell_angle_alpha   90.00000000
_cell_angle_beta   90.00000000
_cell_angle_gamma   101.05850627
_symmetry_Int_Tables_number   1
_chemical_formula_structural   Li2V(CO3)3
_chemical_formula_sum   'Li4 V2 C6 O18'
_cell_volume   374.39839459
_cell_formula_units_Z   2
loop_
 _symmetry_equiv_pos_site_id
 _symmetry_equiv_pos_as_xyz
  1  'x, y, z'
loop_
 _atom_site_type_symbol
 _atom_site_label
 _atom_site_symmetry_multiplicity
 _atom_site_fract_x
 _atom_site_fract_y
 _atom_site_fract_z
 _atom_site_occupancy
  Li  Li0  1  0.32618400  0.36840200  0.25000000  1
  Li  Li1  1  0.17665700  0.74746400  0.25000000  1
  Li  Li2  1  0.74746400  0.17665700  0.75000000  1
  Li  Li3  1  0.36840200  0.32618400  0.75000000  1
  V  V4  1  0.67227100  0.08460800  0.25000000  1
  V  V5  1  0.08460800  0.67227100  0.75000000  1
  C  C6  1  0.57255800  0.16704000  0.01839300  1
  C  C7  1  0.74269100  0.70955600  0.25000000  1
  C  C8  1  0.57255800  0.16704000  0.48160700  1
  C  C9  1  0.16704000  0.57255800  0.51839300  1
  C  C10  1  0.70955600  0.74269100  0.75000000  1
  C  C11  1  0.16704000  0.57255800  0.98160700  1
  O  O12  1  0.76772800  0.13980500  0.06244100  1
  O  O13  1  0.19670300  0.53185400  0.10318100  1
  O  O14  1  0.43529400  0.15343300  0.12153800  1
  O  O15  1  0.74985700  0.51249900  0.25000000  1
  O  O16  1  0.55024300  0.78114700  0.25000000  1
  O  O17  1  0.90671000  0.87502000  0.25000000  1
  O  O18  1  0.43529400  0.15343300  0.37846200  1
  O  O19  1  0.19670300  0.53185400  0.39681900  1
  O  O20  1  0.76772800  0.13980500  0.43755900  1
  O  O21  1  0.13980500  0.76772800  0.56244100  1
  O  O22  1  0.53185400  0.19670300  0.60318100  1
  O  O23  1  0.15343300  0.43529400  0.62153800  1
  O  O24  1  0.78114700  0.55024300  0.75000000  1
  O  O25  1  0.51249900  0.74985700  0.75000000  1
  O  O26  1  0.87502000  0.90671000  0.75000000  1
  O  O27  1  0.15343300  0.43529400  0.87846200  1
  O  O28  1  0.53185400  0.19670300  0.89681900  1
  O  O29  1  0.13980500  0.76772800  0.93755900  1
