# generated using pymatgen
data_Li3CuF6
_symmetry_space_group_name_H-M   'P 1'
_cell_length_a   5.95194088
_cell_length_b   5.95194088
_cell_length_c   5.95194149
_cell_angle_alpha   91.24339984
_cell_angle_beta   91.24339984
_cell_angle_gamma   91.24339899
_symmetry_Int_Tables_number   1
_chemical_formula_structural   Li3CuF6
_chemical_formula_sum   'Li6 Cu2 F12'
_cell_volume   210.69996365
_cell_formula_units_Z   2
loop_
 _symmetry_equiv_pos_site_id
 _symmetry_equiv_pos_as_xyz
  1  'x, y, z'
loop_
 _atom_site_type_symbol
 _atom_site_label
 _atom_site_symmetry_multiplicity
 _atom_site_fract_x
 _atom_site_fract_y
 _atom_site_fract_z
 _atom_site_occupancy
  Li  Li0  1  0.24901900  0.06820300  0.55824300  1
  Li  Li1  1  0.55824300  0.24901900  0.06820300  1
  Li  Li2  1  0.93179700  0.44175700  0.75098100  1
  Li  Li3  1  0.06820300  0.55824300  0.24901900  1
  Li  Li4  1  0.44175700  0.75098100  0.93179700  1
  Li  Li5  1  0.75098100  0.93179700  0.44175700  1
  Cu  Cu6  1  0.00000000  0.00000000  0.00000000  1
  Cu  Cu7  1  0.50000000  0.50000000  0.50000000  1
  F  F8  1  0.92512200  0.07262800  0.69492700  1
  F  F9  1  0.30507300  0.07487800  0.92737200  1
  F  F10  1  0.54670500  0.19483300  0.40436600  1
  F  F11  1  0.92737200  0.30507300  0.07487800  1
  F  F12  1  0.19483300  0.40436600  0.54670500  1
  F  F13  1  0.59563400  0.45329500  0.80516700  1
  F  F14  1  0.40436600  0.54670500  0.19483300  1
  F  F15  1  0.80516700  0.59563400  0.45329500  1
  F  F16  1  0.07262800  0.69492700  0.92512200  1
  F  F17  1  0.45329500  0.80516700  0.59563400  1
  F  F18  1  0.69492700  0.92512200  0.07262800  1
  F  F19  1  0.07487800  0.92737200  0.30507300  1
