# generated using pymatgen
data_Li2Co(CO3)2
_symmetry_space_group_name_H-M   'P 1'
_cell_length_a   5.18325576
_cell_length_b   6.58423673
_cell_length_c   15.64750809
_cell_angle_alpha   89.82540724
_cell_angle_beta   89.80462922
_cell_angle_gamma   112.95197135
_symmetry_Int_Tables_number   1
_chemical_formula_structural   Li2Co(CO3)2
_chemical_formula_sum   'Li8 Co4 C8 O24'
_cell_volume   491.72949946
_cell_formula_units_Z   4
loop_
 _symmetry_equiv_pos_site_id
 _symmetry_equiv_pos_as_xyz
  1  'x, y, z'
loop_
 _atom_site_type_symbol
 _atom_site_label
 _atom_site_symmetry_multiplicity
 _atom_site_fract_x
 _atom_site_fract_y
 _atom_site_fract_z
 _atom_site_occupancy
  Li  Li0  1  0.19705900  0.84159300  0.27861500  1
  Li  Li1  1  0.19684800  0.84144300  0.77861900  1
  Li  Li2  1  0.35493900  0.74575300  0.03951300  1
  Li  Li3  1  0.35511200  0.74576600  0.53953600  1
  Li  Li4  1  0.86209800  0.26274800  0.20902300  1
  Li  Li5  1  0.86222400  0.26280200  0.70903600  1
  Li  Li6  1  0.65083600  0.24852600  0.45948600  1
  Li  Li7  1  0.65082900  0.24867700  0.95951400  1
  Co  Co8  1  0.00483300  0.00469300  0.50083500  1
  Co  Co9  1  0.50384400  0.49957300  0.75228300  1
  Co  Co10  1  0.00469500  0.00471400  0.00081200  1
  Co  Co11  1  0.50375100  0.49946300  0.25226600  1
  C  C12  1  0.70542000  0.86222400  0.37013800  1
  C  C13  1  0.70535400  0.86236300  0.87011400  1
  C  C14  1  0.80216400  0.64535200  0.12132700  1
  C  C15  1  0.80237800  0.64546000  0.62136700  1
  C  C16  1  0.20371900  0.35328400  0.38041300  1
  C  C17  1  0.20375900  0.35342400  0.88043000  1
  C  C18  1  0.30251400  0.14007500  0.13221500  1
  C  C19  1  0.30270500  0.14020600  0.63222100  1
  O  O20  1  0.96454000  0.88220900  0.37183500  1
  O  O21  1  0.96443000  0.88233900  0.87181500  1
  O  O22  1  0.60189900  0.90509200  0.44127700  1
  O  O23  1  0.60180000  0.90521100  0.94124800  1
  O  O24  1  0.55634800  0.80874000  0.30177900  1
  O  O25  1  0.55624700  0.80886600  0.80174100  1
  O  O26  1  0.95564700  0.70310500  0.05329900  1
  O  O27  1  0.95585800  0.70314500  0.55334800  1
  O  O28  1  0.90341100  0.60084000  0.19257700  1
  O  O29  1  0.90360200  0.60102800  0.69263800  1
  O  O30  1  0.54264300  0.62332700  0.12299500  1
  O  O31  1  0.54280500  0.62339500  0.62301100  1
  O  O32  1  0.46413300  0.37485400  0.37980400  1
  O  O33  1  0.46422200  0.37505500  0.87983600  1
  O  O34  1  0.10232800  0.38702100  0.30848200  1
  O  O35  1  0.10237800  0.38713500  0.80849000  1
  O  O36  1  0.44180200  0.17815800  0.20340800  1
  O  O37  1  0.44203900  0.17837800  0.70340300  1
  O  O38  1  0.05445500  0.30650100  0.44976700  1
  O  O39  1  0.05447300  0.30661100  0.94977900  1
  O  O40  1  0.41097800  0.10274900  0.06165300  1
  O  O41  1  0.41112800  0.10279500  0.56166000  1
  O  O42  1  0.04713000  0.12865100  0.12940800  1
  O  O43  1  0.04730800  0.12876200  0.62941100  1
