# generated using pymatgen
data_Li2VSiO4
_symmetry_space_group_name_H-M   'P 1'
_cell_length_a   4.90940600
_cell_length_b   6.71776600
_cell_length_c   10.59905200
_cell_angle_alpha   90.00000000
_cell_angle_beta   90.00000000
_cell_angle_gamma   90.00000000
_symmetry_Int_Tables_number   1
_chemical_formula_structural   Li2VSiO4
_chemical_formula_sum   'Li8 V4 Si4 O16'
_cell_volume   349.55928623
_cell_formula_units_Z   4
loop_
 _symmetry_equiv_pos_site_id
 _symmetry_equiv_pos_as_xyz
  1  'x, y, z'
loop_
 _atom_site_type_symbol
 _atom_site_label
 _atom_site_symmetry_multiplicity
 _atom_site_fract_x
 _atom_site_fract_y
 _atom_site_fract_z
 _atom_site_occupancy
  Li  Li0  1  0.18333600  0.00110200  0.59005000  1
  Li  Li1  1  0.31666400  0.00110200  0.09005000  1
  Li  Li2  1  0.31666400  0.49889800  0.09005000  1
  Li  Li3  1  0.18333600  0.49889800  0.59005000  1
  Li  Li4  1  0.68333600  0.50110200  0.90995000  1
  Li  Li5  1  0.81666400  0.50110200  0.40995000  1
  Li  Li6  1  0.68333600  0.99889800  0.90995000  1
  Li  Li7  1  0.81666400  0.99889800  0.40995000  1
  V  V8  1  0.19438800  0.25000000  0.84698700  1
  V  V9  1  0.30561200  0.25000000  0.34698700  1
  V  V10  1  0.69438800  0.75000000  0.65301300  1
  V  V11  1  0.80561200  0.75000000  0.15301300  1
  Si  Si12  1  0.66863900  0.25000000  0.66423300  1
  Si  Si13  1  0.83136100  0.25000000  0.16423300  1
  Si  Si14  1  0.33136100  0.75000000  0.33576700  1
  Si  Si15  1  0.16863900  0.75000000  0.83576700  1
  O  O16  1  0.77847300  0.04573900  0.59455900  1
  O  O17  1  0.72152700  0.04573900  0.09455900  1
  O  O18  1  0.33157700  0.25000000  0.65788800  1
  O  O19  1  0.74450200  0.25000000  0.31616600  1
  O  O20  1  0.75549800  0.25000000  0.81616600  1
  O  O21  1  0.16842300  0.25000000  0.15788800  1
  O  O22  1  0.72152700  0.45426100  0.09455900  1
  O  O23  1  0.77847300  0.45426100  0.59455900  1
  O  O24  1  0.27847300  0.54573900  0.90544100  1
  O  O25  1  0.22152700  0.54573900  0.40544100  1
  O  O26  1  0.66842300  0.75000000  0.34211200  1
  O  O27  1  0.83157700  0.75000000  0.84211200  1
  O  O28  1  0.25549800  0.75000000  0.68383400  1
  O  O29  1  0.24450200  0.75000000  0.18383400  1
  O  O30  1  0.22152700  0.95426100  0.40544100  1
  O  O31  1  0.27847300  0.95426100  0.90544100  1
