# generated using pymatgen
data_Li2VF5
_symmetry_space_group_name_H-M   'P 1'
_cell_length_a   5.30800100
_cell_length_b   13.75571400
_cell_length_c   14.52497532
_cell_angle_alpha   83.31356567
_cell_angle_beta   90.00000000
_cell_angle_gamma   90.00000000
_symmetry_Int_Tables_number   1
_chemical_formula_structural   Li2VF5
_chemical_formula_sum   'Li24 V12 F60'
_cell_volume   1053.33249051
_cell_formula_units_Z   12
loop_
 _symmetry_equiv_pos_site_id
 _symmetry_equiv_pos_as_xyz
  1  'x, y, z'
loop_
 _atom_site_type_symbol
 _atom_site_label
 _atom_site_symmetry_multiplicity
 _atom_site_fract_x
 _atom_site_fract_y
 _atom_site_fract_z
 _atom_site_occupancy
  Li  Li0  1  0.30542800  0.57115900  0.02362100  1
  Li  Li1  1  0.19457200  0.07115900  0.02362100  1
  Li  Li2  1  0.70001600  0.71543600  0.07345900  1
  Li  Li3  1  0.79998400  0.21543600  0.07345900  1
  Li  Li4  1  0.20572400  0.61306900  0.23515600  1
  Li  Li5  1  0.29427600  0.11306900  0.23515600  1
  Li  Li6  1  0.78797800  0.74493100  0.28767700  1
  Li  Li7  1  0.71202200  0.24493100  0.28767700  1
  Li  Li8  1  0.26438700  0.94025400  0.37962600  1
  Li  Li9  1  0.23561300  0.44025400  0.37962600  1
  Li  Li10  1  0.70186000  0.55717300  0.42279700  1
  Li  Li11  1  0.79814000  0.05717300  0.42279700  1
  Li  Li12  1  0.20186000  0.94282700  0.57720300  1
  Li  Li13  1  0.29814000  0.44282700  0.57720300  1
  Li  Li14  1  0.76438700  0.55974600  0.62037400  1
  Li  Li15  1  0.73561300  0.05974600  0.62037400  1
  Li  Li16  1  0.28797800  0.75506900  0.71232300  1
  Li  Li17  1  0.21202200  0.25506900  0.71232300  1
  Li  Li18  1  0.70572400  0.88693100  0.76484400  1
  Li  Li19  1  0.79427600  0.38693100  0.76484400  1
  Li  Li20  1  0.20001600  0.78456400  0.92654100  1
  Li  Li21  1  0.29998400  0.28456400  0.92654100  1
  Li  Li22  1  0.80542800  0.92884100  0.97637900  1
  Li  Li23  1  0.69457200  0.42884100  0.97637900  1
  V  V24  1  0.28450100  0.84938700  0.13144600  1
  V  V25  1  0.21549900  0.34938700  0.13144600  1
  V  V26  1  0.74612500  0.98904200  0.20846700  1
  V  V27  1  0.75387500  0.48904200  0.20846700  1
  V  V28  1  0.24592900  0.67956100  0.45539500  1
  V  V29  1  0.25407100  0.17956100  0.45539500  1
  V  V30  1  0.74592900  0.82043900  0.54460500  1
  V  V31  1  0.75407100  0.32043900  0.54460500  1
  V  V32  1  0.24612500  0.51095800  0.79153300  1
  V  V33  1  0.25387500  0.01095800  0.79153300  1
  V  V34  1  0.78450100  0.65061300  0.86855400  1
  V  V35  1  0.71549900  0.15061300  0.86855400  1
  F  F36  1  0.53302100  0.85064700  0.03480100  1
  F  F37  1  0.03669600  0.82719600  0.03545300  1
  F  F38  1  0.96697900  0.35064700  0.03480100  1
  F  F39  1  0.46330400  0.32719600  0.03545300  1
  F  F40  1  0.33654600  0.70540000  0.14284100  1
  F  F41  1  0.16345400  0.20540000  0.14284100  1
  F  F42  1  0.60907200  0.50446300  0.08468800  1
  F  F43  1  0.89092800  0.00446300  0.08468800  1
  F  F44  1  0.11372600  0.49987800  0.13261000  1
  F  F45  1  0.38627400  0.99987800  0.13261000  1
  F  F46  1  0.99705500  0.85503500  0.21439300  1
  F  F47  1  0.50294500  0.35503500  0.21439300  1
  F  F48  1  0.54029800  0.85398000  0.22816400  1
  F  F49  1  0.95970200  0.35398000  0.22816400  1
  F  F50  1  0.81440200  0.63471400  0.19026300  1
  F  F51  1  0.68559800  0.13471400  0.19026300  1
  F  F52  1  0.45396000  0.51678000  0.28078600  1
  F  F53  1  0.91889200  0.49572300  0.32974300  1
  F  F54  1  0.04604000  0.01678000  0.28078600  1
  F  F55  1  0.58110800  0.99572300  0.32974300  1
  F  F56  1  0.09019600  0.68157100  0.33441400  1
  F  F57  1  0.55936800  0.69483600  0.38155200  1
  F  F58  1  0.40980400  0.18157100  0.33441400  1
  F  F59  1  0.94063200  0.19483600  0.38155200  1
  F  F60  1  0.31249700  0.53795900  0.45982800  1
  F  F61  1  0.97610100  0.82019400  0.43701600  1
  F  F62  1  0.18750300  0.03795900  0.45982800  1
  F  F63  1  0.52389900  0.32019400  0.43701600  1
  F  F64  1  0.43746700  0.85795400  0.48020600  1
  F  F65  1  0.06253300  0.35795400  0.48020600  1
  F  F66  1  0.93746700  0.64204600  0.51979400  1
  F  F67  1  0.56253300  0.14204600  0.51979400  1
  F  F68  1  0.47610100  0.67980600  0.56298400  1
  F  F69  1  0.81249700  0.96204100  0.54017200  1
  F  F70  1  0.02389900  0.17980600  0.56298400  1
  F  F71  1  0.68750300  0.46204100  0.54017200  1
  F  F72  1  0.05936800  0.80516400  0.61844800  1
  F  F73  1  0.59019600  0.81842900  0.66558600  1
  F  F74  1  0.44063200  0.30516400  0.61844800  1
  F  F75  1  0.90980400  0.31842900  0.66558600  1
  F  F76  1  0.41889200  0.00427700  0.67025700  1
  F  F77  1  0.95396000  0.98322000  0.71921400  1
  F  F78  1  0.08110800  0.50427700  0.67025700  1
  F  F79  1  0.54604000  0.48322000  0.71921400  1
  F  F80  1  0.31440200  0.86528600  0.80973700  1
  F  F81  1  0.18559800  0.36528600  0.80973700  1
  F  F82  1  0.04029800  0.64602000  0.77183600  1
  F  F83  1  0.45970200  0.14602000  0.77183600  1
  F  F84  1  0.49705500  0.64496500  0.78560700  1
  F  F85  1  0.00294500  0.14496500  0.78560700  1
  F  F86  1  0.61372600  0.00012200  0.86739000  1
  F  F87  1  0.88627400  0.50012200  0.86739000  1
  F  F88  1  0.10907200  0.99553700  0.91531200  1
  F  F89  1  0.39092800  0.49553700  0.91531200  1
  F  F90  1  0.83654600  0.79460000  0.85715900  1
  F  F91  1  0.66345400  0.29460000  0.85715900  1
  F  F92  1  0.53669600  0.67280400  0.96454700  1
  F  F93  1  0.03302100  0.64935300  0.96519900  1
  F  F94  1  0.96330400  0.17280400  0.96454700  1
  F  F95  1  0.46697900  0.14935300  0.96519900  1
