# generated using pymatgen
data_LiVPO4
_symmetry_space_group_name_H-M   'P 1'
_cell_length_a   5.51276347
_cell_length_b   6.49283982
_cell_length_c   9.46941212
_cell_angle_alpha   107.26333054
_cell_angle_beta   78.45846981
_cell_angle_gamma   103.69772629
_symmetry_Int_Tables_number   1
_chemical_formula_structural   LiVPO4
_chemical_formula_sum   'Li4 V4 P4 O16'
_cell_volume   311.37553385
_cell_formula_units_Z   4
loop_
 _symmetry_equiv_pos_site_id
 _symmetry_equiv_pos_as_xyz
  1  'x, y, z'
loop_
 _atom_site_type_symbol
 _atom_site_label
 _atom_site_symmetry_multiplicity
 _atom_site_fract_x
 _atom_site_fract_y
 _atom_site_fract_z
 _atom_site_occupancy
  Li  Li0  1  0.30562500  0.36010800  0.10070500  1
  Li  Li1  1  0.69438100  0.63989400  0.89929400  1
  Li  Li2  1  0.79412500  0.48302400  0.25082400  1
  Li  Li3  1  0.20588100  0.51698000  0.74917600  1
  V  V4  1  0.22624100  0.16698600  0.41479400  1
  V  V5  1  0.77372800  0.83299800  0.58521400  1
  V  V6  1  0.72324700  0.95377700  0.21576000  1
  V  V7  1  0.27675700  0.04621200  0.78425000  1
  P  P8  1  0.18510300  0.81526000  0.07569900  1
  P  P9  1  0.81490000  0.18473800  0.92429500  1
  P  P10  1  0.32548000  0.69381300  0.44810400  1
  P  P11  1  0.67452200  0.30619200  0.55189400  1
  O  O12  1  0.39660600  0.72201300  0.10978400  1
  O  O13  1  0.60340600  0.27798500  0.89020900  1
  O  O14  1  0.91417500  0.67969400  0.10595400  1
  O  O15  1  0.08583300  0.32031200  0.89404400  1
  O  O16  1  0.76016500  0.18422200  0.09050900  1
  O  O17  1  0.23983800  0.81578300  0.90948900  1
  O  O18  1  0.16837600  0.05328100  0.17994900  1
  O  O19  1  0.83162500  0.94672200  0.82005100  1
  O  O20  1  0.15011400  0.84630800  0.44507400  1
  O  O21  1  0.84988000  0.15369200  0.55492400  1
  O  O22  1  0.60647900  0.75586600  0.37601900  1
  O  O23  1  0.39351500  0.24413500  0.62398200  1
  O  O24  1  0.21489600  0.45981800  0.36488800  1
  O  O25  1  0.78509900  0.54018300  0.63510900  1
  O  O26  1  0.64582000  0.27203900  0.38355800  1
  O  O27  1  0.35418200  0.72796500  0.61644600  1
