# generated using pymatgen
data_LiCu(PO3)2
_symmetry_space_group_name_H-M   'P 1'
_cell_length_a   5.18955000
_cell_length_b   14.18580600
_cell_length_c   14.28046554
_cell_angle_alpha   74.64926745
_cell_angle_beta   90.00000000
_cell_angle_gamma   90.00000000
_symmetry_Int_Tables_number   1
_chemical_formula_structural   LiCu(PO3)2
_chemical_formula_sum   'Li8 Cu8 P16 O48'
_cell_volume   1013.79182591
_cell_formula_units_Z   8
loop_
 _symmetry_equiv_pos_site_id
 _symmetry_equiv_pos_as_xyz
  1  'x, y, z'
loop_
 _atom_site_type_symbol
 _atom_site_label
 _atom_site_symmetry_multiplicity
 _atom_site_fract_x
 _atom_site_fract_y
 _atom_site_fract_z
 _atom_site_occupancy
  Li  Li0  1  0.29592900  0.43478100  0.13318600  1
  Li  Li1  1  0.68864500  0.93663100  0.11761600  1
  Li  Li2  1  0.18864500  0.06336900  0.38238400  1
  Li  Li3  1  0.79592900  0.56521900  0.36681400  1
  Li  Li4  1  0.20407100  0.43478100  0.63318600  1
  Li  Li5  1  0.81135500  0.93663100  0.61761600  1
  Li  Li6  1  0.31135500  0.06336900  0.88238400  1
  Li  Li7  1  0.70407100  0.56521900  0.86681400  1
  Cu  Cu8  1  0.25749400  0.09406300  0.13812100  1
  Cu  Cu9  1  0.85480000  0.61262100  0.14702400  1
  Cu  Cu10  1  0.35480000  0.38737900  0.35297600  1
  Cu  Cu11  1  0.75749400  0.90593700  0.36187900  1
  Cu  Cu12  1  0.24250600  0.09406300  0.63812100  1
  Cu  Cu13  1  0.64520000  0.61262100  0.64702400  1
  Cu  Cu14  1  0.14520000  0.38737900  0.85297600  1
  Cu  Cu15  1  0.74250600  0.90593700  0.86187900  1
  P  P16  1  0.70063700  0.36301400  0.00851600  1
  P  P17  1  0.28949800  0.84865700  0.00355000  1
  P  P18  1  0.83167500  0.34973200  0.20952200  1
  P  P19  1  0.66914900  0.14240800  0.29651200  1
  P  P20  1  0.16914900  0.85759200  0.20348800  1
  P  P21  1  0.33167500  0.65026800  0.29047800  1
  P  P22  1  0.78949800  0.15134300  0.49645000  1
  P  P23  1  0.79936300  0.36301400  0.50851600  1
  P  P24  1  0.20063700  0.63698600  0.49148400  1
  P  P25  1  0.21050200  0.84865700  0.50355000  1
  P  P26  1  0.66832500  0.34973200  0.70952200  1
  P  P27  1  0.83085100  0.14240800  0.79651200  1
  P  P28  1  0.33085100  0.85759200  0.70348800  1
  P  P29  1  0.16832500  0.65026800  0.79047800  1
  P  P30  1  0.71050200  0.15134300  0.99645000  1
  P  P31  1  0.29936300  0.63698600  0.99148400  1
  O  O32  1  0.85492700  0.07030600  0.06628800  1
  O  O33  1  0.76893600  0.24917800  0.02732800  1
  O  O34  1  0.42158700  0.37770500  0.02627900  1
  O  O35  1  0.88259900  0.38496100  0.09351700  1
  O  O36  1  0.17852000  0.57900000  0.08524100  1
  O  O37  1  0.57411300  0.86195900  0.01849900  1
  O  O38  1  0.81315400  0.23256300  0.22388600  1
  O  O39  1  0.40128300  0.12945600  0.26102900  1
  O  O40  1  0.07413700  0.37261700  0.25594200  1
  O  O41  1  0.57915500  0.39191000  0.22759200  1
  O  O42  1  0.13667500  0.81888100  0.10732700  1
  O  O43  1  0.85189200  0.05695200  0.31847100  1
  O  O44  1  0.35189200  0.94304800  0.18152900  1
  O  O45  1  0.63667500  0.18111900  0.39267300  1
  O  O46  1  0.07915500  0.60809000  0.27240800  1
  O  O47  1  0.57413700  0.62738300  0.24405800  1
  O  O48  1  0.90128300  0.87054400  0.23897100  1
  O  O49  1  0.31315400  0.76743700  0.27611400  1
  O  O50  1  0.07411300  0.13804100  0.48150100  1
  O  O51  1  0.67852000  0.42100000  0.41475900  1
  O  O52  1  0.64507300  0.07030600  0.56628800  1
  O  O53  1  0.38259900  0.61503900  0.40648300  1
  O  O54  1  0.73106400  0.24917800  0.52732800  1
  O  O55  1  0.92158700  0.62229500  0.47372100  1
  O  O56  1  0.07841300  0.37770500  0.52627900  1
  O  O57  1  0.26893600  0.75082200  0.47267200  1
  O  O58  1  0.61740100  0.38496100  0.59351700  1
  O  O59  1  0.35492700  0.92969400  0.43371200  1
  O  O60  1  0.32148000  0.57900000  0.58524100  1
  O  O61  1  0.92588700  0.86195900  0.51849900  1
  O  O62  1  0.68684600  0.23256300  0.72388600  1
  O  O63  1  0.09871700  0.12945600  0.76102900  1
  O  O64  1  0.42586300  0.37261700  0.75594200  1
  O  O65  1  0.92084500  0.39191000  0.72759200  1
  O  O66  1  0.36332500  0.81888100  0.60732700  1
  O  O67  1  0.64810800  0.05695200  0.81847100  1
  O  O68  1  0.14810800  0.94304800  0.68152900  1
  O  O69  1  0.86332500  0.18111900  0.89267300  1
  O  O70  1  0.42084500  0.60809000  0.77240800  1
  O  O71  1  0.92586300  0.62738300  0.74405800  1
  O  O72  1  0.59871700  0.87054400  0.73897100  1
  O  O73  1  0.18684600  0.76743700  0.77611400  1
  O  O74  1  0.42588700  0.13804100  0.98150100  1
  O  O75  1  0.82148000  0.42100000  0.91475900  1
  O  O76  1  0.11740100  0.61503900  0.90648300  1
  O  O77  1  0.57841300  0.62229500  0.97372100  1
  O  O78  1  0.23106400  0.75082200  0.97267200  1
  O  O79  1  0.14507300  0.92969400  0.93371200  1
