# generated using pymatgen
data_Li4Nb2V3Fe3O16
_symmetry_space_group_name_H-M   'P 1'
_cell_length_a   6.00308600
_cell_length_b   6.02403704
_cell_length_c   9.78548978
_cell_angle_alpha   89.95630994
_cell_angle_beta   90.26860140
_cell_angle_gamma   119.39293254
_symmetry_Int_Tables_number   1
_chemical_formula_structural   Li4Nb2V3Fe3O16
_chemical_formula_sum   'Li4 Nb2 V3 Fe3 O16'
_cell_volume   308.31471260
_cell_formula_units_Z   1
loop_
 _symmetry_equiv_pos_site_id
 _symmetry_equiv_pos_as_xyz
  1  'x, y, z'
loop_
 _atom_site_type_symbol
 _atom_site_label
 _atom_site_symmetry_multiplicity
 _atom_site_fract_x
 _atom_site_fract_y
 _atom_site_fract_z
 _atom_site_occupancy
  Li  Li0  1  0.65658200  0.33053000  0.90025000  1
  Li  Li1  1  0.01006300  0.00462400  0.99035800  1
  Li  Li2  1  0.01018100  0.00205500  0.49088900  1
  Li  Li3  1  0.32494400  0.66112100  0.39944300  1
  Nb  Nb4  1  0.67576200  0.34078400  0.49678600  1
  Nb  Nb5  1  0.33928300  0.67181100  0.99758500  1
  V  V6  1  0.35102200  0.17571600  0.22293200  1
  V  V7  1  0.17510500  0.34524200  0.71531900  1
  V  V8  1  0.17927400  0.82640000  0.72234500  1
  Fe  Fe9  1  0.83268500  0.17423500  0.21500800  1
  Fe  Fe10  1  0.82918300  0.65967400  0.21390400  1
  Fe  Fe11  1  0.66059600  0.83274000  0.71370600  1
  O  O12  1  0.84188600  0.17045400  0.58987800  1
  O  O13  1  0.95446200  0.46663000  0.34302000  1
  O  O14  1  0.63236300  0.30565500  0.10749300  1
  O  O15  1  0.02341200  0.02004700  0.30138300  1
  O  O16  1  0.02177800  0.00080300  0.80096800  1
  O  O17  1  0.84212800  0.66405000  0.58719400  1
  O  O18  1  0.51307500  0.03332000  0.33924800  1
  O  O19  1  0.49917300  0.45960300  0.34904700  1
  O  O20  1  0.67142500  0.84335300  0.08889200  1
  O  O21  1  0.34489300  0.16411900  0.59535100  1
  O  O22  1  0.46617100  0.51306700  0.84486900  1
  O  O23  1  0.46200300  0.95982000  0.84768900  1
  O  O24  1  0.30608700  0.66830700  0.60585500  1
  O  O25  1  0.16563500  0.33819000  0.09424100  1
  O  O26  1  0.03316800  0.52888200  0.84272400  1
  O  O27  1  0.17766100  0.83847000  0.09145900  1
