# generated using pymatgen
data_Li24MnCr11O36
_symmetry_space_group_name_H-M   'P 1'
_cell_length_a   8.74524180
_cell_length_b   8.74524180
_cell_length_c   11.70145307
_cell_angle_alpha   60.50756613
_cell_angle_beta   60.50756613
_cell_angle_gamma   59.76709967
_symmetry_Int_Tables_number   1
_chemical_formula_structural   Li24MnCr11O36
_chemical_formula_sum   'Li24 Mn1 Cr11 O36'
_cell_volume   636.46765022
_cell_formula_units_Z   1
loop_
 _symmetry_equiv_pos_site_id
 _symmetry_equiv_pos_as_xyz
  1  'x, y, z'
loop_
 _atom_site_type_symbol
 _atom_site_label
 _atom_site_symmetry_multiplicity
 _atom_site_fract_x
 _atom_site_fract_y
 _atom_site_fract_z
 _atom_site_occupancy
  Li  Li0  1  0.99477600  0.00928400  0.24876400  1
  Li  Li1  1  0.00068000  0.33403200  0.00203200  1
  Li  Li2  1  0.66781200  0.00179800  0.75170000  1
  Li  Li3  1  0.66323600  0.67259100  0.74899600  1
  Li  Li4  1  0.66529200  0.00251400  0.50081600  1
  Li  Li5  1  0.32740900  0.33676400  0.25100400  1
  Li  Li6  1  0.66883600  0.32543900  0.25507900  1
  Li  Li7  1  0.66567100  0.00016400  0.24938100  1
  Li  Li8  1  0.33482800  0.66517200  0.00000000  1
  Li  Li9  1  0.34005400  0.99171400  0.75246700  1
  Li  Li10  1  0.33044300  0.66994900  0.75066700  1
  Li  Li11  1  0.33105700  0.33914100  0.74845700  1
  Li  Li12  1  0.33005100  0.66955700  0.24933300  1
  Li  Li13  1  0.00698300  0.65865700  0.75168900  1
  Li  Li14  1  0.99983600  0.33432900  0.75061900  1
  Li  Li15  1  0.99071600  0.00522400  0.75123600  1
  Li  Li16  1  0.99748600  0.33470800  0.49918400  1
  Li  Li17  1  0.66085900  0.66894300  0.25154300  1
  Li  Li18  1  0.00828600  0.65994600  0.24753300  1
  Li  Li19  1  0.99820200  0.33218800  0.24830000  1
  Li  Li20  1  0.66596800  0.99932000  0.99796800  1
  Li  Li21  1  0.67456100  0.33116400  0.74492100  1
  Li  Li22  1  0.33387200  0.66612800  0.50000000  1
  Li  Li23  1  0.34134300  0.99301700  0.24831100  1
  Mn  Mn24  1  0.66795200  0.33204800  0.50000000  1
  Cr  Cr25  1  0.65957700  0.66807800  0.00087900  1
  Cr  Cr26  1  0.67298700  0.32701300  0.00000000  1
  Cr  Cr27  1  0.33136100  0.00855500  0.00111000  1
  Cr  Cr28  1  0.33192200  0.34042300  0.99912100  1
  Cr  Cr29  1  0.32917400  0.33556500  0.50153900  1
  Cr  Cr30  1  0.33817700  0.00437100  0.49884500  1
  Cr  Cr31  1  0.00729200  0.99270800  0.00000000  1
  Cr  Cr32  1  0.99144500  0.66863900  0.99889000  1
  Cr  Cr33  1  0.99562900  0.66182300  0.50115500  1
  Cr  Cr34  1  0.00485400  0.99514600  0.50000000  1
  Cr  Cr35  1  0.66443500  0.67082600  0.49846100  1
  O  O36  1  0.83083600  0.16221600  0.11488900  1
  O  O37  1  0.80949900  0.49782400  0.88878700  1
  O  O38  1  0.85554900  0.82501300  0.61465200  1
  O  O39  1  0.52494900  0.50127100  0.11385200  1
  O  O40  1  0.83466500  0.17024200  0.38774100  1
  O  O41  1  0.50217600  0.19050100  0.11121300  1
  O  O42  1  0.50664300  0.83538400  0.88619200  1
  O  O43  1  0.49872900  0.47505100  0.88614800  1
  O  O44  1  0.50038400  0.18993000  0.61168500  1
  O  O45  1  0.49105900  0.83196800  0.61575000  1
  O  O46  1  0.18894200  0.16750300  0.11244000  1
  O  O47  1  0.50225900  0.47821200  0.38898200  1
  O  O48  1  0.16098100  0.85777600  0.11328900  1
  O  O49  1  0.16461600  0.49335700  0.11380800  1
  O  O50  1  0.48044800  0.16467100  0.38784600  1
  O  O51  1  0.17552200  0.14161000  0.88760700  1
  O  O52  1  0.16724700  0.51146300  0.88555400  1
  O  O53  1  0.14222400  0.83901900  0.88671100  1
  O  O54  1  0.19356100  0.16855300  0.61257700  1
  O  O55  1  0.16130100  0.50073500  0.61553700  1
  O  O56  1  0.16000000  0.86000500  0.61352500  1
  O  O57  1  0.85839000  0.82447800  0.11239300  1
  O  O58  1  0.16803200  0.50894100  0.38425000  1
  O  O59  1  0.17498700  0.14445100  0.38534800  1
  O  O60  1  0.83039400  0.52590700  0.11152000  1
  O  O61  1  0.13999500  0.84000000  0.38647500  1
  O  O62  1  0.83778400  0.16916400  0.88511100  1
  O  O63  1  0.83249700  0.81105800  0.88756000  1
  O  O64  1  0.83532900  0.51955200  0.61215400  1
  O  O65  1  0.82975800  0.16533500  0.61225900  1
  O  O66  1  0.83144700  0.80643900  0.38742300  1
  O  O67  1  0.48853700  0.83275300  0.11444600  1
  O  O68  1  0.81007000  0.49961600  0.38831500  1
  O  O69  1  0.47409300  0.16960600  0.88848000  1
  O  O70  1  0.52178800  0.49774100  0.61101800  1
  O  O71  1  0.49926500  0.83869900  0.38446300  1
