# generated using pymatgen
data_Li3MnV(PO4)3
_symmetry_space_group_name_H-M   'P 1'
_cell_length_a   8.50646400
_cell_length_b   8.50604934
_cell_length_c   8.71118690
_cell_angle_alpha   62.41859663
_cell_angle_beta   61.85115507
_cell_angle_gamma   62.97813164
_symmetry_Int_Tables_number   1
_chemical_formula_structural   Li3MnV(PO4)3
_chemical_formula_sum   'Li6 Mn2 V2 P6 O24'
_cell_volume   469.62350097
_cell_formula_units_Z   2
loop_
 _symmetry_equiv_pos_site_id
 _symmetry_equiv_pos_as_xyz
  1  'x, y, z'
loop_
 _atom_site_type_symbol
 _atom_site_label
 _atom_site_symmetry_multiplicity
 _atom_site_fract_x
 _atom_site_fract_y
 _atom_site_fract_z
 _atom_site_occupancy
  Li  Li0  1  0.24125300  0.13657100  0.84756200  1
  Li  Li1  1  0.00000000  0.50000000  0.00000000  1
  Li  Li2  1  0.12830500  0.27208100  0.34383300  1
  Li  Li3  1  0.87169500  0.72791900  0.65616700  1
  Li  Li4  1  0.50000000  0.00000000  0.50000000  1
  Li  Li5  1  0.75874700  0.86342900  0.15243800  1
  Mn  Mn6  1  0.85299000  0.35953000  0.85554300  1
  Mn  Mn7  1  0.14701000  0.64047000  0.14445700  1
  V  V8  1  0.63975800  0.14654600  0.65061200  1
  V  V9  1  0.36024200  0.85345400  0.34938800  1
  P  P10  1  0.55711000  0.75296700  0.95984200  1
  P  P11  1  0.94827600  0.05066900  0.25294800  1
  P  P12  1  0.25586100  0.44570500  0.53608000  1
  P  P13  1  0.74413900  0.55429500  0.46392000  1
  P  P14  1  0.05172400  0.94933100  0.74705200  1
  P  P15  1  0.44289000  0.24703300  0.04015800  1
  O  O16  1  0.47235700  0.17597800  0.88883200  1
  O  O17  1  0.04559800  0.10590100  0.79293400  1
  O  O18  1  0.60288500  0.31377900  0.98707500  1
  O  O19  1  0.76559100  0.07408000  0.42325200  1
  O  O20  1  0.75495900  0.61574500  0.92392800  1
  O  O21  1  0.41169200  0.25490000  0.57824400  1
  O  O22  1  0.10137400  0.46021600  0.72105100  1
  O  O23  1  0.12131000  0.99592500  0.31027900  1
  O  O24  1  0.04540700  0.76789700  0.90850900  1
  O  O25  1  0.67300500  0.38278300  0.54470500  1
  O  O26  1  0.44055200  0.08237200  0.23089500  1
  O  O27  1  0.80463800  0.55853000  0.60052800  1
  O  O28  1  0.19536200  0.44147000  0.39947200  1
  O  O29  1  0.55944800  0.91762800  0.76910500  1
  O  O30  1  0.32699500  0.61721700  0.45529500  1
  O  O31  1  0.95459300  0.23210300  0.09149100  1
  O  O32  1  0.87869000  0.00407500  0.68972100  1
  O  O33  1  0.89862600  0.53978400  0.27894900  1
  O  O34  1  0.58830800  0.74510000  0.42175600  1
  O  O35  1  0.24504100  0.38425500  0.07607200  1
  O  O36  1  0.23440900  0.92592000  0.57674800  1
  O  O37  1  0.39711500  0.68622100  0.01292500  1
  O  O38  1  0.95440200  0.89409900  0.20706600  1
  O  O39  1  0.52764300  0.82402200  0.11116800  1
