# generated using pymatgen
data_Li5Mn5(PO4)6
_symmetry_space_group_name_H-M   'P 1'
_cell_length_a   8.53115000
_cell_length_b   8.58756613
_cell_length_c   8.70091729
_cell_angle_alpha   61.96627372
_cell_angle_beta   62.45604574
_cell_angle_gamma   61.51699255
_symmetry_Int_Tables_number   1
_chemical_formula_structural   Li5Mn5(PO4)6
_chemical_formula_sum   'Li5 Mn5 P6 O24'
_cell_volume   470.64495973
_cell_formula_units_Z   1
loop_
 _symmetry_equiv_pos_site_id
 _symmetry_equiv_pos_as_xyz
  1  'x, y, z'
loop_
 _atom_site_type_symbol
 _atom_site_label
 _atom_site_symmetry_multiplicity
 _atom_site_fract_x
 _atom_site_fract_y
 _atom_site_fract_z
 _atom_site_occupancy
  Li  Li0  1  0.16721700  0.15363200  0.16045900  1
  Li  Li1  1  0.65323600  0.84968800  0.24497100  1
  Li  Li2  1  0.32593400  0.15535000  0.80858300  1
  Li  Li3  1  0.14904200  0.80330600  0.33663900  1
  Li  Li4  1  0.81636100  0.33928900  0.13247700  1
  Mn  Mn5  1  0.01030100  0.99860900  0.99524500  1
  Mn  Mn6  1  0.63997100  0.64856100  0.64508100  1
  Mn  Mn7  1  0.50349500  0.48798600  0.50954500  1
  Mn  Mn8  1  0.84908300  0.85956500  0.85538800  1
  Mn  Mn9  1  0.34951800  0.34550200  0.35083700  1
  P  P10  1  0.55230800  0.25145000  0.94079300  1
  P  P11  1  0.24113700  0.94428900  0.55782700  1
  P  P12  1  0.95086200  0.54213600  0.24591900  1
  P  P13  1  0.03321600  0.46808700  0.74513100  1
  P  P14  1  0.74075000  0.03967800  0.44505400  1
  P  P15  1  0.45999700  0.74821100  0.05306500  1
  O  O16  1  0.29770200  0.10588500  0.52463800  1
  O  O17  1  0.11071200  0.49800400  0.31524800  1
  O  O18  1  0.52036300  0.30444100  0.10078100  1
  O  O19  1  0.74564900  0.08135600  0.93611000  1
  O  O20  1  0.39907100  0.19446000  0.96164300  1
  O  O21  1  0.58350400  0.40760800  0.75109100  1
  O  O22  1  0.08742500  0.92467200  0.74862800  1
  O  O23  1  0.41138800  0.75255000  0.57469300  1
  O  O24  1  0.98818700  0.61912700  0.82024100  1
  O  O25  1  0.75142100  0.56998100  0.39288500  1
  O  O26  1  0.03644900  0.27590000  0.89918500  1
  O  O27  1  0.78559400  0.99969100  0.61178000  1
  O  O28  1  0.18601100  0.96590000  0.40456500  1
  O  O29  1  0.93324600  0.74521700  0.10626500  1
  O  O30  1  0.23701400  0.43737700  0.60636400  1
  O  O31  1  0.98512500  0.39443200  0.17593100  1
  O  O32  1  0.58109400  0.24103400  0.42308300  1
  O  O33  1  0.90220700  0.05822300  0.26121500  1
  O  O34  1  0.42190100  0.59806100  0.24998300  1
  O  O35  1  0.61107200  0.80776700  0.04334400  1
  O  O36  1  0.26832700  0.91147900  0.05380700  1
  O  O37  1  0.52414900  0.67873100  0.89686000  1
  O  O38  1  0.89218500  0.52459700  0.65103600  1
  O  O39  1  0.67478200  0.89117100  0.46360900  1
