# generated using pymatgen
data_Li4Ni3Sb(PO4)4
_symmetry_space_group_name_H-M   'P 1'
_cell_length_a   6.19115200
_cell_length_b   4.76555400
_cell_length_c   10.46369326
_cell_angle_alpha   89.33713290
_cell_angle_beta   90.00000000
_cell_angle_gamma   90.00000000
_symmetry_Int_Tables_number   1
_chemical_formula_structural   Li4Ni3Sb(PO4)4
_chemical_formula_sum   'Li4 Ni3 Sb1 P4 O16'
_cell_volume   308.70296188
_cell_formula_units_Z   1
loop_
 _symmetry_equiv_pos_site_id
 _symmetry_equiv_pos_as_xyz
  1  'x, y, z'
loop_
 _atom_site_type_symbol
 _atom_site_label
 _atom_site_symmetry_multiplicity
 _atom_site_fract_x
 _atom_site_fract_y
 _atom_site_fract_z
 _atom_site_occupancy
  Li  Li0  1  0.26131200  0.99987200  0.00839900  1
  Li  Li1  1  0.73868800  0.99987200  0.00839900  1
  Li  Li2  1  0.73800400  0.50605300  0.49261100  1
  Li  Li3  1  0.26199600  0.50605300  0.49261100  1
  Ni  Ni4  1  0.50000000  0.97985400  0.27332300  1
  Ni  Ni5  1  0.50000000  0.55250400  0.79104300  1
  Ni  Ni6  1  0.00000000  0.47104400  0.22482300  1
  Sb  Sb7  1  0.00000000  0.02048400  0.71800300  1
  P  P8  1  0.00000000  0.90737300  0.39467300  1
  P  P9  1  0.00000000  0.58439500  0.92309600  1
  P  P10  1  0.50000000  0.41595900  0.10039900  1
  P  P11  1  0.50000000  0.08637800  0.57917900  1
  O  O12  1  0.00000000  0.77645100  0.53473500  1
  O  O13  1  0.20161800  0.77265200  0.32855000  1
  O  O14  1  0.79838200  0.77265200  0.32855000  1
  O  O15  1  0.50000000  0.76683800  0.59042200  1
  O  O16  1  0.50000000  0.73957400  0.10554000  1
  O  O17  1  0.19715800  0.71720600  0.84841400  1
  O  O18  1  0.80284200  0.71720600  0.84841400  1
  O  O19  1  0.00000000  0.70549400  0.05955000  1
  O  O20  1  0.50000000  0.29957000  0.96302900  1
  O  O21  1  0.70057000  0.27849100  0.17099400  1
  O  O22  1  0.29943000  0.27849100  0.17099400  1
  O  O23  1  0.00000000  0.26203000  0.92236800  1
  O  O24  1  0.00000000  0.22841500  0.39488200  1
  O  O25  1  0.70142600  0.22601000  0.64396900  1
  O  O26  1  0.29857400  0.22601000  0.64396900  1
  O  O27  1  0.50000000  0.20306800  0.43906000  1
