# generated using pymatgen
data_Li4V5(Fe2O9)2
_symmetry_space_group_name_H-M   'P 1'
_cell_length_a   2.96343500
_cell_length_b   9.06238600
_cell_length_c   25.79740500
_cell_angle_alpha   90.00000000
_cell_angle_beta   90.00000000
_cell_angle_gamma   90.00000000
_symmetry_Int_Tables_number   1
_chemical_formula_structural   Li4V5(Fe2O9)2
_chemical_formula_sum   'Li8 V10 Fe8 O36'
_cell_volume   692.80973910
_cell_formula_units_Z   2
loop_
 _symmetry_equiv_pos_site_id
 _symmetry_equiv_pos_as_xyz
  1  'x, y, z'
loop_
 _atom_site_type_symbol
 _atom_site_label
 _atom_site_symmetry_multiplicity
 _atom_site_fract_x
 _atom_site_fract_y
 _atom_site_fract_z
 _atom_site_occupancy
  Li  Li0  1  0.00000000  0.19502000  0.98094800  1
  Li  Li1  1  0.00000000  0.20132500  0.17768000  1
  Li  Li2  1  0.00000000  0.29867500  0.67768000  1
  Li  Li3  1  0.00000000  0.30498000  0.48094800  1
  Li  Li4  1  0.00000000  0.69502000  0.51905200  1
  Li  Li5  1  0.00000000  0.70132500  0.32232000  1
  Li  Li6  1  0.00000000  0.79867500  0.82232000  1
  Li  Li7  1  0.00000000  0.80498000  0.01905200  1
  V  V8  1  0.00000000  0.00000000  0.50000000  1
  V  V9  1  0.00000000  0.99472100  0.10205900  1
  V  V10  1  0.50000000  0.14822500  0.80849300  1
  V  V11  1  0.50000000  0.35177500  0.30849300  1
  V  V12  1  0.00000000  0.50527900  0.60205900  1
  V  V13  1  0.00000000  0.50000000  0.00000000  1
  V  V14  1  0.00000000  0.49472100  0.39794100  1
  V  V15  1  0.50000000  0.64822500  0.69150700  1
  V  V16  1  0.50000000  0.85177500  0.19150700  1
  V  V17  1  0.00000000  0.00527900  0.89794100  1
  Fe  Fe18  1  0.00000000  0.00404000  0.30504900  1
  Fe  Fe19  1  0.50000000  0.15010800  0.58611800  1
  Fe  Fe20  1  0.50000000  0.34989200  0.08611800  1
  Fe  Fe21  1  0.00000000  0.49596000  0.80504900  1
  Fe  Fe22  1  0.00000000  0.50404000  0.19495100  1
  Fe  Fe23  1  0.50000000  0.65010800  0.91388200  1
  Fe  Fe24  1  0.50000000  0.84989200  0.41388200  1
  Fe  Fe25  1  0.00000000  0.99596000  0.69495100  1
  O  O26  1  0.00000000  0.99479200  0.42644200  1
  O  O27  1  0.00000000  0.00520800  0.57355800  1
  O  O28  1  0.50000000  0.06403100  0.94115000  1
  O  O29  1  0.50000000  0.04412700  0.15821100  1
  O  O30  1  0.50000000  0.12246200  0.66499000  1
  O  O31  1  0.00000000  0.09392000  0.76186800  1
  O  O32  1  0.50000000  0.15013800  0.50391400  1
  O  O33  1  0.50000000  0.14828500  0.29274200  1
  O  O34  1  0.00000000  0.18264600  0.85854100  1
  O  O35  1  0.00000000  0.19855900  0.08775100  1
  O  O36  1  0.00000000  0.30144100  0.58775100  1
  O  O37  1  0.00000000  0.31735400  0.35854100  1
  O  O38  1  0.50000000  0.35171500  0.79274200  1
  O  O39  1  0.50000000  0.34986200  0.00391400  1
  O  O40  1  0.00000000  0.40608000  0.26186800  1
  O  O41  1  0.50000000  0.37753800  0.16499000  1
  O  O42  1  0.50000000  0.45587300  0.65821100  1
  O  O43  1  0.50000000  0.43596900  0.44115000  1
  O  O44  1  0.00000000  0.49479200  0.07355800  1
  O  O45  1  0.00000000  0.50520800  0.92644200  1
  O  O46  1  0.50000000  0.56403100  0.55885000  1
  O  O47  1  0.50000000  0.54412700  0.34178900  1
  O  O48  1  0.50000000  0.62246200  0.83501000  1
  O  O49  1  0.00000000  0.59392000  0.73813200  1
  O  O50  1  0.50000000  0.65013800  0.99608600  1
  O  O51  1  0.50000000  0.64828500  0.20725800  1
  O  O52  1  0.00000000  0.68264600  0.64145900  1
  O  O53  1  0.00000000  0.69855900  0.41224900  1
  O  O54  1  0.00000000  0.80144100  0.91224900  1
  O  O55  1  0.00000000  0.81735400  0.14145900  1
  O  O56  1  0.50000000  0.85171500  0.70725800  1
  O  O57  1  0.50000000  0.84986200  0.49608600  1
  O  O58  1  0.00000000  0.90608000  0.23813200  1
  O  O59  1  0.50000000  0.87753800  0.33501000  1
  O  O60  1  0.50000000  0.95587300  0.84178900  1
  O  O61  1  0.50000000  0.93596900  0.05885000  1
