# generated using pymatgen
data_Li7V7(P4O17)2
_symmetry_space_group_name_H-M   'P 1'
_cell_length_a   20.04290000
_cell_length_b   8.07074600
_cell_length_c   10.23694298
_cell_angle_alpha   66.49169627
_cell_angle_beta   90.00000000
_cell_angle_gamma   90.00000000
_symmetry_Int_Tables_number   1
_chemical_formula_structural   Li7V7(P4O17)2
_chemical_formula_sum   'Li14 V14 P16 O68'
_cell_volume   1518.50049036
_cell_formula_units_Z   2
loop_
 _symmetry_equiv_pos_site_id
 _symmetry_equiv_pos_as_xyz
  1  'x, y, z'
loop_
 _atom_site_type_symbol
 _atom_site_label
 _atom_site_symmetry_multiplicity
 _atom_site_fract_x
 _atom_site_fract_y
 _atom_site_fract_z
 _atom_site_occupancy
  Li  Li0  1  0.00000000  0.00000000  0.50000000  1
  Li  Li1  1  0.36346500  0.76572800  0.84889000  1
  Li  Li2  1  0.50000000  0.00000000  0.00000000  1
  Li  Li3  1  0.13653500  0.76572800  0.34889000  1
  Li  Li4  1  0.94978400  0.54626600  0.81320200  1
  Li  Li5  1  0.24202800  0.66846500  0.69356300  1
  Li  Li6  1  0.74202800  0.33153500  0.80643700  1
  Li  Li7  1  0.55021600  0.54626600  0.31320200  1
  Li  Li8  1  0.44978400  0.45373400  0.68679800  1
  Li  Li9  1  0.25797200  0.66846500  0.19356300  1
  Li  Li10  1  0.75797200  0.33153500  0.30643700  1
  Li  Li11  1  0.05021600  0.45373400  0.18679800  1
  Li  Li12  1  0.86346500  0.23427200  0.65111000  1
  Li  Li13  1  0.63653500  0.23427200  0.15111000  1
  V  V14  1  0.66511300  0.97361700  0.95246200  1
  V  V15  1  0.07857400  0.89691800  0.88786200  1
  V  V16  1  0.83488700  0.97361700  0.45246200  1
  V  V17  1  0.42142600  0.89691800  0.38786200  1
  V  V18  1  0.64338400  0.71825900  0.79774700  1
  V  V19  1  0.85661600  0.71825900  0.29774700  1
  V  V20  1  0.00000000  0.50000000  0.50000000  1
  V  V21  1  0.14338400  0.28174100  0.70225300  1
  V  V22  1  0.50000000  0.50000000  0.00000000  1
  V  V23  1  0.35661600  0.28174100  0.20225300  1
  V  V24  1  0.57857400  0.10308200  0.61213800  1
  V  V25  1  0.16511300  0.02638300  0.54753800  1
  V  V26  1  0.92142600  0.10308200  0.11213800  1
  V  V27  1  0.33488700  0.02638300  0.04753800  1
  P  P28  1  0.72839900  0.05415700  0.64560600  1
  P  P29  1  0.49123400  0.81576200  0.68245500  1
  P  P30  1  0.77160100  0.05415700  0.14560600  1
  P  P31  1  0.08319800  0.66377500  0.69475000  1
  P  P32  1  0.85009300  0.60857700  0.59324700  1
  P  P33  1  0.00876600  0.81576200  0.18245500  1
  P  P34  1  0.41680200  0.66377500  0.19475000  1
  P  P35  1  0.35009300  0.39142300  0.90675300  1
  P  P36  1  0.64990700  0.60857700  0.09324700  1
  P  P37  1  0.58319800  0.33622500  0.80525000  1
  P  P38  1  0.99123400  0.18423800  0.81754500  1
  P  P39  1  0.14990700  0.39142300  0.40675300  1
  P  P40  1  0.91680200  0.33622500  0.30525000  1
  P  P41  1  0.22839900  0.94584300  0.85439400  1
  P  P42  1  0.50876600  0.18423800  0.31754500  1
  P  P43  1  0.27160100  0.94584300  0.35439400  1
  O  O44  1  0.29690600  0.88528400  0.93191400  1
  O  O45  1  0.17280000  0.83619700  0.95754500  1
  O  O46  1  0.60956100  0.93976000  0.80709900  1
  O  O47  1  0.23027900  0.90186000  0.71802200  1
  O  O48  1  0.48274700  0.02329400  0.63333100  1
  O  O49  1  0.20309400  0.88528400  0.43191400  1
  O  O50  1  0.32720000  0.83619700  0.45754500  1
  O  O51  1  0.70090600  0.72438100  0.97207300  1
  O  O52  1  0.89043900  0.93976000  0.30709900  1
  O  O53  1  0.88104800  0.74211400  0.64958200  1
  O  O54  1  0.26972100  0.90186000  0.21802200  1
  O  O55  1  0.01725300  0.02329400  0.13333100  1
  O  O56  1  0.71985800  0.85000800  0.67592300  1
  O  O57  1  0.08830500  0.85227200  0.56477400  1
  O  O58  1  0.06756900  0.68338000  0.83563100  1
  O  O59  1  0.46930200  0.73297000  0.84212300  1
  O  O60  1  0.56652500  0.78796200  0.65505400  1
  O  O61  1  0.44673400  0.73326000  0.60029400  1
  O  O62  1  0.59733400  0.56475600  0.99450900  1
  O  O63  1  0.79909400  0.72438100  0.47207300  1
  O  O64  1  0.01918700  0.57753900  0.66252300  1
  O  O65  1  0.61895200  0.74211400  0.14958200  1
  O  O66  1  0.78014200  0.85000800  0.17592300  1
  O  O67  1  0.41169500  0.85227200  0.06477400  1
  O  O68  1  0.43243100  0.68338000  0.33563100  1
  O  O69  1  0.03069800  0.73297000  0.34212300  1
  O  O70  1  0.93347500  0.78796200  0.15505400  1
  O  O71  1  0.05326600  0.73326000  0.10029400  1
  O  O72  1  0.90266600  0.56475600  0.49450900  1
  O  O73  1  0.32148000  0.56566600  0.80066100  1
  O  O74  1  0.64767000  0.44854600  0.79432100  1
  O  O75  1  0.14767000  0.55145400  0.70567900  1
  O  O76  1  0.82148000  0.43433400  0.69933900  1
  O  O77  1  0.51918700  0.42246100  0.83747700  1
  O  O78  1  0.48081300  0.57753900  0.16252300  1
  O  O79  1  0.17852000  0.56566600  0.30066100  1
  O  O80  1  0.85233000  0.44854600  0.29432100  1
  O  O81  1  0.35233000  0.55145400  0.20567900  1
  O  O82  1  0.67852000  0.43433400  0.19933900  1
  O  O83  1  0.09733400  0.43524400  0.50549100  1
  O  O84  1  0.94673400  0.26674000  0.89970600  1
  O  O85  1  0.06652500  0.21203800  0.84494600  1
  O  O86  1  0.96930200  0.26703000  0.65787700  1
  O  O87  1  0.56756900  0.31662000  0.66436900  1
  O  O88  1  0.58830500  0.14772800  0.93522600  1
  O  O89  1  0.21985800  0.14999200  0.82407700  1
  O  O90  1  0.38104800  0.25788600  0.85041800  1
  O  O91  1  0.98081300  0.42246100  0.33747700  1
  O  O92  1  0.20090600  0.27561900  0.52792700  1
  O  O93  1  0.40266600  0.43524400  0.00549100  1
  O  O94  1  0.55326600  0.26674000  0.39970600  1
  O  O95  1  0.43347500  0.21203800  0.34494600  1
  O  O96  1  0.53069800  0.26703000  0.15787700  1
  O  O97  1  0.93243100  0.31662000  0.16436900  1
  O  O98  1  0.91169500  0.14772800  0.43522600  1
  O  O99  1  0.28014200  0.14999200  0.32407700  1
  O  O100  1  0.98274700  0.97670600  0.86666900  1
  O  O101  1  0.73027900  0.09814000  0.78197800  1
  O  O102  1  0.11895200  0.25788600  0.35041800  1
  O  O103  1  0.10956100  0.06024000  0.69290100  1
  O  O104  1  0.29909400  0.27561900  0.02792700  1
  O  O105  1  0.67280000  0.16380300  0.54245500  1
  O  O106  1  0.79690600  0.11471600  0.56808600  1
  O  O107  1  0.51725300  0.97670600  0.36666900  1
  O  O108  1  0.76972100  0.09814000  0.28197800  1
  O  O109  1  0.39043900  0.06024000  0.19290100  1
  O  O110  1  0.82720000  0.16380300  0.04245500  1
  O  O111  1  0.70309400  0.11471600  0.06808600  1
