# generated using pymatgen
data_Li3La2H6(N3O10)3
_symmetry_space_group_name_H-M   'P 1'
_cell_length_a   13.54133400
_cell_length_b   13.54133400
_cell_length_c   13.54133400
_cell_angle_alpha   90.00000000
_cell_angle_beta   90.00000000
_cell_angle_gamma   90.00000000
_symmetry_Int_Tables_number   1
_chemical_formula_structural   Li3La2H6(N3O10)3
_chemical_formula_sum   'Li12 La8 H24 N36 O120'
_cell_volume   2483.04362935
_cell_formula_units_Z   4
loop_
 _symmetry_equiv_pos_site_id
 _symmetry_equiv_pos_as_xyz
  1  'x, y, z'
loop_
 _atom_site_type_symbol
 _atom_site_label
 _atom_site_symmetry_multiplicity
 _atom_site_fract_x
 _atom_site_fract_y
 _atom_site_fract_z
 _atom_site_occupancy
  Li  Li0  1  0.20169500  0.95391100  0.77882000  1
  Li  Li1  1  0.22118000  0.70169500  0.54608900  1
  Li  Li2  1  0.45391100  0.72118000  0.79830500  1
  Li  Li3  1  0.70169500  0.54608900  0.22118000  1
  Li  Li4  1  0.72118000  0.79830500  0.45391100  1
  Li  Li5  1  0.95391100  0.77882000  0.20169500  1
  Li  Li6  1  0.79830500  0.45391100  0.72118000  1
  Li  Li7  1  0.77882000  0.20169500  0.95391100  1
  Li  Li8  1  0.54608900  0.22118000  0.70169500  1
  Li  Li9  1  0.29830500  0.04608900  0.27882000  1
  Li  Li10  1  0.27882000  0.29830500  0.04608900  1
  Li  Li11  1  0.04608900  0.27882000  0.29830500  1
  La  La12  1  0.03174200  0.53174200  0.96825800  1
  La  La13  1  0.53174200  0.96825800  0.03174200  1
  La  La14  1  0.96825800  0.03174200  0.53174200  1
  La  La15  1  0.46825800  0.46825800  0.46825800  1
  La  La16  1  0.77780000  0.77780000  0.77780000  1
  La  La17  1  0.22220000  0.27780000  0.72220000  1
  La  La18  1  0.27780000  0.72220000  0.22220000  1
  La  La19  1  0.72220000  0.22220000  0.27780000  1
  H  H20  1  0.03878000  0.64844200  0.52606600  1
  H  H21  1  0.47393400  0.53878000  0.85155800  1
  H  H22  1  0.14844200  0.97393400  0.96122000  1
  H  H23  1  0.53878000  0.85155800  0.47393400  1
  H  H24  1  0.97393400  0.96122000  0.14844200  1
  H  H25  1  0.64844200  0.52606600  0.03878000  1
  H  H26  1  0.96122000  0.14844200  0.97393400  1
  H  H27  1  0.52606600  0.03878000  0.64844200  1
  H  H28  1  0.85155800  0.47393400  0.53878000  1
  H  H29  1  0.46122000  0.35155800  0.02606600  1
  H  H30  1  0.02606600  0.46122000  0.35155800  1
  H  H31  1  0.35155800  0.02606600  0.46122000  1
  H  H32  1  0.09856400  0.56919100  0.58274900  1
  H  H33  1  0.41725100  0.59856400  0.93080900  1
  H  H34  1  0.06919100  0.91725100  0.90143600  1
  H  H35  1  0.59856400  0.93080900  0.41725100  1
  H  H36  1  0.91725100  0.90143600  0.06919100  1
  H  H37  1  0.56919100  0.58274900  0.09856400  1
  H  H38  1  0.90143600  0.06919100  0.91725100  1
  H  H39  1  0.58274900  0.09856400  0.56919100  1
  H  H40  1  0.93080900  0.41725100  0.59856400  1
  H  H41  1  0.40143600  0.43080900  0.08274900  1
  H  H42  1  0.08274900  0.40143600  0.43080900  1
  H  H43  1  0.43080900  0.08274900  0.40143600  1
  N  N44  1  0.23784500  0.62671800  0.01120800  1
  N  N45  1  0.98879200  0.73784500  0.87328200  1
  N  N46  1  0.12671800  0.48879200  0.76215500  1
  N  N47  1  0.73784500  0.87328200  0.98879200  1
  N  N48  1  0.48879200  0.76215500  0.12671800  1
  N  N49  1  0.62671800  0.01120800  0.23784500  1
  N  N50  1  0.76215500  0.12671800  0.48879200  1
  N  N51  1  0.01120800  0.23784500  0.62671800  1
  N  N52  1  0.87328200  0.98879200  0.73784500  1
  N  N53  1  0.26215500  0.37328200  0.51120800  1
  N  N54  1  0.51120800  0.26215500  0.37328200  1
  N  N55  1  0.37328200  0.51120800  0.26215500  1
  N  N56  1  0.38643600  0.60897600  0.62926200  1
  N  N57  1  0.37073800  0.88643600  0.89102400  1
  N  N58  1  0.10897600  0.87073800  0.61356400  1
  N  N59  1  0.88643600  0.89102400  0.37073800  1
  N  N60  1  0.87073800  0.61356400  0.10897600  1
  N  N61  1  0.60897600  0.62926200  0.38643600  1
  N  N62  1  0.61356400  0.10897600  0.87073800  1
  N  N63  1  0.62926200  0.38643600  0.60897600  1
  N  N64  1  0.89102400  0.37073800  0.88643600  1
  N  N65  1  0.11356400  0.39102400  0.12926200  1
  N  N66  1  0.12926200  0.11356400  0.39102400  1
  N  N67  1  0.39102400  0.12926200  0.11356400  1
  N  N68  1  0.70842500  0.57704500  0.85370500  1
  N  N69  1  0.14629500  0.20842500  0.92295500  1
  N  N70  1  0.07704500  0.64629500  0.29157500  1
  N  N71  1  0.20842500  0.92295500  0.14629500  1
  N  N72  1  0.64629500  0.29157500  0.07704500  1
  N  N73  1  0.57704500  0.85370500  0.70842500  1
  N  N74  1  0.29157500  0.07704500  0.64629500  1
  N  N75  1  0.85370500  0.70842500  0.57704500  1
  N  N76  1  0.92295500  0.14629500  0.20842500  1
  N  N77  1  0.79157500  0.42295500  0.35370500  1
  N  N78  1  0.35370500  0.79157500  0.42295500  1
  N  N79  1  0.42295500  0.35370500  0.79157500  1
  O  O80  1  0.87295400  0.92228500  0.66966600  1
  O  O81  1  0.33033400  0.37295400  0.57771500  1
  O  O82  1  0.42228500  0.83033400  0.12704600  1
  O  O83  1  0.37295400  0.57771500  0.33033400  1
  O  O84  1  0.83033400  0.12704600  0.42228500  1
  O  O85  1  0.92228500  0.66966600  0.87295400  1
  O  O86  1  0.12704600  0.42228500  0.83033400  1
  O  O87  1  0.66966600  0.87295400  0.92228500  1
  O  O88  1  0.57771500  0.33033400  0.37295400  1
  O  O89  1  0.62704600  0.07771500  0.16966600  1
  O  O90  1  0.16966600  0.62704600  0.07771500  1
  O  O91  1  0.07771500  0.16966600  0.62704600  1
  O  O92  1  0.22294200  0.58178100  0.93188100  1
  O  O93  1  0.06811900  0.72294200  0.91821900  1
  O  O94  1  0.08178100  0.56811900  0.77705800  1
  O  O95  1  0.72294200  0.91821900  0.06811900  1
  O  O96  1  0.56811900  0.77705800  0.08178100  1
  O  O97  1  0.58178100  0.93188100  0.22294200  1
  O  O98  1  0.77705800  0.08178100  0.56811900  1
  O  O99  1  0.93188100  0.22294200  0.58178100  1
  O  O100  1  0.91821900  0.06811900  0.72294200  1
  O  O101  1  0.27705800  0.41821900  0.43188100  1
  O  O102  1  0.43188100  0.27705800  0.41821900  1
  O  O103  1  0.41821900  0.43188100  0.27705800  1
  O  O104  1  0.82896700  0.97116600  0.81771100  1
  O  O105  1  0.18228900  0.32896700  0.52883400  1
  O  O106  1  0.47116600  0.68228900  0.17103300  1
  O  O107  1  0.32896700  0.52883400  0.18228900  1
  O  O108  1  0.68228900  0.17103300  0.47116600  1
  O  O109  1  0.97116600  0.81771100  0.82896700  1
  O  O110  1  0.17103300  0.47116600  0.68228900  1
  O  O111  1  0.81771100  0.82896700  0.97116600  1
  O  O112  1  0.52883400  0.18228900  0.32896700  1
  O  O113  1  0.67103300  0.02883400  0.31771100  1
  O  O114  1  0.31771100  0.67103300  0.02883400  1
  O  O115  1  0.02883400  0.31771100  0.67103300  1
  O  O116  1  0.33930400  0.59595300  0.54744700  1
  O  O117  1  0.45255300  0.83930400  0.90404700  1
  O  O118  1  0.09595300  0.95255300  0.66069600  1
  O  O119  1  0.83930400  0.90404700  0.45255300  1
  O  O120  1  0.95255300  0.66069600  0.09595300  1
  O  O121  1  0.59595300  0.54744700  0.33930400  1
  O  O122  1  0.66069600  0.09595300  0.95255300  1
  O  O123  1  0.54744700  0.33930400  0.59595300  1
  O  O124  1  0.90404700  0.45255300  0.83930400  1
  O  O125  1  0.16069600  0.40404700  0.04744700  1
  O  O126  1  0.04744700  0.16069600  0.40404700  1
  O  O127  1  0.40404700  0.04744700  0.16069600  1
  O  O128  1  0.05692000  0.85656200  0.53690800  1
  O  O129  1  0.46309200  0.55692000  0.64343800  1
  O  O130  1  0.35656200  0.96309200  0.94308000  1
  O  O131  1  0.55692000  0.64343800  0.46309200  1
  O  O132  1  0.96309200  0.94308000  0.35656200  1
  O  O133  1  0.85656200  0.53690800  0.05692000  1
  O  O134  1  0.94308000  0.35656200  0.96309200  1
  O  O135  1  0.53690800  0.05692000  0.85656200  1
  O  O136  1  0.64343800  0.46309200  0.55692000  1
  O  O137  1  0.44308000  0.14343800  0.03690800  1
  O  O138  1  0.03690800  0.44308000  0.14343800  1
  O  O139  1  0.14343800  0.03690800  0.44308000  1
  O  O140  1  0.35635600  0.67135900  0.68986400  1
  O  O141  1  0.31013600  0.85635600  0.82864100  1
  O  O142  1  0.17135900  0.81013600  0.64364400  1
  O  O143  1  0.85635600  0.82864100  0.31013600  1
  O  O144  1  0.81013600  0.64364400  0.17135900  1
  O  O145  1  0.67135900  0.68986400  0.35635600  1
  O  O146  1  0.64364400  0.17135900  0.81013600  1
  O  O147  1  0.68986400  0.35635600  0.67135900  1
  O  O148  1  0.82864100  0.31013600  0.85635600  1
  O  O149  1  0.14364400  0.32864100  0.18986400  1
  O  O150  1  0.18986400  0.14364400  0.32864100  1
  O  O151  1  0.32864100  0.18986400  0.14364400  1
  O  O152  1  0.70120900  0.65582200  0.90444600  1
  O  O153  1  0.09555400  0.20120900  0.84417800  1
  O  O154  1  0.15582200  0.59555400  0.29879100  1
  O  O155  1  0.20120900  0.84417800  0.09555400  1
  O  O156  1  0.59555400  0.29879100  0.15582200  1
  O  O157  1  0.65582200  0.90444600  0.70120900  1
  O  O158  1  0.29879100  0.15582200  0.59555400  1
  O  O159  1  0.90444600  0.70120900  0.65582200  1
  O  O160  1  0.84417800  0.09555400  0.20120900  1
  O  O161  1  0.79879100  0.34417800  0.40444600  1
  O  O162  1  0.40444600  0.79879100  0.34417800  1
  O  O163  1  0.34417800  0.40444600  0.79879100  1
  O  O164  1  0.74083400  0.58699200  0.76376400  1
  O  O165  1  0.23623600  0.24083400  0.91300800  1
  O  O166  1  0.08699200  0.73623600  0.25916600  1
  O  O167  1  0.24083400  0.91300800  0.23623600  1
  O  O168  1  0.73623600  0.25916600  0.08699200  1
  O  O169  1  0.58699200  0.76376400  0.74083400  1
  O  O170  1  0.25916600  0.08699200  0.73623600  1
  O  O171  1  0.76376400  0.74083400  0.58699200  1
  O  O172  1  0.91300800  0.23623600  0.24083400  1
  O  O173  1  0.75916600  0.41300800  0.26376400  1
  O  O174  1  0.26376400  0.75916600  0.41300800  1
  O  O175  1  0.41300800  0.26376400  0.75916600  1
  O  O176  1  0.49452200  0.88667000  0.68756700  1
  O  O177  1  0.31243300  0.99452200  0.61333000  1
  O  O178  1  0.38667000  0.81243300  0.50547800  1
  O  O179  1  0.99452200  0.61333000  0.31243300  1
  O  O180  1  0.81243300  0.50547800  0.38667000  1
  O  O181  1  0.88667000  0.68756700  0.49452200  1
  O  O182  1  0.50547800  0.38667000  0.81243300  1
  O  O183  1  0.68756700  0.49452200  0.88667000  1
  O  O184  1  0.61333000  0.31243300  0.99452200  1
  O  O185  1  0.00547800  0.11333000  0.18756700  1
  O  O186  1  0.18756700  0.00547800  0.11333000  1
  O  O187  1  0.11333000  0.18756700  0.00547800  1
  O  O188  1  0.10419200  0.61754500  0.52972200  1
  O  O189  1  0.47027800  0.60419200  0.88245500  1
  O  O190  1  0.11754500  0.97027800  0.89580800  1
  O  O191  1  0.60419200  0.88245500  0.47027800  1
  O  O192  1  0.97027800  0.89580800  0.11754500  1
  O  O193  1  0.61754500  0.52972200  0.10419200  1
  O  O194  1  0.89580800  0.11754500  0.97027800  1
  O  O195  1  0.52972200  0.10419200  0.61754500  1
  O  O196  1  0.88245500  0.47027800  0.60419200  1
  O  O197  1  0.39580800  0.38245500  0.02972200  1
  O  O198  1  0.02972200  0.39580800  0.38245500  1
  O  O199  1  0.38245500  0.02972200  0.39580800  1
