# generated using pymatgen
data_LiCoPO4
_symmetry_space_group_name_H-M   'P 1'
_cell_length_a   9.70972567
_cell_length_b   9.70972567
_cell_length_c   23.02188700
_cell_angle_alpha   90.00000000
_cell_angle_beta   90.00000000
_cell_angle_gamma   119.99999776
_symmetry_Int_Tables_number   1
_chemical_formula_structural   LiCoPO4
_chemical_formula_sum   'Li24 Co24 P24 O96'
_cell_volume   1879.68674678
_cell_formula_units_Z   24
loop_
 _symmetry_equiv_pos_site_id
 _symmetry_equiv_pos_as_xyz
  1  'x, y, z'
loop_
 _atom_site_type_symbol
 _atom_site_label
 _atom_site_symmetry_multiplicity
 _atom_site_fract_x
 _atom_site_fract_y
 _atom_site_fract_z
 _atom_site_occupancy
  Li  Li0  1  0.09498000  0.82090600  0.27486000  1
  Li  Li1  1  0.08932500  0.75408400  0.91947800  1
  Li  Li2  1  0.12810600  0.75955200  0.59453100  1
  Li  Li3  1  0.31090000  0.66827200  0.75555500  1
  Li  Li4  1  0.33172800  0.64262800  0.08888900  1
  Li  Li5  1  0.35737200  0.68910000  0.42222200  1
  Li  Li6  1  0.17909400  0.27407500  0.60819400  1
  Li  Li7  1  0.24044800  0.36855400  0.92786400  1
  Li  Li8  1  0.24591600  0.33524100  0.25281100  1
  Li  Li9  1  0.63144600  0.87189400  0.26119800  1
  Li  Li10  1  0.66475900  0.91067500  0.58614500  1
  Li  Li11  1  0.27407500  0.09498000  0.44152700  1
  Li  Li12  1  0.72592500  0.90502000  0.94152700  1
  Li  Li13  1  0.33524100  0.08932500  0.08614500  1
  Li  Li14  1  0.36855400  0.12810600  0.76119800  1
  Li  Li15  1  0.75408400  0.66475900  0.75281100  1
  Li  Li16  1  0.75955200  0.63144600  0.42786400  1
  Li  Li17  1  0.82090600  0.72592500  0.10819400  1
  Li  Li18  1  0.64262800  0.31090000  0.92222200  1
  Li  Li19  1  0.66827200  0.35737200  0.58888900  1
  Li  Li20  1  0.68910000  0.33172800  0.25555500  1
  Li  Li21  1  0.87189400  0.24044800  0.09453100  1
  Li  Li22  1  0.91067500  0.24591600  0.41947800  1
  Li  Li23  1  0.90502000  0.17909400  0.77486000  1
  Co  Co24  1  0.99747200  0.01168200  0.70446400  1
  Co  Co25  1  0.02446900  0.57152400  0.04598500  1
  Co  Co26  1  0.06257700  0.46162100  0.19482000  1
  Co  Co27  1  0.04807000  0.48720800  0.84940600  1
  Co  Co28  1  0.39904400  0.93742300  0.86148700  1
  Co  Co29  1  0.43913800  0.95193000  0.51607300  1
  Co  Co30  1  0.98831800  0.98579000  0.03779700  1
  Co  Co31  1  0.98579000  0.99747200  0.87113000  1
  Co  Co32  1  0.54705400  0.97553100  0.71265200  1
  Co  Co33  1  0.42847600  0.45294600  0.37931800  1
  Co  Co34  1  0.51279200  0.56086200  0.18273900  1
  Co  Co35  1  0.53837900  0.60095600  0.52815400  1
  Co  Co36  1  0.46162100  0.39904400  0.02815400  1
  Co  Co37  1  0.48720800  0.43913800  0.68273900  1
  Co  Co38  1  0.57152400  0.54705400  0.87931800  1
  Co  Co39  1  0.45294600  0.02446900  0.21265200  1
  Co  Co40  1  0.01421000  0.00252800  0.37113000  1
  Co  Co41  1  0.01168200  0.01421000  0.53779700  1
  Co  Co42  1  0.56086200  0.04807000  0.01607300  1
  Co  Co43  1  0.60095600  0.06257700  0.36148700  1
  Co  Co44  1  0.95193000  0.51279200  0.34940600  1
  Co  Co45  1  0.93742300  0.53837900  0.69482000  1
  Co  Co46  1  0.97553100  0.42847600  0.54598500  1
  Co  Co47  1  0.00252800  0.98831800  0.20446400  1
  P  P48  1  0.08762600  0.78812900  0.78822000  1
  P  P49  1  0.08126800  0.74667200  0.46936800  1
  P  P50  1  0.13713000  0.79278100  0.13849700  1
  P  P51  1  0.29123500  0.65615600  0.29291600  1
  P  P52  1  0.36492100  0.70876500  0.95958300  1
  P  P53  1  0.34384400  0.63507900  0.62624900  1
  P  P54  1  0.20721900  0.34434900  0.47183000  1
  P  P55  1  0.21187100  0.29949700  0.12155300  1
  P  P56  1  0.25332800  0.33459600  0.80270100  1
  P  P57  1  0.65565100  0.86287000  0.80516400  1
  P  P58  1  0.66540400  0.91873200  0.13603500  1
  P  P59  1  0.70050300  0.91237400  0.45488600  1
  P  P60  1  0.29949700  0.08762600  0.95488600  1
  P  P61  1  0.33459600  0.08126800  0.63603500  1
  P  P62  1  0.34434900  0.13713000  0.30516400  1
  P  P63  1  0.74667200  0.66540400  0.30270100  1
  P  P64  1  0.78812900  0.70050300  0.62155300  1
  P  P65  1  0.79278100  0.65565100  0.97183000  1
  P  P66  1  0.65615600  0.36492100  0.12624900  1
  P  P67  1  0.63507900  0.29123500  0.45958300  1
  P  P68  1  0.70876500  0.34384400  0.79291600  1
  P  P69  1  0.86287000  0.20721900  0.63849700  1
  P  P70  1  0.91873200  0.25332800  0.96936800  1
  P  P71  1  0.91237400  0.21187100  0.28822000  1
  O  O72  1  0.04909600  0.78860700  0.08121500  1
  O  O73  1  0.07493400  0.90661400  0.47470100  1
  O  O74  1  0.01513000  0.67747900  0.84161900  1
  O  O75  1  0.12865300  0.97035300  0.93067100  1
  O  O76  1  0.03582200  0.79991000  0.18969500  1
  O  O77  1  0.01264900  0.64924100  0.52516100  1
  O  O78  1  0.24028800  0.94005000  0.80715900  1
  O  O79  1  0.13308200  0.65878700  0.30140700  1
  O  O80  1  0.11930800  0.69089100  0.74195600  1
  O  O81  1  0.32129300  0.97517200  0.58320500  1
  O  O82  1  0.31080000  0.92892900  0.13978200  1
  O  O83  1  0.13975400  0.63206800  0.13691200  1
  O  O84  1  0.25784800  0.79144500  0.46180500  1
  O  O85  1  0.17282300  0.59304600  0.61093100  1
  O  O86  1  0.07107100  0.38187100  0.47311500  1
  O  O87  1  0.27710600  0.73494100  0.90671600  1
  O  O88  1  0.02482800  0.34612000  0.91653800  1
  O  O89  1  0.05995000  0.30023800  0.14049200  1
  O  O90  1  0.02964700  0.15830000  0.26400400  1
  O  O91  1  0.09338600  0.16832000  0.80803500  1
  O  O92  1  0.25894100  0.67066900  0.01391200  1
  O  O93  1  0.26505900  0.54216500  0.24004900  1
  O  O94  1  0.32933100  0.58827200  0.34724500  1
  O  O95  1  0.20855500  0.46640300  0.79513800  1
  O  O96  1  0.41172800  0.74105900  0.68057800  1
  O  O97  1  0.42022300  0.82717700  0.27759800  1
  O  O98  1  0.49231400  0.86024600  0.80357900  1
  O  O99  1  0.30910900  0.42841700  0.07528900  1
  O  O100  1  0.34121300  0.47429500  0.63474100  1
  O  O101  1  0.36793200  0.50768600  0.47024500  1
  O  O102  1  0.20009000  0.23591200  0.52302800  1
  O  O103  1  0.40695400  0.57977700  0.94426400  1
  O  O104  1  0.45783500  0.72289400  0.57338200  1
  O  O105  1  0.52570500  0.86691800  0.96807400  1
  O  O106  1  0.57158300  0.88069200  0.40862300  1
  O  O107  1  0.15830000  0.12865300  0.09733800  1
  O  O108  1  0.21139300  0.26048800  0.41454800  1
  O  O109  1  0.32252100  0.33765100  0.17495200  1
  O  O110  1  0.16832000  0.07493400  0.64136800  1
  O  O111  1  0.35075900  0.36340800  0.85849400  1
  O  O112  1  0.53359700  0.74215200  0.12847100  1
  O  O113  1  0.30023800  0.24028800  0.97382500  1
  O  O114  1  0.63659200  0.98735100  0.19182800  1
  O  O115  1  0.34612000  0.32129300  0.74987200  1
  O  O116  1  0.38187100  0.31080000  0.30644800  1
  O  O117  1  0.66234900  0.98487000  0.50828500  1
  O  O118  1  0.76408800  0.96417800  0.85636200  1
  O  O119  1  0.26048800  0.04909600  0.24788200  1
  O  O120  1  0.73951200  0.95090400  0.74788200  1
  O  O121  1  0.23591200  0.03582200  0.35636200  1
  O  O122  1  0.33765100  0.01513000  0.00828500  1
  O  O123  1  0.61812900  0.68920000  0.80644800  1
  O  O124  1  0.65388000  0.67870700  0.24987200  1
  O  O125  1  0.36340800  0.01264900  0.69182800  1
  O  O126  1  0.69976200  0.75971200  0.47382500  1
  O  O127  1  0.46640300  0.25784800  0.62847100  1
  O  O128  1  0.64924100  0.63659200  0.35849400  1
  O  O129  1  0.83168000  0.92506600  0.14136800  1
  O  O130  1  0.67747900  0.66234900  0.67495200  1
  O  O131  1  0.78860700  0.73951200  0.91454800  1
  O  O132  1  0.84170000  0.87134700  0.59733800  1
  O  O133  1  0.42841700  0.11930800  0.90862300  1
  O  O134  1  0.47429500  0.13308200  0.46807400  1
  O  O135  1  0.54216500  0.27710600  0.07338200  1
  O  O136  1  0.59304600  0.42022300  0.44426400  1
  O  O137  1  0.79991000  0.76408800  0.02302800  1
  O  O138  1  0.63206800  0.49231400  0.97024500  1
  O  O139  1  0.65878700  0.52570500  0.13474100  1
  O  O140  1  0.69089100  0.57158300  0.57528900  1
  O  O141  1  0.50768600  0.13975400  0.30357900  1
  O  O142  1  0.57977700  0.17282300  0.77759800  1
  O  O143  1  0.58827200  0.25894100  0.18057800  1
  O  O144  1  0.79144500  0.53359700  0.29513800  1
  O  O145  1  0.67066900  0.41172800  0.84724500  1
  O  O146  1  0.73494100  0.45783500  0.74004900  1
  O  O147  1  0.74105900  0.32933100  0.51391200  1
  O  O148  1  0.90661400  0.83168000  0.30803500  1
  O  O149  1  0.97035300  0.84170000  0.76400400  1
  O  O150  1  0.94005000  0.69976200  0.64049200  1
  O  O151  1  0.97517200  0.65388000  0.41653800  1
  O  O152  1  0.72289400  0.26505900  0.40671600  1
  O  O153  1  0.92892900  0.61812900  0.97311500  1
  O  O154  1  0.82717700  0.40695400  0.11093100  1
  O  O155  1  0.74215200  0.20855500  0.96180500  1
  O  O156  1  0.86024600  0.36793200  0.63691200  1
  O  O157  1  0.68920000  0.07107100  0.63978200  1
  O  O158  1  0.67870700  0.02482800  0.08320500  1
  O  O159  1  0.88069200  0.30910900  0.24195600  1
  O  O160  1  0.86691800  0.34121300  0.80140700  1
  O  O161  1  0.75971200  0.05995000  0.30715900  1
  O  O162  1  0.98735100  0.35075900  0.02516100  1
  O  O163  1  0.96417800  0.20009000  0.68969500  1
  O  O164  1  0.87134700  0.02964700  0.43067100  1
  O  O165  1  0.98487000  0.32252100  0.34161900  1
  O  O166  1  0.92506600  0.09338600  0.97470100  1
  O  O167  1  0.95090400  0.21139300  0.58121500  1
