# generated using pymatgen
data_Li3Sn(PO4)2
_symmetry_space_group_name_H-M   'P 1'
_cell_length_a   8.51899964
_cell_length_b   8.51899964
_cell_length_c   7.70899400
_cell_angle_alpha   90.00000000
_cell_angle_beta   90.00000000
_cell_angle_gamma   119.99999721
_symmetry_Int_Tables_number   1
_chemical_formula_structural   Li3Sn(PO4)2
_chemical_formula_sum   'Li9 Sn3 P6 O24'
_cell_volume   484.51313086
_cell_formula_units_Z   3
loop_
 _symmetry_equiv_pos_site_id
 _symmetry_equiv_pos_as_xyz
  1  'x, y, z'
loop_
 _atom_site_type_symbol
 _atom_site_label
 _atom_site_symmetry_multiplicity
 _atom_site_fract_x
 _atom_site_fract_y
 _atom_site_fract_z
 _atom_site_occupancy
  Li  Li0  1  0.35049500  0.00807400  0.64032100  1
  Li  Li1  1  0.99192600  0.34242100  0.64032100  1
  Li  Li2  1  0.00000000  0.00000000  0.60123200  1
  Li  Li3  1  0.33333300  0.66666700  0.52904700  1
  Li  Li4  1  0.30689900  0.34842900  0.35473300  1
  Li  Li5  1  0.65757900  0.64950500  0.64032100  1
  Li  Li6  1  0.66666700  0.33333300  0.49918200  1
  Li  Li7  1  0.04153000  0.69310100  0.35473300  1
  Li  Li8  1  0.65157100  0.95847000  0.35473300  1
  Sn  Sn9  1  0.00000000  0.00000000  0.05004600  1
  Sn  Sn10  1  0.33333300  0.66666700  0.02737800  1
  Sn  Sn11  1  0.66666700  0.33333300  0.94642100  1
  P  P12  1  0.02150700  0.68526000  0.74753800  1
  P  P13  1  0.31474000  0.33624600  0.74753800  1
  P  P14  1  0.66375400  0.97849300  0.74753800  1
  P  P15  1  0.37024300  0.03773900  0.24525200  1
  P  P16  1  0.66749600  0.62975700  0.24525200  1
  P  P17  1  0.96226100  0.33250400  0.24525200  1
  O  O18  1  0.15955200  0.93907800  0.25454600  1
  O  O19  1  0.14358800  0.70938500  0.58802300  1
  O  O20  1  0.14408900  0.76854500  0.90863000  1
  O  O21  1  0.43200400  0.89444700  0.21841300  1
  O  O22  1  0.10555300  0.53755700  0.21841300  1
  O  O23  1  0.06092200  0.22047400  0.25454600  1
  O  O24  1  0.62445600  0.85591100  0.90863000  1
  O  O25  1  0.22790900  0.13339300  0.70871900  1
  O  O26  1  0.23145500  0.37554400  0.90863000  1
  O  O27  1  0.29061500  0.43420200  0.58802300  1
  O  O28  1  0.56579800  0.85641200  0.58802300  1
  O  O29  1  0.46244300  0.56799600  0.21841300  1
  O  O30  1  0.52773000  0.41711900  0.77496800  1
  O  O31  1  0.44852400  0.13684100  0.41614700  1
  O  O32  1  0.68831700  0.55147600  0.41614700  1
  O  O33  1  0.74468300  0.56728000  0.09140700  1
  O  O34  1  0.77952600  0.84044800  0.25454600  1
  O  O35  1  0.43272000  0.17740400  0.09140700  1
  O  O36  1  0.90548400  0.77209100  0.70871900  1
  O  O37  1  0.88938900  0.47227000  0.77496800  1
  O  O38  1  0.58288100  0.11061100  0.77496800  1
  O  O39  1  0.82259600  0.25531700  0.09140700  1
  O  O40  1  0.86315900  0.31168300  0.41614700  1
  O  O41  1  0.86660700  0.09451600  0.70871900  1
