# generated using pymatgen
data_Li4V3Cr2Co(PO4)6
_symmetry_space_group_name_H-M   'P 1'
_cell_length_a   8.47614035
_cell_length_b   8.91778967
_cell_length_c   9.00097516
_cell_angle_alpha   59.80267102
_cell_angle_beta   60.22239728
_cell_angle_gamma   58.56113408
_symmetry_Int_Tables_number   1
_chemical_formula_structural   Li4V3Cr2Co(PO4)6
_chemical_formula_sum   'Li4 V3 Cr2 Co1 P6 O24'
_cell_volume   475.72071681
_cell_formula_units_Z   1
loop_
 _symmetry_equiv_pos_site_id
 _symmetry_equiv_pos_as_xyz
  1  'x, y, z'
loop_
 _atom_site_type_symbol
 _atom_site_label
 _atom_site_symmetry_multiplicity
 _atom_site_fract_x
 _atom_site_fract_y
 _atom_site_fract_z
 _atom_site_occupancy
  Li  Li0  1  0.24750000  0.85959400  0.64332500  1
  Li  Li1  1  0.74647800  0.15197300  0.33809800  1
  Li  Li2  1  0.73219500  0.76821600  0.15216800  1
  Li  Li3  1  0.73254200  0.34737700  0.77278200  1
  V  V4  1  0.06856600  0.64368000  0.64604500  1
  V  V5  1  0.43615900  0.85380100  0.85526300  1
  V  V6  1  0.94415200  0.35172500  0.34952600  1
  Cr  Cr7  1  0.00271300  0.99587600  0.00598700  1
  Cr  Cr8  1  0.50020600  0.49672200  0.49695500  1
  Co  Co9  1  0.54308400  0.15168600  0.15452600  1
  P  P10  1  0.26393300  0.25347600  0.54889600  1
  P  P11  1  0.25110400  0.94309600  0.24522500  1
  P  P12  1  0.24239700  0.55976800  0.95000300  1
  P  P13  1  0.76046400  0.45158300  0.03599400  1
  P  P14  1  0.76413200  0.04010300  0.74858200  1
  P  P15  1  0.72655800  0.75067100  0.46492500  1
  O  O16  1  0.06244800  0.09766400  0.30349100  1
  O  O17  1  0.05582000  0.53780800  0.10061900  1
  O  O18  1  0.07701400  0.31228400  0.51605700  1
  O  O19  1  0.25273800  0.09047400  0.73492700  1
  O  O20  1  0.45352400  0.19965000  0.39561800  1
  O  O21  1  0.27117200  0.41249400  0.57502600  1
  O  O22  1  0.23560300  0.92124100  0.09098300  1
  O  O23  1  0.26964800  0.75425400  0.41077300  1
  O  O24  1  0.57479600  0.60526000  0.99195700  1
  O  O25  1  0.26193300  0.58802500  0.75507500  1
  O  O26  1  0.78257200  0.25667800  0.05237900  1
  O  O27  1  0.59774600  0.97852500  0.81434900  1
  O  O28  1  0.44036200  0.97338500  0.18404900  1
  O  O29  1  0.22450500  0.76021200  0.92030600  1
  O  O30  1  0.73552000  0.42915500  0.22880300  1
  O  O31  1  0.43313400  0.40040600  0.98021700  1
  O  O32  1  0.72678400  0.23877000  0.60124000  1
  O  O33  1  0.78214800  0.05925800  0.90413100  1
  O  O34  1  0.71621800  0.59617000  0.43386100  1
  O  O35  1  0.53265200  0.81034000  0.61183200  1
  O  O36  1  0.75173400  0.90590800  0.27456600  1
  O  O37  1  0.89852700  0.68378100  0.52426700  1
  O  O38  1  0.94062100  0.49504800  0.88898400  1
  O  O39  1  0.96059700  0.89686300  0.67518700  1
