# generated using pymatgen
data_LiMnPO4
_symmetry_space_group_name_H-M   'P 1'
_cell_length_a   4.99642900
_cell_length_b   6.46249104
_cell_length_c   9.45310006
_cell_angle_alpha   89.98687882
_cell_angle_beta   90.00055405
_cell_angle_gamma   90.00043069
_symmetry_Int_Tables_number   1
_chemical_formula_structural   LiMnPO4
_chemical_formula_sum   'Li4 Mn4 P4 O16'
_cell_volume   305.23470991
_cell_formula_units_Z   4
loop_
 _symmetry_equiv_pos_site_id
 _symmetry_equiv_pos_as_xyz
  1  'x, y, z'
loop_
 _atom_site_type_symbol
 _atom_site_label
 _atom_site_symmetry_multiplicity
 _atom_site_fract_x
 _atom_site_fract_y
 _atom_site_fract_z
 _atom_site_occupancy
  Li  Li0  1  0.02313800  0.25005800  0.67024500  1
  Li  Li1  1  0.47659900  0.24998000  0.17019300  1
  Li  Li2  1  0.97676800  0.75003300  0.32980700  1
  Li  Li3  1  0.52324500  0.74995100  0.82979800  1
  Mn  Mn4  1  0.99988400  0.50011100  0.00004900  1
  Mn  Mn5  1  0.50003200  0.49977200  0.49975200  1
  Mn  Mn6  1  0.00011200  0.00007600  0.99988500  1
  Mn  Mn7  1  0.50020900  0.99998000  0.50012100  1
  P  P8  1  0.97942000  0.25000300  0.32072000  1
  P  P9  1  0.52056200  0.25005600  0.82073300  1
  P  P10  1  0.02064900  0.74993700  0.67926500  1
  P  P11  1  0.47935200  0.74998700  0.17928200  1
  O  O12  1  0.92686500  0.25005900  0.15537200  1
  O  O13  1  0.57319300  0.25010500  0.65538100  1
  O  O14  1  0.42684100  0.74993100  0.34464300  1
  O  O15  1  0.07317900  0.74988600  0.84463700  1
  O  O16  1  0.28485400  0.25003700  0.35890900  1
  O  O17  1  0.21512700  0.25007100  0.85890600  1
  O  O18  1  0.71520400  0.74991500  0.64110100  1
  O  O19  1  0.78479200  0.74993900  0.14110800  1
  O  O20  1  0.84886600  0.05145100  0.37942600  1
  O  O21  1  0.65108400  0.05146700  0.87941200  1
  O  O22  1  0.84889400  0.44846600  0.37942100  1
  O  O23  1  0.65113400  0.44848800  0.87945500  1
  O  O24  1  0.34872700  0.55156100  0.12058300  1
  O  O25  1  0.15130700  0.55154300  0.62055200  1
  O  O26  1  0.34880500  0.94856900  0.12061300  1
  O  O27  1  0.15115700  0.94856600  0.62063000  1
