# generated using pymatgen
data_Li32Ti13Cr3O48
_symmetry_space_group_name_H-M   'P 1'
_cell_length_a   5.08462600
_cell_length_b   8.83329700
_cell_length_c   19.63116720
_cell_angle_alpha   98.32689647
_cell_angle_beta   94.70945148
_cell_angle_gamma   89.81914753
_symmetry_Int_Tables_number   1
_chemical_formula_structural   Li32Ti13Cr3O48
_chemical_formula_sum   'Li32 Ti13 Cr3 O48'
_cell_volume   869.43984797
_cell_formula_units_Z   1
loop_
 _symmetry_equiv_pos_site_id
 _symmetry_equiv_pos_as_xyz
  1  'x, y, z'
loop_
 _atom_site_type_symbol
 _atom_site_label
 _atom_site_symmetry_multiplicity
 _atom_site_fract_x
 _atom_site_fract_y
 _atom_site_fract_z
 _atom_site_occupancy
  Li  Li0  1  0.98948100  0.16790400  0.25034500  1
  Li  Li1  1  0.87429600  0.37339900  0.37478700  1
  Li  Li2  1  0.75217900  0.24899800  0.99939900  1
  Li  Li3  1  0.74317400  0.92106500  0.99980100  1
  Li  Li4  1  0.99036200  0.16882900  0.74999000  1
  Li  Li5  1  0.75613700  0.58029500  0.49964300  1
  Li  Li6  1  0.87567700  0.37349400  0.87511600  1
  Li  Li7  1  0.75541100  0.24843400  0.49971900  1
  Li  Li8  1  0.74312700  0.92043600  0.49964900  1
  Li  Li9  1  0.62492400  0.12504300  0.12494100  1
  Li  Li10  1  0.75735300  0.58013700  0.99954700  1
  Li  Li11  1  0.50930300  0.33168200  0.25008900  1
  Li  Li12  1  0.62640600  0.12524100  0.62478800  1
  Li  Li13  1  0.50340500  0.99996700  0.25002700  1
  Li  Li14  1  0.48968600  0.66751100  0.24940500  1
  Li  Li15  1  0.50533000  0.33186400  0.74994700  1
  Li  Li16  1  0.37360500  0.87548900  0.37520600  1
  Li  Li17  1  0.50564200  0.99809500  0.75064400  1
  Li  Li18  1  0.25138100  0.74930400  0.00035600  1
  Li  Li19  1  0.48954500  0.66900700  0.74974900  1
  Li  Li20  1  0.24261500  0.42067300  0.00050600  1
  Li  Li21  1  0.37604100  0.87559600  0.87487900  1
  Li  Li22  1  0.25218100  0.07971800  0.49985200  1
  Li  Li23  1  0.25149800  0.75004200  0.50015500  1
  Li  Li24  1  0.12487300  0.62505600  0.12503200  1
  Li  Li25  1  0.24281800  0.42060000  0.50076200  1
  Li  Li26  1  0.00879700  0.83268200  0.25060600  1
  Li  Li27  1  0.25370400  0.07960800  0.99948600  1
  Li  Li28  1  0.12576200  0.62385200  0.62523500  1
  Li  Li29  1  0.99953200  0.50029100  0.25018600  1
  Li  Li30  1  0.00788000  0.83291400  0.75053900  1
  Li  Li31  1  0.00229600  0.49901100  0.74946400  1
  Ti  Ti32  1  0.87919800  0.71113200  0.37687100  1
  Ti  Ti33  1  0.86837100  0.70961700  0.87331600  1
  Ti  Ti34  1  0.62683500  0.79107600  0.12492300  1
  Ti  Ti35  1  0.62409300  0.45852700  0.12481400  1
  Ti  Ti36  1  0.62278400  0.79131800  0.62518300  1
  Ti  Ti37  1  0.62675900  0.45855900  0.62667500  1
  Ti  Ti38  1  0.37967800  0.54116800  0.37467300  1
  Ti  Ti39  1  0.37163700  0.20775900  0.37345100  1
  Ti  Ti40  1  0.37263100  0.54130000  0.87516900  1
  Ti  Ti41  1  0.37542900  0.20889100  0.87661600  1
  Ti  Ti42  1  0.12418900  0.95882800  0.12504100  1
  Ti  Ti43  1  0.12657700  0.29107800  0.12506300  1
  Ti  Ti44  1  0.11864500  0.95955500  0.62343900  1
  Cr  Cr45  1  0.87088700  0.04044200  0.37513400  1
  Cr  Cr46  1  0.88030400  0.04056500  0.87468400  1
  Cr  Cr47  1  0.13130800  0.29010300  0.62493000  1
  O  O48  1  0.96264500  0.10653700  0.06850100  1
  O  O49  1  0.92897000  0.78475500  0.06826500  1
  O  O50  1  0.92777900  0.42734400  0.06723700  1
  O  O51  1  0.96027700  0.10582000  0.56841700  1
  O  O52  1  0.82133600  0.96544600  0.18159800  1
  O  O53  1  0.82233500  0.32272000  0.18274100  1
  O  O54  1  0.92964700  0.78532600  0.56833400  1
  O  O55  1  0.93027600  0.42459500  0.56821100  1
  O  O56  1  0.78694900  0.64366700  0.18163400  1
  O  O57  1  0.71489200  0.86237000  0.31932800  1
  O  O58  1  0.82153900  0.96564200  0.68167200  1
  O  O59  1  0.82536100  0.32062400  0.68193600  1
  O  O60  1  0.67747100  0.53598500  0.31830500  1
  O  O61  1  0.67440300  0.17846100  0.31714900  1
  O  O62  1  0.78632400  0.64296900  0.68187100  1
  O  O63  1  0.71010700  0.85606600  0.81828800  1
  O  O64  1  0.46262000  0.60652000  0.06836800  1
  O  O65  1  0.57088600  0.71581800  0.43161800  1
  O  O66  1  0.58094600  0.07099100  0.43203700  1
  O  O67  1  0.67911600  0.53530100  0.81816900  1
  O  O68  1  0.68014300  0.17494600  0.81811700  1
  O  O69  1  0.42740300  0.92730700  0.06712000  1
  O  O70  1  0.42863900  0.28456900  0.06834300  1
  O  O71  1  0.53459900  0.39293000  0.43189700  1
  O  O72  1  0.46520000  0.60596500  0.56829100  1
  O  O73  1  0.57164000  0.71554300  0.93162900  1
  O  O74  1  0.57584200  0.07062800  0.93176100  1
  O  O75  1  0.32277900  0.82282000  0.18288100  1
  O  O76  1  0.32142200  0.46547000  0.18164200  1
  O  O77  1  0.42800000  0.92772700  0.56724100  1
  O  O78  1  0.42017800  0.28333000  0.56885000  1
  O  O79  1  0.53652300  0.39307600  0.93189700  1
  O  O80  1  0.28724300  0.14337200  0.18167700  1
  O  O81  1  0.21332300  0.35618500  0.31815800  1
  O  O82  1  0.32367700  0.82423500  0.68288500  1
  O  O83  1  0.32406300  0.46598500  0.68159200  1
  O  O84  1  0.17705400  0.67747800  0.31720600  1
  O  O85  1  0.17434600  0.03315900  0.31932900  1
  O  O86  1  0.28481600  0.14851900  0.68108000  1
  O  O87  1  0.21507400  0.35603600  0.81845800  1
  O  O88  1  0.07136500  0.57340000  0.43297200  1
  O  O89  1  0.06829400  0.21210100  0.43054800  1
  O  O90  1  0.17784400  0.67766700  0.81719800  1
  O  O91  1  0.17096800  0.03341000  0.81882700  1
  O  O92  1  0.04018800  0.89252400  0.43185400  1
  O  O93  1  0.07320500  0.57422000  0.93278000  1
  O  O94  1  0.07349800  0.21578500  0.93148600  1
  O  O95  1  0.03505800  0.89850500  0.93077000  1
