# generated using pymatgen
data_Li2SnBO4
_symmetry_space_group_name_H-M   'P 1'
_cell_length_a   5.12016800
_cell_length_b   7.48739200
_cell_length_c   10.27098194
_cell_angle_alpha   81.65585018
_cell_angle_beta   90.00000000
_cell_angle_gamma   90.00000000
_symmetry_Int_Tables_number   1
_chemical_formula_structural   Li2SnBO4
_chemical_formula_sum   'Li8 Sn4 B4 O16'
_cell_volume   389.58740961
_cell_formula_units_Z   4
loop_
 _symmetry_equiv_pos_site_id
 _symmetry_equiv_pos_as_xyz
  1  'x, y, z'
loop_
 _atom_site_type_symbol
 _atom_site_label
 _atom_site_symmetry_multiplicity
 _atom_site_fract_x
 _atom_site_fract_y
 _atom_site_fract_z
 _atom_site_occupancy
  Li  Li0  1  0.65566700  0.90706700  0.79577300  1
  Li  Li1  1  0.84433300  0.90706700  0.29577300  1
  Li  Li2  1  0.82728100  0.80559100  0.57617800  1
  Li  Li3  1  0.67271900  0.80559100  0.07617800  1
  Li  Li4  1  0.32728100  0.19440900  0.92382200  1
  Li  Li5  1  0.17271900  0.19440900  0.42382200  1
  Li  Li6  1  0.15566700  0.09293300  0.70422700  1
  Li  Li7  1  0.34433300  0.09293300  0.20422700  1
  Sn  Sn8  1  0.87961300  0.50350700  0.87723100  1
  Sn  Sn9  1  0.37961300  0.49649300  0.62276900  1
  Sn  Sn10  1  0.62038700  0.50350700  0.37723100  1
  Sn  Sn11  1  0.12038700  0.49649300  0.12276900  1
  B  B12  1  0.18604000  0.83638400  0.93770100  1
  B  B13  1  0.31396000  0.83638400  0.43770100  1
  B  B14  1  0.68604000  0.16361600  0.56229900  1
  B  B15  1  0.81396000  0.16361600  0.06229900  1
  O  O16  1  0.31758600  0.96574300  0.85859600  1
  O  O17  1  0.18241400  0.96574300  0.35859600  1
  O  O18  1  0.91942400  0.80080300  0.92103600  1
  O  O19  1  0.58057600  0.80080300  0.42103600  1
  O  O20  1  0.17560700  0.72734900  0.54060500  1
  O  O21  1  0.65417700  0.61881100  0.72792000  1
  O  O22  1  0.32439300  0.72734900  0.04060500  1
  O  O23  1  0.84582300  0.61881100  0.22792000  1
  O  O24  1  0.15417700  0.38118900  0.77208000  1
  O  O25  1  0.67560700  0.27265100  0.95939500  1
  O  O26  1  0.34582300  0.38118900  0.27208000  1
  O  O27  1  0.82439300  0.27265100  0.45939500  1
  O  O28  1  0.41942400  0.19919700  0.57896400  1
  O  O29  1  0.08057600  0.19919700  0.07896400  1
  O  O30  1  0.81758600  0.03425700  0.64140400  1
  O  O31  1  0.68241400  0.03425700  0.14140400  1
