# generated using pymatgen
data_CsKNaLi13(SiO4)4
_symmetry_space_group_name_H-M   'P 1'
_cell_length_a   8.62869310
_cell_length_b   8.62869310
_cell_length_c   15.98123422
_cell_angle_alpha   89.58392737
_cell_angle_beta   89.58392737
_cell_angle_gamma   44.01761345
_symmetry_Int_Tables_number   1
_chemical_formula_structural   CsKNaLi13(SiO4)4
_chemical_formula_sum   'Cs2 K2 Na2 Li26 Si8 O32'
_cell_volume   826.79248706
_cell_formula_units_Z   2
loop_
 _symmetry_equiv_pos_site_id
 _symmetry_equiv_pos_as_xyz
  1  'x, y, z'
loop_
 _atom_site_type_symbol
 _atom_site_label
 _atom_site_symmetry_multiplicity
 _atom_site_fract_x
 _atom_site_fract_y
 _atom_site_fract_z
 _atom_site_occupancy
  Cs  Cs0  1  0.25116000  0.25116000  0.74941200  1
  Cs  Cs1  1  0.74884000  0.74884000  0.25058800  1
  K  K2  1  0.75100200  0.75100200  0.74949400  1
  K  K3  1  0.24899800  0.24899800  0.25050600  1
  Na  Na4  1  0.24836800  0.75163200  0.50000000  1
  Na  Na5  1  0.75163200  0.24836800  0.50000000  1
  Li  Li6  1  0.32924400  0.83062100  0.81903000  1
  Li  Li7  1  0.42489700  0.42489700  0.84637600  1
  Li  Li8  1  0.83371200  0.32883900  0.31345800  1
  Li  Li9  1  0.57181800  0.06499000  0.92160600  1
  Li  Li10  1  0.93501000  0.42818200  0.07839400  1
  Li  Li11  1  0.83062100  0.32924400  0.81903000  1
  Li  Li12  1  0.92536100  0.92536100  0.34514700  1
  Li  Li13  1  0.84400200  0.84400200  0.07572000  1
  Li  Li14  1  0.00000000  0.00000000  0.00000000  1
  Li  Li15  1  0.15599800  0.15599800  0.92428000  1
  Li  Li16  1  0.07203700  0.56122900  0.41787400  1
  Li  Li17  1  0.43877100  0.92796300  0.58212600  1
  Li  Li18  1  0.32883900  0.83371200  0.31345800  1
  Li  Li19  1  0.16937900  0.67075600  0.18097000  1
  Li  Li20  1  0.06499000  0.57181800  0.92160600  1
  Li  Li21  1  0.42818200  0.93501000  0.07839400  1
  Li  Li22  1  0.34816900  0.34816900  0.57405000  1
  Li  Li23  1  0.65183100  0.65183100  0.42595000  1
  Li  Li24  1  0.57510300  0.57510300  0.15362400  1
  Li  Li25  1  0.50000000  0.50000000  0.00000000  1
  Li  Li26  1  0.67116100  0.16628800  0.68654200  1
  Li  Li27  1  0.56122900  0.07203700  0.41787400  1
  Li  Li28  1  0.92796300  0.43877100  0.58212600  1
  Li  Li29  1  0.67075600  0.16937900  0.18097000  1
  Li  Li30  1  0.07463900  0.07463900  0.65485300  1
  Li  Li31  1  0.16628800  0.67116100  0.68654200  1
  Si  Si32  1  0.68716700  0.68716700  0.93962400  1
  Si  Si33  1  0.18649200  0.18649200  0.44198400  1
  Si  Si34  1  0.06077700  0.06077700  0.18558800  1
  Si  Si35  1  0.93922300  0.93922300  0.81441200  1
  Si  Si36  1  0.56009000  0.56009000  0.68937700  1
  Si  Si37  1  0.43991000  0.43991000  0.31062300  1
  Si  Si38  1  0.31283300  0.31283300  0.06037600  1
  Si  Si39  1  0.81350800  0.81350800  0.55801600  1
  O  O40  1  0.46464200  0.89539200  0.88304000  1
  O  O41  1  0.61892200  0.61892200  0.02042200  1
  O  O42  1  0.52573300  0.52573300  0.78766400  1
  O  O43  1  0.96295300  0.39162200  0.38480200  1
  O  O44  1  0.90562000  0.33107200  0.17637900  1
  O  O45  1  0.89539200  0.46464200  0.88304000  1
  O  O46  1  0.66892800  0.09438000  0.82362100  1
  O  O47  1  0.12110100  0.12110100  0.52467700  1
  O  O48  1  0.02399100  0.02399100  0.28221400  1
  O  O49  1  0.98018200  0.98018200  0.11818200  1
  O  O50  1  0.78320800  0.78320800  0.97737800  1
  O  O51  1  0.21679200  0.21679200  0.02262200  1
  O  O52  1  0.01981800  0.01981800  0.88181800  1
  O  O53  1  0.40381500  0.83190100  0.67799800  1
  O  O54  1  0.39162200  0.96295300  0.38480200  1
  O  O55  1  0.16809900  0.59618500  0.32200200  1
  O  O56  1  0.33107200  0.90562000  0.17637900  1
  O  O57  1  0.10460800  0.53535800  0.11696000  1
  O  O58  1  0.09438000  0.66892800  0.82362100  1
  O  O59  1  0.47831700  0.47831700  0.62409900  1
  O  O60  1  0.28402400  0.28402400  0.47562000  1
  O  O61  1  0.71597600  0.71597600  0.52438000  1
  O  O62  1  0.52168300  0.52168300  0.37590100  1
  O  O63  1  0.47426700  0.47426700  0.21233600  1
  O  O64  1  0.38107800  0.38107800  0.97957800  1
  O  O65  1  0.83190100  0.40381500  0.67799800  1
  O  O66  1  0.60837800  0.03704700  0.61519800  1
  O  O67  1  0.59618500  0.16809900  0.32200200  1
  O  O68  1  0.53535800  0.10460800  0.11696000  1
  O  O69  1  0.97600900  0.97600900  0.71778600  1
  O  O70  1  0.87889900  0.87889900  0.47532300  1
  O  O71  1  0.03704700  0.60837800  0.61519800  1
