# generated using pymatgen
data_LiMn2OF5
_symmetry_space_group_name_H-M   'P 1'
_cell_length_a   4.64627693
_cell_length_b   4.64627693
_cell_length_c   18.92967835
_cell_angle_alpha   88.30652535
_cell_angle_beta   88.30652535
_cell_angle_gamma   89.84719558
_symmetry_Int_Tables_number   1
_chemical_formula_structural   LiMn2OF5
_chemical_formula_sum   'Li4 Mn8 O4 F20'
_cell_volume   408.29424822
_cell_formula_units_Z   4
loop_
 _symmetry_equiv_pos_site_id
 _symmetry_equiv_pos_as_xyz
  1  'x, y, z'
loop_
 _atom_site_type_symbol
 _atom_site_label
 _atom_site_symmetry_multiplicity
 _atom_site_fract_x
 _atom_site_fract_y
 _atom_site_fract_z
 _atom_site_occupancy
  Li  Li0  1  0.99351900  0.00806100  0.99728800  1
  Li  Li1  1  0.00806100  0.99351900  0.49728800  1
  Li  Li2  1  0.49785400  0.48778900  0.24746700  1
  Li  Li3  1  0.48778900  0.49785400  0.74746700  1
  Mn  Mn4  1  0.01675800  0.97504900  0.16485800  1
  Mn  Mn5  1  0.98666500  0.98002200  0.33584600  1
  Mn  Mn6  1  0.97504900  0.01675800  0.66485800  1
  Mn  Mn7  1  0.98002200  0.98666500  0.83584600  1
  Mn  Mn8  1  0.48375700  0.52009900  0.08611600  1
  Mn  Mn9  1  0.52251500  0.51339800  0.41556400  1
  Mn  Mn10  1  0.51339800  0.52251500  0.91556400  1
  Mn  Mn11  1  0.52009900  0.48375700  0.58611600  1
  O  O12  1  0.80270300  0.79656700  0.41221900  1
  O  O13  1  0.79656700  0.80270300  0.91221900  1
  O  O14  1  0.69041900  0.29748300  0.66189500  1
  O  O15  1  0.29748300  0.69041900  0.16189500  1
  F  F16  1  0.79557600  0.80017900  0.08221400  1
  F  F17  1  0.80017900  0.79557600  0.58221400  1
  F  F18  1  0.81130900  0.78497300  0.24717400  1
  F  F19  1  0.78497300  0.81130900  0.74717400  1
  F  F20  1  0.68620600  0.32475500  0.00825800  1
  F  F21  1  0.71098000  0.30208300  0.49684600  1
  F  F22  1  0.71857100  0.27252400  0.16577800  1
  F  F23  1  0.70029900  0.30564600  0.83597300  1
  F  F24  1  0.70725300  0.29290500  0.33263900  1
  F  F25  1  0.29290500  0.70725300  0.83263900  1
  F  F26  1  0.30564600  0.70029900  0.33597300  1
  F  F27  1  0.27252400  0.71857100  0.66577800  1
  F  F28  1  0.30208300  0.71098000  0.99684600  1
  F  F29  1  0.32475500  0.68620600  0.50825800  1
  F  F30  1  0.19211400  0.17684500  0.25718800  1
  F  F31  1  0.17684500  0.19211400  0.75718800  1
  F  F32  1  0.22589300  0.21630400  0.41679300  1
  F  F33  1  0.21630400  0.22589300  0.91679300  1
  F  F34  1  0.19981000  0.20312200  0.58588300  1
  F  F35  1  0.20312200  0.19981000  0.08588300  1
