# generated using pymatgen
data_Li2CoSiO4
_symmetry_space_group_name_H-M   'P 1'
_cell_length_a   5.03078200
_cell_length_b   6.30329800
_cell_length_c   10.82277300
_cell_angle_alpha   90.00000000
_cell_angle_beta   90.00000000
_cell_angle_gamma   90.00000000
_symmetry_Int_Tables_number   1
_chemical_formula_structural   Li2CoSiO4
_chemical_formula_sum   'Li8 Co4 Si4 O16'
_cell_volume   343.19573931
_cell_formula_units_Z   4
loop_
 _symmetry_equiv_pos_site_id
 _symmetry_equiv_pos_as_xyz
  1  'x, y, z'
loop_
 _atom_site_type_symbol
 _atom_site_label
 _atom_site_symmetry_multiplicity
 _atom_site_fract_x
 _atom_site_fract_y
 _atom_site_fract_z
 _atom_site_occupancy
  Li  Li0  1  0.69475300  0.86753600  0.09170000  1
  Li  Li1  1  0.19119600  0.11565900  0.17143700  1
  Li  Li2  1  0.69119600  0.61565900  0.32856300  1
  Li  Li3  1  0.19475300  0.36753600  0.40830000  1
  Li  Li4  1  0.80524700  0.86753600  0.59170000  1
  Li  Li5  1  0.30880400  0.11565900  0.67143700  1
  Li  Li6  1  0.80880400  0.61565900  0.82856300  1
  Li  Li7  1  0.30524700  0.36753600  0.90830000  1
  Co  Co8  1  0.19525700  0.86116800  0.41235500  1
  Co  Co9  1  0.30474300  0.86116800  0.91235500  1
  Co  Co10  1  0.69525700  0.36116800  0.08764500  1
  Co  Co11  1  0.80474300  0.36116800  0.58764500  1
  Si  Si12  1  0.18442900  0.61492400  0.16362200  1
  Si  Si13  1  0.68442900  0.11492400  0.33637800  1
  Si  Si14  1  0.31557100  0.61492400  0.66362200  1
  Si  Si15  1  0.81557100  0.11492400  0.83637800  1
  O  O16  1  0.29240900  0.83250900  0.09457400  1
  O  O17  1  0.28877500  0.39782800  0.09244100  1
  O  O18  1  0.85541100  0.61465800  0.16122400  1
  O  O19  1  0.79467100  0.11536700  0.19124300  1
  O  O20  1  0.29467100  0.61536700  0.30875700  1
  O  O21  1  0.35541100  0.11465800  0.33877600  1
  O  O22  1  0.78877500  0.89782800  0.40755900  1
  O  O23  1  0.79240900  0.33250900  0.40542600  1
  O  O24  1  0.20759100  0.83250900  0.59457400  1
  O  O25  1  0.21122500  0.39782800  0.59244100  1
  O  O26  1  0.64458900  0.61465800  0.66122400  1
  O  O27  1  0.70532900  0.11536700  0.69124300  1
  O  O28  1  0.20532900  0.61536700  0.80875700  1
  O  O29  1  0.14458900  0.11465800  0.83877600  1
  O  O30  1  0.71122500  0.89782800  0.90755900  1
  O  O31  1  0.70759100  0.33250900  0.90542600  1
