# generated using pymatgen
data_Li2MnF5
_symmetry_space_group_name_H-M   'P 1'
_cell_length_a   5.13619800
_cell_length_b   7.41645000
_cell_length_c   9.92916874
_cell_angle_alpha   70.28427604
_cell_angle_beta   90.00000000
_cell_angle_gamma   90.00000000
_symmetry_Int_Tables_number   1
_chemical_formula_structural   Li2MnF5
_chemical_formula_sum   'Li8 Mn4 F20'
_cell_volume   356.05309565
_cell_formula_units_Z   4
loop_
 _symmetry_equiv_pos_site_id
 _symmetry_equiv_pos_as_xyz
  1  'x, y, z'
loop_
 _atom_site_type_symbol
 _atom_site_label
 _atom_site_symmetry_multiplicity
 _atom_site_fract_x
 _atom_site_fract_y
 _atom_site_fract_z
 _atom_site_occupancy
  Li  Li0  1  0.74476900  0.47200400  0.25458500  1
  Li  Li1  1  0.75523100  0.97200400  0.25458500  1
  Li  Li2  1  0.30152200  0.37717800  0.51927800  1
  Li  Li3  1  0.80152200  0.12282200  0.48072200  1
  Li  Li4  1  0.19847800  0.87717800  0.51927800  1
  Li  Li5  1  0.69847800  0.62282200  0.48072200  1
  Li  Li6  1  0.24476900  0.02799600  0.74541500  1
  Li  Li7  1  0.25523100  0.52799600  0.74541500  1
  Mn  Mn8  1  0.24477900  0.21423100  0.14317200  1
  Mn  Mn9  1  0.25522100  0.71423100  0.14317200  1
  Mn  Mn10  1  0.74477900  0.28576900  0.85682800  1
  Mn  Mn11  1  0.75522100  0.78576900  0.85682800  1
  F  F12  1  0.57596500  0.16699500  0.03546200  1
  F  F13  1  0.92403500  0.66699500  0.03546200  1
  F  F14  1  0.40904700  0.46141400  0.14317700  1
  F  F15  1  0.09095300  0.96141400  0.14317700  1
  F  F16  1  0.92683100  0.24119100  0.24400200  1
  F  F17  1  0.42109500  0.08195500  0.30808200  1
  F  F18  1  0.57316900  0.74119100  0.24400200  1
  F  F19  1  0.07890500  0.58195500  0.30808200  1
  F  F20  1  0.64293100  0.37113700  0.44695100  1
  F  F21  1  0.85706900  0.87113700  0.44695100  1
  F  F22  1  0.14293100  0.12886300  0.55304900  1
  F  F23  1  0.35706900  0.62886300  0.55304900  1
  F  F24  1  0.92109500  0.41804500  0.69191800  1
  F  F25  1  0.42683100  0.25880900  0.75599800  1
  F  F26  1  0.57890500  0.91804500  0.69191800  1
  F  F27  1  0.07316900  0.75880900  0.75599800  1
  F  F28  1  0.90904700  0.03858600  0.85682300  1
  F  F29  1  0.59095300  0.53858600  0.85682300  1
  F  F30  1  0.07596500  0.33300500  0.96453800  1
  F  F31  1  0.42403500  0.83300500  0.96453800  1
