# generated using pymatgen
data_Li2TiVO5
_symmetry_space_group_name_H-M   'P 1'
_cell_length_a   8.14415391
_cell_length_b   8.14415490
_cell_length_c   8.14415057
_cell_angle_alpha   71.31907481
_cell_angle_beta   111.06488443
_cell_angle_gamma   71.32039879
_symmetry_Int_Tables_number   1
_chemical_formula_structural   Li2TiVO5
_chemical_formula_sum   'Li8 Ti4 V4 O20'
_cell_volume   415.58855360
_cell_formula_units_Z   4
loop_
 _symmetry_equiv_pos_site_id
 _symmetry_equiv_pos_as_xyz
  1  'x, y, z'
loop_
 _atom_site_type_symbol
 _atom_site_label
 _atom_site_symmetry_multiplicity
 _atom_site_fract_x
 _atom_site_fract_y
 _atom_site_fract_z
 _atom_site_occupancy
  Li  Li0  1  0.00000200  0.00002900  0.99997300  1
  Li  Li1  1  0.49999800  0.99997100  0.50002700  1
  Li  Li2  1  0.75000100  0.49999900  0.75000000  1
  Li  Li3  1  0.24999900  0.50000100  0.25000000  1
  Li  Li4  1  0.00000200  0.49997100  0.50003100  1
  Li  Li5  1  0.49999800  0.50002900  0.99996800  1
  Li  Li6  1  0.24999900  0.00000100  0.75000000  1
  Li  Li7  1  0.75000100  0.99999900  0.25000000  1
  Ti  Ti8  1  0.00000500  0.74999600  0.75000000  1
  Ti  Ti9  1  0.49999500  0.75000500  0.25000000  1
  Ti  Ti10  1  0.49999500  0.25000400  0.74999900  1
  Ti  Ti11  1  0.00000500  0.24999400  0.25000000  1
  V  V12  1  0.80401000  0.25000200  0.55401000  1
  V  V13  1  0.69599200  0.74999600  0.94599400  1
  V  V14  1  0.30409200  0.24999900  0.05409100  1
  V  V15  1  0.19590700  0.75000100  0.44590800  1
  O  O16  1  0.12127200  0.25000000  0.87127200  1
  O  O17  1  0.62098900  0.25000000  0.37098900  1
  O  O18  1  0.37872900  0.75000000  0.62872900  1
  O  O19  1  0.87900900  0.75000000  0.12900900  1
  O  O20  1  0.77216800  0.74998700  0.74098200  1
  O  O21  1  0.27213500  0.74998300  0.24094600  1
  O  O22  1  0.22786600  0.53118700  0.97788300  1
  O  O23  1  0.72783200  0.53118700  0.47784500  1
  O  O24  1  0.00903100  0.96881400  0.75901900  1
  O  O25  1  0.50907200  0.96881300  0.25905400  1
  O  O26  1  0.99092900  0.75001700  0.52211700  1
  O  O27  1  0.49096900  0.75001200  0.02215500  1
  O  O28  1  0.50907100  0.24998300  0.97788300  1
  O  O29  1  0.00903100  0.24998800  0.47784400  1
  O  O30  1  0.49096900  0.03118500  0.74098100  1
  O  O31  1  0.99092900  0.03118800  0.24094600  1
  O  O32  1  0.27213400  0.46881200  0.52211700  1
  O  O33  1  0.77216700  0.46881400  0.02215500  1
  O  O34  1  0.72783200  0.25001300  0.75901800  1
  O  O35  1  0.22786600  0.25001800  0.25905400  1
