# generated using pymatgen
data_LiFe(PO3)4
_symmetry_space_group_name_H-M   'P 1'
_cell_length_a   8.12030900
_cell_length_b   9.51973800
_cell_length_c   13.04088700
_cell_angle_alpha   90.00000000
_cell_angle_beta   90.00000000
_cell_angle_gamma   90.00000000
_symmetry_Int_Tables_number   1
_chemical_formula_structural   LiFe(PO3)4
_chemical_formula_sum   'Li4 Fe4 P16 O48'
_cell_volume   1008.10248058
_cell_formula_units_Z   4
loop_
 _symmetry_equiv_pos_site_id
 _symmetry_equiv_pos_as_xyz
  1  'x, y, z'
loop_
 _atom_site_type_symbol
 _atom_site_label
 _atom_site_symmetry_multiplicity
 _atom_site_fract_x
 _atom_site_fract_y
 _atom_site_fract_z
 _atom_site_occupancy
  Li  Li0  1  0.57897700  0.25000000  0.00000000  1
  Li  Li1  1  0.42102300  0.75000000  0.00000000  1
  Li  Li2  1  0.07897700  0.25000000  0.50000000  1
  Li  Li3  1  0.92102300  0.75000000  0.50000000  1
  Fe  Fe4  1  0.01921600  0.75000000  0.00000000  1
  Fe  Fe5  1  0.98078400  0.25000000  0.00000000  1
  Fe  Fe6  1  0.48078400  0.25000000  0.50000000  1
  Fe  Fe7  1  0.51921600  0.75000000  0.50000000  1
  P  P8  1  0.17040100  0.49601600  0.13703300  1
  P  P9  1  0.82959900  0.99601600  0.13703300  1
  P  P10  1  0.45290000  0.00040200  0.14654100  1
  P  P11  1  0.54710000  0.50040200  0.14654100  1
  P  P12  1  0.04710000  0.50040200  0.35345900  1
  P  P13  1  0.95290000  0.00040200  0.35345900  1
  P  P14  1  0.32959900  0.99601600  0.36296700  1
  P  P15  1  0.67040100  0.49601600  0.36296700  1
  P  P16  1  0.32959900  0.50398400  0.63703300  1
  P  P17  1  0.67040100  0.00398400  0.63703300  1
  P  P18  1  0.04710000  0.99959800  0.64654100  1
  P  P19  1  0.95290000  0.49959800  0.64654100  1
  P  P20  1  0.45290000  0.49959800  0.85345900  1
  P  P21  1  0.54710000  0.99959800  0.85345900  1
  P  P22  1  0.17040100  0.00398400  0.86296700  1
  P  P23  1  0.82959900  0.50398400  0.86296700  1
  O  O24  1  0.16185400  0.61589000  0.05936700  1
  O  O25  1  0.83814600  0.11589000  0.05936700  1
  O  O26  1  0.56000400  0.62362300  0.07794600  1
  O  O27  1  0.43999600  0.12362300  0.07794600  1
  O  O28  1  0.91020500  0.86055900  0.09922500  1
  O  O29  1  0.08979500  0.36055900  0.09922500  1
  O  O30  1  0.63952600  0.36791600  0.13010700  1
  O  O31  1  0.36047400  0.86791600  0.13010700  1
  O  O32  1  0.35061900  0.45990100  0.16629900  1
  O  O33  1  0.64938100  0.95990100  0.16629900  1
  O  O34  1  0.08203000  0.55607700  0.23473300  1
  O  O35  1  0.91797000  0.05607700  0.23473300  1
  O  O36  1  0.41797000  0.05607700  0.26526700  1
  O  O37  1  0.58203000  0.55607700  0.26526700  1
  O  O38  1  0.14938100  0.95990100  0.33370100  1
  O  O39  1  0.85061900  0.45990100  0.33370100  1
  O  O40  1  0.13952600  0.36791600  0.36989300  1
  O  O41  1  0.86047400  0.86791600  0.36989300  1
  O  O42  1  0.58979500  0.36055900  0.40077500  1
  O  O43  1  0.41020500  0.86055900  0.40077500  1
  O  O44  1  0.06000400  0.62362300  0.42205400  1
  O  O45  1  0.93999600  0.12362300  0.42205400  1
  O  O46  1  0.66185400  0.61589000  0.44063300  1
  O  O47  1  0.33814600  0.11589000  0.44063300  1
  O  O48  1  0.33814600  0.38411000  0.55936700  1
  O  O49  1  0.66185400  0.88411000  0.55936700  1
  O  O50  1  0.06000400  0.87637700  0.57794600  1
  O  O51  1  0.93999600  0.37637700  0.57794600  1
  O  O52  1  0.41020500  0.63944100  0.59922500  1
  O  O53  1  0.58979500  0.13944100  0.59922500  1
  O  O54  1  0.13952600  0.13208400  0.63010700  1
  O  O55  1  0.86047400  0.63208400  0.63010700  1
  O  O56  1  0.14938100  0.54009900  0.66629900  1
  O  O57  1  0.85061900  0.04009900  0.66629900  1
  O  O58  1  0.41797000  0.44392300  0.73473300  1
  O  O59  1  0.58203000  0.94392300  0.73473300  1
  O  O60  1  0.08203000  0.94392300  0.76526700  1
  O  O61  1  0.91797000  0.44392300  0.76526700  1
  O  O62  1  0.35061900  0.04009900  0.83370100  1
  O  O63  1  0.64938100  0.54009900  0.83370100  1
  O  O64  1  0.36047400  0.63208400  0.86989300  1
  O  O65  1  0.63952600  0.13208400  0.86989300  1
  O  O66  1  0.08979500  0.13944100  0.90077500  1
  O  O67  1  0.91020500  0.63944100  0.90077500  1
  O  O68  1  0.43999600  0.37637700  0.92205400  1
  O  O69  1  0.56000400  0.87637700  0.92205400  1
  O  O70  1  0.16185400  0.88411000  0.94063300  1
  O  O71  1  0.83814600  0.38411000  0.94063300  1
