# generated using pymatgen
data_Li11V16O32
_symmetry_space_group_name_H-M   'P 1'
_cell_length_a   8.47793300
_cell_length_b   8.51546742
_cell_length_c   10.36969855
_cell_angle_alpha   113.54338780
_cell_angle_beta   113.57166521
_cell_angle_gamma   91.29810714
_symmetry_Int_Tables_number   1
_chemical_formula_structural   Li11V16O32
_chemical_formula_sum   'Li11 V16 O32'
_cell_volume   614.04527242
_cell_formula_units_Z   1
loop_
 _symmetry_equiv_pos_site_id
 _symmetry_equiv_pos_as_xyz
  1  'x, y, z'
loop_
 _atom_site_type_symbol
 _atom_site_label
 _atom_site_symmetry_multiplicity
 _atom_site_fract_x
 _atom_site_fract_y
 _atom_site_fract_z
 _atom_site_occupancy
  Li  Li0  1  0.61068600  0.91203000  0.28611300  1
  Li  Li1  1  0.42615300  0.93579800  0.61920600  1
  Li  Li2  1  0.68659300  0.66757200  0.11262800  1
  Li  Li3  1  0.71846700  0.84691900  0.81946600  1
  Li  Li4  1  0.05863000  0.56626800  0.38116000  1
  Li  Li5  1  0.87750100  0.60763600  0.74067800  1
  Li  Li6  1  0.14511300  0.26005600  0.17024700  1
  Li  Li7  1  0.76298400  0.26479400  0.50929800  1
  Li  Li8  1  0.38832600  0.11758900  0.26369700  1
  Li  Li9  1  0.12540400  0.37038000  0.74298800  1
  Li  Li10  1  0.27880000  0.27200100  0.95766100  1
  V  V11  1  0.25085300  0.74220500  0.99676500  1
  V  V12  1  0.01093500  0.99257800  0.50345100  1
  V  V13  1  0.11007200  0.86396600  0.24255900  1
  V  V14  1  0.75026500  0.74656400  0.49969100  1
  V  V15  1  0.37057000  0.62385000  0.25011800  1
  V  V16  1  0.12761300  0.87839100  0.75605100  1
  V  V17  1  0.98857800  0.49812300  0.99701800  1
  V  V18  1  0.37723400  0.62411100  0.75343600  1
  V  V19  1  0.74162800  0.25197200  0.99868400  1
  V  V20  1  0.48879200  0.50227300  0.49817500  1
  V  V21  1  0.62953200  0.37892700  0.25490400  1
  V  V22  1  0.24773700  0.24922800  0.50031400  1
  V  V23  1  0.87521100  0.12458500  0.25439700  1
  V  V24  1  0.61340800  0.36625500  0.74484200  1
  V  V25  1  0.50591000  0.00068800  0.00504500  1
  V  V26  1  0.86701700  0.12093500  0.74532600  1
  O  O27  1  0.88397000  0.88867600  0.26442000  1
  O  O28  1  0.00994300  0.71981800  0.99516600  1
  O  O29  1  0.77456700  0.99226700  0.50717100  1
  O  O30  1  0.34695400  0.85843100  0.22350800  1
  O  O31  1  0.88026900  0.86987700  0.73701600  1
  O  O32  1  0.23759300  0.51288700  0.00720200  1
  O  O33  1  0.00565700  0.77253900  0.51912100  1
  O  O34  1  0.12036300  0.62053500  0.23040600  1
  O  O35  1  0.37752200  0.87045600  0.77120100  1
  O  O36  1  0.27202300  0.98447600  0.99817900  1
  O  O37  1  0.49421600  0.72512400  0.48693100  1
  O  O38  1  0.61317500  0.62985800  0.26252900  1
  O  O39  1  0.72532400  0.50383000  0.49420900  1
  O  O40  1  0.38919700  0.38208200  0.26122600  1
  O  O41  1  0.48471800  0.75814000  0.99776800  1
  O  O42  1  0.13991400  0.64057000  0.77650200  1
  O  O43  1  0.27016800  0.50253800  0.51229300  1
  O  O44  1  0.86082200  0.35361600  0.23881800  1
  O  O45  1  0.61171400  0.60121700  0.73025500  1
  O  O46  1  0.51402100  0.23933800  0.01940000  1
  O  O47  1  0.48996700  0.26935200  0.50166200  1
  O  O48  1  0.62505500  0.12587900  0.24538700  1
  O  O49  1  0.36920000  0.38253300  0.73543600  1
  O  O50  1  0.73183300  0.01309700  0.01304400  1
  O  O51  1  0.75297900  0.48023200  0.98385300  1
  O  O52  1  0.00353800  0.22565700  0.49467400  1
  O  O53  1  0.12579900  0.11329000  0.26412500  1
  O  O54  1  0.86546900  0.37114300  0.75559400  1
  O  O55  1  0.63832100  0.13336300  0.76047100  1
  O  O56  1  0.22264800  0.99556300  0.48657400  1
  O  O57  1  0.98420700  0.26642900  0.98545100  1
  O  O58  1  0.10441300  0.11487900  0.73951000  1
