# generated using pymatgen
data_Li3V3P8O29
_symmetry_space_group_name_H-M   'P 1'
_cell_length_a   9.72882067
_cell_length_b   9.72882067
_cell_length_c   14.24013103
_cell_angle_alpha   89.40431423
_cell_angle_beta   89.40431423
_cell_angle_gamma   60.46814145
_symmetry_Int_Tables_number   1
_chemical_formula_structural   Li3V3P8O29
_chemical_formula_sum   'Li6 V6 P16 O58'
_cell_volume   1172.63539572
_cell_formula_units_Z   2
loop_
 _symmetry_equiv_pos_site_id
 _symmetry_equiv_pos_as_xyz
  1  'x, y, z'
loop_
 _atom_site_type_symbol
 _atom_site_label
 _atom_site_symmetry_multiplicity
 _atom_site_fract_x
 _atom_site_fract_y
 _atom_site_fract_z
 _atom_site_occupancy
  Li  Li0  1  0.09451400  0.66839400  0.05787000  1
  Li  Li1  1  0.33160600  0.90548600  0.44213000  1
  Li  Li2  1  0.66839400  0.09451400  0.55787000  1
  Li  Li3  1  0.90548600  0.33160600  0.94213000  1
  Li  Li4  1  0.00000000  0.00000000  0.00000000  1
  Li  Li5  1  0.00000000  0.00000000  0.50000000  1
  V  V6  1  0.43655300  0.00247400  0.23995900  1
  V  V7  1  0.56344700  0.99752600  0.76004100  1
  V  V8  1  0.43696000  0.56304000  0.75000000  1
  V  V9  1  0.56304000  0.43696000  0.25000000  1
  V  V10  1  0.99752600  0.56344700  0.26004100  1
  V  V11  1  0.00247400  0.43655300  0.73995900  1
  P  P12  1  0.08699500  0.68571800  0.84101500  1
  P  P13  1  0.22362100  0.69392900  0.34285700  1
  P  P14  1  0.08809900  0.21243800  0.33998800  1
  P  P15  1  0.32810200  0.34235200  0.13294200  1
  P  P16  1  0.34235200  0.32810200  0.63294200  1
  P  P17  1  0.21243800  0.08809900  0.83998800  1
  P  P18  1  0.31428200  0.91300500  0.65898500  1
  P  P19  1  0.69392900  0.22362100  0.84285700  1
  P  P20  1  0.30607100  0.77637900  0.15714300  1
  P  P21  1  0.68571800  0.08699500  0.34101500  1
  P  P22  1  0.78756200  0.91190100  0.16001200  1
  P  P23  1  0.65764800  0.67189800  0.36705800  1
  P  P24  1  0.67189800  0.65764800  0.86705800  1
  P  P25  1  0.91190100  0.78756200  0.66001200  1
  P  P26  1  0.77637900  0.30607100  0.65714300  1
  P  P27  1  0.91300500  0.31428200  0.15898500  1
  O  O28  1  0.99159500  0.80725600  0.57616000  1
  O  O29  1  0.08931900  0.65075200  0.33563500  1
  O  O30  1  0.20497300  0.79216400  0.07499200  1
  O  O31  1  0.26007700  0.65034700  0.82844700  1
  O  O32  1  0.08274300  0.53131700  0.82253400  1
  O  O33  1  0.17989900  0.48829900  0.17596100  1
  O  O34  1  0.08006100  0.37781500  0.32996400  1
  O  O35  1  0.97938800  0.23859800  0.06663700  1
  O  O36  1  0.08129200  0.26383500  0.83333500  1
  O  O37  1  0.34035700  0.47340200  0.68020000  1
  O  O38  1  0.38310700  0.54024400  0.33150600  1
  O  O39  1  0.18905800  0.33095300  0.67573300  1
  O  O40  1  0.32756900  0.34522700  0.02892300  1
  O  O41  1  0.34522700  0.32756900  0.52892300  1
  O  O42  1  0.33095300  0.18905800  0.17573300  1
  O  O43  1  0.54024400  0.38310700  0.83150600  1
  O  O44  1  0.47340200  0.34035700  0.18020000  1
  O  O45  1  0.26383500  0.08129200  0.33333500  1
  O  O46  1  0.19563700  0.01053800  0.74325400  1
  O  O47  1  0.23859800  0.97938800  0.56663700  1
  O  O48  1  0.19274400  0.00840500  0.92384000  1
  O  O49  1  0.37781500  0.08006100  0.82996400  1
  O  O50  1  0.48829900  0.17989900  0.67596100  1
  O  O51  1  0.34924800  0.91068100  0.16436500  1
  O  O52  1  0.53131700  0.08274300  0.32253400  1
  O  O53  1  0.65034700  0.26007700  0.32844700  1
  O  O54  1  0.20093100  0.79906900  0.25000000  1
  O  O55  1  0.20783600  0.79502700  0.42500800  1
  O  O56  1  0.79216400  0.20497300  0.57499200  1
  O  O57  1  0.34965300  0.73992300  0.67155300  1
  O  O58  1  0.46868300  0.91725700  0.67746600  1
  O  O59  1  0.65075200  0.08931900  0.83563500  1
  O  O60  1  0.51170100  0.82010100  0.32403900  1
  O  O61  1  0.62218500  0.91993900  0.17003600  1
  O  O62  1  0.80725600  0.99159500  0.07616000  1
  O  O63  1  0.76140200  0.02061200  0.43336300  1
  O  O64  1  0.80436300  0.98946200  0.25674600  1
  O  O65  1  0.73616500  0.91870800  0.66666500  1
  O  O66  1  0.52659800  0.65964300  0.81980000  1
  O  O67  1  0.45975600  0.61689300  0.16849400  1
  O  O68  1  0.66904700  0.81094200  0.82426700  1
  O  O69  1  0.67243100  0.65477300  0.97107700  1
  O  O70  1  0.65477300  0.67243100  0.47107700  1
  O  O71  1  0.81094200  0.66904700  0.32426700  1
  O  O72  1  0.61689300  0.45975600  0.66849400  1
  O  O73  1  0.65964300  0.52659800  0.31980000  1
  O  O74  1  0.91870800  0.73616500  0.16666500  1
  O  O75  1  0.98946200  0.80436300  0.75674600  1
  O  O76  1  0.02061200  0.76140200  0.93336300  1
  O  O77  1  0.91993900  0.62218500  0.67003600  1
  O  O78  1  0.82010100  0.51170100  0.82403900  1
  O  O79  1  0.91725700  0.46868300  0.17746600  1
  O  O80  1  0.73992300  0.34965300  0.17155300  1
  O  O81  1  0.79502700  0.20783600  0.92500800  1
  O  O82  1  0.79906900  0.20093100  0.75000000  1
  O  O83  1  0.91068100  0.34924800  0.66436500  1
  O  O84  1  0.00840500  0.19274400  0.42384000  1
  O  O85  1  0.01053800  0.19563700  0.24325400  1
