# generated using pymatgen
data_Li2Mn3(BO3)3
_symmetry_space_group_name_H-M   'P 1'
_cell_length_a   8.25148917
_cell_length_b   8.25148917
_cell_length_c   9.46723100
_cell_angle_alpha   90.00000000
_cell_angle_beta   90.00000000
_cell_angle_gamma   119.99999334
_symmetry_Int_Tables_number   1
_chemical_formula_structural   Li2Mn3(BO3)3
_chemical_formula_sum   'Li6 Mn9 B9 O27'
_cell_volume   558.23659459
_cell_formula_units_Z   3
loop_
 _symmetry_equiv_pos_site_id
 _symmetry_equiv_pos_as_xyz
  1  'x, y, z'
loop_
 _atom_site_type_symbol
 _atom_site_label
 _atom_site_symmetry_multiplicity
 _atom_site_fract_x
 _atom_site_fract_y
 _atom_site_fract_z
 _atom_site_occupancy
  Li  Li0  1  0.29739900  0.28759000  0.16739300  1
  Li  Li1  1  0.29381900  0.26788900  0.49940300  1
  Li  Li2  1  0.97407000  0.70618100  0.83273600  1
  Li  Li3  1  0.99019200  0.70260100  0.50072600  1
  Li  Li4  1  0.73211100  0.02593000  0.16606900  1
  Li  Li5  1  0.71241000  0.00980800  0.83405900  1
  Mn  Mn6  1  0.00571400  0.37087500  0.33551400  1
  Mn  Mn7  1  0.01611300  0.39616900  0.00172800  1
  Mn  Mn8  1  0.00354000  0.34625300  0.67015300  1
  Mn  Mn9  1  0.34271300  0.99646000  0.00348600  1
  Mn  Mn10  1  0.36516100  0.99428600  0.66884700  1
  Mn  Mn11  1  0.38005600  0.98388700  0.33506200  1
  Mn  Mn12  1  0.60383100  0.61994400  0.66839500  1
  Mn  Mn13  1  0.62912500  0.63483900  0.00218000  1
  Mn  Mn14  1  0.65374700  0.65728700  0.33681900  1
  B  B15  1  0.02342300  0.00580300  0.32750300  1
  B  B16  1  0.66143300  0.33368000  0.49895100  1
  B  B17  1  0.66632000  0.32775300  0.16561800  1
  B  B18  1  0.98238100  0.97657700  0.66083600  1
  B  B19  1  0.67224700  0.33856700  0.83228500  1
  B  B20  1  0.99419700  0.01761900  0.99417000  1
  B  B21  1  0.32142200  0.66386400  0.83782700  1
  B  B22  1  0.33613600  0.65755700  0.50449400  1
  B  B23  1  0.34244300  0.67857800  0.17116100  1
  O  O24  1  0.18432900  0.11793700  0.01436000  1
  O  O25  1  0.17285200  0.07592600  0.64069700  1
  O  O26  1  0.22040500  0.11187500  0.32884500  1
  O  O27  1  0.57736900  0.44389200  0.50944000  1
  O  O28  1  0.58781100  0.44072100  0.16910200  1
  O  O29  1  0.59822000  0.45726300  0.82083100  1
  O  O30  1  0.54273700  0.14095700  0.48749800  1
  O  O31  1  0.55610800  0.13347700  0.17610700  1
  O  O32  1  0.55927900  0.14709000  0.83576900  1
  O  O33  1  0.90307400  0.82714800  0.97403000  1
  O  O34  1  0.93360800  0.81567100  0.34769300  1
  O  O35  1  0.89147000  0.77959500  0.66217800  1
  O  O36  1  0.85291000  0.41218900  0.50243500  1
  O  O37  1  0.85904300  0.40178000  0.15416500  1
  O  O38  1  0.86652300  0.42263100  0.84277300  1
  O  O39  1  0.88812500  0.10853000  0.99551100  1
  O  O40  1  0.88206300  0.06639200  0.68102600  1
  O  O41  1  0.92407400  0.09692600  0.30736400  1
  O  O42  1  0.25019800  0.78409700  0.83995200  1
  O  O43  1  0.26643200  0.78032700  0.48844900  1
  O  O44  1  0.26734700  0.79543300  0.18571100  1
  O  O45  1  0.20456700  0.47191400  0.85237800  1
  O  O46  1  0.21590300  0.46610000  0.50661900  1
  O  O47  1  0.21967300  0.48610500  0.15511500  1
  O  O48  1  0.51389500  0.73356800  0.82178200  1
  O  O49  1  0.52808600  0.73265300  0.51904400  1
  O  O50  1  0.53390000  0.74980200  0.17328600  1
