# generated using pymatgen
data_LiCr(PO3)3
_symmetry_space_group_name_H-M   'P 1'
_cell_length_a   8.41278000
_cell_length_b   8.75550100
_cell_length_c   9.06685600
_cell_angle_alpha   90.00000000
_cell_angle_beta   90.00000000
_cell_angle_gamma   90.00000000
_symmetry_Int_Tables_number   1
_chemical_formula_structural   LiCr(PO3)3
_chemical_formula_sum   'Li4 Cr4 P12 O36'
_cell_volume   667.84741951
_cell_formula_units_Z   4
loop_
 _symmetry_equiv_pos_site_id
 _symmetry_equiv_pos_as_xyz
  1  'x, y, z'
loop_
 _atom_site_type_symbol
 _atom_site_label
 _atom_site_symmetry_multiplicity
 _atom_site_fract_x
 _atom_site_fract_y
 _atom_site_fract_z
 _atom_site_occupancy
  Li  Li0  1  0.15468500  0.13353600  0.38222800  1
  Li  Li1  1  0.34531500  0.86646400  0.88222800  1
  Li  Li2  1  0.65468500  0.36646400  0.61777200  1
  Li  Li3  1  0.84531500  0.63353600  0.11777200  1
  Cr  Cr4  1  0.12942400  0.85401600  0.16207700  1
  Cr  Cr5  1  0.37057600  0.14598400  0.66207700  1
  Cr  Cr6  1  0.62942400  0.64598400  0.83792300  1
  Cr  Cr7  1  0.87057600  0.35401600  0.33792300  1
  P  P8  1  0.02916400  0.32181300  0.68543100  1
  P  P9  1  0.18636000  0.47796700  0.18880200  1
  P  P10  1  0.20082300  0.80778700  0.56487500  1
  P  P11  1  0.29917700  0.19221300  0.06487500  1
  P  P12  1  0.31364000  0.52203300  0.68880200  1
  P  P13  1  0.47083600  0.67818700  0.18543100  1
  P  P14  1  0.52916400  0.17818700  0.31456900  1
  P  P15  1  0.68636000  0.02203300  0.81119800  1
  P  P16  1  0.70082300  0.69221300  0.43512500  1
  P  P17  1  0.79917700  0.30778700  0.93512500  1
  P  P18  1  0.81364000  0.97796700  0.31119800  1
  P  P19  1  0.97083600  0.82181300  0.81456900  1
  O  O20  1  0.03744000  0.77348000  0.65553800  1
  O  O21  1  0.08879800  0.60926100  0.13250300  1
  O  O22  1  0.10357100  0.87272200  0.91234700  1
  O  O23  1  0.11848200  0.38552200  0.31569700  1
  O  O24  1  0.13430200  0.19576300  0.62529600  1
  O  O25  1  0.14001700  0.46390300  0.73643600  1
  O  O26  1  0.15918600  0.85855700  0.41278400  1
  O  O27  1  0.18988300  0.09527900  0.15819900  1
  O  O28  1  0.22806800  0.36446100  0.05396000  1
  O  O29  1  0.27193200  0.63553900  0.55396000  1
  O  O30  1  0.31011700  0.90472100  0.65819900  1
  O  O31  1  0.34081400  0.14144300  0.91278400  1
  O  O32  1  0.35998300  0.53609700  0.23643600  1
  O  O33  1  0.36569800  0.80423700  0.12529600  1
  O  O34  1  0.38151800  0.61447800  0.81569700  1
  O  O35  1  0.39642900  0.12727800  0.41234700  1
  O  O36  1  0.41120200  0.39073900  0.63250300  1
  O  O37  1  0.46256000  0.22652000  0.15553800  1
  O  O38  1  0.53744000  0.72652000  0.34446200  1
  O  O39  1  0.58879800  0.89073900  0.86749700  1
  O  O40  1  0.60357100  0.62727800  0.08765300  1
  O  O41  1  0.61848200  0.11447800  0.68430300  1
  O  O42  1  0.63430200  0.30423700  0.37470400  1
  O  O43  1  0.64001700  0.03609700  0.26356400  1
  O  O44  1  0.65918600  0.64144300  0.58721600  1
  O  O45  1  0.68988300  0.40472100  0.84180100  1
  O  O46  1  0.72806800  0.13553900  0.94604000  1
  O  O47  1  0.77193200  0.86446100  0.44604000  1
  O  O48  1  0.81011700  0.59527900  0.34180100  1
  O  O49  1  0.84081400  0.35855700  0.08721600  1
  O  O50  1  0.85998300  0.96390300  0.76356400  1
  O  O51  1  0.86569800  0.69576300  0.87470400  1
  O  O52  1  0.88151800  0.88552200  0.18430300  1
  O  O53  1  0.89642900  0.37272200  0.58765300  1
  O  O54  1  0.91120200  0.10926100  0.36749700  1
  O  O55  1  0.96256000  0.27348000  0.84446200  1
