# generated using pymatgen
data_Li4V3(FeO6)2
_symmetry_space_group_name_H-M   'P 1'
_cell_length_a   9.23101000
_cell_length_b   8.93075900
_cell_length_c   15.30641312
_cell_angle_alpha   55.69211758
_cell_angle_beta   90.00000000
_cell_angle_gamma   90.00000000
_symmetry_Int_Tables_number   1
_chemical_formula_structural   Li4V3(FeO6)2
_chemical_formula_sum   'Li16 V12 Fe8 O48'
_cell_volume   1042.32219239
_cell_formula_units_Z   4
loop_
 _symmetry_equiv_pos_site_id
 _symmetry_equiv_pos_as_xyz
  1  'x, y, z'
loop_
 _atom_site_type_symbol
 _atom_site_label
 _atom_site_symmetry_multiplicity
 _atom_site_fract_x
 _atom_site_fract_y
 _atom_site_fract_z
 _atom_site_occupancy
  Li  Li0  1  0.91649100  0.13078300  0.80265600  1
  Li  Li1  1  0.48764900  0.77791600  0.15262800  1
  Li  Li2  1  0.34039800  0.38224700  0.51867400  1
  Li  Li3  1  0.22895400  0.50081100  0.30722900  1
  Li  Li4  1  0.72895400  0.49918900  0.19277100  1
  Li  Li5  1  0.84039800  0.61775300  0.98132600  1
  Li  Li6  1  0.98764900  0.22208400  0.34737200  1
  Li  Li7  1  0.41649100  0.86921700  0.69734400  1
  Li  Li8  1  0.58350900  0.13078300  0.30265600  1
  Li  Li9  1  0.01235100  0.77791600  0.65262800  1
  Li  Li10  1  0.15960200  0.38224700  0.01867400  1
  Li  Li11  1  0.27104600  0.50081100  0.80722900  1
  Li  Li12  1  0.77104600  0.49918900  0.69277100  1
  Li  Li13  1  0.65960200  0.61775300  0.48132600  1
  Li  Li14  1  0.51235100  0.22208400  0.84737200  1
  Li  Li15  1  0.08350900  0.86921700  0.19734400  1
  V  V16  1  0.74996800  0.94715000  0.01091100  1
  V  V17  1  0.62368200  0.22673100  0.65666800  1
  V  V18  1  0.88771500  0.53064400  0.36131000  1
  V  V19  1  0.12368200  0.77326900  0.84333200  1
  V  V20  1  0.38771500  0.46935600  0.13869000  1
  V  V21  1  0.24996800  0.05285000  0.48908900  1
  V  V22  1  0.75003200  0.94715000  0.51091100  1
  V  V23  1  0.61228500  0.53064400  0.86131000  1
  V  V24  1  0.87631800  0.22673100  0.15666800  1
  V  V25  1  0.11228500  0.46935600  0.63869000  1
  V  V26  1  0.37631800  0.77326900  0.34333200  1
  V  V27  1  0.25003200  0.05285000  0.98908900  1
  Fe  Fe28  1  0.53591500  0.36930500  0.38217100  1
  Fe  Fe29  1  0.03591500  0.63069500  0.11782900  1
  Fe  Fe30  1  0.96408500  0.36930500  0.88217100  1
  Fe  Fe31  1  0.46408500  0.63069500  0.61782900  1
  Fe  Fe32  1  0.47838100  0.85942600  0.89181100  1
  Fe  Fe33  1  0.97838100  0.14057400  0.60818900  1
  Fe  Fe34  1  0.02161900  0.85942600  0.39181100  1
  Fe  Fe35  1  0.52161900  0.14057400  0.10818900  1
  O  O36  1  0.12039400  0.88907200  0.05602100  1
  O  O37  1  0.34291400  0.04986000  0.89038000  1
  O  O38  1  0.12816300  0.33823600  0.58686800  1
  O  O39  1  0.41526900  0.63244400  0.29993400  1
  O  O40  1  0.63090700  0.99694000  0.90815200  1
  O  O41  1  0.81344500  0.21095900  0.66183800  1
  O  O42  1  0.57035800  0.34949400  0.52567100  1
  O  O43  1  0.01815800  0.61835000  0.26167100  1
  O  O44  1  0.72109200  0.52212300  0.31186500  1
  O  O45  1  0.82015600  0.72676900  0.06539200  1
  O  O46  1  0.52791600  0.02210100  0.72951200  1
  O  O47  1  0.94269100  0.30460200  0.45210200  1
  O  O48  1  0.02791600  0.97789900  0.77048800  1
  O  O49  1  0.44269100  0.69539800  0.04789800  1
  O  O50  1  0.32015600  0.27323100  0.43460800  1
  O  O51  1  0.22109200  0.47787700  0.18813500  1
  O  O52  1  0.07035800  0.65050600  0.97432900  1
  O  O53  1  0.51815800  0.38165000  0.23832900  1
  O  O54  1  0.31344500  0.78904100  0.83816200  1
  O  O55  1  0.13090700  0.00306000  0.59184800  1
  O  O56  1  0.62816300  0.66176400  0.91313200  1
  O  O57  1  0.84291400  0.95014000  0.60962000  1
  O  O58  1  0.91526900  0.36755600  0.20006600  1
  O  O59  1  0.62039400  0.11092800  0.44397900  1
  O  O60  1  0.37960600  0.88907200  0.55602100  1
  O  O61  1  0.08473100  0.63244400  0.79993400  1
  O  O62  1  0.15708600  0.04986000  0.39038000  1
  O  O63  1  0.37183700  0.33823600  0.08686800  1
  O  O64  1  0.86909300  0.99694000  0.40815200  1
  O  O65  1  0.68655500  0.21095900  0.16183800  1
  O  O66  1  0.48184200  0.61835000  0.76167100  1
  O  O67  1  0.92964200  0.34949400  0.02567100  1
  O  O68  1  0.77890800  0.52212300  0.81186500  1
  O  O69  1  0.67984400  0.72676900  0.56539200  1
  O  O70  1  0.55730900  0.30460200  0.95210200  1
  O  O71  1  0.97208400  0.02210100  0.22951200  1
  O  O72  1  0.05730900  0.69539800  0.54789800  1
  O  O73  1  0.47208400  0.97789900  0.27048800  1
  O  O74  1  0.17984400  0.27323100  0.93460800  1
  O  O75  1  0.27890800  0.47787700  0.68813500  1
  O  O76  1  0.98184200  0.38165000  0.73832900  1
  O  O77  1  0.42964200  0.65050600  0.47432900  1
  O  O78  1  0.18655500  0.78904100  0.33816200  1
  O  O79  1  0.36909300  0.00306000  0.09184800  1
  O  O80  1  0.58473100  0.36755600  0.70006600  1
  O  O81  1  0.87183700  0.66176400  0.41313200  1
  O  O82  1  0.65708600  0.95014000  0.10962000  1
  O  O83  1  0.87960600  0.11092800  0.94397900  1
