# generated using pymatgen
data_Li3MgNiO4
_symmetry_space_group_name_H-M   'P 1'
_cell_length_a   10.20167422
_cell_length_b   10.20167422
_cell_length_c   10.20167422
_cell_angle_alpha   119.14771304
_cell_angle_beta   119.14771304
_cell_angle_gamma   91.48265421
_symmetry_Int_Tables_number   1
_chemical_formula_structural   Li3MgNiO4
_chemical_formula_sum   'Li24 Mg8 Ni8 O32'
_cell_volume   760.15298753
_cell_formula_units_Z   8
loop_
 _symmetry_equiv_pos_site_id
 _symmetry_equiv_pos_as_xyz
  1  'x, y, z'
loop_
 _atom_site_type_symbol
 _atom_site_label
 _atom_site_symmetry_multiplicity
 _atom_site_fract_x
 _atom_site_fract_y
 _atom_site_fract_z
 _atom_site_occupancy
  Li  Li0  1  0.80493600  0.13789400  0.32433900  1
  Li  Li1  1  0.31180400  0.65955800  0.33649300  1
  Li  Li2  1  0.51940300  0.19506400  0.33295800  1
  Li  Li3  1  0.02469000  0.68819600  0.34775400  1
  Li  Li4  1  0.28127600  0.94563400  0.34635900  1
  Li  Li5  1  0.59927500  0.93491700  0.65364100  1
  Li  Li6  1  0.34044200  0.67693500  0.65224600  1
  Li  Li7  1  0.86210600  0.18644500  0.66704200  1
  Li  Li8  1  0.06508300  0.71872400  0.66435800  1
  Li  Li9  1  0.69563400  0.84927500  0.16435800  1
  Li  Li10  1  0.32306500  0.97531000  0.66350700  1
  Li  Li11  1  0.81355500  0.48059700  0.67566100  1
  Li  Li12  1  0.93644500  0.76940300  0.82433900  1
  Li  Li13  1  0.42693500  0.27469000  0.83649300  1
  Li  Li14  1  0.68491700  0.53127600  0.83564200  1
  Li  Li15  1  0.05436600  0.40072500  0.33564200  1
  Li  Li16  1  0.88789400  0.06355500  0.83295800  1
  Li  Li17  1  0.40955800  0.57306500  0.84775400  1
  Li  Li18  1  0.15072500  0.31508300  0.84635900  1
  Li  Li19  1  0.46872400  0.30436600  0.15364100  1
  Li  Li20  1  0.72531000  0.56180400  0.15224600  1
  Li  Li21  1  0.23059700  0.05493600  0.16704200  1
  Li  Li22  1  0.43819600  0.59044200  0.16350700  1
  Li  Li23  1  0.94506400  0.11210600  0.17566100  1
  Mg  Mg24  1  0.55333700  0.89882300  0.32417200  1
  Mg  Mg25  1  0.77083500  0.44666300  0.34548600  1
  Mg  Mg26  1  0.64882300  0.82465100  0.84548600  1
  Mg  Mg27  1  0.57465100  0.22916500  0.67582800  1
  Mg  Mg28  1  0.17534900  0.02083500  0.82417200  1
  Mg  Mg29  1  0.97916500  0.80333700  0.15451400  1
  Mg  Mg30  1  0.10117700  0.42534900  0.65451400  1
  Mg  Mg31  1  0.19666300  0.35117700  0.17582800  1
  Ni  Ni32  1  0.80950500  0.81259200  0.49711600  1
  Ni  Ni33  1  0.68761100  0.19049500  0.00308700  1
  Ni  Ni34  1  0.56259200  0.56547500  0.50308700  1
  Ni  Ni35  1  0.43452500  0.93761100  0.99711600  1
  Ni  Ni36  1  0.31547500  0.31238900  0.50288400  1
  Ni  Ni37  1  0.18740800  0.68452500  0.99691300  1
  Ni  Ni38  1  0.06238900  0.05950500  0.49691300  1
  Ni  Ni39  1  0.94049500  0.43740800  0.00288400  1
  O  O40  1  0.65144500  0.73097300  0.25594000  1
  O  O41  1  0.59283800  0.01894000  0.23774800  1
  O  O42  1  0.72954700  0.65384300  0.75463800  1
  O  O43  1  0.35113100  0.77196500  0.24419800  1
  O  O44  1  0.72490900  0.97954700  0.57570400  1
  O  O45  1  0.48097300  0.72503300  0.57952800  1
  O  O46  1  0.85693300  0.60113100  0.07916500  1
  O  O47  1  0.52196500  0.77776700  0.92083500  1
  O  O48  1  0.64491000  0.40716200  0.42610200  1
  O  O49  1  0.76894000  0.03119300  0.92610200  1
  O  O50  1  0.14550400  0.90144500  0.42047200  1
  O  O51  1  0.40384300  0.14920500  0.42429600  1
  O  O52  1  0.52776700  0.10693300  0.75580200  1
  O  O53  1  0.89920500  0.97490900  0.24536200  1
  O  O54  1  0.78119300  0.35509000  0.76225200  1
  O  O55  1  0.27496700  0.85449600  0.75594000  1
  O  O56  1  0.47503300  0.39550400  0.74406000  1
  O  O57  1  0.96880700  0.89491000  0.73774800  1
  O  O58  1  0.85079500  0.27509100  0.25463800  1
  O  O59  1  0.22223300  0.14306700  0.74419800  1
  O  O60  1  0.34615700  0.10079500  0.07570400  1
  O  O61  1  0.60449600  0.34855500  0.07952800  1
  O  O62  1  0.10509000  0.84283800  0.07389800  1
  O  O63  1  0.98106000  0.21880700  0.57389800  1
  O  O64  1  0.22803500  0.47223300  0.57916500  1
  O  O65  1  0.89306700  0.64886900  0.42083500  1
  O  O66  1  0.26902700  0.52496700  0.92047200  1
  O  O67  1  0.02509100  0.27045300  0.92429600  1
  O  O68  1  0.39886900  0.47803500  0.25580200  1
  O  O69  1  0.02045300  0.59615700  0.74536200  1
  O  O70  1  0.15716200  0.23106000  0.26225200  1
  O  O71  1  0.09855500  0.51902700  0.24406000  1
