# generated using pymatgen
data_LiMn10(PO4)7
_symmetry_space_group_name_H-M   'P 1'
_cell_length_a   13.10836254
_cell_length_b   13.10836254
_cell_length_c   13.10836268
_cell_angle_alpha   46.02380790
_cell_angle_beta   46.02380790
_cell_angle_gamma   46.02380682
_symmetry_Int_Tables_number   1
_chemical_formula_structural   LiMn10(PO4)7
_chemical_formula_sum   'Li2 Mn20 P14 O56'
_cell_volume   1063.99327229
_cell_formula_units_Z   2
loop_
 _symmetry_equiv_pos_site_id
 _symmetry_equiv_pos_as_xyz
  1  'x, y, z'
loop_
 _atom_site_type_symbol
 _atom_site_label
 _atom_site_symmetry_multiplicity
 _atom_site_fract_x
 _atom_site_fract_y
 _atom_site_fract_z
 _atom_site_occupancy
  Li  Li0  1  0.81588400  0.81588400  0.81588400  1
  Li  Li1  1  0.31588400  0.31588400  0.31588400  1
  Mn  Mn2  1  0.93407800  0.34195500  0.92598500  1
  Mn  Mn3  1  0.93435300  0.55534700  0.52697100  1
  Mn  Mn4  1  0.55534700  0.52697100  0.93435300  1
  Mn  Mn5  1  0.99745200  0.99745200  0.99745200  1
  Mn  Mn6  1  0.92598500  0.93407800  0.34195500  1
  Mn  Mn7  1  0.52697100  0.93435300  0.55534700  1
  Mn  Mn8  1  0.59066500  0.14783600  0.55380000  1
  Mn  Mn9  1  0.34195500  0.92598500  0.93407800  1
  Mn  Mn10  1  0.84195500  0.43407800  0.42598500  1
  Mn  Mn11  1  0.43407800  0.42598500  0.84195500  1
  Mn  Mn12  1  0.49745200  0.49745200  0.49745200  1
  Mn  Mn13  1  0.55380000  0.59066500  0.14783600  1
  Mn  Mn14  1  0.14783600  0.55380000  0.59066500  1
  Mn  Mn15  1  0.42598500  0.84195500  0.43407800  1
  Mn  Mn16  1  0.64783600  0.09066500  0.05380000  1
  Mn  Mn17  1  0.43435300  0.02697100  0.05534700  1
  Mn  Mn18  1  0.09066500  0.05380000  0.64783600  1
  Mn  Mn19  1  0.02697100  0.05534700  0.43435300  1
  Mn  Mn20  1  0.05534700  0.43435300  0.02697100  1
  Mn  Mn21  1  0.05380000  0.64783600  0.09066500  1
  P  P22  1  0.73156200  0.73156200  0.73156200  1
  P  P23  1  0.72998600  0.16964000  0.68854300  1
  P  P24  1  0.81546300  0.31501100  0.76935900  1
  P  P25  1  0.81501100  0.31546300  0.26935900  1
  P  P26  1  0.66964000  0.22998600  0.18854300  1
  P  P27  1  0.31546300  0.26935900  0.81501100  1
  P  P28  1  0.22998600  0.18854300  0.66964000  1
  P  P29  1  0.68854300  0.72998600  0.16964000  1
  P  P30  1  0.76935900  0.81546300  0.31501100  1
  P  P31  1  0.31501100  0.76935900  0.81546300  1
  P  P32  1  0.18854300  0.66964000  0.22998600  1
  P  P33  1  0.16964000  0.68854300  0.72998600  1
  P  P34  1  0.26935900  0.81501100  0.31546300  1
  P  P35  1  0.23156200  0.23156200  0.23156200  1
  O  O36  1  0.83582900  0.37950000  0.81533000  1
  O  O37  1  0.89119100  0.60311300  0.74313400  1
  O  O38  1  0.68673900  0.68673900  0.68673900  1
  O  O39  1  0.81533000  0.83582900  0.37950000  1
  O  O40  1  0.60311300  0.74313400  0.89119100  1
  O  O41  1  0.74313400  0.89119100  0.60311300  1
  O  O42  1  0.90075300  0.15574300  0.59635300  1
  O  O43  1  0.88068500  0.13414300  0.85000000  1
  O  O44  1  0.88150100  0.13980800  0.32242900  1
  O  O45  1  0.85043600  0.13122300  0.12852400  1
  O  O46  1  0.73359200  0.08377000  0.64391600  1
  O  O47  1  0.37950000  0.81533000  0.83582900  1
  O  O48  1  0.90974400  0.36568900  0.59054600  1
  O  O49  1  0.66551400  0.09977800  0.86661900  1
  O  O50  1  0.87950000  0.33582900  0.31533000  1
  O  O51  1  0.59977800  0.16551400  0.36661900  1
  O  O52  1  0.86568900  0.40974400  0.09054600  1
  O  O53  1  0.40974400  0.09054600  0.86568900  1
  O  O54  1  0.40075300  0.09635300  0.65574300  1
  O  O55  1  0.63122300  0.35043600  0.62852400  1
  O  O56  1  0.63980800  0.38150100  0.82242900  1
  O  O57  1  0.63414300  0.38068500  0.35000000  1
  O  O58  1  0.65574300  0.40075300  0.09635300  1
  O  O59  1  0.86661900  0.66551400  0.09977800  1
  O  O60  1  0.82242900  0.63980800  0.38150100  1
  O  O61  1  0.33582900  0.31533000  0.87950000  1
  O  O62  1  0.38068500  0.35000000  0.63414300  1
  O  O63  1  0.13122300  0.12852400  0.85043600  1
  O  O64  1  0.62852400  0.63122300  0.35043600  1
  O  O65  1  0.85000000  0.88068500  0.13414300  1
  O  O66  1  0.64391600  0.73359200  0.08377000  1
  O  O67  1  0.13980800  0.32242900  0.88150100  1
  O  O68  1  0.16551400  0.36661900  0.59977800  1
  O  O69  1  0.36568900  0.59054600  0.90974400  1
  O  O70  1  0.36661900  0.59977800  0.16551400  1
  O  O71  1  0.35000000  0.63414300  0.38068500  1
  O  O72  1  0.35043600  0.62852400  0.63122300  1
  O  O73  1  0.59635300  0.90075300  0.15574300  1
  O  O74  1  0.59054600  0.90974400  0.36568900  1
  O  O75  1  0.15574300  0.59635300  0.90075300  1
  O  O76  1  0.38150100  0.82242900  0.63980800  1
  O  O77  1  0.08377000  0.64391600  0.73359200  1
  O  O78  1  0.32242900  0.88150100  0.13980800  1
  O  O79  1  0.09635300  0.65574300  0.40075300  1
  O  O80  1  0.31533000  0.87950000  0.33582900  1
  O  O81  1  0.58377000  0.23359200  0.14391600  1
  O  O82  1  0.12852400  0.85043600  0.13122300  1
  O  O83  1  0.13414300  0.85000000  0.88068500  1
  O  O84  1  0.09977800  0.86661900  0.66551400  1
  O  O85  1  0.09054600  0.86568900  0.40974400  1
  O  O86  1  0.39119100  0.24313400  0.10311300  1
  O  O87  1  0.24313400  0.10311300  0.39119100  1
  O  O88  1  0.23359200  0.14391600  0.58377000  1
  O  O89  1  0.18673900  0.18673900  0.18673900  1
  O  O90  1  0.10311300  0.39119100  0.24313400  1
  O  O91  1  0.14391600  0.58377000  0.23359200  1
