# generated using pymatgen
data_Li2MnFe(PO4)2
_symmetry_space_group_name_H-M   'P 1'
_cell_length_a   4.77632558
_cell_length_b   10.52414647
_cell_length_c   6.12425738
_cell_angle_alpha   90.14447452
_cell_angle_beta   89.94975615
_cell_angle_gamma   89.98521310
_symmetry_Int_Tables_number   1
_chemical_formula_structural   Li2MnFe(PO4)2
_chemical_formula_sum   'Li4 Mn2 Fe2 P4 O16'
_cell_volume   307.84540736
_cell_formula_units_Z   2
loop_
 _symmetry_equiv_pos_site_id
 _symmetry_equiv_pos_as_xyz
  1  'x, y, z'
loop_
 _atom_site_type_symbol
 _atom_site_label
 _atom_site_symmetry_multiplicity
 _atom_site_fract_x
 _atom_site_fract_y
 _atom_site_fract_z
 _atom_site_occupancy
  Li  Li0  1  0.00028400  0.99760100  0.99889300  1
  Li  Li1  1  0.00018200  0.99672800  0.49945700  1
  Li  Li2  1  0.50123900  0.50335800  0.00067400  1
  Li  Li3  1  0.50204800  0.50334900  0.50043800  1
  Mn  Mn4  1  0.98045900  0.28129900  0.24998500  1
  Mn  Mn5  1  0.47961000  0.21912600  0.75020800  1
  Fe  Fe6  1  0.52731000  0.78077000  0.24809300  1
  Fe  Fe7  1  0.02643500  0.71909200  0.75132700  1
  P  P8  1  0.41400600  0.09004200  0.24963700  1
  P  P9  1  0.91402000  0.40953200  0.75048900  1
  P  P10  1  0.08523200  0.59618300  0.25216500  1
  P  P11  1  0.58346200  0.90391500  0.74785900  1
  O  O12  1  0.70847000  0.04035400  0.75126000  1
  O  O13  1  0.21064300  0.45978700  0.25040600  1
  O  O14  1  0.73571800  0.09420300  0.24949500  1
  O  O15  1  0.23564500  0.40533200  0.75055400  1
  O  O16  1  0.79187100  0.54661800  0.75043800  1
  O  O17  1  0.29168200  0.95303800  0.24828700  1
  O  O18  1  0.76324200  0.59811100  0.25120100  1
  O  O19  1  0.26143600  0.90194700  0.74927600  1
  O  O20  1  0.28081000  0.16036400  0.04858600  1
  O  O21  1  0.28068500  0.15959300  0.45216900  1
  O  O22  1  0.78120500  0.33946600  0.54859700  1
  O  O23  1  0.78038100  0.34009900  0.95228500  1
  O  O24  1  0.21713400  0.66708300  0.05069200  1
  O  O25  1  0.21605900  0.66563700  0.45567300  1
  O  O26  1  0.71478800  0.83528000  0.54369400  1
  O  O27  1  0.71594400  0.83209100  0.94816300  1
