# generated using pymatgen
data_Li2CoNi3O8
_symmetry_space_group_name_H-M   'P 1'
_cell_length_a   8.20923445
_cell_length_b   8.09635601
_cell_length_c   8.14900039
_cell_angle_alpha   90.04238601
_cell_angle_beta   90.05684779
_cell_angle_gamma   89.81740195
_symmetry_Int_Tables_number   1
_chemical_formula_structural   Li2CoNi3O8
_chemical_formula_sum   'Li8 Co4 Ni12 O32'
_cell_volume   541.61920734
_cell_formula_units_Z   4
loop_
 _symmetry_equiv_pos_site_id
 _symmetry_equiv_pos_as_xyz
  1  'x, y, z'
loop_
 _atom_site_type_symbol
 _atom_site_label
 _atom_site_symmetry_multiplicity
 _atom_site_fract_x
 _atom_site_fract_y
 _atom_site_fract_z
 _atom_site_occupancy
  Li  Li0  1  0.99928100  0.00075400  0.99807400  1
  Li  Li1  1  0.25003100  0.24903300  0.25230500  1
  Li  Li2  1  0.24807300  0.74831000  0.74784100  1
  Li  Li3  1  0.49913100  0.00107700  0.49800800  1
  Li  Li4  1  0.50252700  0.49935400  0.00135700  1
  Li  Li5  1  0.75038100  0.24927200  0.75314500  1
  Li  Li6  1  0.74781700  0.75042200  0.24886900  1
  Li  Li7  1  0.00270100  0.50160900  0.50093000  1
  Co  Co8  1  0.12372700  0.87466400  0.37462300  1
  Co  Co9  1  0.37478600  0.12501000  0.87506000  1
  Co  Co10  1  0.62501300  0.62518900  0.62441900  1
  Co  Co11  1  0.87702600  0.37509600  0.12635000  1
  Ni  Ni12  1  0.12613200  0.12357000  0.62454900  1
  Ni  Ni13  1  0.12567900  0.37470200  0.87745900  1
  Ni  Ni14  1  0.12342200  0.62488400  0.12713300  1
  Ni  Ni15  1  0.37706100  0.37493100  0.62682600  1
  Ni  Ni16  1  0.37544200  0.62612500  0.37566300  1
  Ni  Ni17  1  0.37202400  0.87642400  0.12362800  1
  Ni  Ni18  1  0.62826000  0.37610000  0.37580900  1
  Ni  Ni19  1  0.62537000  0.12604800  0.12346000  1
  Ni  Ni20  1  0.62258300  0.87455100  0.87239900  1
  Ni  Ni21  1  0.87668100  0.12500000  0.37314600  1
  Ni  Ni22  1  0.87375100  0.87371200  0.62286700  1
  Ni  Ni23  1  0.87287100  0.62401100  0.87577100  1
  O  O24  1  0.10906500  0.10938200  0.38712000  1
  O  O25  1  0.11602200  0.88950500  0.60851900  1
  O  O26  1  0.11022500  0.60955500  0.89210700  1
  O  O27  1  0.14093900  0.14053800  0.86277500  1
  O  O28  1  0.11010700  0.39054600  0.11593500  1
  O  O29  1  0.14271200  0.35953000  0.63755800  1
  O  O30  1  0.13298300  0.64082300  0.35872800  1
  O  O31  1  0.13642900  0.86009000  0.13925600  1
  O  O32  1  0.36243100  0.13898100  0.64078600  1
  O  O33  1  0.36785700  0.36000500  0.85973400  1
  O  O34  1  0.35831200  0.64083900  0.13775900  1
  O  O35  1  0.39184800  0.61121800  0.61200400  1
  O  O36  1  0.35754100  0.86159800  0.36211900  1
  O  O37  1  0.39134600  0.38959200  0.39122100  1
  O  O38  1  0.37976100  0.10909300  0.10794300  1
  O  O39  1  0.38898500  0.88974600  0.88522900  1
  O  O40  1  0.61151200  0.39022900  0.61415400  1
  O  O41  1  0.61838100  0.60863100  0.39070700  1
  O  O42  1  0.60822400  0.88938500  0.10786100  1
  O  O43  1  0.64336300  0.36145400  0.13760000  1
  O  O44  1  0.60725700  0.10975800  0.88602000  1
  O  O45  1  0.64359800  0.14095700  0.36260000  1
  O  O46  1  0.63143000  0.85984900  0.64041200  1
  O  O47  1  0.63723400  0.63989300  0.85921600  1
  O  O48  1  0.86390500  0.36021700  0.36112700  1
  O  O49  1  0.87031900  0.14110300  0.14186100  1
  O  O50  1  0.85643300  0.85987200  0.86176200  1
  O  O51  1  0.89059700  0.88971600  0.38535700  1
  O  O52  1  0.85815700  0.63978600  0.63503300  1
  O  O53  1  0.88867400  0.10920100  0.60892400  1
  O  O54  1  0.88390700  0.38986100  0.89283800  1
  O  O55  1  0.89067300  0.60933900  0.11618200  1
