# generated using pymatgen
data_Li2FeSiO4
_symmetry_space_group_name_H-M   'P 1'
_cell_length_a   5.15956100
_cell_length_b   6.28792300
_cell_length_c   11.00589800
_cell_angle_alpha   90.00000000
_cell_angle_beta   90.00000000
_cell_angle_gamma   90.00000000
_symmetry_Int_Tables_number   1
_chemical_formula_structural   Li2FeSiO4
_chemical_formula_sum   'Li8 Fe4 Si4 O16'
_cell_volume   357.06349346
_cell_formula_units_Z   4
loop_
 _symmetry_equiv_pos_site_id
 _symmetry_equiv_pos_as_xyz
  1  'x, y, z'
loop_
 _atom_site_type_symbol
 _atom_site_label
 _atom_site_symmetry_multiplicity
 _atom_site_fract_x
 _atom_site_fract_y
 _atom_site_fract_z
 _atom_site_occupancy
  Li  Li0  1  0.28731800  0.86798300  0.07380900  1
  Li  Li1  1  0.68871400  0.11967800  0.16116800  1
  Li  Li2  1  0.18871400  0.61967800  0.33883200  1
  Li  Li3  1  0.78731800  0.36798300  0.42619100  1
  Li  Li4  1  0.21268200  0.86798300  0.57380900  1
  Li  Li5  1  0.81128600  0.11967800  0.66116800  1
  Li  Li6  1  0.31128600  0.61967800  0.83883200  1
  Li  Li7  1  0.71268200  0.36798300  0.92619100  1
  Fe  Fe8  1  0.68975900  0.61831100  0.16659300  1
  Fe  Fe9  1  0.18975900  0.11831100  0.33340700  1
  Fe  Fe10  1  0.81024100  0.61831100  0.66659300  1
  Fe  Fe11  1  0.31024100  0.11831100  0.83340700  1
  Si  Si12  1  0.19086400  0.36796300  0.08828700  1
  Si  Si13  1  0.69086400  0.86796300  0.41171300  1
  Si  Si14  1  0.30913600  0.36796300  0.58828700  1
  Si  Si15  1  0.80913600  0.86796300  0.91171300  1
  O  O16  1  0.69686900  0.86821900  0.05161200  1
  O  O17  1  0.87047500  0.36607300  0.08847100  1
  O  O18  1  0.28861000  0.58409300  0.16226600  1
  O  O19  1  0.29409500  0.14949700  0.15851900  1
  O  O20  1  0.79409500  0.64949700  0.34148100  1
  O  O21  1  0.78861000  0.08409300  0.33773400  1
  O  O22  1  0.37047500  0.86607300  0.41152900  1
  O  O23  1  0.19686900  0.36821900  0.44838800  1
  O  O24  1  0.80313100  0.86821900  0.55161200  1
  O  O25  1  0.62952500  0.36607300  0.58847100  1
  O  O26  1  0.21139000  0.58409300  0.66226600  1
  O  O27  1  0.20590500  0.14949700  0.65851900  1
  O  O28  1  0.70590500  0.64949700  0.84148100  1
  O  O29  1  0.71139000  0.08409300  0.83773400  1
  O  O30  1  0.12952500  0.86607300  0.91152900  1
  O  O31  1  0.30313100  0.36821900  0.94838800  1
