# generated using pymatgen
data_SrLi4NiO4
_symmetry_space_group_name_H-M   'P 1'
_cell_length_a   5.16963800
_cell_length_b   9.59320600
_cell_length_c   17.87890200
_cell_angle_alpha   90.00000000
_cell_angle_beta   90.00000000
_cell_angle_gamma   90.00000000
_symmetry_Int_Tables_number   1
_chemical_formula_structural   SrLi4NiO4
_chemical_formula_sum   'Sr8 Li32 Ni8 O32'
_cell_volume   886.67557920
_cell_formula_units_Z   8
loop_
 _symmetry_equiv_pos_site_id
 _symmetry_equiv_pos_as_xyz
  1  'x, y, z'
loop_
 _atom_site_type_symbol
 _atom_site_label
 _atom_site_symmetry_multiplicity
 _atom_site_fract_x
 _atom_site_fract_y
 _atom_site_fract_z
 _atom_site_occupancy
  Sr  Sr0  1  0.23763300  0.87642600  0.51726000  1
  Sr  Sr1  1  0.26236700  0.87642600  0.01726000  1
  Sr  Sr2  1  0.73763300  0.62357400  0.51726000  1
  Sr  Sr3  1  0.76236700  0.62357400  0.01726000  1
  Sr  Sr4  1  0.23763300  0.37642600  0.98274000  1
  Sr  Sr5  1  0.26236700  0.37642600  0.48274000  1
  Sr  Sr6  1  0.76236700  0.12357400  0.48274000  1
  Sr  Sr7  1  0.73763300  0.12357400  0.98274000  1
  Li  Li8  1  0.69211300  0.85256900  0.40787800  1
  Li  Li9  1  0.80788700  0.85256900  0.90787800  1
  Li  Li10  1  0.59316000  0.95406600  0.28286800  1
  Li  Li11  1  0.90684000  0.95406600  0.78286800  1
  Li  Li12  1  0.00760000  0.82973200  0.31904700  1
  Li  Li13  1  0.49240000  0.82973200  0.81904700  1
  Li  Li14  1  0.22677900  0.81213800  0.19015200  1
  Li  Li15  1  0.27322100  0.81213800  0.69015200  1
  Li  Li16  1  0.72677900  0.68786200  0.19015200  1
  Li  Li17  1  0.77322100  0.68786200  0.69015200  1
  Li  Li18  1  0.50760000  0.67026800  0.31904700  1
  Li  Li19  1  0.99240000  0.67026800  0.81904700  1
  Li  Li20  1  0.09316000  0.54593400  0.28286800  1
  Li  Li21  1  0.40684000  0.54593400  0.78286800  1
  Li  Li22  1  0.30788700  0.64743100  0.90787800  1
  Li  Li23  1  0.19211300  0.64743100  0.40787800  1
  Li  Li24  1  0.69211300  0.35256900  0.09212200  1
  Li  Li25  1  0.80788700  0.35256900  0.59212200  1
  Li  Li26  1  0.59316000  0.45406600  0.21713200  1
  Li  Li27  1  0.90684000  0.45406600  0.71713200  1
  Li  Li28  1  0.00760000  0.32973200  0.18095300  1
  Li  Li29  1  0.49240000  0.32973200  0.68095300  1
  Li  Li30  1  0.27322100  0.31213800  0.80984800  1
  Li  Li31  1  0.22677900  0.31213800  0.30984800  1
  Li  Li32  1  0.72677900  0.18786200  0.30984800  1
  Li  Li33  1  0.77322100  0.18786200  0.80984800  1
  Li  Li34  1  0.99240000  0.17026800  0.68095300  1
  Li  Li35  1  0.50760000  0.17026800  0.18095300  1
  Li  Li36  1  0.40684000  0.04593400  0.71713200  1
  Li  Li37  1  0.09316000  0.04593400  0.21713200  1
  Li  Li38  1  0.30788700  0.14743100  0.59212200  1
  Li  Li39  1  0.19211300  0.14743100  0.09212200  1
  Ni  Ni40  1  0.73415400  0.95378300  0.12789000  1
  Ni  Ni41  1  0.76584600  0.95378300  0.62789000  1
  Ni  Ni42  1  0.23415400  0.54621700  0.12789000  1
  Ni  Ni43  1  0.26584600  0.54621700  0.62789000  1
  Ni  Ni44  1  0.73415400  0.45378300  0.37211000  1
  Ni  Ni45  1  0.76584600  0.45378300  0.87211000  1
  Ni  Ni46  1  0.23415400  0.04621700  0.37211000  1
  Ni  Ni47  1  0.26584600  0.04621700  0.87211000  1
  O  O48  1  0.35491700  0.98078100  0.14030100  1
  O  O49  1  0.14508300  0.98078100  0.64030100  1
  O  O50  1  0.76259100  0.87814700  0.02131700  1
  O  O51  1  0.73740900  0.87814700  0.52131700  1
  O  O52  1  0.87716700  0.86378200  0.21708200  1
  O  O53  1  0.62283300  0.86378200  0.71708200  1
  O  O54  1  0.34665800  0.84149100  0.36911000  1
  O  O55  1  0.15334200  0.84149100  0.86911000  1
  O  O56  1  0.84665800  0.65850900  0.36911000  1
  O  O57  1  0.65334200  0.65850900  0.86911000  1
  O  O58  1  0.37716700  0.63621800  0.21708200  1
  O  O59  1  0.12283300  0.63621800  0.71708200  1
  O  O60  1  0.23740900  0.62185300  0.52131700  1
  O  O61  1  0.26259100  0.62185300  0.02131700  1
  O  O62  1  0.85491700  0.51921900  0.14030100  1
  O  O63  1  0.64508300  0.51921900  0.64030100  1
  O  O64  1  0.35491700  0.48078100  0.35969900  1
  O  O65  1  0.14508300  0.48078100  0.85969900  1
  O  O66  1  0.73740900  0.37814700  0.97868300  1
  O  O67  1  0.76259100  0.37814700  0.47868300  1
  O  O68  1  0.87716700  0.36378200  0.28291800  1
  O  O69  1  0.62283300  0.36378200  0.78291800  1
  O  O70  1  0.34665800  0.34149100  0.13089000  1
  O  O71  1  0.15334200  0.34149100  0.63089000  1
  O  O72  1  0.65334200  0.15850900  0.63089000  1
  O  O73  1  0.84665800  0.15850900  0.13089000  1
  O  O74  1  0.37716700  0.13621800  0.28291800  1
  O  O75  1  0.12283300  0.13621800  0.78291800  1
  O  O76  1  0.26259100  0.12185300  0.47868300  1
  O  O77  1  0.23740900  0.12185300  0.97868300  1
  O  O78  1  0.85491700  0.01921900  0.35969900  1
  O  O79  1  0.64508300  0.01921900  0.85969900  1
