# generated using pymatgen
data_Li2Mn3(BO3)3
_symmetry_space_group_name_H-M   'P 1'
_cell_length_a   8.25797000
_cell_length_b   8.84039270
_cell_length_c   9.49823313
_cell_angle_alpha   111.47038708
_cell_angle_beta   89.51978453
_cell_angle_gamma   117.68392466
_symmetry_Int_Tables_number   1
_chemical_formula_structural   Li2Mn3(BO3)3
_chemical_formula_sum   'Li6 Mn9 B9 O27'
_cell_volume   560.31427137
_cell_formula_units_Z   3
loop_
 _symmetry_equiv_pos_site_id
 _symmetry_equiv_pos_as_xyz
  1  'x, y, z'
loop_
 _atom_site_type_symbol
 _atom_site_label
 _atom_site_symmetry_multiplicity
 _atom_site_fract_x
 _atom_site_fract_y
 _atom_site_fract_z
 _atom_site_occupancy
  Li  Li0  1  0.29163400  0.28071300  0.58632900  1
  Li  Li1  1  0.30309800  0.27343800  0.26023100  1
  Li  Li2  1  0.98172900  0.69987600  0.07728800  1
  Li  Li3  1  0.97854200  0.69688700  0.73876300  1
  Li  Li4  1  0.72575900  0.02136500  0.49770500  1
  Li  Li5  1  0.71074200  0.01748300  0.83604600  1
  Mn  Mn6  1  0.00975700  0.37962400  0.45615600  1
  Mn  Mn7  1  0.01189300  0.35355700  0.11667200  1
  Mn  Mn8  1  0.01313800  0.36281900  0.78681000  1
  Mn  Mn9  1  0.33951500  0.99417300  0.66238500  1
  Mn  Mn10  1  0.36132600  0.99668200  0.99518000  1
  Mn  Mn11  1  0.38208400  0.98388600  0.32638300  1
  Mn  Mn12  1  0.62586000  0.64677400  0.88826100  1
  Mn  Mn13  1  0.62218900  0.63129000  0.21007000  1
  Mn  Mn14  1  0.63752200  0.64450300  0.55085200  1
  B  B15  1  0.99459300  0.98793700  0.99705700  1
  B  B16  1  0.33185100  0.66421900  0.06628400  1
  B  B17  1  0.32833600  0.66933100  0.72009300  1
  B  B18  1  0.01126600  0.00415800  0.33749100  1
  B  B19  1  0.34690900  0.66917100  0.37920800  1
  B  B20  1  0.66767600  0.33152400  0.27661100  1
  B  B21  1  0.66284400  0.33445800  0.60637600  1
  B  B22  1  0.67285100  0.33973700  0.95107500  1
  B  B23  1  0.98811600  0.99882100  0.66694100  1
  O  O24  1  0.26283400  0.79121900  0.11152900  1
  O  O25  1  0.24882600  0.78402300  0.76069400  1
  O  O26  1  0.27879700  0.79271400  0.41463300  1
  O  O27  1  0.21326800  0.47836900  0.98756000  1
  O  O28  1  0.21438300  0.47570800  0.64525600  1
  O  O29  1  0.23023400  0.47877100  0.32431000  1
  O  O30  1  0.17665800  0.11319900  0.68421600  1
  O  O31  1  0.18454900  0.09798600  0.05098500  1
  O  O32  1  0.20639500  0.09909800  0.36559600  1
  O  O33  1  0.52381600  0.73847400  0.10512700  1
  O  O34  1  0.52009100  0.74696100  0.75374900  1
  O  O35  1  0.54273900  0.74477300  0.40219500  1
  O  O36  1  0.57374300  0.43857300  0.64578400  1
  O  O37  1  0.59943200  0.45638300  0.30785900  1
  O  O38  1  0.60399000  0.46412800  0.00129900  1
  O  O39  1  0.53264300  0.14332800  0.22155200  1
  O  O40  1  0.55244200  0.14850800  0.87708200  1
  O  O41  1  0.55548500  0.13792300  0.53086500  1
  O  O42  1  0.90501300  0.81287300  0.26307200  1
  O  O43  1  0.91459300  0.81067200  0.63011500  1
  O  O44  1  0.91356000  0.79318100  0.93730400  1
  O  O45  1  0.85419900  0.41629100  0.64044100  1
  O  O46  1  0.85338600  0.38910900  0.29768400  1
  O  O47  1  0.86297800  0.41260700  0.97484200  1
  O  O48  1  0.86809000  0.07388800  0.68671900  1
  O  O49  1  0.88710200  0.07039200  0.00301200  1
  O  O50  1  0.92146000  0.10842700  0.38624900  1
