# generated using pymatgen
data_LiV2O3F
_symmetry_space_group_name_H-M   'P 1'
_cell_length_a   8.01715547
_cell_length_b   8.01715547
_cell_length_c   6.01793188
_cell_angle_alpha   68.00249234
_cell_angle_beta   68.00249234
_cell_angle_gamma   64.52226725
_symmetry_Int_Tables_number   1
_chemical_formula_structural   LiV2O3F
_chemical_formula_sum   'Li4 V8 O12 F4'
_cell_volume   313.06185595
_cell_formula_units_Z   4
loop_
 _symmetry_equiv_pos_site_id
 _symmetry_equiv_pos_as_xyz
  1  'x, y, z'
loop_
 _atom_site_type_symbol
 _atom_site_label
 _atom_site_symmetry_multiplicity
 _atom_site_fract_x
 _atom_site_fract_y
 _atom_site_fract_z
 _atom_site_occupancy
  Li  Li0  1  0.00917200  0.24940600  0.10360400  1
  Li  Li1  1  0.73938200  0.99641800  0.39120700  1
  Li  Li2  1  0.24940600  0.00917200  0.60360400  1
  Li  Li3  1  0.99641800  0.73938200  0.89120700  1
  V  V4  1  0.76274700  0.22447000  0.77346600  1
  V  V5  1  0.00849300  0.50131900  0.50175000  1
  V  V6  1  0.50131900  0.00849300  0.00175000  1
  V  V7  1  0.37017000  0.37504100  0.12619500  1
  V  V8  1  0.37504100  0.37017000  0.62619500  1
  V  V9  1  0.61863000  0.63361500  0.36823800  1
  V  V10  1  0.63361500  0.61863000  0.86823800  1
  V  V11  1  0.22447000  0.76274700  0.27346600  1
  O  O12  1  0.61650500  0.13934200  0.65363100  1
  O  O13  1  0.87024100  0.37981400  0.83693100  1
  O  O14  1  0.61229600  0.14477400  0.10981100  1
  O  O15  1  0.52366000  0.48535900  0.73856400  1
  O  O16  1  0.74792300  0.71693900  0.51177800  1
  O  O17  1  0.27477100  0.25344900  0.99376900  1
  O  O18  1  0.71693900  0.74792300  0.01177800  1
  O  O19  1  0.25344900  0.27477100  0.49376900  1
  O  O20  1  0.48535900  0.52366000  0.23856400  1
  O  O21  1  0.13934200  0.61650500  0.15363100  1
  O  O22  1  0.37981400  0.87024100  0.33693100  1
  O  O23  1  0.14477400  0.61229600  0.60981100  1
  F  F24  1  0.99453600  0.00018500  0.25935800  1
  F  F25  1  0.87215000  0.37919300  0.38170000  1
  F  F26  1  0.37919300  0.87215000  0.88170000  1
  F  F27  1  0.00018500  0.99453600  0.75935800  1
