# generated using pymatgen
data_Li3Fe4CuO8
_symmetry_space_group_name_H-M   'P 1'
_cell_length_a   5.98337711
_cell_length_b   5.98337711
_cell_length_c   6.03435392
_cell_angle_alpha   59.90042690
_cell_angle_beta   59.90042690
_cell_angle_gamma   59.71769861
_symmetry_Int_Tables_number   1
_chemical_formula_structural   Li3Fe4CuO8
_chemical_formula_sum   'Li3 Fe4 Cu1 O8'
_cell_volume   152.20219040
_cell_formula_units_Z   1
loop_
 _symmetry_equiv_pos_site_id
 _symmetry_equiv_pos_as_xyz
  1  'x, y, z'
loop_
 _atom_site_type_symbol
 _atom_site_label
 _atom_site_symmetry_multiplicity
 _atom_site_fract_x
 _atom_site_fract_y
 _atom_site_fract_z
 _atom_site_occupancy
  Li  Li0  1  0.00000000  0.50000000  0.00000000  1
  Li  Li1  1  0.00000000  0.00000000  0.50000000  1
  Li  Li2  1  0.50000000  0.00000000  0.00000000  1
  Fe  Fe3  1  0.50000000  0.50000000  0.50000000  1
  Fe  Fe4  1  0.00000000  0.00000000  0.00000000  1
  Fe  Fe5  1  0.00000000  0.50000000  0.50000000  1
  Fe  Fe6  1  0.50000000  0.00000000  0.50000000  1
  Cu  Cu7  1  0.50000000  0.50000000  0.00000000  1
  O  O8  1  0.26251200  0.26251200  0.25639900  1
  O  O9  1  0.25767000  0.75839000  0.72908600  1
  O  O10  1  0.75839000  0.25767000  0.72908600  1
  O  O11  1  0.74307100  0.74307100  0.26655000  1
  O  O12  1  0.25692900  0.25692900  0.73345000  1
  O  O13  1  0.24161000  0.74233000  0.27091400  1
  O  O14  1  0.74233000  0.24161000  0.27091400  1
  O  O15  1  0.73748800  0.73748800  0.74360100  1
