# generated using pymatgen
data_Li3Nb2VO6
_symmetry_space_group_name_H-M   'P 1'
_cell_length_a   5.85469657
_cell_length_b   13.36628882
_cell_length_c   6.19322836
_cell_angle_alpha   100.26085344
_cell_angle_beta   89.99873390
_cell_angle_gamma   89.99859869
_symmetry_Int_Tables_number   1
_chemical_formula_structural   Li3Nb2VO6
_chemical_formula_sum   'Li12 Nb8 V4 O24'
_cell_volume   476.90349154
_cell_formula_units_Z   4
loop_
 _symmetry_equiv_pos_site_id
 _symmetry_equiv_pos_as_xyz
  1  'x, y, z'
loop_
 _atom_site_type_symbol
 _atom_site_label
 _atom_site_symmetry_multiplicity
 _atom_site_fract_x
 _atom_site_fract_y
 _atom_site_fract_z
 _atom_site_occupancy
  Li  Li0  1  0.50000300  0.66661700  0.83332400  1
  Li  Li1  1  0.99999700  0.66661700  0.83332400  1
  Li  Li2  1  0.75000400  0.16661700  0.33332400  1
  Li  Li3  1  0.24999700  0.16661700  0.33332400  1
  Li  Li4  1  0.50009700  0.00744600  0.51439800  1
  Li  Li5  1  0.99989900  0.00742400  0.51439100  1
  Li  Li6  1  0.75000100  0.50740400  0.01435600  1
  Li  Li7  1  0.25000200  0.50740700  0.01435500  1
  Li  Li8  1  0.50009900  0.32590700  0.15228300  1
  Li  Li9  1  0.99990200  0.32593600  0.15229900  1
  Li  Li10  1  0.75000200  0.82594900  0.65232800  1
  Li  Li11  1  0.25000100  0.82595100  0.65233100  1
  Nb  Nb12  1  0.50003800  0.98973100  0.01167500  1
  Nb  Nb13  1  0.99998100  0.98973400  0.01165800  1
  Nb  Nb14  1  0.75000300  0.48962100  0.51161700  1
  Nb  Nb15  1  0.24998000  0.48961000  0.51161100  1
  Nb  Nb16  1  0.50003900  0.34361800  0.65499400  1
  Nb  Nb17  1  0.99998100  0.34361300  0.65501100  1
  Nb  Nb18  1  0.74999800  0.84373000  0.15505100  1
  Nb  Nb19  1  0.24997900  0.84373800  0.15505800  1
  V  V20  1  0.50000200  0.66667300  0.33333100  1
  V  V21  1  0.74999100  0.16667300  0.83333200  1
  V  V22  1  0.00002400  0.66667300  0.33333100  1
  V  V23  1  0.24998200  0.16667500  0.83333400  1
  O  O24  1  0.50001100  0.50717400  0.26367800  1
  O  O25  1  0.99999700  0.50704900  0.26362200  1
  O  O26  1  0.75000100  0.00726300  0.76377500  1
  O  O27  1  0.25002200  0.00732200  0.76374600  1
  O  O28  1  0.49998900  0.82615300  0.40297900  1
  O  O29  1  0.99998300  0.82627900  0.40303300  1
  O  O30  1  0.74998500  0.32606700  0.90288700  1
  O  O31  1  0.25001000  0.32600600  0.90291700  1
  O  O32  1  0.50000900  0.82247500  0.88966800  1
  O  O33  1  0.99999800  0.82246300  0.88967300  1
  O  O34  1  0.75000900  0.32240900  0.38963100  1
  O  O35  1  0.25000700  0.32236200  0.38966000  1
  O  O36  1  0.49999500  0.51087200  0.77702000  1
  O  O37  1  0.99998800  0.51088000  0.77701200  1
  O  O38  1  0.74999700  0.01093400  0.27705800  1
  O  O39  1  0.24999600  0.01098100  0.27702200  1
  O  O40  1  0.50017400  0.17779200  0.60801500  1
  O  O41  1  0.99981100  0.17778400  0.60801000  1
  O  O42  1  0.75002400  0.67783700  0.10809400  1
  O  O43  1  0.24999100  0.67783700  0.10807300  1
  O  O44  1  0.50015800  0.15554700  0.05863900  1
  O  O45  1  0.99980500  0.15554100  0.05863100  1
  O  O46  1  0.75003600  0.65550000  0.55857400  1
  O  O47  1  0.25000200  0.65549400  0.55855000  1
