# generated using pymatgen
data_Li2SnP2O7
_symmetry_space_group_name_H-M   'P 1'
_cell_length_a   10.27695800
_cell_length_b   10.44555800
_cell_length_c   12.03035364
_cell_angle_alpha   75.13476857
_cell_angle_beta   90.00000000
_cell_angle_gamma   90.00000000
_symmetry_Int_Tables_number   1
_chemical_formula_structural   Li2SnP2O7
_chemical_formula_sum   'Li16 Sn8 P16 O56'
_cell_volume   1248.21911535
_cell_formula_units_Z   8
loop_
 _symmetry_equiv_pos_site_id
 _symmetry_equiv_pos_as_xyz
  1  'x, y, z'
loop_
 _atom_site_type_symbol
 _atom_site_label
 _atom_site_symmetry_multiplicity
 _atom_site_fract_x
 _atom_site_fract_y
 _atom_site_fract_z
 _atom_site_occupancy
  Li  Li0  1  0.73001000  0.58794400  0.57689500  1
  Li  Li1  1  0.41800200  0.67807600  0.43602100  1
  Li  Li2  1  0.11101100  0.56940300  0.97380200  1
  Li  Li3  1  0.90322000  0.85825400  0.03873200  1
  Li  Li4  1  0.40322000  0.64174600  0.96126800  1
  Li  Li5  1  0.61101100  0.93059700  0.02619800  1
  Li  Li6  1  0.91800200  0.82192400  0.56397900  1
  Li  Li7  1  0.23001000  0.91205600  0.42310500  1
  Li  Li8  1  0.76999000  0.08794400  0.57689500  1
  Li  Li9  1  0.08199800  0.17807600  0.43602100  1
  Li  Li10  1  0.38898900  0.06940300  0.97380200  1
  Li  Li11  1  0.59678000  0.35825400  0.03873200  1
  Li  Li12  1  0.09678000  0.14174600  0.96126800  1
  Li  Li13  1  0.88898900  0.43059700  0.02619800  1
  Li  Li14  1  0.58199800  0.32192400  0.56397900  1
  Li  Li15  1  0.26999000  0.41205600  0.42310500  1
  Sn  Sn16  1  0.90108600  0.70347200  0.32987100  1
  Sn  Sn17  1  0.22405900  0.75642800  0.16991800  1
  Sn  Sn18  1  0.72405900  0.74357200  0.83008200  1
  Sn  Sn19  1  0.40108600  0.79652800  0.67012900  1
  Sn  Sn20  1  0.59891400  0.20347200  0.32987100  1
  Sn  Sn21  1  0.27594100  0.25642800  0.16991800  1
  Sn  Sn22  1  0.77594100  0.24357200  0.83008200  1
  Sn  Sn23  1  0.09891400  0.29652800  0.67012900  1
  P  P24  1  0.46677900  0.53095800  0.22893100  1
  P  P25  1  0.69791100  0.63419500  0.09398500  1
  P  P26  1  0.95316600  0.55226400  0.74718500  1
  P  P27  1  0.14654000  0.62666700  0.54985200  1
  P  P28  1  0.64654000  0.87333300  0.45014800  1
  P  P29  1  0.45316600  0.94773600  0.25281500  1
  P  P30  1  0.03322100  0.03095800  0.22893100  1
  P  P31  1  0.19791100  0.86580500  0.90601500  1
  P  P32  1  0.80208900  0.13419500  0.09398500  1
  P  P33  1  0.96677900  0.96904200  0.77106900  1
  P  P34  1  0.54683400  0.05226400  0.74718500  1
  P  P35  1  0.35346000  0.12666700  0.54985200  1
  P  P36  1  0.85346000  0.37333300  0.45014800  1
  P  P37  1  0.04683400  0.44773600  0.25281500  1
  P  P38  1  0.30208900  0.36580500  0.90601500  1
  P  P39  1  0.53322100  0.46904200  0.77106900  1
  O  O40  1  0.41946100  0.53796200  0.34753200  1
  O  O41  1  0.84603900  0.49949500  0.49048900  1
  O  O42  1  0.08346500  0.59029200  0.25839900  1
  O  O43  1  0.37852900  0.60857200  0.13046600  1
  O  O44  1  0.60986500  0.60114400  0.21189100  1
  O  O45  1  0.82287700  0.69547200  0.12380000  1
  O  O46  1  0.61813100  0.73964900  0.00294300  1
  O  O47  1  0.28400600  0.49229800  0.94508500  1
  O  O48  1  0.09623100  0.58361300  0.68506300  1
  O  O49  1  0.96775500  0.56139600  0.87065200  1
  O  O50  1  0.51365500  0.61065700  0.78557400  1
  O  O51  1  0.28268500  0.68567900  0.55368200  1
  O  O52  1  0.85879900  0.65353800  0.67410500  1
  O  O53  1  0.05401600  0.73558700  0.48195000  1
  O  O54  1  0.55401600  0.76441300  0.51805000  1
  O  O55  1  0.35879900  0.84646200  0.32589500  1
  O  O56  1  0.78268500  0.81432100  0.44631800  1
  O  O57  1  0.01365500  0.88934300  0.21442600  1
  O  O58  1  0.59623100  0.91638700  0.31493700  1
  O  O59  1  0.46775500  0.93860400  0.12934800  1
  O  O60  1  0.78400600  0.00770200  0.05491500  1
  O  O61  1  0.11813100  0.76035100  0.99705700  1
  O  O62  1  0.32287700  0.80452800  0.87620000  1
  O  O63  1  0.10986500  0.89885600  0.78810900  1
  O  O64  1  0.58346500  0.90970800  0.74160100  1
  O  O65  1  0.87852900  0.89142800  0.86953400  1
  O  O66  1  0.08053900  0.03796200  0.34753200  1
  O  O67  1  0.34603900  0.00050500  0.50951100  1
  O  O68  1  0.65396100  0.99949500  0.49048900  1
  O  O69  1  0.91946100  0.96203800  0.65246800  1
  O  O70  1  0.12147100  0.10857200  0.13046600  1
  O  O71  1  0.41653500  0.09029200  0.25839900  1
  O  O72  1  0.89013500  0.10114400  0.21189100  1
  O  O73  1  0.67712300  0.19547200  0.12380000  1
  O  O74  1  0.88186900  0.23964900  0.00294300  1
  O  O75  1  0.21599400  0.99229800  0.94508500  1
  O  O76  1  0.53224500  0.06139600  0.87065200  1
  O  O77  1  0.40376900  0.08361300  0.68506300  1
  O  O78  1  0.98634500  0.11065700  0.78557400  1
  O  O79  1  0.21731500  0.18567900  0.55368200  1
  O  O80  1  0.64120100  0.15353800  0.67410500  1
  O  O81  1  0.44598400  0.23558700  0.48195000  1
  O  O82  1  0.94598400  0.26441300  0.51805000  1
  O  O83  1  0.14120100  0.34646200  0.32589500  1
  O  O84  1  0.71731500  0.31432100  0.44631800  1
  O  O85  1  0.48634500  0.38934300  0.21442600  1
  O  O86  1  0.03224500  0.43860400  0.12934800  1
  O  O87  1  0.90376900  0.41638700  0.31493700  1
  O  O88  1  0.71599400  0.50770200  0.05491500  1
  O  O89  1  0.38186900  0.26035100  0.99705700  1
  O  O90  1  0.17712300  0.30452800  0.87620000  1
  O  O91  1  0.39013500  0.39885600  0.78810900  1
  O  O92  1  0.62147100  0.39142800  0.86953400  1
  O  O93  1  0.91653500  0.40970800  0.74160100  1
  O  O94  1  0.15396100  0.50050500  0.50951100  1
  O  O95  1  0.58053900  0.46203800  0.65246800  1
