# generated using pymatgen
data_Li10Mn(SiO5)2
_symmetry_space_group_name_H-M   'P 1'
_cell_length_a   15.37493025
_cell_length_b   15.37493025
_cell_length_c   5.17502085
_cell_angle_alpha   80.37302322
_cell_angle_beta   80.37302322
_cell_angle_gamma   22.95603175
_symmetry_Int_Tables_number   1
_chemical_formula_structural   Li10Mn(SiO5)2
_chemical_formula_sum   'Li20 Mn2 Si4 O20'
_cell_volume   470.12487382
_cell_formula_units_Z   2
loop_
 _symmetry_equiv_pos_site_id
 _symmetry_equiv_pos_as_xyz
  1  'x, y, z'
loop_
 _atom_site_type_symbol
 _atom_site_label
 _atom_site_symmetry_multiplicity
 _atom_site_fract_x
 _atom_site_fract_y
 _atom_site_fract_z
 _atom_site_occupancy
  Li  Li0  1  0.49122600  0.49122600  0.75616500  1
  Li  Li1  1  0.22456800  0.64373600  0.40044000  1
  Li  Li2  1  0.64373600  0.22456800  0.40044000  1
  Li  Li3  1  0.86746300  0.86746300  0.28194600  1
  Li  Li4  1  0.08403500  0.65215200  0.73438400  1
  Li  Li5  1  0.65215200  0.08403500  0.73438400  1
  Li  Li6  1  0.32451600  0.32451600  0.42854400  1
  Li  Li7  1  0.04705500  0.56226200  0.09957700  1
  Li  Li8  1  0.56226200  0.04705500  0.09957700  1
  Li  Li9  1  0.26911000  0.26911000  0.82335000  1
  Li  Li10  1  0.73089000  0.73089000  0.17665000  1
  Li  Li11  1  0.43773800  0.95294500  0.90042300  1
  Li  Li12  1  0.95294500  0.43773800  0.90042300  1
  Li  Li13  1  0.67548400  0.67548400  0.57145600  1
  Li  Li14  1  0.34784800  0.91596500  0.26561600  1
  Li  Li15  1  0.91596500  0.34784800  0.26561600  1
  Li  Li16  1  0.13253700  0.13253700  0.71805400  1
  Li  Li17  1  0.77543200  0.35626400  0.59956000  1
  Li  Li18  1  0.35626400  0.77543200  0.59956000  1
  Li  Li19  1  0.50877400  0.50877400  0.24383500  1
  Mn  Mn20  1  0.96225000  0.96225000  0.70384800  1
  Mn  Mn21  1  0.03775000  0.03775000  0.29615200  1
  Si  Si22  1  0.39958500  0.39958500  0.00586900  1
  Si  Si23  1  0.78043500  0.78043500  0.62833500  1
  Si  Si24  1  0.21956500  0.21956500  0.37166500  1
  Si  Si25  1  0.60041500  0.60041500  0.99413100  1
  O  O26  1  0.44950400  0.44950400  0.09864700  1
  O  O27  1  0.90720800  0.90720800  0.54653000  1
  O  O28  1  0.40435200  0.40435200  0.68131300  1
  O  O29  1  0.15303200  0.58800500  0.12013100  1
  O  O30  1  0.58800500  0.15303200  0.12013100  1
  O  O31  1  0.03096300  0.58058700  0.71535200  1
  O  O32  1  0.58058700  0.03096300  0.71535200  1
  O  O33  1  0.78583400  0.78583400  0.30708700  1
  O  O34  1  0.27156500  0.27156500  0.21911400  1
  O  O35  1  0.72843500  0.72843500  0.78088600  1
  O  O36  1  0.21416600  0.21416600  0.69291300  1
  O  O37  1  0.96903700  0.41941300  0.28464800  1
  O  O38  1  0.41941300  0.96903700  0.28464800  1
  O  O39  1  0.41199500  0.84696800  0.87986900  1
  O  O40  1  0.84696800  0.41199500  0.87986900  1
  O  O41  1  0.59564800  0.59564800  0.31868700  1
  O  O42  1  0.09279200  0.09279200  0.45347000  1
  O  O43  1  0.55049600  0.55049600  0.90135300  1
  O  O44  1  0.24643900  0.75356100  0.50000000  1
  O  O45  1  0.75356100  0.24643900  0.50000000  1
