# generated using pymatgen
data_LiVBO4
_symmetry_space_group_name_H-M   'P 1'
_cell_length_a   8.20472656
_cell_length_b   8.20472656
_cell_length_c   8.20472686
_cell_angle_alpha   107.61398311
_cell_angle_beta   107.61398311
_cell_angle_gamma   107.61398401
_symmetry_Int_Tables_number   1
_chemical_formula_structural   LiVBO4
_chemical_formula_sum   'Li6 V6 B6 O24'
_cell_volume   452.05374283
_cell_formula_units_Z   6
loop_
 _symmetry_equiv_pos_site_id
 _symmetry_equiv_pos_as_xyz
  1  'x, y, z'
loop_
 _atom_site_type_symbol
 _atom_site_label
 _atom_site_symmetry_multiplicity
 _atom_site_fract_x
 _atom_site_fract_y
 _atom_site_fract_z
 _atom_site_occupancy
  Li  Li0  1  0.24199500  0.45343000  0.05751900  1
  Li  Li1  1  0.94480400  0.77845500  0.54546900  1
  Li  Li2  1  0.54546900  0.94480400  0.77845500  1
  Li  Li3  1  0.45343000  0.05751900  0.24199500  1
  Li  Li4  1  0.05751900  0.24199500  0.45343000  1
  Li  Li5  1  0.77845500  0.54546900  0.94480400  1
  V  V6  1  0.72073900  0.89550600  0.13178200  1
  V  V7  1  0.61450400  0.42648700  0.21123900  1
  V  V8  1  0.21123900  0.61450400  0.42648700  1
  V  V9  1  0.13178200  0.72073900  0.89550600  1
  V  V10  1  0.42648700  0.21123900  0.61450400  1
  V  V11  1  0.89550600  0.13178200  0.72073900  1
  B  B12  1  0.09594100  0.87138500  0.27908500  1
  B  B13  1  0.57364300  0.78634700  0.38336300  1
  B  B14  1  0.87138500  0.27908500  0.09594100  1
  B  B15  1  0.78634700  0.38336300  0.57364300  1
  B  B16  1  0.38336300  0.57364300  0.78634700  1
  B  B17  1  0.27908500  0.09594100  0.87138500  1
  O  O18  1  0.96273300  0.96025400  0.29040500  1
  O  O19  1  0.04090200  0.74983300  0.07691200  1
  O  O20  1  0.57613900  0.89098300  0.26356400  1
  O  O21  1  0.65983500  0.92583100  0.58723800  1
  O  O22  1  0.38020400  0.64598300  0.32333300  1
  O  O23  1  0.08296300  0.75556900  0.38863100  1
  O  O24  1  0.75556900  0.38863100  0.08296300  1
  O  O25  1  0.68814600  0.67787800  0.35258000  1
  O  O26  1  0.37018500  0.29036600  0.02523500  1
  O  O27  1  0.02523500  0.37018500  0.29036600  1
  O  O28  1  0.35258000  0.68814600  0.67787800  1
  O  O29  1  0.74983300  0.07691200  0.04090200  1
  O  O30  1  0.64598300  0.32333300  0.38020400  1
  O  O31  1  0.29040500  0.96273300  0.96025400  1
  O  O32  1  0.92583100  0.58723800  0.65983500  1
  O  O33  1  0.58723800  0.65983500  0.92583100  1
  O  O34  1  0.26356400  0.57613900  0.89098300  1
  O  O35  1  0.32333300  0.38020400  0.64598300  1
  O  O36  1  0.67787800  0.35258000  0.68814600  1
  O  O37  1  0.29036600  0.02523500  0.37018500  1
  O  O38  1  0.89098300  0.26356400  0.57613900  1
  O  O39  1  0.38863100  0.08296300  0.75556900  1
  O  O40  1  0.96025400  0.29040500  0.96273300  1
  O  O41  1  0.07691200  0.04090200  0.74983300  1
