# generated using pymatgen
data_LiMn3(PO4)3
_symmetry_space_group_name_H-M   'P 1'
_cell_length_a   8.65448834
_cell_length_b   8.65448834
_cell_length_c   6.72827344
_cell_angle_alpha   70.90150787
_cell_angle_beta   70.90150787
_cell_angle_gamma   89.25337459
_symmetry_Int_Tables_number   1
_chemical_formula_structural   LiMn3(PO4)3
_chemical_formula_sum   'Li2 Mn6 P6 O24'
_cell_volume   447.49680125
_cell_formula_units_Z   2
loop_
 _symmetry_equiv_pos_site_id
 _symmetry_equiv_pos_as_xyz
  1  'x, y, z'
loop_
 _atom_site_type_symbol
 _atom_site_label
 _atom_site_symmetry_multiplicity
 _atom_site_fract_x
 _atom_site_fract_y
 _atom_site_fract_z
 _atom_site_occupancy
  Li  Li0  1  0.50000000  0.50000000  0.50000000  1
  Li  Li1  1  0.50000000  0.50000000  0.00000000  1
  Mn  Mn2  1  0.38512700  0.06724400  0.35220500  1
  Mn  Mn3  1  0.74090500  0.25909500  0.75000000  1
  Mn  Mn4  1  0.06724400  0.38512700  0.85220500  1
  Mn  Mn5  1  0.93275600  0.61487300  0.14779500  1
  Mn  Mn6  1  0.25909500  0.74090500  0.25000000  1
  Mn  Mn7  1  0.61487300  0.93275600  0.64779500  1
  P  P8  1  0.13455400  0.35069300  0.36705800  1
  P  P9  1  0.28755700  0.71244300  0.75000000  1
  P  P10  1  0.35069300  0.13455400  0.86705800  1
  P  P11  1  0.64930700  0.86544600  0.13294200  1
  P  P12  1  0.71244300  0.28755700  0.25000000  1
  P  P13  1  0.86544600  0.64930700  0.63294200  1
  O  O14  1  0.19220100  0.18143600  0.36995300  1
  O  O15  1  0.16599400  0.73391100  0.96466100  1
  O  O16  1  0.04446700  0.40960700  0.18802100  1
  O  O17  1  0.46346400  0.72651000  0.76469800  1
  O  O18  1  0.72069700  0.52068000  0.69647100  1
  O  O19  1  0.00271500  0.33067300  0.59718100  1
  O  O20  1  0.66932700  0.99728500  0.90281900  1
  O  O21  1  0.47932000  0.27930300  0.80352900  1
  O  O22  1  0.27349000  0.53653600  0.73530200  1
  O  O23  1  0.59039300  0.95553300  0.31197900  1
  O  O24  1  0.26608900  0.83400600  0.53533900  1
  O  O25  1  0.18143600  0.19220100  0.86995300  1
  O  O26  1  0.81856400  0.80779900  0.13004700  1
  O  O27  1  0.73391100  0.16599400  0.46466100  1
  O  O28  1  0.40960700  0.04446700  0.68802100  1
  O  O29  1  0.72651000  0.46346400  0.26469800  1
  O  O30  1  0.52068000  0.72069700  0.19647100  1
  O  O31  1  0.33067300  0.00271500  0.09718100  1
  O  O32  1  0.99728500  0.66932700  0.40281900  1
  O  O33  1  0.27930300  0.47932000  0.30352900  1
  O  O34  1  0.53653600  0.27349000  0.23530200  1
  O  O35  1  0.95553300  0.59039300  0.81197900  1
  O  O36  1  0.83400600  0.26608900  0.03533900  1
  O  O37  1  0.80779900  0.81856400  0.63004700  1
