# generated using pymatgen
data_Li8FeO6
_symmetry_space_group_name_H-M   'P 1'
_cell_length_a   5.34032472
_cell_length_b   5.84295168
_cell_length_c   8.30238602
_cell_angle_alpha   96.20007158
_cell_angle_beta   86.71806544
_cell_angle_gamma   90.16612654
_symmetry_Int_Tables_number   1
_chemical_formula_structural   Li8FeO6
_chemical_formula_sum   'Li16 Fe2 O12'
_cell_volume   257.12240439
_cell_formula_units_Z   2
loop_
 _symmetry_equiv_pos_site_id
 _symmetry_equiv_pos_as_xyz
  1  'x, y, z'
loop_
 _atom_site_type_symbol
 _atom_site_label
 _atom_site_symmetry_multiplicity
 _atom_site_fract_x
 _atom_site_fract_y
 _atom_site_fract_z
 _atom_site_occupancy
  Li  Li0  1  0.16509000  0.42321900  0.06683200  1
  Li  Li1  1  0.66508700  0.92322100  0.56682800  1
  Li  Li2  1  0.83491100  0.57678100  0.93316800  1
  Li  Li3  1  0.33491300  0.07677900  0.43317200  1
  Li  Li4  1  0.30843200  0.44900400  0.79115600  1
  Li  Li5  1  0.80843400  0.94900400  0.29115800  1
  Li  Li6  1  0.69156800  0.55099600  0.20884500  1
  Li  Li7  1  0.19156600  0.05099500  0.70884200  1
  Li  Li8  1  0.35774600  0.77101200  0.12822400  1
  Li  Li9  1  0.85774800  0.27101100  0.62822300  1
  Li  Li10  1  0.64225400  0.22898800  0.87177600  1
  Li  Li11  1  0.14225200  0.72898800  0.37177700  1
  Li  Li12  1  0.52426700  0.81998600  0.84445200  1
  Li  Li13  1  0.02426300  0.31998600  0.34445500  1
  Li  Li14  1  0.47573300  0.18001400  0.15554800  1
  Li  Li15  1  0.97573700  0.68001400  0.65554600  1
  Fe  Fe16  1  0.49999900  0.50000600  0.49999900  1
  Fe  Fe17  1  0.00000200  0.99999700  0.99999800  1
  O  O18  1  0.16624000  0.70464800  0.93573800  1
  O  O19  1  0.66624800  0.20463300  0.43573300  1
  O  O20  1  0.83376000  0.29535200  0.06426300  1
  O  O21  1  0.33375200  0.79536500  0.56426800  1
  O  O22  1  0.29555700  0.16052900  0.92326900  1
  O  O23  1  0.79557200  0.66053200  0.42326700  1
  O  O24  1  0.70444300  0.83947100  0.07673200  1
  O  O25  1  0.20442700  0.33946800  0.57673300  1
  O  O26  1  0.34534200  0.49585900  0.25762300  1
  O  O27  1  0.84535000  0.99586000  0.75763000  1
  O  O28  1  0.65465800  0.50414000  0.74237700  1
  O  O29  1  0.15465000  0.00414000  0.24237000  1
