# generated using pymatgen
data_Li4Cr3Ni3(WO8)2
_symmetry_space_group_name_H-M   'P 1'
_cell_length_a   5.93128248
_cell_length_b   5.93128248
_cell_length_c   9.65264235
_cell_angle_alpha   89.61933478
_cell_angle_beta   89.61933478
_cell_angle_gamma   60.44948879
_symmetry_Int_Tables_number   1
_chemical_formula_structural   Li4Cr3Ni3(WO8)2
_chemical_formula_sum   'Li4 Cr3 Ni3 W2 O16'
_cell_volume   295.40002546
_cell_formula_units_Z   1
loop_
 _symmetry_equiv_pos_site_id
 _symmetry_equiv_pos_as_xyz
  1  'x, y, z'
loop_
 _atom_site_type_symbol
 _atom_site_label
 _atom_site_symmetry_multiplicity
 _atom_site_fract_x
 _atom_site_fract_y
 _atom_site_fract_z
 _atom_site_occupancy
  Li  Li0  1  0.33512800  0.33512800  0.90698000  1
  Li  Li1  1  0.00055800  0.00055800  0.98685700  1
  Li  Li2  1  0.99945200  0.99945200  0.49187700  1
  Li  Li3  1  0.66877500  0.66877500  0.40555000  1
  Cr  Cr4  1  0.16708700  0.65880300  0.21481900  1
  Cr  Cr5  1  0.65880300  0.16708700  0.21481900  1
  Cr  Cr6  1  0.82488200  0.82488200  0.72237700  1
  Ni  Ni7  1  0.16972900  0.16972900  0.21482300  1
  Ni  Ni8  1  0.33933300  0.82885000  0.71134000  1
  Ni  Ni9  1  0.82885000  0.33933300  0.71134000  1
  W  W10  1  0.33039200  0.33039200  0.48723100  1
  W  W11  1  0.66097700  0.66097700  0.98930900  1
  O  O12  1  0.16615800  0.65243100  0.59029200  1
  O  O13  1  0.48096000  0.48096000  0.34341200  1
  O  O14  1  0.33632200  0.33632200  0.10764500  1
  O  O15  1  0.99698100  0.99698100  0.30589300  1
  O  O16  1  0.99034900  0.99034900  0.79624800  1
  O  O17  1  0.65243100  0.16615800  0.59029200  1
  O  O18  1  0.03946700  0.48746800  0.34990200  1
  O  O19  1  0.48746800  0.03946700  0.34990200  1
  O  O20  1  0.82781300  0.82781300  0.09360700  1
  O  O21  1  0.17048500  0.17048500  0.58495400  1
  O  O22  1  0.53552400  0.96177100  0.84909700  1
  O  O23  1  0.96177100  0.53552400  0.84909700  1
  O  O24  1  0.67967300  0.67967300  0.61096900  1
  O  O25  1  0.34191100  0.82562800  0.08773500  1
  O  O26  1  0.52244300  0.52244300  0.85382200  1
  O  O27  1  0.82562800  0.34191100  0.08773500  1
