# generated using pymatgen
data_LiMnV(P2O7)2
_symmetry_space_group_name_H-M   'P 1'
_cell_length_a   4.86022927
_cell_length_b   16.28976215
_cell_length_c   7.03778517
_cell_angle_alpha   91.77858274
_cell_angle_beta   108.04670003
_cell_angle_gamma   88.54230603
_symmetry_Int_Tables_number   1
_chemical_formula_structural   LiMnV(P2O7)2
_chemical_formula_sum   'Li2 Mn2 V2 P8 O28'
_cell_volume   529.45513734
_cell_formula_units_Z   2
loop_
 _symmetry_equiv_pos_site_id
 _symmetry_equiv_pos_as_xyz
  1  'x, y, z'
loop_
 _atom_site_type_symbol
 _atom_site_label
 _atom_site_symmetry_multiplicity
 _atom_site_fract_x
 _atom_site_fract_y
 _atom_site_fract_z
 _atom_site_occupancy
  Li  Li0  1  0.16127900  0.43378900  0.67557100  1
  Li  Li1  1  0.16055200  0.93382100  0.67532900  1
  Mn  Mn2  1  0.78466200  0.50329500  0.26659800  1
  Mn  Mn3  1  0.78496500  0.00313000  0.26633900  1
  V  V4  1  0.20428800  0.74737200  0.72006500  1
  V  V5  1  0.20421800  0.24725800  0.72005200  1
  P  P6  1  0.40288800  0.08881300  0.51835400  1
  P  P7  1  0.40317000  0.58889900  0.51852100  1
  P  P8  1  0.22654100  0.39007000  0.09471500  1
  P  P9  1  0.22648800  0.89000300  0.09465300  1
  P  P10  1  0.78359300  0.14241700  0.90985000  1
  P  P11  1  0.78404500  0.64259100  0.91028100  1
  P  P12  1  0.60073800  0.34014700  0.48679800  1
  P  P13  1  0.60044000  0.84012300  0.48666800  1
  O  O14  1  0.04475200  0.16760000  0.84337000  1
  O  O15  1  0.04527100  0.66783200  0.84416500  1
  O  O16  1  0.14354100  0.34266200  0.89309200  1
  O  O17  1  0.14338200  0.84272600  0.89284800  1
  O  O18  1  0.17765500  0.02127500  0.48590500  1
  O  O19  1  0.17819000  0.52138800  0.48642400  1
  O  O20  1  0.26724300  0.17539800  0.51637000  1
  O  O21  1  0.26748000  0.67549800  0.51653000  1
  O  O22  1  0.38041100  0.33726500  0.60571200  1
  O  O23  1  0.38012100  0.83744800  0.60553900  1
  O  O24  1  0.58301600  0.21846600  0.89898800  1
  O  O25  1  0.58305400  0.71861200  0.89896300  1
  O  O26  1  0.60969500  0.07464200  0.74455100  1
  O  O27  1  0.61086000  0.57478600  0.74466600  1
  O  O28  1  0.41527600  0.32544000  0.25467600  1
  O  O29  1  0.41521300  0.82537600  0.25457000  1
  O  O30  1  0.40697200  0.46430600  0.08341000  1
  O  O31  1  0.40687000  0.96428200  0.08360200  1
  O  O32  1  0.58860800  0.08606900  0.37955900  1
  O  O33  1  0.58830400  0.58622300  0.37938500  1
  O  O34  1  0.74478200  0.42303900  0.50885100  1
  O  O35  1  0.74473800  0.92302900  0.50832400  1
  O  O36  1  0.81774000  0.26833400  0.53515800  1
  O  O37  1  0.81737100  0.76830400  0.53549700  1
  O  O38  1  0.87831300  0.09847900  0.10284200  1
  O  O39  1  0.87819900  0.59875900  0.10334100  1
  O  O40  1  0.95495600  0.41344400  0.15134600  1
  O  O41  1  0.95477500  0.91327800  0.15116200  1
