# generated using pymatgen
data_Na2SrLiVP2O9
_symmetry_space_group_name_H-M   'P 1'
_cell_length_a   6.98519600
_cell_length_b   10.69487900
_cell_length_c   10.76400200
_cell_angle_alpha   90.00000000
_cell_angle_beta   90.00000000
_cell_angle_gamma   90.00000000
_symmetry_Int_Tables_number   1
_chemical_formula_structural   Na2SrLiVP2O9
_chemical_formula_sum   'Na8 Sr4 Li4 V4 P8 O36'
_cell_volume   804.13366060
_cell_formula_units_Z   4
loop_
 _symmetry_equiv_pos_site_id
 _symmetry_equiv_pos_as_xyz
  1  'x, y, z'
loop_
 _atom_site_type_symbol
 _atom_site_label
 _atom_site_symmetry_multiplicity
 _atom_site_fract_x
 _atom_site_fract_y
 _atom_site_fract_z
 _atom_site_occupancy
  Na  Na0  1  0.48598400  0.14494700  0.73267400  1
  Na  Na1  1  0.01315700  0.15487100  0.74594100  1
  Na  Na2  1  0.51315700  0.65487100  0.75405900  1
  Na  Na3  1  0.98598400  0.64494700  0.76732600  1
  Na  Na4  1  0.01315700  0.34512900  0.24594100  1
  Na  Na5  1  0.48598400  0.35505300  0.23267400  1
  Na  Na6  1  0.51315700  0.84512900  0.25405900  1
  Na  Na7  1  0.98598400  0.85505300  0.26732600  1
  Sr  Sr8  1  0.75069400  0.42279900  0.56463000  1
  Sr  Sr9  1  0.25069400  0.92279900  0.93537000  1
  Sr  Sr10  1  0.75069400  0.07720100  0.06463000  1
  Sr  Sr11  1  0.25069400  0.57720100  0.43537000  1
  Li  Li12  1  0.96292900  0.99550000  0.53673200  1
  Li  Li13  1  0.46292900  0.49550000  0.96326800  1
  Li  Li14  1  0.96292900  0.50450000  0.03673200  1
  Li  Li15  1  0.46292900  0.00450000  0.46326800  1
  V  V16  1  0.74025900  0.79255300  0.52598400  1
  V  V17  1  0.24025900  0.29255300  0.97401600  1
  V  V18  1  0.74025900  0.70744700  0.02598400  1
  V  V19  1  0.24025900  0.20744700  0.47401600  1
  P  P20  1  0.24768000  0.85700300  0.58766600  1
  P  P21  1  0.25308300  0.41535100  0.69062400  1
  P  P22  1  0.75308300  0.91535100  0.80937600  1
  P  P23  1  0.74768000  0.35700300  0.91233400  1
  P  P24  1  0.24768000  0.64299700  0.08766600  1
  P  P25  1  0.25308300  0.08464900  0.19062400  1
  P  P26  1  0.75308300  0.58464900  0.30937600  1
  P  P27  1  0.74768000  0.14299700  0.41233400  1
  O  O28  1  0.42879700  0.82138600  0.50658400  1
  O  O29  1  0.06751700  0.81632600  0.51036500  1
  O  O30  1  0.24221400  0.00409400  0.59707400  1
  O  O31  1  0.75082300  0.64989500  0.60978400  1
  O  O32  1  0.42808600  0.48274100  0.63652700  1
  O  O33  1  0.07317100  0.48163600  0.64223800  1
  O  O34  1  0.24952300  0.27458000  0.65173800  1
  O  O35  1  0.76306300  0.92495000  0.66361600  1
  O  O36  1  0.25387800  0.79354700  0.71591900  1
  O  O37  1  0.75387800  0.29354700  0.78408100  1
  O  O38  1  0.26306300  0.42495000  0.83638400  1
  O  O39  1  0.74952300  0.77458000  0.84826200  1
  O  O40  1  0.57317100  0.98163600  0.85776200  1
  O  O41  1  0.92808600  0.98274100  0.86347300  1
  O  O42  1  0.25082300  0.14989500  0.89021600  1
  O  O43  1  0.74221400  0.50409400  0.90292600  1
  O  O44  1  0.92879700  0.32138600  0.99341600  1
  O  O45  1  0.56751700  0.31632600  0.98963500  1
  O  O46  1  0.42879700  0.67861400  0.00658400  1
  O  O47  1  0.06751700  0.68367400  0.01036500  1
  O  O48  1  0.24221400  0.49590600  0.09707400  1
  O  O49  1  0.75082300  0.85010500  0.10978400  1
  O  O50  1  0.42808600  0.01725900  0.13652700  1
  O  O51  1  0.07317100  0.01836400  0.14223800  1
  O  O52  1  0.24952300  0.22542000  0.15173800  1
  O  O53  1  0.76306300  0.57505000  0.16361600  1
  O  O54  1  0.25387800  0.70645300  0.21591900  1
  O  O55  1  0.75387800  0.20645300  0.28408100  1
  O  O56  1  0.26306300  0.07505000  0.33638400  1
  O  O57  1  0.74952300  0.72542000  0.34826200  1
  O  O58  1  0.92808600  0.51725900  0.36347300  1
  O  O59  1  0.57317100  0.51836400  0.35776200  1
  O  O60  1  0.25082300  0.35010500  0.39021600  1
  O  O61  1  0.74221400  0.99590600  0.40292600  1
  O  O62  1  0.92879700  0.17861400  0.49341600  1
  O  O63  1  0.56751700  0.18367400  0.48963500  1
