# generated using pymatgen
data_LiMnPO4
_symmetry_space_group_name_H-M   'P 1'
_cell_length_a   7.94657100
_cell_length_b   8.86922900
_cell_length_c   17.70286119
_cell_angle_alpha   60.54053209
_cell_angle_beta   90.00000000
_cell_angle_gamma   90.00000000
_symmetry_Int_Tables_number   1
_chemical_formula_structural   LiMnPO4
_chemical_formula_sum   'Li12 Mn12 P12 O48'
_cell_volume   1086.37447758
_cell_formula_units_Z   12
loop_
 _symmetry_equiv_pos_site_id
 _symmetry_equiv_pos_as_xyz
  1  'x, y, z'
loop_
 _atom_site_type_symbol
 _atom_site_label
 _atom_site_symmetry_multiplicity
 _atom_site_fract_x
 _atom_site_fract_y
 _atom_site_fract_z
 _atom_site_occupancy
  Li  Li0  1  0.46122400  0.20015100  0.06328500  1
  Li  Li1  1  0.54390200  0.85463000  0.40738300  1
  Li  Li2  1  0.34428600  0.50191100  0.74948700  1
  Li  Li3  1  0.84428600  0.49808900  0.75051300  1
  Li  Li4  1  0.04390200  0.14537000  0.09261700  1
  Li  Li5  1  0.96122400  0.79984900  0.43671500  1
  Li  Li6  1  0.03877600  0.20015100  0.56328500  1
  Li  Li7  1  0.95609800  0.85463000  0.90738300  1
  Li  Li8  1  0.15571400  0.50191100  0.24948700  1
  Li  Li9  1  0.65571400  0.49808900  0.25051300  1
  Li  Li10  1  0.45609800  0.14537000  0.59261700  1
  Li  Li11  1  0.53877600  0.79984900  0.93671500  1
  Mn  Mn12  1  0.76634200  0.85884000  0.59600200  1
  Mn  Mn13  1  0.72565300  0.18129700  0.22965800  1
  Mn  Mn14  1  0.77122600  0.45969600  0.92697200  1
  Mn  Mn15  1  0.27122600  0.54030400  0.57302800  1
  Mn  Mn16  1  0.22565300  0.81870300  0.27034200  1
  Mn  Mn17  1  0.26634200  0.14116000  0.90399800  1
  Mn  Mn18  1  0.73365800  0.85884000  0.09600200  1
  Mn  Mn19  1  0.77434700  0.18129700  0.72965800  1
  Mn  Mn20  1  0.72877400  0.45969600  0.42697200  1
  Mn  Mn21  1  0.22877400  0.54030400  0.07302800  1
  Mn  Mn22  1  0.27434700  0.81870300  0.77034200  1
  Mn  Mn23  1  0.23365800  0.14116000  0.40399800  1
  P  P24  1  0.17505000  0.85916000  0.59132300  1
  P  P25  1  0.32467100  0.18531300  0.22465500  1
  P  P26  1  0.17634600  0.45929700  0.92683600  1
  P  P27  1  0.67634600  0.54070300  0.57316400  1
  P  P28  1  0.82467100  0.81468700  0.27534500  1
  P  P29  1  0.67505000  0.14084000  0.90867700  1
  P  P30  1  0.32495000  0.85916000  0.09132300  1
  P  P31  1  0.17532900  0.18531300  0.72465500  1
  P  P32  1  0.32365400  0.45929700  0.42683600  1
  P  P33  1  0.82365400  0.54070300  0.07316400  1
  P  P34  1  0.67532900  0.81468700  0.77534500  1
  P  P35  1  0.82495000  0.14084000  0.40867700  1
  O  O36  1  0.98915100  0.07665400  0.38611100  1
  O  O37  1  0.86317300  0.34373200  0.12165700  1
  O  O38  1  0.71224100  0.97947300  0.46435300  1
  O  O39  1  0.76485700  0.64406000  0.79300200  1
  O  O40  1  0.29343100  0.41075800  0.00654400  1
  O  O41  1  0.48999000  0.23194700  0.17115800  1
  O  O42  1  0.36341500  0.07094800  0.32376300  1
  O  O43  1  0.27008600  0.73395400  0.67688600  1
  O  O44  1  0.01106400  0.35306600  0.96085300  1
  O  O45  1  0.13319000  0.76242900  0.53983300  1
  O  O46  1  0.26692400  0.40697500  0.86474000  1
  O  O47  1  0.20910000  0.08439600  0.19387900  1
  O  O48  1  0.76692400  0.59302500  0.63526000  1
  O  O49  1  0.70910000  0.91560400  0.30612100  1
  O  O50  1  0.63319000  0.23757100  0.96016700  1
  O  O51  1  0.51106400  0.64693400  0.53914700  1
  O  O52  1  0.77008600  0.26604600  0.82311400  1
  O  O53  1  0.86341500  0.92905200  0.17623700  1
  O  O54  1  0.98999000  0.76805300  0.32884200  1
  O  O55  1  0.26485700  0.35594000  0.70699800  1
  O  O56  1  0.79343100  0.58924200  0.49345600  1
  O  O57  1  0.21224100  0.02052700  0.03564700  1
  O  O58  1  0.36317300  0.65626800  0.37834300  1
  O  O59  1  0.48915100  0.92334600  0.11388900  1
  O  O60  1  0.51084900  0.07665400  0.88611100  1
  O  O61  1  0.63682700  0.34373200  0.62165700  1
  O  O62  1  0.78775900  0.97947300  0.96435300  1
  O  O63  1  0.20656900  0.41075800  0.50654400  1
  O  O64  1  0.73514300  0.64406000  0.29300200  1
  O  O65  1  0.01001000  0.23194700  0.67115800  1
  O  O66  1  0.13658500  0.07094800  0.82376300  1
  O  O67  1  0.22991400  0.73395400  0.17688600  1
  O  O68  1  0.48893600  0.35306600  0.46085300  1
  O  O69  1  0.36681000  0.76242900  0.03983300  1
  O  O70  1  0.29090000  0.08439600  0.69387900  1
  O  O71  1  0.23307600  0.40697500  0.36474000  1
  O  O72  1  0.79090000  0.91560400  0.80612100  1
  O  O73  1  0.73307600  0.59302500  0.13526000  1
  O  O74  1  0.86681000  0.23757100  0.46016700  1
  O  O75  1  0.98893600  0.64693400  0.03914700  1
  O  O76  1  0.72991400  0.26604600  0.32311400  1
  O  O77  1  0.63658500  0.92905200  0.67623700  1
  O  O78  1  0.51001000  0.76805300  0.82884200  1
  O  O79  1  0.70656900  0.58924200  0.99345600  1
  O  O80  1  0.23514300  0.35594000  0.20699800  1
  O  O81  1  0.28775900  0.02052700  0.53564700  1
  O  O82  1  0.13682700  0.65626800  0.87834300  1
  O  O83  1  0.01084900  0.92334600  0.61388900  1
