# generated using pymatgen
data_Li4Ti11O24
_symmetry_space_group_name_H-M   'P 1'
_cell_length_a   10.26379631
_cell_length_b   10.26379631
_cell_length_c   8.50023487
_cell_angle_alpha   65.92981488
_cell_angle_beta   65.92981488
_cell_angle_gamma   33.92879504
_symmetry_Int_Tables_number   1
_chemical_formula_structural   Li4Ti11O24
_chemical_formula_sum   'Li4 Ti11 O24'
_cell_volume   452.09565082
_cell_formula_units_Z   1
loop_
 _symmetry_equiv_pos_site_id
 _symmetry_equiv_pos_as_xyz
  1  'x, y, z'
loop_
 _atom_site_type_symbol
 _atom_site_label
 _atom_site_symmetry_multiplicity
 _atom_site_fract_x
 _atom_site_fract_y
 _atom_site_fract_z
 _atom_site_occupancy
  Li  Li0  1  0.58403400  0.58403400  0.53198400  1
  Li  Li1  1  0.41596600  0.41596600  0.46801600  1
  Li  Li2  1  0.08905600  0.08905600  0.78907600  1
  Li  Li3  1  0.91094400  0.91094400  0.21092400  1
  Ti  Ti4  1  0.66679300  0.17756700  0.83889000  1
  Ti  Ti5  1  0.82243300  0.33320700  0.16111000  1
  Ti  Ti6  1  0.17057000  0.17057000  0.31425900  1
  Ti  Ti7  1  0.34146600  0.34146600  0.15727900  1
  Ti  Ti8  1  0.17756700  0.66679300  0.83889000  1
  Ti  Ti9  1  0.33320700  0.82243300  0.16111000  1
  Ti  Ti10  1  0.00000000  0.50000000  0.50000000  1
  Ti  Ti11  1  0.82943000  0.82943000  0.68574100  1
  Ti  Ti12  1  0.65853400  0.65853400  0.84272100  1
  Ti  Ti13  1  0.00000000  0.00000000  0.50000000  1
  Ti  Ti14  1  0.50000000  0.00000000  0.50000000  1
  O  O15  1  0.86588300  0.30159200  0.40468500  1
  O  O16  1  0.69840800  0.13411700  0.59531500  1
  O  O17  1  0.65338300  0.16484800  0.07174600  1
  O  O18  1  0.17797100  0.17797100  0.56418500  1
  O  O19  1  0.15579600  0.15579600  0.11360500  1
  O  O20  1  0.48936200  0.48936200  0.74836700  1
  O  O21  1  0.34617600  0.34617600  0.92333900  1
  O  O22  1  0.32721100  0.32721100  0.41282300  1
  O  O23  1  0.51063800  0.51063800  0.25163300  1
  O  O24  1  0.03402800  0.46551400  0.27099500  1
  O  O25  1  0.16484800  0.65338300  0.07174600  1
  O  O26  1  0.83515200  0.34661700  0.92825400  1
  O  O27  1  0.30159200  0.86588300  0.40468500  1
  O  O28  1  0.13411700  0.69840800  0.59531500  1
  O  O29  1  0.96597200  0.53448600  0.72900500  1
  O  O30  1  0.00708000  0.00708000  0.25586500  1
  O  O31  1  0.67278900  0.67278900  0.58717700  1
  O  O32  1  0.99292000  0.99292000  0.74413500  1
  O  O33  1  0.84420400  0.84420400  0.88639500  1
  O  O34  1  0.82202900  0.82202900  0.43581500  1
  O  O35  1  0.65382400  0.65382400  0.07666100  1
  O  O36  1  0.53448600  0.96597200  0.72900500  1
  O  O37  1  0.34661700  0.83515200  0.92825400  1
  O  O38  1  0.46551400  0.03402800  0.27099500  1
