# generated using pymatgen
data_Li6V3P8O29
_symmetry_space_group_name_H-M   'P 1'
_cell_length_a   9.79625200
_cell_length_b   9.80230911
_cell_length_c   13.98197799
_cell_angle_alpha   90.28571915
_cell_angle_beta   89.98957102
_cell_angle_gamma   119.60468660
_symmetry_Int_Tables_number   1
_chemical_formula_structural   Li6V3P8O29
_chemical_formula_sum   'Li12 V6 P16 O58'
_cell_volume   1167.33883108
_cell_formula_units_Z   2
loop_
 _symmetry_equiv_pos_site_id
 _symmetry_equiv_pos_as_xyz
  1  'x, y, z'
loop_
 _atom_site_type_symbol
 _atom_site_label
 _atom_site_symmetry_multiplicity
 _atom_site_fract_x
 _atom_site_fract_y
 _atom_site_fract_z
 _atom_site_occupancy
  Li  Li0  1  0.09349400  0.76074200  0.55819300  1
  Li  Li1  1  0.66275500  0.90055900  0.56176800  1
  Li  Li2  1  0.33389700  0.67253100  0.88869500  1
  Li  Li3  1  0.67681300  0.76820100  0.06197800  1
  Li  Li4  1  0.09179500  0.32466100  0.05880200  1
  Li  Li5  1  0.23608000  0.33147200  0.56281200  1
  Li  Li6  1  0.91172700  0.68149600  0.93937200  1
  Li  Li7  1  0.65490900  0.32248200  0.10951400  1
  Li  Li8  1  0.33423700  0.09700200  0.43804500  1
  Li  Li9  1  0.90121400  0.23477300  0.44097500  1
  Li  Li10  1  0.05922600  0.03809600  0.99644800  1
  Li  Li11  1  0.96041500  0.94493100  0.49334400  1
  V  V12  1  0.56314700  0.56259900  0.25456200  1
  V  V13  1  0.44055200  0.43818300  0.74919300  1
  V  V14  1  0.99981600  0.56285000  0.74945900  1
  V  V15  1  0.99936000  0.43623700  0.24923700  1
  V  V16  1  0.43358300  0.99797500  0.24447800  1
  V  V17  1  0.56410700  0.00168900  0.75458700  1
  P  P18  1  0.21817000  0.91368700  0.84347900  1
  P  P19  1  0.08732300  0.77659100  0.34033900  1
  P  P20  1  0.68860500  0.91762600  0.34278400  1
  P  P21  1  0.33190000  0.66115900  0.12914100  1
  P  P22  1  0.33359000  0.66651400  0.62917000  1
  P  P23  1  0.68377700  0.77398300  0.84393100  1
  P  P24  1  0.77828600  0.69552300  0.65797400  1
  P  P25  1  0.09463200  0.31563300  0.84283100  1
  P  P26  1  0.90757600  0.68533600  0.15675600  1
  P  P27  1  0.22769400  0.31379100  0.34577600  1
  P  P28  1  0.30990400  0.22145700  0.16029300  1
  P  P29  1  0.66408500  0.32906000  0.36905100  1
  P  P30  1  0.67122200  0.33811600  0.87024500  1
  P  P31  1  0.31000500  0.08250100  0.65674300  1
  P  P32  1  0.91103300  0.22393100  0.66049000  1
  P  P33  1  0.78071800  0.08819100  0.15751300  1
  O  O34  1  0.22540700  0.99761200  0.56590500  1
  O  O35  1  0.25605300  0.91794400  0.33528500  1
  O  O36  1  0.98989200  0.76392100  0.06657800  1
  O  O37  1  0.07808800  0.74334100  0.84046100  1
  O  O38  1  0.36985300  0.89955900  0.83325700  1
  O  O39  1  0.33157100  0.80609100  0.17203700  1
  O  O40  1  0.53663000  0.92554800  0.32722500  1
  O  O41  1  0.78472700  0.98974000  0.07741100  1
  O  O42  1  0.65952500  0.91753100  0.83964600  1
  O  O43  1  0.18482200  0.67132500  0.67071700  1
  O  O44  1  0.08490000  0.61861900  0.32965800  1
  O  O45  1  0.48436600  0.81139400  0.67144900  1
  O  O46  1  0.33337900  0.65561900  0.02169400  1
  O  O47  1  0.33070500  0.66720300  0.52231600  1
  O  O48  1  0.48020400  0.65884700  0.16947100  1
  O  O49  1  0.10415500  0.47870700  0.82974400  1
  O  O50  1  0.18110900  0.51039100  0.16738900  1
  O  O51  1  0.65568700  0.74955900  0.33750600  1
  O  O52  1  0.79858300  0.78867500  0.75844400  1
  O  O53  1  0.79439400  0.80587000  0.57892800  1
  O  O54  1  0.76229600  0.76521000  0.93452000  1
  O  O55  1  0.51859200  0.62794900  0.82858400  1
  O  O56  1  0.32568600  0.51269900  0.66902200  1
  O  O57  1  0.74129600  0.66473700  0.16090400  1
  O  O58  1  0.37664400  0.47246400  0.33111200  1
  O  O59  1  0.07999700  0.33149600  0.34155700  1
  O  O60  1  0.99784500  0.79373100  0.24852700  1
  O  O61  1  0.01126700  0.78913800  0.43107400  1
  O  O62  1  0.99917100  0.22748000  0.57055900  1
  O  O63  1  0.91673800  0.66273600  0.65665400  1
  O  O64  1  0.61865900  0.54475600  0.66320000  1
  O  O65  1  0.26265200  0.34478100  0.83495700  1
  O  O66  1  0.66487000  0.47695400  0.32313900  1
  O  O67  1  0.47017400  0.37428800  0.16609200  1
  O  O68  1  0.20417700  0.21117500  0.07998600  1
  O  O69  1  0.23140300  0.23175100  0.43650800  1
  O  O70  1  0.21369000  0.19970300  0.25833900  1
  O  O71  1  0.33786700  0.25111800  0.65830100  1
  O  O72  1  0.82290100  0.48797500  0.83240400  1
  O  O73  1  0.89065900  0.51974200  0.17250000  1
  O  O74  1  0.53094000  0.34706000  0.82312800  1
  O  O75  1  0.67168700  0.34606700  0.97705900  1
  O  O76  1  0.66914600  0.32922800  0.47547700  1
  O  O77  1  0.51059100  0.18583200  0.32878900  1
  O  O78  1  0.90509400  0.37697700  0.67351500  1
  O  O79  1  0.81209800  0.32446300  0.32663200  1
  O  O80  1  0.34541300  0.08387000  0.15911500  1
  O  O81  1  0.19936000  0.99151300  0.74529600  1
  O  O82  1  0.20794400  0.00304500  0.92591100  1
  O  O83  1  0.46526500  0.08052800  0.67198900  1
  O  O84  1  0.66703500  0.18963600  0.82852700  1
  O  O85  1  0.63066000  0.10367100  0.16641500  1
  O  O86  1  0.92204900  0.25738400  0.15584000  1
  O  O87  1  0.01611200  0.23283100  0.93324200  1
  O  O88  1  0.99940800  0.20527500  0.75233600  1
  O  O89  1  0.74490200  0.07962700  0.66111800  1
  O  O90  1  0.77315500  0.99823700  0.43525100  1
  O  O91  1  0.80372000  0.01664300  0.25711900  1
