# generated using pymatgen
data_Li4Cr2P4H3O16
_symmetry_space_group_name_H-M   'P 1'
_cell_length_a   4.95004800
_cell_length_b   7.69340352
_cell_length_c   8.36833701
_cell_angle_alpha   89.31421672
_cell_angle_beta   88.15121158
_cell_angle_gamma   76.14074476
_symmetry_Int_Tables_number   1
_chemical_formula_structural   Li4Cr2P4H3O16
_chemical_formula_sum   'Li4 Cr2 P4 H3 O16'
_cell_volume   309.24701970
_cell_formula_units_Z   1
loop_
 _symmetry_equiv_pos_site_id
 _symmetry_equiv_pos_as_xyz
  1  'x, y, z'
loop_
 _atom_site_type_symbol
 _atom_site_label
 _atom_site_symmetry_multiplicity
 _atom_site_fract_x
 _atom_site_fract_y
 _atom_site_fract_z
 _atom_site_occupancy
  Li  Li0  1  0.11513800  0.32122800  0.35527700  1
  Li  Li1  1  0.39711200  0.15213200  0.87734400  1
  Li  Li2  1  0.58481900  0.84352400  0.11722300  1
  Li  Li3  1  0.88634700  0.68054200  0.64769400  1
  Cr  Cr4  1  0.00038200  0.50250900  0.99764700  1
  Cr  Cr5  1  0.49806600  0.99839200  0.50062100  1
  P  P6  1  0.10420000  0.74360500  0.32397400  1
  P  P7  1  0.37507000  0.76331800  0.84720900  1
  P  P8  1  0.62460700  0.24289900  0.15446100  1
  P  P9  1  0.89066100  0.25586200  0.67594400  1
  H  H10  1  0.95580100  0.02092600  0.01432400  1
  H  H11  1  0.45196200  0.52947600  0.39882900  1
  H  H12  1  0.54692200  0.47926200  0.61528800  1
  O  O13  1  0.11740600  0.17428500  0.55181100  1
  O  O14  1  0.97635300  0.69052900  0.17107700  1
  O  O15  1  0.15600900  0.64761200  0.82744900  1
  O  O16  1  0.24910400  0.55223800  0.41138300  1
  O  O17  1  0.38378500  0.34181200  0.05017000  1
  O  O18  1  0.51637600  0.19392200  0.31756400  1
  O  O19  1  0.25301400  0.93850800  0.93985700  1
  O  O20  1  0.32625500  0.84523900  0.29474300  1
  O  O21  1  0.67045700  0.15320600  0.70623900  1
  O  O22  1  0.75442900  0.05920100  0.06219200  1
  O  O23  1  0.48289100  0.80155600  0.67884800  1
  O  O24  1  0.62089900  0.65353500  0.94639200  1
  O  O25  1  0.74620500  0.44581800  0.58623200  1
  O  O26  1  0.84904600  0.35091700  0.17198500  1
  O  O27  1  0.01581400  0.31008200  0.82942900  1
  O  O28  1  0.87975300  0.82596200  0.44869600  1
