# generated using pymatgen
data_Li11Fe(WO4)7
_symmetry_space_group_name_H-M   'P 1'
_cell_length_a   8.54673247
_cell_length_b   8.54673247
_cell_length_c   8.30213610
_cell_angle_alpha   89.55323344
_cell_angle_beta   89.55323344
_cell_angle_gamma   89.80797909
_symmetry_Int_Tables_number   1
_chemical_formula_structural   Li11Fe(WO4)7
_chemical_formula_sum   'Li11 Fe1 W7 O28'
_cell_volume   606.40295738
_cell_formula_units_Z   1
loop_
 _symmetry_equiv_pos_site_id
 _symmetry_equiv_pos_as_xyz
  1  'x, y, z'
loop_
 _atom_site_type_symbol
 _atom_site_label
 _atom_site_symmetry_multiplicity
 _atom_site_fract_x
 _atom_site_fract_y
 _atom_site_fract_z
 _atom_site_occupancy
  Li  Li0  1  0.34829500  0.64320400  0.89965500  1
  Li  Li1  1  0.64320400  0.34829500  0.89965500  1
  Li  Li2  1  0.08873200  0.64852300  0.64613500  1
  Li  Li3  1  0.34815100  0.91114500  0.64289500  1
  Li  Li4  1  0.64852300  0.08873200  0.64613500  1
  Li  Li5  1  0.91114500  0.34815100  0.64289500  1
  Li  Li6  1  0.09296600  0.34963300  0.35765700  1
  Li  Li7  1  0.34963300  0.09296600  0.35765700  1
  Li  Li8  1  0.64923500  0.90583100  0.36040300  1
  Li  Li9  1  0.90583100  0.64923500  0.36040300  1
  Li  Li10  1  0.35182900  0.35182900  0.09421900  1
  Fe  Fe11  1  0.63020500  0.63020500  0.12217200  1
  W  W12  1  0.99237100  0.50048000  0.00043500  1
  W  W13  1  0.50048000  0.99237100  0.00043500  1
  W  W14  1  0.35495800  0.35495800  0.63881800  1
  W  W15  1  0.64443700  0.64443700  0.65285700  1
  W  W16  1  0.99894200  0.99894200  0.49941900  1
  W  W17  1  0.35700000  0.64710200  0.36329100  1
  W  W18  1  0.64710200  0.35700000  0.36329100  1
  O  O19  1  0.38768300  0.38768300  0.85259300  1
  O  O20  1  0.62184800  0.62184800  0.87197400  1
  O  O21  1  0.11826500  0.62118400  0.87770100  1
  O  O22  1  0.62118400  0.11826500  0.87770100  1
  O  O23  1  0.37502700  0.87838900  0.87522600  1
  O  O24  1  0.87838900  0.37502700  0.87522600  1
  O  O25  1  0.12196700  0.87425300  0.62298400  1
  O  O26  1  0.87425300  0.12196700  0.62298400  1
  O  O27  1  0.39804800  0.61201300  0.60541700  1
  O  O28  1  0.61201300  0.39804800  0.60541700  1
  O  O29  1  0.14646800  0.38513100  0.61503900  1
  O  O30  1  0.38513100  0.14646800  0.61503900  1
  O  O31  1  0.61849100  0.85159300  0.61774600  1
  O  O32  1  0.85159300  0.61849100  0.61774600  1
  O  O33  1  0.14822000  0.61963300  0.37267900  1
  O  O34  1  0.61963300  0.14822000  0.37267900  1
  O  O35  1  0.38355700  0.85562100  0.38422500  1
  O  O36  1  0.85562100  0.38355700  0.38422500  1
  O  O37  1  0.39530800  0.39530800  0.38895500  1
  O  O38  1  0.61467200  0.61467200  0.37030400  1
  O  O39  1  0.12305900  0.12305900  0.37580200  1
  O  O40  1  0.87719200  0.87719200  0.37481000  1
  O  O41  1  0.11991500  0.38422800  0.12526200  1
  O  O42  1  0.38422800  0.11991500  0.12526200  1
  O  O43  1  0.62358900  0.85600700  0.12136600  1
  O  O44  1  0.85600700  0.62358900  0.12136600  1
  O  O45  1  0.40387400  0.62172300  0.14092400  1
  O  O46  1  0.62172300  0.40387400  0.14092400  1
