# generated using pymatgen
data_Li2Fe3(PO4)3
_symmetry_space_group_name_H-M   'P 1'
_cell_length_a   8.50852346
_cell_length_b   8.50852346
_cell_length_c   8.36895142
_cell_angle_alpha   64.17361448
_cell_angle_beta   64.17361448
_cell_angle_gamma   63.62120783
_symmetry_Int_Tables_number   1
_chemical_formula_structural   Li2Fe3(PO4)3
_chemical_formula_sum   'Li4 Fe6 P6 O24'
_cell_volume   466.03426064
_cell_formula_units_Z   2
loop_
 _symmetry_equiv_pos_site_id
 _symmetry_equiv_pos_as_xyz
  1  'x, y, z'
loop_
 _atom_site_type_symbol
 _atom_site_label
 _atom_site_symmetry_multiplicity
 _atom_site_fract_x
 _atom_site_fract_y
 _atom_site_fract_z
 _atom_site_occupancy
  Li  Li0  1  0.35650500  0.64349500  0.50000000  1
  Li  Li1  1  0.65583700  0.34416300  0.00000000  1
  Li  Li2  1  0.25037500  0.15265100  0.59686400  1
  Li  Li3  1  0.84734900  0.74962500  0.40313600  1
  Fe  Fe4  1  0.50153300  0.00411200  0.24301900  1
  Fe  Fe5  1  0.14283300  0.64636300  0.89557800  1
  Fe  Fe6  1  0.65568900  0.15254200  0.40114500  1
  Fe  Fe7  1  0.99588800  0.49846700  0.75698100  1
  Fe  Fe8  1  0.35363700  0.85716700  0.10442200  1
  Fe  Fe9  1  0.84745800  0.34431100  0.59885500  1
  P  P10  1  0.75177600  0.55862600  0.18890900  1
  P  P11  1  0.44137400  0.24822400  0.81109100  1
  P  P12  1  0.05848400  0.94151600  0.50000000  1
  P  P13  1  0.95693800  0.04306200  0.00000000  1
  P  P14  1  0.54081900  0.74779800  0.69911800  1
  P  P15  1  0.25220200  0.45918100  0.30088200  1
  O  O16  1  0.59725500  0.31033300  0.78569000  1
  O  O17  1  0.03202500  0.09659400  0.56474200  1
  O  O18  1  0.81760500  0.52838300  0.34770400  1
  O  O19  1  0.58906600  0.74506600  0.18597500  1
  O  O20  1  0.68966700  0.40274500  0.21431000  1
  O  O21  1  0.90502400  0.57808600  0.99592900  1
  O  O22  1  0.42191400  0.09497600  0.00407100  1
  O  O23  1  0.25493400  0.41093400  0.81402500  1
  O  O24  1  0.11048400  0.99885800  0.07574800  1
  O  O25  1  0.08325100  0.74463800  0.64908200  1
  O  O26  1  0.76120000  0.06231800  0.14937900  1
  O  O27  1  0.48193400  0.81482900  0.86441800  1
  O  O28  1  0.47161700  0.18239500  0.65229600  1
  O  O29  1  0.25536200  0.91674900  0.35091800  1
  O  O30  1  0.93768200  0.23880000  0.85062100  1
  O  O31  1  0.90340600  0.96797500  0.43525800  1
  O  O32  1  0.73531700  0.59788100  0.69017900  1
  O  O33  1  0.56609700  0.89940300  0.50403400  1
  O  O34  1  0.10059700  0.43390300  0.49596600  1
  O  O35  1  0.32020600  0.60877700  0.28202600  1
  O  O36  1  0.40211900  0.26468300  0.30982100  1
  O  O37  1  0.18517100  0.51806600  0.13558200  1
  O  O38  1  0.00114200  0.88951600  0.92425200  1
  O  O39  1  0.39122300  0.67979400  0.71797400  1
