# generated using pymatgen
data_Na5LiMn2P2(CO7)2
_symmetry_space_group_name_H-M   'P 1'
_cell_length_a   6.76701100
_cell_length_b   8.98329939
_cell_length_c   10.37511082
_cell_angle_alpha   90.03286748
_cell_angle_beta   90.34279558
_cell_angle_gamma   90.64055281
_symmetry_Int_Tables_number   1
_chemical_formula_structural   Na5LiMn2P2(CO7)2
_chemical_formula_sum   'Na10 Li2 Mn4 P4 C4 O28'
_cell_volume   630.65304559
_cell_formula_units_Z   2
loop_
 _symmetry_equiv_pos_site_id
 _symmetry_equiv_pos_as_xyz
  1  'x, y, z'
loop_
 _atom_site_type_symbol
 _atom_site_label
 _atom_site_symmetry_multiplicity
 _atom_site_fract_x
 _atom_site_fract_y
 _atom_site_fract_z
 _atom_site_occupancy
  Na  Na0  1  0.24394100  0.91743100  0.62903700  1
  Na  Na1  1  0.24794200  0.91638200  0.13050400  1
  Na  Na2  1  0.49836500  0.74221400  0.37370500  1
  Na  Na3  1  0.00092900  0.74164200  0.87371800  1
  Na  Na4  1  0.49902800  0.74085600  0.87331400  1
  Na  Na5  1  0.50163500  0.25778600  0.62629500  1
  Na  Na6  1  0.50097200  0.25914400  0.12668600  1
  Na  Na7  1  0.99907100  0.25835800  0.12628200  1
  Na  Na8  1  0.75605900  0.08256900  0.37096300  1
  Na  Na9  1  0.75205800  0.08361800  0.86949600  1
  Li  Li10  1  0.01212900  0.72989100  0.36891400  1
  Li  Li11  1  0.98787100  0.27010900  0.63108600  1
  Mn  Mn12  1  0.75018800  0.63881600  0.63684300  1
  Mn  Mn13  1  0.75276800  0.63806400  0.14182100  1
  Mn  Mn14  1  0.24981200  0.36118400  0.36315700  1
  Mn  Mn15  1  0.24723200  0.36193600  0.85817900  1
  P  P16  1  0.24163000  0.58743200  0.59855300  1
  P  P17  1  0.25056100  0.58829100  0.10317600  1
  P  P18  1  0.75837000  0.41256800  0.40144700  1
  P  P19  1  0.74943900  0.41170900  0.89682400  1
  C  C20  1  0.75790700  0.94408400  0.61725700  1
  C  C21  1  0.75100000  0.93935400  0.11839800  1
  C  C22  1  0.24209300  0.05591600  0.38274300  1
  C  C23  1  0.24900000  0.06064600  0.88160200  1
  O  O24  1  0.23079900  0.91154100  0.39239200  1
  O  O25  1  0.25246800  0.91657600  0.89256600  1
  O  O26  1  0.75056200  0.88075100  0.73033100  1
  O  O27  1  0.75279600  0.87723900  0.23144300  1
  O  O28  1  0.75279800  0.86028900  0.51470800  1
  O  O29  1  0.75293000  0.85568400  0.01560300  1
  O  O30  1  0.06486200  0.68151600  0.64524600  1
  O  O31  1  0.43247000  0.67321900  0.64034100  1
  O  O32  1  0.06912800  0.68021600  0.14751700  1
  O  O33  1  0.43692100  0.68056800  0.14312700  1
  O  O34  1  0.23436100  0.57733900  0.44769700  1
  O  O35  1  0.76580300  0.57403200  0.34600300  1
  O  O36  1  0.24621700  0.57112300  0.95303100  1
  O  O37  1  0.74903900  0.56934900  0.83646800  1
  O  O38  1  0.23419700  0.42596800  0.65399700  1
  O  O39  1  0.76563900  0.42266100  0.55230300  1
  O  O40  1  0.25096100  0.43065100  0.16353200  1
  O  O41  1  0.75378300  0.42887700  0.04696900  1
  O  O42  1  0.56753000  0.32678100  0.35965900  1
  O  O43  1  0.93513800  0.31848400  0.35475400  1
  O  O44  1  0.56307900  0.31943200  0.85687300  1
  O  O45  1  0.93087200  0.31978400  0.85248300  1
  O  O46  1  0.24720200  0.13971100  0.48529200  1
  O  O47  1  0.24707000  0.14431600  0.98439700  1
  O  O48  1  0.24943800  0.11924900  0.26966900  1
  O  O49  1  0.24720400  0.12276100  0.76855700  1
  O  O50  1  0.76920100  0.08845900  0.60760800  1
  O  O51  1  0.74753200  0.08342400  0.10743400  1
