# generated using pymatgen
data_Li2VF5
_symmetry_space_group_name_H-M   'P 1'
_cell_length_a   5.78778687
_cell_length_b   5.78778687
_cell_length_c   7.30221162
_cell_angle_alpha   70.90549717
_cell_angle_beta   70.90549717
_cell_angle_gamma   52.49643103
_symmetry_Int_Tables_number   1
_chemical_formula_structural   Li2VF5
_chemical_formula_sum   'Li4 V2 F10'
_cell_volume   180.68692527
_cell_formula_units_Z   2
loop_
 _symmetry_equiv_pos_site_id
 _symmetry_equiv_pos_as_xyz
  1  'x, y, z'
loop_
 _atom_site_type_symbol
 _atom_site_label
 _atom_site_symmetry_multiplicity
 _atom_site_fract_x
 _atom_site_fract_y
 _atom_site_fract_z
 _atom_site_occupancy
  Li  Li0  1  0.65385300  0.62989600  0.75572200  1
  Li  Li1  1  0.62989600  0.65385300  0.25572200  1
  Li  Li2  1  0.37010400  0.34614700  0.74427800  1
  Li  Li3  1  0.34614700  0.37010400  0.24427800  1
  V  V4  1  0.00000000  0.00000000  0.00000000  1
  V  V5  1  0.00000000  0.00000000  0.50000000  1
  F  F6  1  0.81431700  0.18568300  0.25000000  1
  F  F7  1  0.76191400  0.40568500  0.54446500  1
  F  F8  1  0.97076600  0.66985200  0.14752600  1
  F  F9  1  0.66985200  0.97076600  0.64752600  1
  F  F10  1  0.40568500  0.76191400  0.04446500  1
  F  F11  1  0.18568300  0.81431700  0.75000000  1
  F  F12  1  0.59431500  0.23808600  0.95553500  1
  F  F13  1  0.33014800  0.02923400  0.35247400  1
  F  F14  1  0.02923400  0.33014800  0.85247400  1
  F  F15  1  0.23808600  0.59431500  0.45553500  1
