# generated using pymatgen
data_LiV2O3F
_symmetry_space_group_name_H-M   'P 1'
_cell_length_a   8.00375146
_cell_length_b   8.00375146
_cell_length_c   8.00375146
_cell_angle_alpha   135.20758138
_cell_angle_beta   115.47584018
_cell_angle_gamma   81.96404877
_symmetry_Int_Tables_number   1
_chemical_formula_structural   LiV2O3F
_chemical_formula_sum   'Li4 V8 O12 F4'
_cell_volume   314.88156401
_cell_formula_units_Z   4
loop_
 _symmetry_equiv_pos_site_id
 _symmetry_equiv_pos_as_xyz
  1  'x, y, z'
loop_
 _atom_site_type_symbol
 _atom_site_label
 _atom_site_symmetry_multiplicity
 _atom_site_fract_x
 _atom_site_fract_y
 _atom_site_fract_z
 _atom_site_occupancy
  Li  Li0  1  0.27070600  0.37866800  0.89203700  1
  Li  Li1  1  0.51336900  0.62133200  0.89203700  1
  Li  Li2  1  0.99085700  0.87521000  0.11564700  1
  Li  Li3  1  0.24043700  0.12479000  0.11564700  1
  V  V4  1  0.49074300  0.00000000  0.49074300  1
  V  V5  1  0.23718300  0.74994200  0.48724100  1
  V  V6  1  0.73729800  0.25005800  0.48724100  1
  V  V7  1  0.62514900  0.61904200  0.49304800  1
  V  V8  1  0.87400600  0.86789900  0.49304800  1
  V  V9  1  0.87400600  0.38095800  0.00610600  1
  V  V10  1  0.62514900  0.13210100  0.00610600  1
  V  V11  1  0.01330200  0.50000000  0.51330200  1
  O  O12  1  0.39221900  0.65288800  0.29520400  1
  O  O13  1  0.64231600  0.90298600  0.29520400  1
  O  O14  1  0.39221900  0.09701400  0.73933100  1
  O  O15  1  0.64231600  0.34711200  0.73933100  1
  O  O16  1  0.74411200  0.00000000  0.74411200  1
  O  O17  1  0.99040300  0.73507700  0.25532600  1
  O  O18  1  0.52024800  0.26492300  0.25532600  1
  O  O19  1  0.76185700  0.50000000  0.26185700  1
  O  O20  1  0.85977200  0.15298400  0.25978600  1
  O  O21  1  0.85977200  0.59998600  0.70678800  1
  O  O22  1  0.10680200  0.40001400  0.25978600  1
  O  O23  1  0.10680200  0.84701600  0.70678800  1
  F  F24  1  0.25224500  0.50000000  0.75224500  1
  F  F25  1  0.49727300  0.75510500  0.74216800  1
  F  F26  1  0.98706300  0.24489500  0.74216800  1
  F  F27  1  0.25237800  0.00000000  0.25237800  1
