# generated using pymatgen
data_Li9Mn2AlO8
_symmetry_space_group_name_H-M   'P 1'
_cell_length_a   6.52018400
_cell_length_b   7.64875600
_cell_length_c   16.22827800
_cell_angle_alpha   90.00000000
_cell_angle_beta   90.00000000
_cell_angle_gamma   90.00000000
_symmetry_Int_Tables_number   1
_chemical_formula_structural   Li9Mn2AlO8
_chemical_formula_sum   'Li36 Mn8 Al4 O32'
_cell_volume   809.32526368
_cell_formula_units_Z   4
loop_
 _symmetry_equiv_pos_site_id
 _symmetry_equiv_pos_as_xyz
  1  'x, y, z'
loop_
 _atom_site_type_symbol
 _atom_site_label
 _atom_site_symmetry_multiplicity
 _atom_site_fract_x
 _atom_site_fract_y
 _atom_site_fract_z
 _atom_site_occupancy
  Li  Li0  1  0.52313700  0.53233900  0.06883700  1
  Li  Li1  1  0.97686300  0.53233900  0.06883700  1
  Li  Li2  1  0.25000000  0.33900900  0.13879100  1
  Li  Li3  1  0.50840000  0.10505900  0.12143300  1
  Li  Li4  1  0.99160000  0.10505900  0.12143300  1
  Li  Li5  1  0.75000000  0.33178400  0.16601100  1
  Li  Li6  1  0.25000000  0.80169000  0.19470600  1
  Li  Li7  1  0.01016200  0.54871200  0.20947900  1
  Li  Li8  1  0.48983800  0.54871200  0.20947900  1
  Li  Li9  1  0.51016200  0.04871200  0.29052100  1
  Li  Li10  1  0.98983800  0.04871200  0.29052100  1
  Li  Li11  1  0.75000000  0.30169000  0.30529400  1
  Li  Li12  1  0.25000000  0.83178400  0.33398900  1
  Li  Li13  1  0.49160000  0.60505900  0.37856700  1
  Li  Li14  1  0.00840000  0.60505900  0.37856700  1
  Li  Li15  1  0.75000000  0.83900900  0.36120900  1
  Li  Li16  1  0.02313700  0.03233900  0.43116300  1
  Li  Li17  1  0.47686300  0.03233900  0.43116300  1
  Li  Li18  1  0.52313700  0.96766100  0.56883700  1
  Li  Li19  1  0.97686300  0.96766100  0.56883700  1
  Li  Li20  1  0.25000000  0.16099100  0.63879100  1
  Li  Li21  1  0.99160000  0.39494100  0.62143300  1
  Li  Li22  1  0.50840000  0.39494100  0.62143300  1
  Li  Li23  1  0.75000000  0.16821600  0.66601100  1
  Li  Li24  1  0.25000000  0.69831000  0.69470600  1
  Li  Li25  1  0.01016200  0.95128800  0.70947900  1
  Li  Li26  1  0.48983800  0.95128800  0.70947900  1
  Li  Li27  1  0.51016200  0.45128800  0.79052100  1
  Li  Li28  1  0.98983800  0.45128800  0.79052100  1
  Li  Li29  1  0.75000000  0.19831000  0.80529400  1
  Li  Li30  1  0.25000000  0.66821600  0.83398900  1
  Li  Li31  1  0.49160000  0.89494100  0.87856700  1
  Li  Li32  1  0.00840000  0.89494100  0.87856700  1
  Li  Li33  1  0.75000000  0.66099100  0.86120900  1
  Li  Li34  1  0.02313700  0.46766100  0.93116300  1
  Li  Li35  1  0.47686300  0.46766100  0.93116300  1
  Mn  Mn36  1  0.25000000  0.77292100  0.03049800  1
  Mn  Mn37  1  0.75000000  0.80236500  0.19550500  1
  Mn  Mn38  1  0.25000000  0.30236500  0.30449500  1
  Mn  Mn39  1  0.75000000  0.27292100  0.46950200  1
  Mn  Mn40  1  0.25000000  0.72707900  0.53049800  1
  Mn  Mn41  1  0.75000000  0.69763500  0.69550500  1
  Mn  Mn42  1  0.25000000  0.19763500  0.80449500  1
  Mn  Mn43  1  0.75000000  0.22707900  0.96950200  1
  Al  Al44  1  0.75000000  0.83925100  0.00052400  1
  Al  Al45  1  0.25000000  0.33925100  0.49947600  1
  Al  Al46  1  0.75000000  0.66074900  0.50052400  1
  Al  Al47  1  0.25000000  0.16074900  0.99947600  1
  O  O48  1  0.47050800  0.29181500  0.02438400  1
  O  O49  1  0.02949200  0.29181500  0.02438400  1
  O  O50  1  0.25000000  0.01271700  0.08833600  1
  O  O51  1  0.25000000  0.59056000  0.12966800  1
  O  O52  1  0.75000000  0.56443100  0.14119200  1
  O  O53  1  0.75000000  0.96793800  0.09307000  1
  O  O54  1  0.99912000  0.27768500  0.22424000  1
  O  O55  1  0.50088000  0.27768500  0.22424000  1
  O  O56  1  0.49912000  0.77768500  0.27576000  1
  O  O57  1  0.00088000  0.77768500  0.27576000  1
  O  O58  1  0.25000000  0.46793800  0.40693000  1
  O  O59  1  0.25000000  0.06443100  0.35880800  1
  O  O60  1  0.75000000  0.09056000  0.37033200  1
  O  O61  1  0.75000000  0.51271700  0.41166400  1
  O  O62  1  0.97050800  0.79181500  0.47561600  1
  O  O63  1  0.52949200  0.79181500  0.47561600  1
  O  O64  1  0.47050800  0.20818500  0.52438400  1
  O  O65  1  0.02949200  0.20818500  0.52438400  1
  O  O66  1  0.25000000  0.48728300  0.58833600  1
  O  O67  1  0.25000000  0.90944000  0.62966800  1
  O  O68  1  0.75000000  0.93556900  0.64119200  1
  O  O69  1  0.75000000  0.53206200  0.59307000  1
  O  O70  1  0.99912000  0.22231500  0.72424000  1
  O  O71  1  0.50088000  0.22231500  0.72424000  1
  O  O72  1  0.49912000  0.72231500  0.77576000  1
  O  O73  1  0.00088000  0.72231500  0.77576000  1
  O  O74  1  0.25000000  0.03206200  0.90693000  1
  O  O75  1  0.25000000  0.43556900  0.85880800  1
  O  O76  1  0.75000000  0.40944000  0.87033200  1
  O  O77  1  0.75000000  0.98728300  0.91166400  1
  O  O78  1  0.97050800  0.70818500  0.97561600  1
  O  O79  1  0.52949200  0.70818500  0.97561600  1
