# generated using pymatgen
data_Li2Ni2SnO6
_symmetry_space_group_name_H-M   'P 1'
_cell_length_a   6.63261700
_cell_length_b   6.74387137
_cell_length_c   8.50347568
_cell_angle_alpha   71.75234870
_cell_angle_beta   71.42563921
_cell_angle_gamma   83.71714687
_symmetry_Int_Tables_number   1
_chemical_formula_structural   Li2Ni2SnO6
_chemical_formula_sum   'Li6 Ni6 Sn3 O18'
_cell_volume   342.39307738
_cell_formula_units_Z   3
loop_
 _symmetry_equiv_pos_site_id
 _symmetry_equiv_pos_as_xyz
  1  'x, y, z'
loop_
 _atom_site_type_symbol
 _atom_site_label
 _atom_site_symmetry_multiplicity
 _atom_site_fract_x
 _atom_site_fract_y
 _atom_site_fract_z
 _atom_site_occupancy
  Li  Li0  1  0.16233500  0.51092700  0.32563700  1
  Li  Li1  1  0.83766500  0.48907300  0.67436300  1
  Li  Li2  1  0.81522700  0.15037900  0.00371000  1
  Li  Li3  1  0.50434700  0.12602400  0.33917400  1
  Li  Li4  1  0.49565300  0.87397600  0.66082600  1
  Li  Li5  1  0.18477300  0.84962100  0.99629000  1
  Ni  Ni6  1  0.82967700  0.84354200  0.82373400  1
  Ni  Ni7  1  0.50893000  0.16248700  0.83681000  1
  Ni  Ni8  1  0.17032300  0.15645800  0.17626600  1
  Ni  Ni9  1  0.84111300  0.16387900  0.49483000  1
  Ni  Ni10  1  0.49107000  0.83751300  0.16319000  1
  Ni  Ni11  1  0.15888700  0.83612100  0.50517000  1
  Sn  Sn12  1  0.50000000  0.50000000  0.50000000  1
  Sn  Sn13  1  0.17291400  0.49450500  0.83937300  1
  Sn  Sn14  1  0.82708600  0.50549500  0.16062700  1
  O  O15  1  0.80268400  0.83177900  0.05769400  1
  O  O16  1  0.45868800  0.82284700  0.43862700  1
  O  O17  1  0.14682800  0.81770900  0.75056700  1
  O  O18  1  0.82860400  0.49203700  0.41008100  1
  O  O19  1  0.50121600  0.46894700  0.75013000  1
  O  O20  1  0.80445900  0.16169600  0.74101300  1
  O  O21  1  0.49878400  0.53105300  0.24987000  1
  O  O22  1  0.17139600  0.50796300  0.58991900  1
  O  O23  1  0.54131200  0.17715300  0.56137300  1
  O  O24  1  0.15358300  0.51161200  0.08240500  1
  O  O25  1  0.48181000  0.12696000  0.10301200  1
  O  O26  1  0.14259300  0.15460500  0.40281800  1
  O  O27  1  0.84641700  0.48838800  0.91759500  1
  O  O28  1  0.19731600  0.16822100  0.94230600  1
  O  O29  1  0.85317200  0.18229100  0.24943300  1
  O  O30  1  0.51819000  0.87304000  0.89698800  1
  O  O31  1  0.19554100  0.83830400  0.25898700  1
  O  O32  1  0.85740700  0.84539500  0.59718200  1
