# generated using pymatgen
data_LiMnPO4
_symmetry_space_group_name_H-M   'P 1'
_cell_length_a   10.67574403
_cell_length_b   5.68131802
_cell_length_c   5.54552400
_cell_angle_alpha   90.00016333
_cell_angle_beta   89.99990004
_cell_angle_gamma   89.99115916
_symmetry_Int_Tables_number   1
_chemical_formula_structural   LiMnPO4
_chemical_formula_sum   'Li4 Mn4 P4 O16'
_cell_volume   336.34876417
_cell_formula_units_Z   4
loop_
 _symmetry_equiv_pos_site_id
 _symmetry_equiv_pos_as_xyz
  1  'x, y, z'
loop_
 _atom_site_type_symbol
 _atom_site_label
 _atom_site_symmetry_multiplicity
 _atom_site_fract_x
 _atom_site_fract_y
 _atom_site_fract_z
 _atom_site_occupancy
  Li  Li0  1  0.04015300  0.37165500  0.92521900  1
  Li  Li1  1  0.45985200  0.87164000  0.42520700  1
  Li  Li2  1  0.54013800  0.12833800  0.92520400  1
  Li  Li3  1  0.95983600  0.62834800  0.42522000  1
  Mn  Mn4  1  0.17494600  0.92261500  0.02326400  1
  Mn  Mn5  1  0.32478500  0.42326600  0.52320600  1
  Mn  Mn6  1  0.67521800  0.57673900  0.02321300  1
  Mn  Mn7  1  0.82515700  0.07750900  0.52326400  1
  P  P8  1  0.09966700  0.14616400  0.51926200  1
  P  P9  1  0.40038100  0.64618000  0.01924500  1
  P  P10  1  0.59961300  0.35379400  0.51925600  1
  P  P11  1  0.90032400  0.85381600  0.01926200  1
  O  O12  1  0.98359500  0.31537700  0.53438900  1
  O  O13  1  0.05276300  0.89324900  0.52134400  1
  O  O14  1  0.31453900  0.70412000  0.79888800  1
  O  O15  1  0.31657100  0.70474200  0.24664000  1
  O  O16  1  0.18338500  0.20471700  0.74668700  1
  O  O17  1  0.18541800  0.20409800  0.29886100  1
  O  O18  1  0.44722500  0.39324000  0.02134600  1
  O  O19  1  0.51641400  0.81529300  0.03438800  1
  O  O20  1  0.48356800  0.18468700  0.53439100  1
  O  O21  1  0.55276400  0.60673800  0.52134500  1
  O  O22  1  0.81457600  0.79589500  0.79884500  1
  O  O23  1  0.81660800  0.79527600  0.24670200  1
  O  O24  1  0.68342300  0.29525400  0.74665200  1
  O  O25  1  0.68545300  0.29587600  0.29889300  1
  O  O26  1  0.94722500  0.10674100  0.02134600  1
  O  O27  1  0.01640300  0.68463100  0.03438500  1
