# generated using pymatgen
data_Li5LaO4
_symmetry_space_group_name_H-M   'P 1'
_cell_length_a   9.08640200
_cell_length_b   9.53464100
_cell_length_c   10.03408500
_cell_angle_alpha   90.00000000
_cell_angle_beta   90.00000000
_cell_angle_gamma   90.00000000
_symmetry_Int_Tables_number   1
_chemical_formula_structural   Li5LaO4
_chemical_formula_sum   'Li40 La8 O32'
_cell_volume   869.30878430
_cell_formula_units_Z   8
loop_
 _symmetry_equiv_pos_site_id
 _symmetry_equiv_pos_as_xyz
  1  'x, y, z'
loop_
 _atom_site_type_symbol
 _atom_site_label
 _atom_site_symmetry_multiplicity
 _atom_site_fract_x
 _atom_site_fract_y
 _atom_site_fract_z
 _atom_site_occupancy
  Li  Li0  1  0.12695500  0.56853500  0.13094200  1
  Li  Li1  1  0.12695500  0.93146500  0.63094200  1
  Li  Li2  1  0.12532500  0.13288800  0.86380500  1
  Li  Li3  1  0.12532500  0.36711200  0.36380500  1
  Li  Li4  1  0.12885400  0.87715700  0.40593000  1
  Li  Li5  1  0.12885400  0.62284300  0.90593000  1
  Li  Li6  1  0.13664600  0.84863600  0.14442900  1
  Li  Li7  1  0.13664600  0.65136400  0.64442900  1
  Li  Li8  1  0.18675900  0.12436500  0.42448400  1
  Li  Li9  1  0.18675900  0.37563500  0.92448400  1
  Li  Li10  1  0.31324100  0.87563500  0.92448400  1
  Li  Li11  1  0.31324100  0.62436500  0.42448400  1
  Li  Li12  1  0.36335400  0.15136400  0.64442900  1
  Li  Li13  1  0.36335400  0.34863600  0.14442900  1
  Li  Li14  1  0.37114600  0.12284300  0.90593000  1
  Li  Li15  1  0.37114600  0.37715700  0.40593000  1
  Li  Li16  1  0.37467500  0.63288800  0.86380500  1
  Li  Li17  1  0.37467500  0.86711200  0.36380500  1
  Li  Li18  1  0.37304500  0.06853500  0.13094200  1
  Li  Li19  1  0.37304500  0.43146500  0.63094200  1
  Li  Li20  1  0.62695500  0.56853500  0.36905800  1
  Li  Li21  1  0.62695500  0.93146500  0.86905800  1
  Li  Li22  1  0.62532500  0.13288800  0.63619500  1
  Li  Li23  1  0.62532500  0.36711200  0.13619500  1
  Li  Li24  1  0.62885400  0.62284300  0.59407000  1
  Li  Li25  1  0.62885400  0.87715700  0.09407000  1
  Li  Li26  1  0.63664600  0.65136400  0.85557100  1
  Li  Li27  1  0.63664600  0.84863600  0.35557100  1
  Li  Li28  1  0.68675900  0.12436500  0.07551600  1
  Li  Li29  1  0.68675900  0.37563500  0.57551600  1
  Li  Li30  1  0.81324100  0.62436500  0.07551600  1
  Li  Li31  1  0.81324100  0.87563500  0.57551600  1
  Li  Li32  1  0.86335400  0.34863600  0.35557100  1
  Li  Li33  1  0.86335400  0.15136400  0.85557100  1
  Li  Li34  1  0.87114600  0.12284300  0.59407000  1
  Li  Li35  1  0.87114600  0.37715700  0.09407000  1
  Li  Li36  1  0.87467500  0.63288800  0.63619500  1
  Li  Li37  1  0.87467500  0.86711200  0.13619500  1
  Li  Li38  1  0.87304500  0.06853500  0.36905800  1
  Li  Li39  1  0.87304500  0.43146500  0.86905800  1
  La  La40  1  0.05181300  0.15932700  0.15564600  1
  La  La41  1  0.05181300  0.34067300  0.65564600  1
  La  La42  1  0.44818700  0.65932700  0.15564600  1
  La  La43  1  0.44818700  0.84067300  0.65564600  1
  La  La44  1  0.55181300  0.15932700  0.34435400  1
  La  La45  1  0.55181300  0.34067300  0.84435400  1
  La  La46  1  0.94818700  0.65932700  0.34435400  1
  La  La47  1  0.94818700  0.84067300  0.84435400  1
  O  O48  1  0.99800100  0.21944100  0.45491000  1
  O  O49  1  0.99800100  0.28055900  0.95491000  1
  O  O50  1  0.00215100  0.94871500  0.26641500  1
  O  O51  1  0.00215100  0.55128500  0.76641500  1
  O  O52  1  0.21126700  0.02261100  0.01259900  1
  O  O53  1  0.21126700  0.47738900  0.51259900  1
  O  O54  1  0.27217500  0.22440800  0.27821600  1
  O  O55  1  0.27217500  0.27559200  0.77821600  1
  O  O56  1  0.22782500  0.72440800  0.27821600  1
  O  O57  1  0.22782500  0.77559200  0.77821600  1
  O  O58  1  0.28873300  0.52261100  0.01259900  1
  O  O59  1  0.28873300  0.97738900  0.51259900  1
  O  O60  1  0.49784900  0.44871500  0.26641500  1
  O  O61  1  0.49784900  0.05128500  0.76641500  1
  O  O62  1  0.50199900  0.71944100  0.45491000  1
  O  O63  1  0.50199900  0.78055900  0.95491000  1
  O  O64  1  0.49800100  0.21944100  0.04509000  1
  O  O65  1  0.49800100  0.28055900  0.54509000  1
  O  O66  1  0.50215100  0.94871500  0.23358500  1
  O  O67  1  0.50215100  0.55128500  0.73358500  1
  O  O68  1  0.71126700  0.02261100  0.48740100  1
  O  O69  1  0.71126700  0.47738900  0.98740100  1
  O  O70  1  0.77217500  0.22440800  0.22178400  1
  O  O71  1  0.77217500  0.27559200  0.72178400  1
  O  O72  1  0.72782500  0.72440800  0.22178400  1
  O  O73  1  0.72782500  0.77559200  0.72178400  1
  O  O74  1  0.78873300  0.97738900  0.98740100  1
  O  O75  1  0.78873300  0.52261100  0.48740100  1
  O  O76  1  0.99784900  0.05128500  0.73358500  1
  O  O77  1  0.99784900  0.44871500  0.23358500  1
  O  O78  1  0.00199900  0.71944100  0.04509000  1
  O  O79  1  0.00199900  0.78055900  0.54509000  1
