# generated using pymatgen
data_Li4Nb3Cu3(SnO8)2
_symmetry_space_group_name_H-M   'P 1'
_cell_length_a   6.22416009
_cell_length_b   6.08652692
_cell_length_c   10.00304962
_cell_angle_alpha   90.00623387
_cell_angle_beta   87.37918360
_cell_angle_gamma   119.27639392
_symmetry_Int_Tables_number   1
_chemical_formula_structural   Li4Nb3Cu3(SnO8)2
_chemical_formula_sum   'Li4 Nb3 Cu3 Sn2 O16'
_cell_volume   330.09421373
_cell_formula_units_Z   1
loop_
 _symmetry_equiv_pos_site_id
 _symmetry_equiv_pos_as_xyz
  1  'x, y, z'
loop_
 _atom_site_type_symbol
 _atom_site_label
 _atom_site_symmetry_multiplicity
 _atom_site_fract_x
 _atom_site_fract_y
 _atom_site_fract_z
 _atom_site_occupancy
  Li  Li0  1  0.33949400  0.66979500  0.91328200  1
  Li  Li1  1  0.00351300  0.00186700  0.99754700  1
  Li  Li2  1  0.04594700  0.02287400  0.47831500  1
  Li  Li3  1  0.68632700  0.34319700  0.38709300  1
  Nb  Nb4  1  0.66050000  0.83025900  0.21936000  1
  Nb  Nb5  1  0.82029400  0.65812200  0.71295800  1
  Nb  Nb6  1  0.82016100  0.16232400  0.71273600  1
  Cu  Cu7  1  0.17100300  0.82879900  0.20849200  1
  Cu  Cu8  1  0.17106800  0.34224600  0.20851000  1
  Cu  Cu9  1  0.35327600  0.17647000  0.71758400  1
  Sn  Sn10  1  0.30350100  0.65174300  0.47784200  1
  Sn  Sn11  1  0.63475100  0.31731700  0.00063100  1
  O  O12  1  0.14269800  0.82148000  0.59614300  1
  O  O13  1  0.04493600  0.52249500  0.33347900  1
  O  O14  1  0.34731900  0.67373100  0.11161200  1
  O  O15  1  0.99864600  0.99927600  0.29547900  1
  O  O16  1  0.97951700  0.98985700  0.80846200  1
  O  O17  1  0.14270700  0.32122000  0.59617000  1
  O  O18  1  0.52068400  0.97529100  0.35806100  1
  O  O19  1  0.52045500  0.54518700  0.35797400  1
  O  O20  1  0.29805900  0.14901600  0.09469600  1
  O  O21  1  0.66606500  0.83303400  0.61012700  1
  O  O22  1  0.53730500  0.50049200  0.84665200  1
  O  O23  1  0.53738600  0.03680000  0.84667100  1
  O  O24  1  0.71100200  0.35556400  0.59697900  1
  O  O25  1  0.79376400  0.65525700  0.09455200  1
  O  O26  1  0.95581200  0.47797100  0.83179200  1
  O  O27  1  0.79381000  0.13861700  0.09464000  1
