# generated using pymatgen
data_Li2V2SiGeO10
_symmetry_space_group_name_H-M   'P 1'
_cell_length_a   4.69454700
_cell_length_b   9.03155200
_cell_length_c   9.10961400
_cell_angle_alpha   90.00000000
_cell_angle_beta   90.00000000
_cell_angle_gamma   90.00000000
_symmetry_Int_Tables_number   1
_chemical_formula_structural   Li2V2SiGeO10
_chemical_formula_sum   'Li4 V4 Si2 Ge2 O20'
_cell_volume   386.23893708
_cell_formula_units_Z   2
loop_
 _symmetry_equiv_pos_site_id
 _symmetry_equiv_pos_as_xyz
  1  'x, y, z'
loop_
 _atom_site_type_symbol
 _atom_site_label
 _atom_site_symmetry_multiplicity
 _atom_site_fract_x
 _atom_site_fract_y
 _atom_site_fract_z
 _atom_site_occupancy
  Li  Li0  1  0.00000000  0.75000000  0.25821300  1
  Li  Li1  1  0.00000000  0.25000000  0.25821300  1
  Li  Li2  1  0.00000000  0.75000000  0.74178700  1
  Li  Li3  1  0.00000000  0.25000000  0.74178700  1
  V  V4  1  0.60645100  0.00000000  0.25506900  1
  V  V5  1  0.39354900  0.50000000  0.25506900  1
  V  V6  1  0.39354900  0.00000000  0.74493100  1
  V  V7  1  0.60645100  0.50000000  0.74493100  1
  Si  Si8  1  0.50000000  0.75000000  0.50000000  1
  Si  Si9  1  0.50000000  0.25000000  0.50000000  1
  Ge  Ge10  1  0.50000000  0.75000000  0.00000000  1
  Ge  Ge11  1  0.50000000  0.25000000  0.00000000  1
  O  O12  1  0.25884500  0.00000000  0.25094300  1
  O  O13  1  0.72360900  0.85555800  0.11577100  1
  O  O14  1  0.27639100  0.64444200  0.11577100  1
  O  O15  1  0.70681300  0.85219200  0.39524200  1
  O  O16  1  0.27639100  0.35555800  0.11577100  1
  O  O17  1  0.74115500  0.50000000  0.25094300  1
  O  O18  1  0.29318700  0.64780800  0.39524200  1
  O  O19  1  0.29318700  0.85219200  0.60475800  1
  O  O20  1  0.74115500  0.00000000  0.74905700  1
  O  O21  1  0.72360900  0.14444200  0.11577100  1
  O  O22  1  0.70681300  0.64780800  0.60475800  1
  O  O23  1  0.29318700  0.35219200  0.39524200  1
  O  O24  1  0.27639100  0.85555800  0.88422900  1
  O  O25  1  0.70681300  0.14780800  0.39524200  1
  O  O26  1  0.70681300  0.35219200  0.60475800  1
  O  O27  1  0.25884500  0.50000000  0.74905700  1
  O  O28  1  0.72360900  0.64444200  0.88422900  1
  O  O29  1  0.29318700  0.14780800  0.60475800  1
  O  O30  1  0.72360900  0.35555800  0.88422900  1
  O  O31  1  0.27639100  0.14444200  0.88422900  1
