# generated using pymatgen
data_Li3MnFeCo(PO4)3
_symmetry_space_group_name_H-M   'P 1'
_cell_length_a   10.41749838
_cell_length_b   6.10044500
_cell_length_c   14.31565604
_cell_angle_alpha   90.00000000
_cell_angle_beta   89.76193975
_cell_angle_gamma   90.00000000
_symmetry_Int_Tables_number   1
_chemical_formula_structural   Li3MnFeCo(PO4)3
_chemical_formula_sum   'Li12 Mn4 Fe4 Co4 P12 O48'
_cell_volume   909.77178474
_cell_formula_units_Z   4
loop_
 _symmetry_equiv_pos_site_id
 _symmetry_equiv_pos_as_xyz
  1  'x, y, z'
loop_
 _atom_site_type_symbol
 _atom_site_label
 _atom_site_symmetry_multiplicity
 _atom_site_fract_x
 _atom_site_fract_y
 _atom_site_fract_z
 _atom_site_occupancy
  Li  Li0  1  0.99602300  0.49950100  0.66715700  1
  Li  Li1  1  0.99952200  0.00083800  0.99912100  1
  Li  Li2  1  0.99952200  0.49916200  0.99912100  1
  Li  Li3  1  0.99707800  0.99869700  0.33381800  1
  Li  Li4  1  0.99707800  0.50130300  0.33381800  1
  Li  Li5  1  0.99602300  0.00049900  0.66715700  1
  Li  Li6  1  0.50306600  0.99981200  0.50047200  1
  Li  Li7  1  0.50306600  0.50018800  0.50047200  1
  Li  Li8  1  0.50145800  0.99989400  0.16545400  1
  Li  Li9  1  0.50145800  0.50010600  0.16545400  1
  Li  Li10  1  0.50319200  0.99971200  0.83370500  1
  Li  Li11  1  0.50319200  0.50028800  0.83370500  1
  Mn  Mn12  1  0.21847400  0.75000000  0.15927500  1
  Mn  Mn13  1  0.21920900  0.75000000  0.49402800  1
  Mn  Mn14  1  0.28190300  0.25000000  0.66064800  1
  Mn  Mn15  1  0.28132700  0.25000000  0.32638400  1
  Fe  Fe16  1  0.21733000  0.75000000  0.82665500  1
  Fe  Fe17  1  0.28273500  0.25000000  0.99068100  1
  Fe  Fe18  1  0.71888700  0.75000000  0.00844900  1
  Fe  Fe19  1  0.71932700  0.75000000  0.34202700  1
  Co  Co20  1  0.72277000  0.75000000  0.67127400  1
  Co  Co21  1  0.78086100  0.25000000  0.83942700  1
  Co  Co22  1  0.77699700  0.25000000  0.50482800  1
  Co  Co23  1  0.78097500  0.25000000  0.17233500  1
  P  P24  1  0.09307200  0.25000000  0.80746300  1
  P  P25  1  0.09282900  0.25000000  0.13774700  1
  P  P26  1  0.09002500  0.25000000  0.47291200  1
  P  P27  1  0.40912600  0.75000000  0.30539200  1
  P  P28  1  0.40875700  0.75000000  0.64007900  1
  P  P29  1  0.40545600  0.75000000  0.97171200  1
  P  P30  1  0.59810100  0.25000000  0.36053900  1
  P  P31  1  0.59549000  0.25000000  0.02677200  1
  P  P32  1  0.59924800  0.25000000  0.69479700  1
  P  P33  1  0.90193600  0.75000000  0.86032100  1
  P  P34  1  0.90235000  0.75000000  0.19446000  1
  P  P35  1  0.90178500  0.75000000  0.52815500  1
  O  O36  1  0.04051100  0.75000000  0.23578900  1
  O  O37  1  0.03994000  0.75000000  0.56928300  1
  O  O38  1  0.04082100  0.75000000  0.90072300  1
  O  O39  1  0.09556300  0.25000000  0.58031900  1
  O  O40  1  0.09752400  0.25000000  0.91463200  1
  O  O41  1  0.09716800  0.25000000  0.24531900  1
  O  O42  1  0.16346100  0.04849700  0.09245300  1
  O  O43  1  0.16346100  0.45150300  0.09245300  1
  O  O44  1  0.16022400  0.04801400  0.42748900  1
  O  O45  1  0.16022400  0.45198600  0.42748900  1
  O  O46  1  0.16395600  0.04697700  0.76286800  1
  O  O47  1  0.16395600  0.45302300  0.76286800  1
  O  O48  1  0.33970600  0.54794700  0.59415500  1
  O  O49  1  0.33970600  0.95205300  0.59415500  1
  O  O50  1  0.33915600  0.54762300  0.26086200  1
  O  O51  1  0.33915600  0.95237700  0.26086200  1
  O  O52  1  0.33428800  0.54720400  0.92773100  1
  O  O53  1  0.33428800  0.95279600  0.92773100  1
  O  O54  1  0.40453100  0.75000000  0.41299200  1
  O  O55  1  0.40281300  0.75000000  0.07913500  1
  O  O56  1  0.40182100  0.75000000  0.74737600  1
  O  O57  1  0.46037800  0.25000000  0.40303000  1
  O  O58  1  0.45650000  0.25000000  0.06720700  1
  O  O59  1  0.46028500  0.25000000  0.73526000  1
  O  O60  1  0.54755600  0.75000000  0.26431800  1
  O  O61  1  0.54366400  0.75000000  0.93031900  1
  O  O62  1  0.54888500  0.75000000  0.60024100  1
  O  O63  1  0.60076800  0.25000000  0.25312100  1
  O  O64  1  0.60003300  0.25000000  0.91937200  1
  O  O65  1  0.60237600  0.25000000  0.58651200  1
  O  O66  1  0.66586400  0.04767000  0.07204200  1
  O  O67  1  0.66913900  0.04773500  0.40559800  1
  O  O68  1  0.66830000  0.04680300  0.73997300  1
  O  O69  1  0.66830000  0.45319700  0.73997300  1
  O  O70  1  0.66586400  0.45233000  0.07204200  1
  O  O71  1  0.66913900  0.45226500  0.40559800  1
  O  O72  1  0.83226300  0.54544200  0.90472500  1
  O  O73  1  0.83226300  0.95455800  0.90472500  1
  O  O74  1  0.83251100  0.54527200  0.23892600  1
  O  O75  1  0.83128800  0.54674200  0.57342800  1
  O  O76  1  0.83251100  0.95472800  0.23892600  1
  O  O77  1  0.83128800  0.95325800  0.57342800  1
  O  O78  1  0.89922500  0.75000000  0.75237100  1
  O  O79  1  0.90112600  0.75000000  0.42061700  1
  O  O80  1  0.90027900  0.75000000  0.08686500  1
  O  O81  1  0.95448600  0.25000000  0.76717000  1
  O  O82  1  0.95328600  0.25000000  0.09844100  1
  O  O83  1  0.95050000  0.25000000  0.43327900  1
