# generated using pymatgen
data_Li2Ti2CoO6
_symmetry_space_group_name_H-M   'P 1'
_cell_length_a   5.20123990
_cell_length_b   11.61166415
_cell_length_c   8.91644486
_cell_angle_alpha   67.67095828
_cell_angle_beta   88.97443180
_cell_angle_gamma   102.53927122
_symmetry_Int_Tables_number   1
_chemical_formula_structural   Li2Ti2CoO6
_chemical_formula_sum   'Li8 Ti8 Co4 O24'
_cell_volume   483.23436533
_cell_formula_units_Z   4
loop_
 _symmetry_equiv_pos_site_id
 _symmetry_equiv_pos_as_xyz
  1  'x, y, z'
loop_
 _atom_site_type_symbol
 _atom_site_label
 _atom_site_symmetry_multiplicity
 _atom_site_fract_x
 _atom_site_fract_y
 _atom_site_fract_z
 _atom_site_occupancy
  Li  Li0  1  0.95898700  0.75000100  0.54100800  1
  Li  Li1  1  0.45899400  0.75000600  0.04101300  1
  Li  Li2  1  0.79101700  0.24999800  0.70898600  1
  Li  Li3  1  0.29100600  0.24999800  0.20898200  1
  Li  Li4  1  0.20898300  0.75000200  0.29101300  1
  Li  Li5  1  0.70899500  0.75000200  0.79101800  1
  Li  Li6  1  0.04101300  0.24999800  0.45899200  1
  Li  Li7  1  0.54100600  0.24999400  0.95898700  1
  Ti  Ti8  1  0.49189900  0.00000300  0.83065300  1
  Ti  Ti9  1  0.99189300  0.99999600  0.33065100  1
  Ti  Ti10  1  0.99190400  0.50000100  0.33064100  1
  Ti  Ti11  1  0.49190900  0.50000300  0.83063400  1
  Ti  Ti12  1  0.00809600  0.49999900  0.66935900  1
  Ti  Ti13  1  0.50809100  0.49999700  0.16936500  1
  Ti  Ti14  1  0.00810700  0.00000400  0.66935000  1
  Ti  Ti15  1  0.50809800  0.99999500  0.16934800  1
  Co  Co16  1  0.50000000  0.00000000  0.50000000  1
  Co  Co17  1  0.99999900  0.50000000  0.00000000  1
  Co  Co18  1  0.00000000  0.00000000  0.00000000  1
  Co  Co19  1  0.50000000  0.50000100  0.50000000  1
  O  O20  1  0.37569200  0.59703000  0.62430600  1
  O  O21  1  0.87568500  0.59703500  0.12431000  1
  O  O22  1  0.22131700  0.09702700  0.77866900  1
  O  O23  1  0.72133000  0.09702800  0.27866200  1
  O  O24  1  0.77868400  0.90297300  0.22133100  1
  O  O25  1  0.27867100  0.90297200  0.72133900  1
  O  O26  1  0.62430800  0.40297100  0.37569300  1
  O  O27  1  0.12431700  0.40296500  0.87568900  1
  O  O28  1  0.31349700  0.89240300  0.05580600  1
  O  O29  1  0.81347600  0.89241700  0.55579900  1
  O  O30  1  0.63286100  0.39241600  0.73641600  1
  O  O31  1  0.13288000  0.39240800  0.23643500  1
  O  O32  1  0.92107600  0.60759700  0.44821200  1
  O  O33  1  0.42104400  0.60758400  0.94822400  1
  O  O34  1  0.74044100  0.10758200  0.62884700  1
  O  O35  1  0.24042600  0.10757700  0.12883400  1
  O  O36  1  0.68650400  0.10759600  0.94419400  1
  O  O37  1  0.18652300  0.10758300  0.44420000  1
  O  O38  1  0.25955900  0.89241800  0.37115300  1
  O  O39  1  0.75957500  0.89242400  0.87116500  1
  O  O40  1  0.07892000  0.39240200  0.55178900  1
  O  O41  1  0.57895800  0.39241700  0.05177600  1
  O  O42  1  0.36713900  0.60758400  0.26358400  1
  O  O43  1  0.86712100  0.60759200  0.76356600  1
