# generated using pymatgen
data_Li3Mo4P5O24
_symmetry_space_group_name_H-M   'P 1'
_cell_length_a   9.39180528
_cell_length_b   9.39180528
_cell_length_c   15.41986539
_cell_angle_alpha   65.20595736
_cell_angle_beta   65.20595736
_cell_angle_gamma   54.46083873
_symmetry_Int_Tables_number   1
_chemical_formula_structural   Li3Mo4P5O24
_chemical_formula_sum   'Li6 Mo8 P10 O48'
_cell_volume   975.93802794
_cell_formula_units_Z   2
loop_
 _symmetry_equiv_pos_site_id
 _symmetry_equiv_pos_as_xyz
  1  'x, y, z'
loop_
 _atom_site_type_symbol
 _atom_site_label
 _atom_site_symmetry_multiplicity
 _atom_site_fract_x
 _atom_site_fract_y
 _atom_site_fract_z
 _atom_site_occupancy
  Li  Li0  1  0.94850900  0.97747600  0.02944500  1
  Li  Li1  1  0.67440900  0.64364800  0.26335200  1
  Li  Li2  1  0.36315600  0.31585100  0.24847000  1
  Li  Li3  1  0.31585100  0.36315600  0.74847000  1
  Li  Li4  1  0.64364800  0.67440900  0.76335200  1
  Li  Li5  1  0.97747600  0.94850900  0.52944500  1
  Mo  Mo6  1  0.01531900  0.64754000  0.32083500  1
  Mo  Mo7  1  0.98961200  0.35041000  0.68070400  1
  Mo  Mo8  1  0.40691800  0.79353800  0.52176600  1
  Mo  Mo9  1  0.20991500  0.60047900  0.97760800  1
  Mo  Mo10  1  0.35041000  0.98961200  0.18070400  1
  Mo  Mo11  1  0.60047900  0.20991500  0.47760800  1
  Mo  Mo12  1  0.64754000  0.01531900  0.82083500  1
  Mo  Mo13  1  0.79353800  0.40691800  0.02176600  1
  P  P14  1  0.33161200  0.68572400  0.10799100  1
  P  P15  1  0.24580200  0.23855500  0.46077000  1
  P  P16  1  0.68572400  0.33161200  0.60799100  1
  P  P17  1  0.31764700  0.66793700  0.39519900  1
  P  P18  1  0.23855500  0.24580200  0.96077000  1
  P  P19  1  0.89867700  0.10318900  0.24851300  1
  P  P20  1  0.76151800  0.75958500  0.04230700  1
  P  P21  1  0.10318900  0.89867700  0.74851300  1
  P  P22  1  0.75958500  0.76151800  0.54230700  1
  P  P23  1  0.66793700  0.31764700  0.89519900  1
  O  O24  1  0.92750000  0.78200900  0.01660300  1
  O  O25  1  0.51904800  0.52681000  0.07958600  1
  O  O26  1  0.48654000  0.48343800  0.41686200  1
  O  O27  1  0.80798300  0.22098900  0.16130200  1
  O  O28  1  0.45680600  0.20730900  0.59154600  1
  O  O29  1  0.79326500  0.54569200  0.90585100  1
  O  O30  1  0.52681000  0.51904800  0.57958600  1
  O  O31  1  0.23529900  0.76978700  0.47782700  1
  O  O32  1  0.22098900  0.80798300  0.66130200  1
  O  O33  1  0.24334000  0.59125800  0.20728100  1
  O  O34  1  0.36635400  0.11790600  0.22782600  1
  O  O35  1  0.32884600  0.15679100  0.04594100  1
  O  O36  1  0.55550800  0.81793900  0.57724200  1
  O  O37  1  0.15643200  0.36902800  0.37228400  1
  O  O38  1  0.81793900  0.55550800  0.07724200  1
  O  O39  1  0.07993700  0.09367700  0.22610400  1
  O  O40  1  0.84166300  0.63088800  0.63124600  1
  O  O41  1  0.83053900  0.34156100  0.61923200  1
  O  O42  1  0.54569200  0.79326500  0.40585100  1
  O  O43  1  0.76978700  0.23529900  0.97782700  1
  O  O44  1  0.78200900  0.92750000  0.51660300  1
  O  O45  1  0.44588400  0.19504600  0.41994500  1
  O  O46  1  0.09367700  0.07993700  0.72610400  1
  O  O47  1  0.76641600  0.22326000  0.52976000  1
  O  O48  1  0.20730900  0.45680600  0.09154600  1
  O  O49  1  0.62963500  0.88860700  0.77540900  1
  O  O50  1  0.76461000  0.40254600  0.79681600  1
  O  O51  1  0.34156100  0.83053900  0.11923200  1
  O  O52  1  0.78001700  0.18359700  0.33932500  1
  O  O53  1  0.36902800  0.15643200  0.87228400  1
  O  O54  1  0.84659500  0.67691000  0.45502700  1
  O  O55  1  0.19504600  0.44588400  0.91994500  1
  O  O56  1  0.17134500  0.65365100  0.38711800  1
  O  O57  1  0.23154000  0.06825700  0.49072500  1
  O  O58  1  0.92703500  0.91426100  0.26670400  1
  O  O59  1  0.40254600  0.76461000  0.29681600  1
  O  O60  1  0.91426100  0.92703500  0.76670400  1
  O  O61  1  0.63088800  0.84166300  0.13124600  1
  O  O62  1  0.59125800  0.24334000  0.70728100  1
  O  O63  1  0.18359700  0.78001700  0.83932500  1
  O  O64  1  0.11790600  0.36635400  0.72782600  1
  O  O65  1  0.88860700  0.62963500  0.27540900  1
  O  O66  1  0.15679100  0.32884600  0.54594100  1
  O  O67  1  0.48343800  0.48654000  0.91686200  1
  O  O68  1  0.65365100  0.17134500  0.88711800  1
  O  O69  1  0.22326000  0.76641600  0.02976000  1
  O  O70  1  0.06825700  0.23154000  0.99072500  1
  O  O71  1  0.67691000  0.84659500  0.95502700  1
