# generated using pymatgen
data_Sr3Li3La5O12
_symmetry_space_group_name_H-M   'P 1'
_cell_length_a   10.78300600
_cell_length_b   6.89585200
_cell_length_c   13.52639257
_cell_angle_alpha   89.95837853
_cell_angle_beta   90.00000000
_cell_angle_gamma   90.00000000
_symmetry_Int_Tables_number   1
_chemical_formula_structural   Sr3Li3La5O12
_chemical_formula_sum   'Sr9 Li9 La15 O36'
_cell_volume   1005.79541575
_cell_formula_units_Z   3
loop_
 _symmetry_equiv_pos_site_id
 _symmetry_equiv_pos_as_xyz
  1  'x, y, z'
loop_
 _atom_site_type_symbol
 _atom_site_label
 _atom_site_symmetry_multiplicity
 _atom_site_fract_x
 _atom_site_fract_y
 _atom_site_fract_z
 _atom_site_occupancy
  Sr  Sr0  1  0.00000000  0.91476100  0.21874800  1
  Sr  Sr1  1  0.33343700  0.91405000  0.21722500  1
  Sr  Sr2  1  0.66656300  0.91405000  0.21722500  1
  Sr  Sr3  1  0.00000000  0.41210600  0.28045500  1
  Sr  Sr4  1  0.66688300  0.41275900  0.27951700  1
  Sr  Sr5  1  0.33311700  0.41275900  0.27951700  1
  Sr  Sr6  1  0.16098300  0.59910200  0.71836800  1
  Sr  Sr7  1  0.50000000  0.58691300  0.72562700  1
  Sr  Sr8  1  0.83901700  0.59910200  0.71836800  1
  Li  Li9  1  0.16527400  0.62399300  0.13663900  1
  Li  Li10  1  0.50000000  0.62313600  0.13541300  1
  Li  Li11  1  0.83472600  0.62399300  0.13663900  1
  Li  Li12  1  0.16800900  0.12228100  0.36379600  1
  Li  Li13  1  0.50000000  0.12418900  0.36301600  1
  Li  Li14  1  0.83199100  0.12228100  0.36379600  1
  Li  Li15  1  0.33821700  0.87830700  0.63182700  1
  Li  Li16  1  0.66178300  0.87830700  0.63182700  1
  Li  Li17  1  0.00000000  0.38356000  0.86946000  1
  La  La18  1  0.16925700  0.24531100  0.03932800  1
  La  La19  1  0.50000000  0.24152400  0.03603400  1
  La  La20  1  0.83074300  0.24531100  0.03932800  1
  La  La21  1  0.16399000  0.73912200  0.46052500  1
  La  La22  1  0.50000000  0.74344700  0.45586900  1
  La  La23  1  0.83601000  0.73912200  0.46052500  1
  La  La24  1  0.33396100  0.25555000  0.53871700  1
  La  La25  1  0.66603900  0.25555000  0.53871700  1
  La  La26  1  0.00000000  0.23743200  0.54122600  1
  La  La27  1  0.17123600  0.09424200  0.77856500  1
  La  La28  1  0.50000000  0.10610600  0.78504800  1
  La  La29  1  0.82876400  0.09424200  0.77856500  1
  La  La30  1  0.33275500  0.73125100  0.95775500  1
  La  La31  1  0.66724500  0.73125100  0.95775500  1
  La  La32  1  0.00000000  0.75412200  0.96181900  1
  O  O33  1  0.83290700  0.86809200  0.06546200  1
  O  O34  1  0.16709300  0.86809200  0.06546200  1
  O  O35  1  0.50000000  0.86229100  0.06264000  1
  O  O36  1  0.33141400  0.48670800  0.09577600  1
  O  O37  1  0.66858600  0.48670800  0.09577600  1
  O  O38  1  0.00000000  0.48640400  0.09860300  1
  O  O39  1  0.16719500  0.18215800  0.22068300  1
  O  O40  1  0.83280500  0.18215800  0.22068300  1
  O  O41  1  0.50000000  0.18311800  0.21875700  1
  O  O42  1  0.16629200  0.68279000  0.28147800  1
  O  O43  1  0.83370800  0.68279000  0.28147800  1
  O  O44  1  0.50000000  0.68202800  0.27903300  1
  O  O45  1  0.66464300  0.98922300  0.40461000  1
  O  O46  1  0.33535700  0.98922300  0.40461000  1
  O  O47  1  0.00000000  0.98994700  0.40663900  1
  O  O48  1  0.16697300  0.36362500  0.43686900  1
  O  O49  1  0.50000000  0.37052900  0.43424300  1
  O  O50  1  0.83302700  0.36362500  0.43686900  1
  O  O51  1  0.33237200  0.63189600  0.56399000  1
  O  O52  1  0.66762800  0.63189600  0.56399000  1
  O  O53  1  0.00000000  0.60811900  0.55985100  1
  O  O54  1  0.18027100  0.02434800  0.60286600  1
  O  O55  1  0.50000000  0.01011300  0.60467400  1
  O  O56  1  0.81972900  0.02434800  0.60286600  1
  O  O57  1  0.00000000  0.30797700  0.72579100  1
  O  O58  1  0.33617300  0.30253700  0.71707200  1
  O  O59  1  0.66382700  0.30253700  0.71707200  1
  O  O60  1  0.33260200  0.83459100  0.77389700  1
  O  O61  1  0.66739800  0.83459100  0.77389700  1
  O  O62  1  0.00000000  0.83892300  0.78443700  1
  O  O63  1  0.84677600  0.51703400  0.90304500  1
  O  O64  1  0.15322400  0.51703400  0.90304500  1
  O  O65  1  0.50000000  0.52904800  0.90749000  1
  O  O66  1  0.33476400  0.11479100  0.93313600  1
  O  O67  1  0.66523600  0.11479100  0.93313600  1
  O  O68  1  0.00000000  0.13612800  0.93387900  1
