# generated using pymatgen
data_Li7VO5F
_symmetry_space_group_name_H-M   'P 1'
_cell_length_a   5.26229499
_cell_length_b   10.51948212
_cell_length_c   9.58602622
_cell_angle_alpha   100.32654761
_cell_angle_beta   92.64332477
_cell_angle_gamma   102.54681712
_symmetry_Int_Tables_number   1
_chemical_formula_structural   Li7VO5F
_chemical_formula_sum   'Li28 V4 O20 F4'
_cell_volume   507.58433538
_cell_formula_units_Z   4
loop_
 _symmetry_equiv_pos_site_id
 _symmetry_equiv_pos_as_xyz
  1  'x, y, z'
loop_
 _atom_site_type_symbol
 _atom_site_label
 _atom_site_symmetry_multiplicity
 _atom_site_fract_x
 _atom_site_fract_y
 _atom_site_fract_z
 _atom_site_occupancy
  Li  Li0  1  0.73875800  0.69093400  0.79469200  1
  Li  Li1  1  0.48860500  0.19084100  0.04469300  1
  Li  Li2  1  0.98872100  0.19093900  0.54467000  1
  Li  Li3  1  0.23875800  0.69088100  0.29467100  1
  Li  Li4  1  0.57679800  0.81483000  0.65302000  1
  Li  Li5  1  0.32672800  0.31481700  0.90311000  1
  Li  Li6  1  0.82680000  0.31485400  0.40309400  1
  Li  Li7  1  0.07678300  0.81485000  0.15313000  1
  Li  Li8  1  0.75709500  0.50571800  0.57775400  1
  Li  Li9  1  0.50704000  0.00574900  0.82769000  1
  Li  Li10  1  0.00712700  0.00575000  0.32771800  1
  Li  Li11  1  0.25715000  0.50571600  0.07770500  1
  Li  Li12  1  0.96946400  0.99040600  0.68274200  1
  Li  Li13  1  0.71942900  0.49035800  0.93279400  1
  Li  Li14  1  0.21938600  0.49037000  0.43283200  1
  Li  Li15  1  0.46933200  0.99038000  0.18280000  1
  Li  Li16  1  0.64866800  0.68102300  0.44340200  1
  Li  Li17  1  0.39865200  0.18108300  0.69341400  1
  Li  Li18  1  0.89869900  0.18097000  0.19341600  1
  Li  Li19  1  0.14866500  0.68104600  0.94347600  1
  Li  Li20  1  0.14383900  0.68644600  0.61075800  1
  Li  Li21  1  0.89392400  0.18641200  0.86076100  1
  Li  Li22  1  0.39391200  0.18641200  0.36075100  1
  Li  Li23  1  0.64390600  0.68640500  0.11077800  1
  Li  Li24  1  0.04788600  0.82943300  0.45686700  1
  Li  Li25  1  0.79796200  0.32950600  0.70696100  1
  Li  Li26  1  0.29793000  0.32944200  0.20688100  1
  Li  Li27  1  0.54783800  0.82943000  0.95692800  1
  V  V28  1  0.27728500  0.50487800  0.73059000  1
  V  V29  1  0.52745900  0.00475400  0.48090200  1
  V  V30  1  0.02700000  0.00452100  0.98065600  1
  V  V31  1  0.77757500  0.50481300  0.23095200  1
  O  O32  1  0.78114000  0.88505100  0.82172100  1
  O  O33  1  0.53135300  0.38505100  0.07180500  1
  O  O34  1  0.03128100  0.38507600  0.57172200  1
  O  O35  1  0.28130100  0.88505200  0.32176500  1
  O  O36  1  0.47261800  0.61659300  0.61390200  1
  O  O37  1  0.22225200  0.11638800  0.86400800  1
  O  O38  1  0.72244600  0.11645100  0.36408600  1
  O  O39  1  0.97252600  0.61650100  0.11404600  1
  O  O40  1  0.00477000  0.59536200  0.75996000  1
  O  O41  1  0.75480800  0.09527500  0.00998100  1
  O  O42  1  0.25468300  0.09540500  0.51007900  1
  O  O43  1  0.50491500  0.59532400  0.26000900  1
  O  O44  1  0.72761600  0.88233900  0.49684400  1
  O  O45  1  0.47770800  0.38241200  0.74676100  1
  O  O46  1  0.97766600  0.38220400  0.24685500  1
  O  O47  1  0.22776000  0.88212400  0.99679200  1
  O  O48  1  0.97191300  0.62573500  0.42093800  1
  O  O49  1  0.72180500  0.12582700  0.67096100  1
  O  O50  1  0.22179100  0.12558700  0.17092400  1
  O  O51  1  0.47183400  0.62592300  0.92087000  1
  F  F52  1  0.26783400  0.87457700  0.63635100  1
  F  F53  1  0.01747900  0.37444600  0.88644500  1
  F  F54  1  0.51746000  0.37453900  0.38633400  1
  F  F55  1  0.76734800  0.87444400  0.13634900  1
