# generated using pymatgen
data_LiMn(PO3)3
_symmetry_space_group_name_H-M   'P 1'
_cell_length_a   5.39371600
_cell_length_b   10.30487300
_cell_length_c   11.74210800
_cell_angle_alpha   90.00000000
_cell_angle_beta   90.00000000
_cell_angle_gamma   90.00000000
_symmetry_Int_Tables_number   1
_chemical_formula_structural   LiMn(PO3)3
_chemical_formula_sum   'Li4 Mn4 P12 O36'
_cell_volume   652.64466128
_cell_formula_units_Z   4
loop_
 _symmetry_equiv_pos_site_id
 _symmetry_equiv_pos_as_xyz
  1  'x, y, z'
loop_
 _atom_site_type_symbol
 _atom_site_label
 _atom_site_symmetry_multiplicity
 _atom_site_fract_x
 _atom_site_fract_y
 _atom_site_fract_z
 _atom_site_occupancy
  Li  Li0  1  0.57359600  0.03788700  0.86368400  1
  Li  Li1  1  0.07359600  0.46211300  0.13631600  1
  Li  Li2  1  0.42640400  0.53788700  0.63631600  1
  Li  Li3  1  0.92640400  0.96211300  0.36368400  1
  Mn  Mn4  1  0.10958100  0.10947800  0.08913500  1
  Mn  Mn5  1  0.60958100  0.39052200  0.91086500  1
  Mn  Mn6  1  0.89041900  0.60947800  0.41086500  1
  Mn  Mn7  1  0.39041900  0.89052200  0.58913500  1
  P  P8  1  0.88242100  0.07690400  0.62253800  1
  P  P9  1  0.37947900  0.13981300  0.36601600  1
  P  P10  1  0.09216600  0.21476200  0.81700100  1
  P  P11  1  0.59216600  0.28523800  0.18299900  1
  P  P12  1  0.87947900  0.36018700  0.63398400  1
  P  P13  1  0.38242100  0.42309600  0.37746200  1
  P  P14  1  0.11757900  0.57690400  0.87746200  1
  P  P15  1  0.62052100  0.63981300  0.13398400  1
  P  P16  1  0.90783400  0.71476200  0.68299900  1
  P  P17  1  0.40783400  0.78523800  0.31700100  1
  P  P18  1  0.12052100  0.86018700  0.86601600  1
  P  P19  1  0.61757900  0.92309600  0.12253800  1
  O  O20  1  0.01547100  0.98740100  0.54177200  1
  O  O21  1  0.63347900  0.03635100  0.66901500  1
  O  O22  1  0.48768700  0.04021200  0.44460700  1
  O  O23  1  0.07301500  0.09542300  0.72856500  1
  O  O24  1  0.13836700  0.11722000  0.30552700  1
  O  O25  1  0.59369900  0.16598900  0.27076900  1
  O  O26  1  0.34090400  0.20937600  0.87465500  1
  O  O27  1  0.86123400  0.21842300  0.89037200  1
  O  O28  1  0.87485200  0.22060600  0.56849500  1
  O  O29  1  0.37485200  0.27939400  0.43150500  1
  O  O30  1  0.36123400  0.28157700  0.10962800  1
  O  O31  1  0.84090400  0.29062400  0.12534500  1
  O  O32  1  0.09369900  0.33401100  0.72923100  1
  O  O33  1  0.63836700  0.38278000  0.69447300  1
  O  O34  1  0.57301500  0.40457700  0.27143500  1
  O  O35  1  0.98768700  0.45978800  0.55539300  1
  O  O36  1  0.13347900  0.46364900  0.33098500  1
  O  O37  1  0.51547100  0.51259900  0.45822800  1
  O  O38  1  0.98452900  0.48740100  0.95822800  1
  O  O39  1  0.36652100  0.53635100  0.83098500  1
  O  O40  1  0.51231300  0.54021200  0.05539300  1
  O  O41  1  0.92698500  0.59542300  0.77143500  1
  O  O42  1  0.86163300  0.61722000  0.19447300  1
  O  O43  1  0.40630100  0.66598900  0.22923100  1
  O  O44  1  0.65909600  0.70937600  0.62534500  1
  O  O45  1  0.13876600  0.71842300  0.60962800  1
  O  O46  1  0.12514800  0.72060600  0.93150500  1
  O  O47  1  0.62514800  0.77939400  0.06849500  1
  O  O48  1  0.63876600  0.78157700  0.39037200  1
  O  O49  1  0.15909600  0.79062400  0.37465500  1
  O  O50  1  0.90630100  0.83401100  0.77076900  1
  O  O51  1  0.36163300  0.88278000  0.80552700  1
  O  O52  1  0.42698500  0.90457700  0.22856500  1
  O  O53  1  0.01231300  0.95978800  0.94460700  1
  O  O54  1  0.86652100  0.96364900  0.16901500  1
  O  O55  1  0.48452900  0.01259900  0.04177200  1
