# generated using pymatgen
data_Li8VO5F
_symmetry_space_group_name_H-M   'P 1'
_cell_length_a   6.01394187
_cell_length_b   9.86988443
_cell_length_c   9.55077596
_cell_angle_alpha   101.71245681
_cell_angle_beta   105.91525108
_cell_angle_gamma   82.82210306
_symmetry_Int_Tables_number   1
_chemical_formula_structural   Li8VO5F
_chemical_formula_sum   'Li32 V4 O20 F4'
_cell_volume   532.37597760
_cell_formula_units_Z   4
loop_
 _symmetry_equiv_pos_site_id
 _symmetry_equiv_pos_as_xyz
  1  'x, y, z'
loop_
 _atom_site_type_symbol
 _atom_site_label
 _atom_site_symmetry_multiplicity
 _atom_site_fract_x
 _atom_site_fract_y
 _atom_site_fract_z
 _atom_site_occupancy
  Li  Li0  1  0.09227300  0.27088100  0.06021000  1
  Li  Li1  1  0.59217900  0.77091300  0.06018300  1
  Li  Li2  1  0.84207900  0.52089000  0.56014200  1
  Li  Li3  1  0.34229100  0.02087600  0.56011100  1
  Li  Li4  1  0.40546400  0.24798900  0.26120400  1
  Li  Li5  1  0.90520800  0.74789400  0.26099000  1
  Li  Li6  1  0.15534700  0.49783100  0.76099200  1
  Li  Li7  1  0.65525900  0.99794400  0.76087800  1
  Li  Li8  1  0.13555500  0.50605700  0.11740000  1
  Li  Li9  1  0.63563300  0.00605000  0.11738600  1
  Li  Li10  1  0.88558600  0.75604600  0.61740200  1
  Li  Li11  1  0.38501600  0.25612500  0.61730500  1
  Li  Li12  1  0.76404300  0.24674100  0.14682200  1
  Li  Li13  1  0.26402200  0.74671200  0.14681600  1
  Li  Li14  1  0.51393800  0.49668100  0.64663900  1
  Li  Li15  1  0.01428900  0.99677800  0.64675100  1
  Li  Li16  1  0.46021700  0.50281400  0.32709800  1
  Li  Li17  1  0.96044200  0.00292100  0.32713200  1
  Li  Li18  1  0.21021000  0.75284000  0.82701600  1
  Li  Li19  1  0.71034600  0.25295100  0.82721700  1
  Li  Li20  1  0.11984200  0.23775800  0.38496900  1
  Li  Li21  1  0.61982800  0.73776500  0.38494600  1
  Li  Li22  1  0.86988400  0.48775700  0.88484000  1
  Li  Li23  1  0.36976700  0.98780600  0.88496900  1
  Li  Li24  1  0.85206900  0.51029400  0.23720800  1
  Li  Li25  1  0.35209300  0.01036700  0.23717100  1
  Li  Li26  1  0.60213400  0.76031200  0.73720600  1
  Li  Li27  1  0.10202700  0.26016600  0.73700300  1
  Li  Li28  1  0.16975300  0.48353100  0.45045300  1
  Li  Li29  1  0.67019400  0.98338100  0.45025300  1
  Li  Li30  1  0.91994600  0.73350400  0.95041300  1
  Li  Li31  1  0.41990300  0.23341000  0.95037800  1
  V  V32  1  0.99208800  0.99241700  0.00693900  1
  V  V33  1  0.24215200  0.74251500  0.50694000  1
  V  V34  1  0.49189000  0.49243100  0.00693600  1
  V  V35  1  0.74170500  0.24233200  0.50705900  1
  O  O36  1  0.39559400  0.36368600  0.12364700  1
  O  O37  1  0.89554700  0.86361400  0.12363300  1
  O  O38  1  0.14552300  0.61376600  0.62365100  1
  O  O39  1  0.64604500  0.11372800  0.62368500  1
  O  O40  1  0.09632000  0.14199600  0.19005200  1
  O  O41  1  0.59640900  0.64196100  0.19003700  1
  O  O42  1  0.84672500  0.39202200  0.69001200  1
  O  O43  1  0.34659800  0.89202400  0.69004200  1
  O  O44  1  0.83027200  0.40318700  0.04061900  1
  O  O45  1  0.33028600  0.90317700  0.04067100  1
  O  O46  1  0.58011300  0.65327000  0.54063100  1
  O  O47  1  0.08105900  0.15299800  0.54068000  1
  O  O48  1  0.41745700  0.34485700  0.46135100  1
  O  O49  1  0.91804600  0.84479000  0.46134800  1
  O  O50  1  0.16793300  0.59481600  0.96130700  1
  O  O51  1  0.66782700  0.09489300  0.96117600  1
  O  O52  1  0.14768800  0.60705500  0.31252500  1
  O  O53  1  0.64801200  0.10694900  0.31240900  1
  O  O54  1  0.89769600  0.85698600  0.81244000  1
  O  O55  1  0.39786000  0.35699600  0.81256900  1
  F  F56  1  0.87027500  0.39085600  0.38005000  1
  F  F57  1  0.37081700  0.89092300  0.38005200  1
  F  F58  1  0.62065600  0.64088000  0.88002600  1
  F  F59  1  0.12057300  0.14089100  0.88001600  1
