# generated using pymatgen
data_Li4Ti4Mn4FeO18
_symmetry_space_group_name_H-M   'P 1'
_cell_length_a   2.96324300
_cell_length_b   9.18932000
_cell_length_c   25.17436200
_cell_angle_alpha   90.00000000
_cell_angle_beta   90.00000000
_cell_angle_gamma   90.00000000
_symmetry_Int_Tables_number   1
_chemical_formula_structural   Li4Ti4Mn4FeO18
_chemical_formula_sum   'Li8 Ti8 Mn8 Fe2 O36'
_cell_volume   685.50261419
_cell_formula_units_Z   2
loop_
 _symmetry_equiv_pos_site_id
 _symmetry_equiv_pos_as_xyz
  1  'x, y, z'
loop_
 _atom_site_type_symbol
 _atom_site_label
 _atom_site_symmetry_multiplicity
 _atom_site_fract_x
 _atom_site_fract_y
 _atom_site_fract_z
 _atom_site_occupancy
  Li  Li0  1  0.00000000  0.68927200  0.99813600  1
  Li  Li1  1  0.00000000  0.70640000  0.19451900  1
  Li  Li2  1  0.00000000  0.79360000  0.69451900  1
  Li  Li3  1  0.00000000  0.81072800  0.49813600  1
  Li  Li4  1  0.00000000  0.18927200  0.50186400  1
  Li  Li5  1  0.00000000  0.20640000  0.30548100  1
  Li  Li6  1  0.00000000  0.29360000  0.80548100  1
  Li  Li7  1  0.00000000  0.31072800  0.00186400  1
  Ti  Ti8  1  0.00000000  0.50481100  0.10365000  1
  Ti  Ti9  1  0.50000000  0.64528900  0.80499800  1
  Ti  Ti10  1  0.50000000  0.85471100  0.30499800  1
  Ti  Ti11  1  0.00000000  0.99518900  0.60365000  1
  Ti  Ti12  1  0.00000000  0.00481100  0.39635000  1
  Ti  Ti13  1  0.50000000  0.14528900  0.69500200  1
  Ti  Ti14  1  0.50000000  0.35471100  0.19500200  1
  Ti  Ti15  1  0.00000000  0.49518900  0.89635000  1
  Mn  Mn16  1  0.00000000  0.51783700  0.31465100  1
  Mn  Mn17  1  0.50000000  0.64288600  0.58700600  1
  Mn  Mn18  1  0.50000000  0.85711400  0.08700600  1
  Mn  Mn19  1  0.00000000  0.98216300  0.81465100  1
  Mn  Mn20  1  0.00000000  0.01783700  0.18534900  1
  Mn  Mn21  1  0.50000000  0.14288600  0.91299400  1
  Mn  Mn22  1  0.50000000  0.35711400  0.41299400  1
  Mn  Mn23  1  0.00000000  0.48216300  0.68534900  1
  Fe  Fe24  1  0.00000000  0.50000000  0.50000000  1
  Fe  Fe25  1  0.00000000  0.00000000  0.00000000  1
  O  O26  1  0.00000000  0.49673300  0.41975200  1
  O  O27  1  0.00000000  0.50326700  0.58024800  1
  O  O28  1  0.50000000  0.53869800  0.94126400  1
  O  O29  1  0.50000000  0.55108700  0.16167700  1
  O  O30  1  0.50000000  0.61574200  0.66283700  1
  O  O31  1  0.00000000  0.61315400  0.75703800  1
  O  O32  1  0.50000000  0.65363300  0.50873100  1
  O  O33  1  0.50000000  0.64326500  0.29155000  1
  O  O34  1  0.00000000  0.67725500  0.85744300  1
  O  O35  1  0.00000000  0.71246000  0.08864500  1
  O  O36  1  0.00000000  0.78754000  0.58864500  1
  O  O37  1  0.00000000  0.82274500  0.35744300  1
  O  O38  1  0.50000000  0.85673500  0.79155000  1
  O  O39  1  0.50000000  0.84636700  0.00873100  1
  O  O40  1  0.00000000  0.88684600  0.25703800  1
  O  O41  1  0.50000000  0.88425800  0.16283700  1
  O  O42  1  0.50000000  0.94891300  0.66167700  1
  O  O43  1  0.50000000  0.96130200  0.44126400  1
  O  O44  1  0.00000000  0.99673300  0.08024800  1
  O  O45  1  0.00000000  0.00326700  0.91975200  1
  O  O46  1  0.50000000  0.03869800  0.55873600  1
  O  O47  1  0.50000000  0.05108700  0.33832300  1
  O  O48  1  0.50000000  0.11574200  0.83716300  1
  O  O49  1  0.00000000  0.11315400  0.74296200  1
  O  O50  1  0.50000000  0.15363300  0.99126900  1
  O  O51  1  0.50000000  0.14326500  0.20845000  1
  O  O52  1  0.00000000  0.17725500  0.64255700  1
  O  O53  1  0.00000000  0.21246000  0.41135500  1
  O  O54  1  0.00000000  0.28754000  0.91135500  1
  O  O55  1  0.00000000  0.32274500  0.14255700  1
  O  O56  1  0.50000000  0.35673500  0.70845000  1
  O  O57  1  0.50000000  0.34636700  0.49126900  1
  O  O58  1  0.00000000  0.38684600  0.24296200  1
  O  O59  1  0.50000000  0.38425800  0.33716300  1
  O  O60  1  0.50000000  0.44891300  0.83832300  1
  O  O61  1  0.50000000  0.46130200  0.05873600  1
