# generated using pymatgen
data_LiMn2(BO3)2
_symmetry_space_group_name_H-M   'P 1'
_cell_length_a   5.35127300
_cell_length_b   9.07267712
_cell_length_c   11.32720850
_cell_angle_alpha   112.87850806
_cell_angle_beta   100.86939065
_cell_angle_gamma   90.60099712
_symmetry_Int_Tables_number   1
_chemical_formula_structural   LiMn2(BO3)2
_chemical_formula_sum   'Li4 Mn8 B8 O24'
_cell_volume   495.44832127
_cell_formula_units_Z   4
loop_
 _symmetry_equiv_pos_site_id
 _symmetry_equiv_pos_as_xyz
  1  'x, y, z'
loop_
 _atom_site_type_symbol
 _atom_site_label
 _atom_site_symmetry_multiplicity
 _atom_site_fract_x
 _atom_site_fract_y
 _atom_site_fract_z
 _atom_site_occupancy
  Li  Li0  1  0.70538800  0.84179000  0.65716400  1
  Li  Li1  1  0.93973700  0.06065600  0.16343200  1
  Li  Li2  1  0.59546100  0.45761600  0.91928200  1
  Li  Li3  1  0.34687700  0.22447900  0.40621500  1
  Mn  Mn4  1  0.89736000  0.71620100  0.14114800  1
  Mn  Mn5  1  0.34986500  0.86557300  0.37860000  1
  Mn  Mn6  1  0.60823100  0.78795800  0.88990300  1
  Mn  Mn7  1  0.84299900  0.35914600  0.38318100  1
  Mn  Mn8  1  0.17670500  0.62310200  0.63689600  1
  Mn  Mn9  1  0.41778900  0.25302400  0.12575500  1
  Mn  Mn10  1  0.65576200  0.17125400  0.62208400  1
  Mn  Mn11  1  0.08663500  0.24203500  0.86691000  1
  B  B12  1  0.40995700  0.91474700  0.14230100  1
  B  B13  1  0.15994900  0.96662500  0.62653400  1
  B  B14  1  0.87839300  0.36727100  0.11422100  1
  B  B15  1  0.35021200  0.52573100  0.37650600  1
  B  B16  1  0.63363300  0.49629000  0.62379800  1
  B  B17  1  0.09754900  0.58869900  0.87646200  1
  B  B18  1  0.86186500  0.02045400  0.37547700  1
  B  B19  1  0.61013300  0.11986800  0.86770200  1
  O  O20  1  0.64045000  0.87992300  0.09946300  1
  O  O21  1  0.95830000  0.87311100  0.35029700  1
  O  O22  1  0.05242100  0.83654200  0.63204100  1
  O  O23  1  0.30012300  0.81083100  0.18964200  1
  O  O24  1  0.38202800  0.96513100  0.57285800  1
  O  O25  1  0.74802400  0.48993400  0.10789600  1
  O  O26  1  0.70877000  0.97963200  0.84555700  1
  O  O27  1  0.45109600  0.65283400  0.36540500  1
  O  O28  1  0.79176600  0.26090200  0.16451100  1
  O  O29  1  0.55380100  0.65130900  0.67107700  1
  O  O30  1  0.09943400  0.32852700  0.06353900  1
  O  O31  1  0.86988800  0.47784000  0.58985100  1
  O  O32  1  0.16028000  0.52369300  0.44469000  1
  O  O33  1  0.87102400  0.62629400  0.92182900  1
  O  O34  1  0.43941800  0.36946100  0.31730300  1
  O  O35  1  0.20597700  0.69016700  0.82628600  1
  O  O36  1  0.99198100  0.14267600  0.36272900  1
  O  O37  1  0.48087400  0.36320900  0.60045600  1
  O  O38  1  0.28708200  0.04288700  0.13629900  1
  O  O39  1  0.22365800  0.46130000  0.88187000  1
  O  O40  1  0.62377400  0.04798900  0.41373600  1
  O  O41  1  0.70965100  0.23833800  0.83155700  1
  O  O42  1  0.05998400  0.11843900  0.67925300  1
  O  O43  1  0.40300100  0.16246700  0.93019800  1
