# generated using pymatgen
data_Li4Nb2Fe3Te3O16
_symmetry_space_group_name_H-M   'P 1'
_cell_length_a   6.36254200
_cell_length_b   6.38756118
_cell_length_c   10.13643282
_cell_angle_alpha   89.49692794
_cell_angle_beta   89.29806563
_cell_angle_gamma   61.11182092
_symmetry_Int_Tables_number   1
_chemical_formula_structural   Li4Nb2Fe3Te3O16
_chemical_formula_sum   'Li4 Nb2 Fe3 Te3 O16'
_cell_volume   360.66497845
_cell_formula_units_Z   1
loop_
 _symmetry_equiv_pos_site_id
 _symmetry_equiv_pos_as_xyz
  1  'x, y, z'
loop_
 _atom_site_type_symbol
 _atom_site_label
 _atom_site_symmetry_multiplicity
 _atom_site_fract_x
 _atom_site_fract_y
 _atom_site_fract_z
 _atom_site_occupancy
  Li  Li0  1  0.32899200  0.33430700  0.10391900  1
  Li  Li1  1  0.02322700  0.02844300  0.01795500  1
  Li  Li2  1  0.01059900  0.00710700  0.49186200  1
  Li  Li3  1  0.66866700  0.65510700  0.58409700  1
  Nb  Nb4  1  0.33725700  0.33211200  0.49322000  1
  Nb  Nb5  1  0.64694900  0.64266300  0.01532500  1
  Fe  Fe6  1  0.17322400  0.14512200  0.78790600  1
  Fe  Fe7  1  0.33639800  0.82497700  0.28635700  1
  Fe  Fe8  1  0.82569800  0.33360900  0.28483100  1
  Te  Te9  1  0.13671400  0.63713300  0.79797200  1
  Te  Te10  1  0.65948800  0.16931200  0.76441600  1
  Te  Te11  1  0.82056300  0.81889800  0.27649600  1
  O  O12  1  0.20128900  0.64707700  0.42510200  1
  O  O13  1  0.50577800  0.45290000  0.65234500  1
  O  O14  1  0.28377700  0.34673500  0.90116200  1
  O  O15  1  0.96848200  0.04555700  0.67478800  1
  O  O16  1  0.01214400  0.00803100  0.19806400  1
  O  O17  1  0.63754800  0.19437600  0.41031900  1
  O  O18  1  0.04044700  0.48358700  0.66378100  1
  O  O19  1  0.49741200  0.03967700  0.65186200  1
  O  O20  1  0.85138800  0.78997500  0.90939700  1
  O  O21  1  0.17668300  0.18043500  0.41627800  1
  O  O22  1  0.54430200  0.95521900  0.15632100  1
  O  O23  1  0.95365000  0.53848700  0.15562800  1
  O  O24  1  0.65632600  0.66012000  0.38284900  1
  O  O25  1  0.36169500  0.85058700  0.92366400  1
  O  O26  1  0.51147500  0.52611100  0.14577800  1
  O  O27  1  0.82953100  0.35263500  0.92046600  1
