# generated using pymatgen
data_Li2Mn3(BO3)3
_symmetry_space_group_name_H-M   'P 1'
_cell_length_a   6.30606600
_cell_length_b   8.28207009
_cell_length_c   8.71972517
_cell_angle_alpha   117.36793488
_cell_angle_beta   110.20622865
_cell_angle_gamma   91.06178783
_symmetry_Int_Tables_number   1
_chemical_formula_structural   Li2Mn3(BO3)3
_chemical_formula_sum   'Li4 Mn6 B6 O18'
_cell_volume   370.85497977
_cell_formula_units_Z   2
loop_
 _symmetry_equiv_pos_site_id
 _symmetry_equiv_pos_as_xyz
  1  'x, y, z'
loop_
 _atom_site_type_symbol
 _atom_site_label
 _atom_site_symmetry_multiplicity
 _atom_site_fract_x
 _atom_site_fract_y
 _atom_site_fract_z
 _atom_site_occupancy
  Li  Li0  1  0.40640500  0.29712500  0.28092600  1
  Li  Li1  1  0.10890600  0.97450300  0.68933400  1
  Li  Li2  1  0.58718200  0.98857300  0.69466000  1
  Li  Li3  1  0.28287000  0.72091100  0.02057900  1
  Mn  Mn4  1  0.15678400  0.00317800  0.33099400  1
  Mn  Mn5  1  0.68811900  0.01194500  0.37035800  1
  Mn  Mn6  1  0.99661600  0.35286800  0.00597100  1
  Mn  Mn7  1  0.50183800  0.37666000  0.99714400  1
  Mn  Mn8  1  0.30382400  0.60393900  0.62250700  1
  Mn  Mn9  1  0.84431500  0.65865100  0.69988700  1
  B  B10  1  0.00538700  0.00075700  0.98798200  1
  B  B11  1  0.48969000  0.99896100  0.98742200  1
  B  B12  1  0.10835100  0.32819700  0.67526100  1
  B  B13  1  0.57199800  0.33220100  0.65898100  1
  B  B14  1  0.91505500  0.66722100  0.35081800  1
  B  B15  1  0.40235300  0.67206000  0.33471200  1
  O  O16  1  0.18354400  0.25694100  0.79922100  1
  O  O17  1  0.64776100  0.26756400  0.78615800  1
  O  O18  1  0.99762300  0.21233900  0.48767700  1
  O  O19  1  0.48473200  0.21496200  0.46787200  1
  O  O20  1  0.08211000  0.18481600  0.12198400  1
  O  O21  1  0.52979100  0.19271000  0.08224000  1
  O  O22  1  0.15314600  0.52307400  0.75328400  1
  O  O23  1  0.58472000  0.52437800  0.73171400  1
  O  O24  1  0.43737100  0.58352700  0.44131000  1
  O  O25  1  0.98788300  0.61643500  0.48973700  1
  O  O26  1  0.81151900  0.53175400  0.16168300  1
  O  O27  1  0.32304500  0.55955800  0.13947900  1
  O  O28  1  0.39925000  0.89895700  0.79099200  1
  O  O29  1  0.89260900  0.94386100  0.79611400  1
  O  O30  1  0.44369000  0.86193800  0.41384600  1
  O  O31  1  0.95071000  0.85255700  0.40404100  1
  O  O32  1  0.03918600  0.86125700  0.03550300  1
  O  O33  1  0.53164000  0.90924000  0.08965700  1
