# generated using pymatgen
data_Li4V3P8O29
_symmetry_space_group_name_H-M   'P 1'
_cell_length_a   9.74133500
_cell_length_b   9.75727796
_cell_length_c   14.10931853
_cell_angle_alpha   90.33114966
_cell_angle_beta   89.90456600
_cell_angle_gamma   119.90385814
_symmetry_Int_Tables_number   1
_chemical_formula_structural   Li4V3P8O29
_chemical_formula_sum   'Li8 V6 P16 O58'
_cell_volume   1162.50832039
_cell_formula_units_Z   2
loop_
 _symmetry_equiv_pos_site_id
 _symmetry_equiv_pos_as_xyz
  1  'x, y, z'
loop_
 _atom_site_type_symbol
 _atom_site_label
 _atom_site_symmetry_multiplicity
 _atom_site_fract_x
 _atom_site_fract_y
 _atom_site_fract_z
 _atom_site_occupancy
  Li  Li0  1  0.23716000  0.90383900  0.05739600  1
  Li  Li1  1  0.67181700  0.76830000  0.05845400  1
  Li  Li2  1  0.09838200  0.33490100  0.06013100  1
  Li  Li3  1  0.76237700  0.66589000  0.44091600  1
  Li  Li4  1  0.23323000  0.33503500  0.55801900  1
  Li  Li5  1  0.32604100  0.09116600  0.44070000  1
  Li  Li6  1  0.00081900  0.00395300  0.99645800  1
  Li  Li7  1  0.95624000  0.99527200  0.50328400  1
  V  V8  1  0.56576700  0.56700100  0.24600600  1
  V  V9  1  0.43729100  0.43464300  0.75526800  1
  V  V10  1  0.00214600  0.56659000  0.74873300  1
  V  V11  1  0.99665200  0.43365300  0.25338500  1
  V  V12  1  0.43761300  0.99880400  0.25185900  1
  V  V13  1  0.56636000  0.00083000  0.74674900  1
  P  P14  1  0.22414800  0.91350900  0.84015800  1
  P  P15  1  0.08223000  0.77582200  0.34284600  1
  P  P16  1  0.69474100  0.91648600  0.34409400  1
  P  P17  1  0.32930300  0.66405600  0.13007700  1
  P  P18  1  0.33342200  0.66356400  0.63107700  1
  P  P19  1  0.68947300  0.77988700  0.84065200  1
  P  P20  1  0.77524500  0.68638600  0.65866500  1
  P  P21  1  0.08589600  0.31230000  0.84468000  1
  P  P22  1  0.91842400  0.69210400  0.15593600  1
  P  P23  1  0.22806300  0.31611400  0.34236600  1
  P  P24  1  0.30839100  0.22159200  0.16031600  1
  P  P25  1  0.66600300  0.33717100  0.37002600  1
  P  P26  1  0.67023900  0.33263600  0.86817900  1
  P  P27  1  0.31127200  0.08920800  0.65750900  1
  P  P28  1  0.91533900  0.22095900  0.66057200  1
  P  P29  1  0.77871900  0.08422400  0.15881900  1
  O  O30  1  0.22818600  0.01508500  0.56699000  1
  O  O31  1  0.25494000  0.91555300  0.34137100  1
  O  O32  1  0.00874900  0.78908600  0.07239500  1
  O  O33  1  0.08501700  0.74094000  0.83040100  1
  O  O34  1  0.38247100  0.91582500  0.82568200  1
  O  O35  1  0.32301300  0.81074100  0.17046800  1
  O  O36  1  0.53789500  0.92010200  0.33068500  1
  O  O37  1  0.79484200  0.99769600  0.07531300  1
  O  O38  1  0.65518600  0.91749700  0.83102300  1
  O  O39  1  0.18573400  0.66186900  0.67864300  1
  O  O40  1  0.08277200  0.61736200  0.32830500  1
  O  O41  1  0.47873700  0.81381000  0.67577800  1
  O  O42  1  0.31952200  0.65315600  0.02436800  1
  O  O43  1  0.32737000  0.65826500  0.52617700  1
  O  O44  1  0.48744500  0.67585100  0.16682200  1
  O  O45  1  0.08483600  0.46786700  0.82957600  1
  O  O46  1  0.18567500  0.51195900  0.17533700  1
  O  O47  1  0.65659100  0.74116000  0.33405900  1
  O  O48  1  0.79727700  0.79733100  0.74975500  1
  O  O49  1  0.78399600  0.76954000  0.56872400  1
  O  O50  1  0.77219100  0.78817600  0.93106600  1
  O  O51  1  0.53146800  0.62075800  0.82697100  1
  O  O52  1  0.33323500  0.51391100  0.67219400  1
  O  O53  1  0.74603300  0.66104900  0.15687200  1
  O  O54  1  0.38129500  0.47189100  0.32775700  1
  O  O55  1  0.08378900  0.34197800  0.33312500  1
  O  O56  1  0.00013300  0.79717000  0.24963800  1
  O  O57  1  0.99113900  0.78070700  0.42665900  1
  O  O58  1  0.00598100  0.20561500  0.57981600  1
  O  O59  1  0.91417400  0.65243600  0.66748100  1
  O  O60  1  0.61740800  0.53137200  0.67423700  1
  O  O61  1  0.25928900  0.34602100  0.83094300  1
  O  O62  1  0.67381400  0.48906200  0.32915200  1
  O  O63  1  0.46515700  0.38088400  0.17182700  1
  O  O64  1  0.20715500  0.21202700  0.07856200  1
  O  O65  1  0.22279000  0.23242100  0.43310800  1
  O  O66  1  0.20929300  0.19812800  0.25705400  1
  O  O67  1  0.34334600  0.26233000  0.66364100  1
  O  O68  1  0.81623300  0.47641900  0.82140000  1
  O  O69  1  0.91949200  0.53530100  0.17109800  1
  O  O70  1  0.52171200  0.33669800  0.82292600  1
  O  O71  1  0.66574700  0.33277500  0.97263500  1
  O  O72  1  0.67516200  0.34121400  0.47515100  1
  O  O73  1  0.51247800  0.18886500  0.33120800  1
  O  O74  1  0.92135100  0.38138100  0.66978700  1
  O  O75  1  0.81158500  0.33276600  0.32024500  1
  O  O76  1  0.34348900  0.08304700  0.16153900  1
  O  O77  1  0.20389100  0.00345100  0.74945400  1
  O  O78  1  0.21212000  0.98659600  0.93067400  1
  O  O79  1  0.46798000  0.08746500  0.67209700  1
  O  O80  1  0.66376000  0.18352800  0.82115200  1
  O  O81  1  0.62072900  0.08169100  0.17009300  1
  O  O82  1  0.91878100  0.25849900  0.16204100  1
  O  O83  1  0.01989300  0.23044800  0.93622000  1
  O  O84  1  0.98939300  0.19720700  0.75825800  1
  O  O85  1  0.74080700  0.08475800  0.66345100  1
  O  O86  1  0.78735400  0.99054000  0.43044700  1
  O  O87  1  0.80110000  0.00374400  0.25260700  1
