# generated using pymatgen
data_Li2Sn5(PO4)4
_symmetry_space_group_name_H-M   'P 1'
_cell_length_a   5.17906500
_cell_length_b   9.65615793
_cell_length_c   9.72393890
_cell_angle_alpha   115.57307227
_cell_angle_beta   101.96937889
_cell_angle_gamma   99.87865689
_symmetry_Int_Tables_number   1
_chemical_formula_structural   Li2Sn5(PO4)4
_chemical_formula_sum   'Li2 Sn5 P4 O16'
_cell_volume   409.90402444
_cell_formula_units_Z   1
loop_
 _symmetry_equiv_pos_site_id
 _symmetry_equiv_pos_as_xyz
  1  'x, y, z'
loop_
 _atom_site_type_symbol
 _atom_site_label
 _atom_site_symmetry_multiplicity
 _atom_site_fract_x
 _atom_site_fract_y
 _atom_site_fract_z
 _atom_site_occupancy
  Li  Li0  1  0.63311500  0.17567100  0.25431400  1
  Li  Li1  1  0.36688500  0.82432900  0.74568600  1
  Sn  Sn2  1  0.77144000  0.54715500  0.76867300  1
  Sn  Sn3  1  0.00000000  0.00000000  0.00000000  1
  Sn  Sn4  1  0.97532300  0.19463400  0.66750500  1
  Sn  Sn5  1  0.02467700  0.80536600  0.33249500  1
  Sn  Sn6  1  0.22856000  0.45284500  0.23132700  1
  P  P7  1  0.21626800  0.24978200  0.43750200  1
  P  P8  1  0.44602900  0.77515300  0.05042900  1
  P  P9  1  0.55397100  0.22484700  0.94957100  1
  P  P10  1  0.78373200  0.75021800  0.56249800  1
  O  O11  1  0.60661000  0.75414800  0.92281600  1
  O  O12  1  0.15870100  0.64863100  0.96826200  1
  O  O13  1  0.03562300  0.24955500  0.28246600  1
  O  O14  1  0.50949300  0.26008700  0.43120400  1
  O  O15  1  0.20114000  0.38321600  0.59525700  1
  O  O16  1  0.41676700  0.94740700  0.11621100  1
  O  O17  1  0.39229400  0.24989700  0.81377600  1
  O  O18  1  0.06032600  0.08909100  0.43050700  1
  O  O19  1  0.93967400  0.91090900  0.56949300  1
  O  O20  1  0.60770600  0.75010300  0.18622400  1
  O  O21  1  0.58323300  0.05259300  0.88378900  1
  O  O22  1  0.79886000  0.61678400  0.40474300  1
  O  O23  1  0.49050700  0.73991300  0.56879600  1
  O  O24  1  0.96437700  0.75044500  0.71753400  1
  O  O25  1  0.84129900  0.35136900  0.03173800  1
  O  O26  1  0.39339000  0.24585200  0.07718400  1
