# generated using pymatgen
data_LiMn2(SO4)3
_symmetry_space_group_name_H-M   'P 1'
_cell_length_a   8.80867100
_cell_length_b   8.47222700
_cell_length_c   14.89623951
_cell_angle_alpha   56.97922434
_cell_angle_beta   90.00000000
_cell_angle_gamma   90.00000000
_symmetry_Int_Tables_number   1
_chemical_formula_structural   LiMn2(SO4)3
_chemical_formula_sum   'Li4 Mn8 S12 O48'
_cell_volume   932.12405266
_cell_formula_units_Z   4
loop_
 _symmetry_equiv_pos_site_id
 _symmetry_equiv_pos_as_xyz
  1  'x, y, z'
loop_
 _atom_site_type_symbol
 _atom_site_label
 _atom_site_symmetry_multiplicity
 _atom_site_fract_x
 _atom_site_fract_y
 _atom_site_fract_z
 _atom_site_occupancy
  Li  Li0  1  0.78527800  0.98392100  0.32141800  1
  Li  Li1  1  0.28527800  0.01607900  0.17858200  1
  Li  Li2  1  0.71472200  0.98392100  0.82141800  1
  Li  Li3  1  0.21472200  0.01607900  0.67858200  1
  Mn  Mn4  1  0.53741300  0.36573200  0.88540900  1
  Mn  Mn5  1  0.95980700  0.14438600  0.10795400  1
  Mn  Mn6  1  0.03741300  0.63426800  0.61459100  1
  Mn  Mn7  1  0.45980700  0.85561400  0.39204600  1
  Mn  Mn8  1  0.54019300  0.14438600  0.60795400  1
  Mn  Mn9  1  0.96258700  0.36573200  0.38540900  1
  Mn  Mn10  1  0.04019300  0.85561400  0.89204600  1
  Mn  Mn11  1  0.46258700  0.63426800  0.11459100  1
  S  S12  1  0.25420000  0.45484800  0.00557000  1
  S  S13  1  0.37910800  0.74769200  0.64927400  1
  S  S14  1  0.10769700  0.03984900  0.35215600  1
  S  S15  1  0.60769700  0.96015100  0.14784400  1
  S  S16  1  0.87910800  0.25230800  0.85072600  1
  S  S17  1  0.75420000  0.54515200  0.49443000  1
  S  S18  1  0.24580000  0.45484800  0.50557000  1
  S  S19  1  0.12089200  0.74769200  0.14927400  1
  S  S20  1  0.39230300  0.03984900  0.85215600  1
  S  S21  1  0.89230300  0.96015100  0.64784400  1
  S  S22  1  0.62089200  0.25230800  0.35072600  1
  S  S23  1  0.74580000  0.54515200  0.99443000  1
  O  O24  1  0.86336900  0.40546900  0.05720800  1
  O  O25  1  0.87993600  0.80785500  0.62640300  1
  O  O26  1  0.59303900  0.10657100  0.32451500  1
  O  O27  1  0.68678600  0.52632700  0.90619600  1
  O  O28  1  0.37747700  0.48042300  0.93070900  1
  O  O29  1  0.20923300  0.71183700  0.67067200  1
  O  O30  1  0.40870100  0.83008800  0.53539300  1
  O  O31  1  0.98927300  0.09180500  0.26882600  1
  O  O32  1  0.19191400  0.25977900  0.06043500  1
  O  O33  1  0.25695100  0.02239200  0.31061100  1
  O  O34  1  0.06521100  0.85947400  0.44910000  1
  O  O35  1  0.46940800  0.57910400  0.71710700  1
  O  O36  1  0.96940800  0.42089600  0.78289300  1
  O  O37  1  0.56521100  0.14052600  0.05090000  1
  O  O38  1  0.75695100  0.97760800  0.18938900  1
  O  O39  1  0.69191400  0.74022100  0.43956500  1
  O  O40  1  0.90870100  0.16991200  0.96460700  1
  O  O41  1  0.48927300  0.90819500  0.23117400  1
  O  O42  1  0.70923300  0.28816300  0.82932800  1
  O  O43  1  0.87747700  0.51957700  0.56929100  1
  O  O44  1  0.18678600  0.47367300  0.59380400  1
  O  O45  1  0.37993600  0.19214500  0.87359700  1
  O  O46  1  0.09303900  0.89342900  0.17548500  1
  O  O47  1  0.36336900  0.59453100  0.44279200  1
  O  O48  1  0.63663100  0.40546900  0.55720800  1
  O  O49  1  0.90696100  0.10657100  0.82451500  1
  O  O50  1  0.62006400  0.80785500  0.12640300  1
  O  O51  1  0.81321400  0.52632700  0.40619600  1
  O  O52  1  0.12252300  0.48042300  0.43070900  1
  O  O53  1  0.29076700  0.71183700  0.17067200  1
  O  O54  1  0.51072700  0.09180500  0.76882600  1
  O  O55  1  0.09129900  0.83008800  0.03539300  1
  O  O56  1  0.30808600  0.25977900  0.56043500  1
  O  O57  1  0.24304900  0.02239200  0.81061100  1
  O  O58  1  0.43478900  0.85947400  0.94910000  1
  O  O59  1  0.03059200  0.57910400  0.21710700  1
  O  O60  1  0.53059200  0.42089600  0.28289300  1
  O  O61  1  0.93478900  0.14052600  0.55090000  1
  O  O62  1  0.74304900  0.97760800  0.68938900  1
  O  O63  1  0.80808600  0.74022100  0.93956500  1
  O  O64  1  0.01072700  0.90819500  0.73117400  1
  O  O65  1  0.59129900  0.16991200  0.46460700  1
  O  O66  1  0.79076700  0.28816300  0.32932800  1
  O  O67  1  0.62252300  0.51957700  0.06929100  1
  O  O68  1  0.31321400  0.47367300  0.09380400  1
  O  O69  1  0.40696100  0.89342900  0.67548500  1
  O  O70  1  0.12006400  0.19214500  0.37359700  1
  O  O71  1  0.13663100  0.59453100  0.94279200  1
