# generated using pymatgen
data_LiCr(PO3)4
_symmetry_space_group_name_H-M   'P 1'
_cell_length_a   7.41253234
_cell_length_b   7.41253234
_cell_length_c   18.09887300
_cell_angle_alpha   90.00000000
_cell_angle_beta   90.00000000
_cell_angle_gamma   101.83079001
_symmetry_Int_Tables_number   1
_chemical_formula_structural   LiCr(PO3)4
_chemical_formula_sum   'Li4 Cr4 P16 O48'
_cell_volume   973.32924664
_cell_formula_units_Z   4
loop_
 _symmetry_equiv_pos_site_id
 _symmetry_equiv_pos_as_xyz
  1  'x, y, z'
loop_
 _atom_site_type_symbol
 _atom_site_label
 _atom_site_symmetry_multiplicity
 _atom_site_fract_x
 _atom_site_fract_y
 _atom_site_fract_z
 _atom_site_occupancy
  Li  Li0  1  0.20225000  0.10109500  0.64287000  1
  Li  Li1  1  0.89890500  0.79775000  0.85713000  1
  Li  Li2  1  0.79775000  0.89890500  0.14287000  1
  Li  Li3  1  0.10109500  0.20225000  0.35713000  1
  Cr  Cr4  1  0.56505900  0.95577900  0.88428600  1
  Cr  Cr5  1  0.04422100  0.43494100  0.61571400  1
  Cr  Cr6  1  0.95577900  0.56505900  0.11571400  1
  Cr  Cr7  1  0.43494100  0.04422100  0.38428600  1
  P  P8  1  0.04428000  0.76781900  0.34608400  1
  P  P9  1  0.23218100  0.95572000  0.15391600  1
  P  P10  1  0.29022100  0.77512900  0.01303700  1
  P  P11  1  0.22487100  0.70977900  0.48696300  1
  P  P12  1  0.37860400  0.62139600  0.75000000  1
  P  P13  1  0.66304400  0.76277700  0.30902600  1
  P  P14  1  0.23722300  0.33695600  0.19097400  1
  P  P15  1  0.36450400  0.36450400  0.50000000  1
  P  P16  1  0.63549600  0.63549600  0.00000000  1
  P  P17  1  0.33695600  0.23722300  0.80902600  1
  P  P18  1  0.76277700  0.66304400  0.69097400  1
  P  P19  1  0.62139600  0.37860400  0.25000000  1
  P  P20  1  0.70977900  0.22487100  0.51303700  1
  P  P21  1  0.77512900  0.29022100  0.98696300  1
  P  P22  1  0.76781900  0.04428000  0.65391600  1
  P  P23  1  0.95572000  0.23218100  0.84608400  1
  O  O24  1  0.03950000  0.83398300  0.14656700  1
  O  O25  1  0.16601700  0.96050000  0.35343300  1
  O  O26  1  0.04913600  0.65006400  0.28173600  1
  O  O27  1  0.34993600  0.95086400  0.21826400  1
  O  O28  1  0.33494100  0.90314700  0.47904200  1
  O  O29  1  0.09685300  0.66505900  0.02095800  1
  O  O30  1  0.08402300  0.65354200  0.42087300  1
  O  O31  1  0.34645800  0.91597700  0.07912700  1
  O  O32  1  0.12689000  0.67110100  0.55989300  1
  O  O33  1  0.32889900  0.87311000  0.94010700  1
  O  O34  1  0.41864000  0.79038900  0.79819600  1
  O  O35  1  0.20961100  0.58136000  0.70180400  1
  O  O36  1  0.50859000  0.81665100  0.35307400  1
  O  O37  1  0.18334900  0.49141000  0.14692600  1
  O  O38  1  0.42823600  0.63229900  0.02227800  1
  O  O39  1  0.36770100  0.57176400  0.47772200  1
  O  O40  1  0.80280100  0.83976000  0.63504800  1
  O  O41  1  0.16024000  0.19719900  0.86495200  1
  O  O42  1  0.54163200  0.61043100  0.69187200  1
  O  O43  1  0.38956900  0.45836800  0.80812800  1
  O  O44  1  0.24861400  0.31526300  0.56887900  1
  O  O45  1  0.68473700  0.75138600  0.93112100  1
  O  O46  1  0.15749600  0.28953600  0.26490100  1
  O  O47  1  0.71046400  0.84250400  0.23509900  1
  O  O48  1  0.28953600  0.15749600  0.73509900  1
  O  O49  1  0.84250400  0.71046400  0.76490100  1
  O  O50  1  0.31526300  0.24861400  0.43112100  1
  O  O51  1  0.75138600  0.68473700  0.06887900  1
  O  O52  1  0.61043100  0.54163200  0.30812800  1
  O  O53  1  0.45836800  0.38956900  0.19187200  1
  O  O54  1  0.19719900  0.16024000  0.13504800  1
  O  O55  1  0.83976000  0.80280100  0.36495200  1
  O  O56  1  0.63229900  0.42823600  0.97772200  1
  O  O57  1  0.57176400  0.36770100  0.52227800  1
  O  O58  1  0.49141000  0.18334900  0.85307400  1
  O  O59  1  0.81665100  0.50859000  0.64692600  1
  O  O60  1  0.79038900  0.41864000  0.20180400  1
  O  O61  1  0.58136000  0.20961100  0.29819600  1
  O  O62  1  0.67110100  0.12689000  0.44010700  1
  O  O63  1  0.87311000  0.32889900  0.05989300  1
  O  O64  1  0.65354200  0.08402300  0.57912700  1
  O  O65  1  0.91597700  0.34645800  0.92087300  1
  O  O66  1  0.66505900  0.09685300  0.97904200  1
  O  O67  1  0.90314700  0.33494100  0.52095800  1
  O  O68  1  0.65006400  0.04913600  0.71826400  1
  O  O69  1  0.95086400  0.34993600  0.78173600  1
  O  O70  1  0.96050000  0.16601700  0.64656700  1
  O  O71  1  0.83398300  0.03950000  0.85343300  1
