# generated using pymatgen
data_Li3MnO3
_symmetry_space_group_name_H-M   'P 1'
_cell_length_a   9.95461500
_cell_length_b   5.16922200
_cell_length_c   5.57945349
_cell_angle_alpha   75.27418587
_cell_angle_beta   90.00000000
_cell_angle_gamma   90.00000000
_symmetry_Int_Tables_number   1
_chemical_formula_structural   Li3MnO3
_chemical_formula_sum   'Li12 Mn4 O12'
_cell_volume   277.67491236
_cell_formula_units_Z   4
loop_
 _symmetry_equiv_pos_site_id
 _symmetry_equiv_pos_as_xyz
  1  'x, y, z'
loop_
 _atom_site_type_symbol
 _atom_site_label
 _atom_site_symmetry_multiplicity
 _atom_site_fract_x
 _atom_site_fract_y
 _atom_site_fract_z
 _atom_site_occupancy
  Li  Li0  1  0.78205900  0.94015800  0.91033200  1
  Li  Li1  1  0.00396800  0.86624900  0.66866600  1
  Li  Li2  1  0.25655200  0.93271900  0.57047200  1
  Li  Li3  1  0.71794100  0.44015800  0.91033200  1
  Li  Li4  1  0.75655200  0.56728100  0.42952800  1
  Li  Li5  1  0.49603200  0.36624900  0.66866600  1
  Li  Li6  1  0.50396800  0.63375100  0.33133400  1
  Li  Li7  1  0.24344800  0.43271900  0.57047200  1
  Li  Li8  1  0.28205900  0.55984200  0.08966800  1
  Li  Li9  1  0.74344800  0.06728100  0.42952800  1
  Li  Li10  1  0.99603200  0.13375100  0.33133400  1
  Li  Li11  1  0.21794100  0.05984200  0.08966800  1
  Mn  Mn12  1  0.49737200  0.83012700  0.82110600  1
  Mn  Mn13  1  0.00262800  0.33012700  0.82110600  1
  Mn  Mn14  1  0.99737200  0.66987300  0.17889400  1
  Mn  Mn15  1  0.50262800  0.16987300  0.17889400  1
  O  O16  1  0.89317500  0.61429100  0.89418700  1
  O  O17  1  0.36479800  0.59547500  0.76601400  1
  O  O18  1  0.61908000  0.73657100  0.59629700  1
  O  O19  1  0.11908000  0.76342900  0.40370300  1
  O  O20  1  0.86479800  0.90452500  0.23398600  1
  O  O21  1  0.39317500  0.88570900  0.10581300  1
  O  O22  1  0.60682500  0.11429100  0.89418700  1
  O  O23  1  0.13520200  0.09547500  0.76601400  1
  O  O24  1  0.88092000  0.23657100  0.59629700  1
  O  O25  1  0.38092000  0.26342900  0.40370300  1
  O  O26  1  0.63520200  0.40452500  0.23398600  1
  O  O27  1  0.10682500  0.38570900  0.10581300  1
