# generated using pymatgen
data_LiCrSiO4
_symmetry_space_group_name_H-M   'P 1'
_cell_length_a   10.78364400
_cell_length_b   5.56573800
_cell_length_c   10.11209046
_cell_angle_alpha   88.79629723
_cell_angle_beta   90.00000000
_cell_angle_gamma   90.00000000
_symmetry_Int_Tables_number   1
_chemical_formula_structural   LiCrSiO4
_chemical_formula_sum   'Li8 Cr8 Si8 O32'
_cell_volume   606.78299231
_cell_formula_units_Z   8
loop_
 _symmetry_equiv_pos_site_id
 _symmetry_equiv_pos_as_xyz
  1  'x, y, z'
loop_
 _atom_site_type_symbol
 _atom_site_label
 _atom_site_symmetry_multiplicity
 _atom_site_fract_x
 _atom_site_fract_y
 _atom_site_fract_z
 _atom_site_occupancy
  Li  Li0  1  0.15880900  0.90537600  0.82918300  1
  Li  Li1  1  0.34119100  0.90537600  0.32918300  1
  Li  Li2  1  0.61722100  0.63481500  0.59351000  1
  Li  Li3  1  0.88277900  0.63481500  0.09351000  1
  Li  Li4  1  0.11722100  0.36518500  0.90649000  1
  Li  Li5  1  0.38277900  0.36518500  0.40649000  1
  Li  Li6  1  0.65880900  0.09462400  0.67081700  1
  Li  Li7  1  0.84119100  0.09462400  0.17081700  1
  Cr  Cr8  1  0.87735400  0.84922900  0.51582900  1
  Cr  Cr9  1  0.62264600  0.84922900  0.01582900  1
  Cr  Cr10  1  0.40874300  0.66012400  0.76791600  1
  Cr  Cr11  1  0.09125700  0.66012400  0.26791600  1
  Cr  Cr12  1  0.90874300  0.33987600  0.73208400  1
  Cr  Cr13  1  0.59125700  0.33987600  0.23208400  1
  Cr  Cr14  1  0.37735400  0.15077100  0.98417100  1
  Cr  Cr15  1  0.12264600  0.15077100  0.48417100  1
  Si  Si16  1  0.89732300  0.88840100  0.84055900  1
  Si  Si17  1  0.60267700  0.88840100  0.34055900  1
  Si  Si18  1  0.14325900  0.59600400  0.58257800  1
  Si  Si19  1  0.35674100  0.59600400  0.08257800  1
  Si  Si20  1  0.64325900  0.40399600  0.91742200  1
  Si  Si21  1  0.85674100  0.40399600  0.41742200  1
  Si  Si22  1  0.39732300  0.11159900  0.65944100  1
  Si  Si23  1  0.10267700  0.11159900  0.15944100  1
  O  O24  1  0.79897800  0.88373700  0.96323100  1
  O  O25  1  0.49719300  0.88890400  0.64224500  1
  O  O26  1  0.70102200  0.88373700  0.46323100  1
  O  O27  1  0.00280700  0.88890400  0.14224500  1
  O  O28  1  0.83560300  0.98144000  0.69339200  1
  O  O29  1  0.05860600  0.83982400  0.56663300  1
  O  O30  1  0.66439700  0.98144000  0.19339200  1
  O  O31  1  0.44139400  0.83982400  0.06663300  1
  O  O32  1  0.24831700  0.65323700  0.68640200  1
  O  O33  1  0.97206300  0.63131500  0.83024600  1
  O  O34  1  0.25168300  0.65323700  0.18640200  1
  O  O35  1  0.52793700  0.63131500  0.33024600  1
  O  O36  1  0.57079900  0.64881500  0.86307600  1
  O  O37  1  0.32016900  0.49949300  0.93112700  1
  O  O38  1  0.92920100  0.64881500  0.36307600  1
  O  O39  1  0.17983100  0.49949300  0.43112700  1
  O  O40  1  0.82016900  0.50050700  0.56887300  1
  O  O41  1  0.07079900  0.35118500  0.63692400  1
  O  O42  1  0.67983100  0.50050700  0.06887300  1
  O  O43  1  0.42920100  0.35118500  0.13692400  1
  O  O44  1  0.47206300  0.36868500  0.66975400  1
  O  O45  1  0.74831700  0.34676300  0.81359800  1
  O  O46  1  0.02793700  0.36868500  0.16975400  1
  O  O47  1  0.75168300  0.34676300  0.31359800  1
  O  O48  1  0.55860600  0.16017600  0.93336700  1
  O  O49  1  0.33560300  0.01856000  0.80660800  1
  O  O50  1  0.94139400  0.16017600  0.43336700  1
  O  O51  1  0.16439700  0.01856000  0.30660800  1
  O  O52  1  0.99719300  0.11109600  0.85775500  1
  O  O53  1  0.29897800  0.11626300  0.53676900  1
  O  O54  1  0.50280700  0.11109600  0.35775500  1
  O  O55  1  0.20102200  0.11626300  0.03676900  1
