# generated using pymatgen
data_Li8Mn3V(PO4)6
_symmetry_space_group_name_H-M   'P 1'
_cell_length_a   8.41823600
_cell_length_b   8.47486421
_cell_length_c   9.28255826
_cell_angle_alpha   91.14458314
_cell_angle_beta   116.15480698
_cell_angle_gamma   119.35912317
_symmetry_Int_Tables_number   1
_chemical_formula_structural   Li8Mn3V(PO4)6
_chemical_formula_sum   'Li8 Mn3 V1 P6 O24'
_cell_volume   493.93661891
_cell_formula_units_Z   1
loop_
 _symmetry_equiv_pos_site_id
 _symmetry_equiv_pos_as_xyz
  1  'x, y, z'
loop_
 _atom_site_type_symbol
 _atom_site_label
 _atom_site_symmetry_multiplicity
 _atom_site_fract_x
 _atom_site_fract_y
 _atom_site_fract_z
 _atom_site_occupancy
  Li  Li0  1  0.19669000  0.26518700  0.86480800  1
  Li  Li1  1  0.63636100  0.94384600  0.90407100  1
  Li  Li2  1  0.92790000  0.66090500  0.85345800  1
  Li  Li3  1  0.32949200  0.79690500  0.59052700  1
  Li  Li4  1  0.66960300  0.20224900  0.40821700  1
  Li  Li5  1  0.07270900  0.33976100  0.14770300  1
  Li  Li6  1  0.36602600  0.05593200  0.09819200  1
  Li  Li7  1  0.80307100  0.73427000  0.13249400  1
  Mn  Mn8  1  0.28435400  0.14818100  0.43765600  1
  Mn  Mn9  1  0.71162400  0.84998700  0.56182400  1
  Mn  Mn10  1  0.68891400  0.35039500  0.03137800  1
  V  V11  1  0.31108200  0.64905600  0.96683500  1
  P  P12  1  0.21453900  0.94852100  0.75448700  1
  P  P13  1  0.49474800  0.55076900  0.75196700  1
  P  P14  1  0.80838400  0.25646800  0.76218100  1
  P  P15  1  0.19140800  0.74558600  0.23787700  1
  P  P16  1  0.50627500  0.45142800  0.24415500  1
  P  P17  1  0.78364300  0.04767300  0.24791700  1
  O  O18  1  0.36009000  0.14845800  0.89540500  1
  O  O19  1  0.34058900  0.50539600  0.82018900  1
  O  O20  1  0.31854000  0.83221400  0.81762400  1
  O  O21  1  0.69672000  0.56536600  0.89646500  1
  O  O22  1  0.74564600  0.21314700  0.90355300  1
  O  O23  1  0.56795700  0.75074500  0.72636500  1
  O  O24  1  0.20725400  0.96678100  0.58907600  1
  O  O25  1  0.38194600  0.39752100  0.59110900  1
  O  O26  1  0.98639000  0.47088500  0.82244000  1
  O  O27  1  0.89206600  0.13252100  0.75602000  1
  O  O28  1  0.61799200  0.20857500  0.59258900  1
  O  O29  1  0.99956300  0.85260500  0.74410200  1
  O  O30  1  0.99705300  0.14525900  0.25391100  1
  O  O31  1  0.38257100  0.79288500  0.40752800  1
  O  O32  1  0.10677400  0.86752600  0.24676400  1
  O  O33  1  0.01438700  0.52900700  0.17779700  1
  O  O34  1  0.62135300  0.60593000  0.40444100  1
  O  O35  1  0.80013700  0.02934900  0.41654200  1
  O  O36  1  0.42456700  0.25126900  0.26716300  1
  O  O37  1  0.25537100  0.78892200  0.09927200  1
  O  O38  1  0.30743600  0.44542900  0.09961600  1
  O  O39  1  0.67680100  0.16050700  0.18932600  1
  O  O40  1  0.66418300  0.49482700  0.17978200  1
  O  O41  1  0.63779100  0.84775800  0.10717500  1
