# generated using pymatgen
data_Li2MnF4
_symmetry_space_group_name_H-M   'P 1'
_cell_length_a   5.28365200
_cell_length_b   5.97137100
_cell_length_c   9.46915600
_cell_angle_alpha   90.00000000
_cell_angle_beta   90.00000000
_cell_angle_gamma   90.00000000
_symmetry_Int_Tables_number   1
_chemical_formula_structural   Li2MnF4
_chemical_formula_sum   'Li8 Mn4 F16'
_cell_volume   298.75799197
_cell_formula_units_Z   4
loop_
 _symmetry_equiv_pos_site_id
 _symmetry_equiv_pos_as_xyz
  1  'x, y, z'
loop_
 _atom_site_type_symbol
 _atom_site_label
 _atom_site_symmetry_multiplicity
 _atom_site_fract_x
 _atom_site_fract_y
 _atom_site_fract_z
 _atom_site_occupancy
  Li  Li0  1  0.00000000  0.00000000  0.00000000  1
  Li  Li1  1  0.00000000  0.50000000  0.00000000  1
  Li  Li2  1  0.46446200  0.75000000  0.21795100  1
  Li  Li3  1  0.96446200  0.25000000  0.28204900  1
  Li  Li4  1  0.50000000  0.00000000  0.50000000  1
  Li  Li5  1  0.50000000  0.50000000  0.50000000  1
  Li  Li6  1  0.03553800  0.75000000  0.71795100  1
  Li  Li7  1  0.53553800  0.25000000  0.78204900  1
  Mn  Mn8  1  0.46936400  0.25000000  0.15756500  1
  Mn  Mn9  1  0.96936400  0.75000000  0.34243500  1
  Mn  Mn10  1  0.03063600  0.25000000  0.65756500  1
  Mn  Mn11  1  0.53063600  0.75000000  0.84243500  1
  F  F12  1  0.68286700  0.75000000  0.04813800  1
  F  F13  1  0.82428000  0.25000000  0.07269900  1
  F  F14  1  0.19136800  0.99208000  0.19553100  1
  F  F15  1  0.19136800  0.50792000  0.19553100  1
  F  F16  1  0.69136800  0.49208000  0.30446900  1
  F  F17  1  0.69136800  0.00792000  0.30446900  1
  F  F18  1  0.32428000  0.75000000  0.42730100  1
  F  F19  1  0.18286700  0.25000000  0.45186200  1
  F  F20  1  0.81713300  0.75000000  0.54813800  1
  F  F21  1  0.67572000  0.25000000  0.57269900  1
  F  F22  1  0.30863200  0.99208000  0.69553100  1
  F  F23  1  0.30863200  0.50792000  0.69553100  1
  F  F24  1  0.80863200  0.49208000  0.80446900  1
  F  F25  1  0.80863200  0.00792000  0.80446900  1
  F  F26  1  0.17572000  0.75000000  0.92730100  1
  F  F27  1  0.31713300  0.25000000  0.95186200  1
