# generated using pymatgen
data_Li4CoO4
_symmetry_space_group_name_H-M   'P 1'
_cell_length_a   5.41280000
_cell_length_b   8.94758000
_cell_length_c   16.07593300
_cell_angle_alpha   90.00000000
_cell_angle_beta   90.00000000
_cell_angle_gamma   90.00000000
_symmetry_Int_Tables_number   1
_chemical_formula_structural   Li4CoO4
_chemical_formula_sum   'Li32 Co8 O32'
_cell_volume   778.58092251
_cell_formula_units_Z   8
loop_
 _symmetry_equiv_pos_site_id
 _symmetry_equiv_pos_as_xyz
  1  'x, y, z'
loop_
 _atom_site_type_symbol
 _atom_site_label
 _atom_site_symmetry_multiplicity
 _atom_site_fract_x
 _atom_site_fract_y
 _atom_site_fract_z
 _atom_site_occupancy
  Li  Li0  1  0.92010700  0.94745800  0.43015400  1
  Li  Li1  1  0.57989300  0.94745800  0.93015400  1
  Li  Li2  1  0.13943000  0.89899500  0.24029800  1
  Li  Li3  1  0.36057000  0.89899500  0.74029800  1
  Li  Li4  1  0.40688800  0.83325000  0.51442700  1
  Li  Li5  1  0.09311200  0.83325000  0.01442700  1
  Li  Li6  1  0.58073400  0.82821000  0.33367800  1
  Li  Li7  1  0.91926600  0.82821000  0.83367800  1
  Li  Li8  1  0.41926600  0.67179000  0.83367800  1
  Li  Li9  1  0.08073400  0.67179000  0.33367800  1
  Li  Li10  1  0.90688800  0.66675000  0.51442700  1
  Li  Li11  1  0.59311200  0.66675000  0.01442700  1
  Li  Li12  1  0.63943000  0.60100500  0.24029800  1
  Li  Li13  1  0.86057000  0.60100500  0.74029800  1
  Li  Li14  1  0.07989300  0.55254200  0.93015400  1
  Li  Li15  1  0.42010700  0.55254200  0.43015400  1
  Li  Li16  1  0.92010700  0.44745800  0.06984600  1
  Li  Li17  1  0.57989300  0.44745800  0.56984600  1
  Li  Li18  1  0.36057000  0.39899500  0.75970200  1
  Li  Li19  1  0.13943000  0.39899500  0.25970200  1
  Li  Li20  1  0.40688800  0.33325000  0.98557300  1
  Li  Li21  1  0.09311200  0.33325000  0.48557300  1
  Li  Li22  1  0.58073400  0.32821000  0.16632200  1
  Li  Li23  1  0.91926600  0.32821000  0.66632200  1
  Li  Li24  1  0.41926600  0.17179000  0.66632200  1
  Li  Li25  1  0.08073400  0.17179000  0.16632200  1
  Li  Li26  1  0.90688800  0.16675000  0.98557300  1
  Li  Li27  1  0.59311200  0.16675000  0.48557300  1
  Li  Li28  1  0.86057000  0.10100500  0.75970200  1
  Li  Li29  1  0.63943000  0.10100500  0.25970200  1
  Li  Li30  1  0.07989300  0.05254200  0.56984600  1
  Li  Li31  1  0.42010700  0.05254200  0.06984600  1
  Co  Co32  1  0.81031600  0.94348200  0.12813200  1
  Co  Co33  1  0.68968400  0.94348200  0.62813200  1
  Co  Co34  1  0.31031600  0.55651800  0.12813200  1
  Co  Co35  1  0.18968400  0.55651800  0.62813200  1
  Co  Co36  1  0.81031600  0.44348200  0.37186800  1
  Co  Co37  1  0.68968400  0.44348200  0.87186800  1
  Co  Co38  1  0.31031600  0.05651800  0.37186800  1
  Co  Co39  1  0.18968400  0.05651800  0.87186800  1
  O  O40  1  0.14061900  0.95747500  0.11809000  1
  O  O41  1  0.35938100  0.95747500  0.61809000  1
  O  O42  1  0.75142000  0.87212200  0.22972000  1
  O  O43  1  0.74858000  0.87212200  0.72972000  1
  O  O44  1  0.69232100  0.86886600  0.03333900  1
  O  O45  1  0.80767900  0.86886600  0.53333900  1
  O  O46  1  0.28700200  0.85995400  0.87004000  1
  O  O47  1  0.21299800  0.85995400  0.37004000  1
  O  O48  1  0.71299800  0.64004600  0.37004000  1
  O  O49  1  0.78700200  0.64004600  0.87004000  1
  O  O50  1  0.19232100  0.63113400  0.03333900  1
  O  O51  1  0.30767900  0.63113400  0.53333900  1
  O  O52  1  0.25142000  0.62787800  0.22972000  1
  O  O53  1  0.24858000  0.62787800  0.72972000  1
  O  O54  1  0.64061900  0.54252500  0.11809000  1
  O  O55  1  0.85938100  0.54252500  0.61809000  1
  O  O56  1  0.14061900  0.45747500  0.38191000  1
  O  O57  1  0.35938100  0.45747500  0.88191000  1
  O  O58  1  0.74858000  0.37212200  0.77028000  1
  O  O59  1  0.75142000  0.37212200  0.27028000  1
  O  O60  1  0.80767900  0.36886600  0.96666100  1
  O  O61  1  0.69232100  0.36886600  0.46666100  1
  O  O62  1  0.28700200  0.35995400  0.62996000  1
  O  O63  1  0.21299800  0.35995400  0.12996000  1
  O  O64  1  0.78700200  0.14004600  0.62996000  1
  O  O65  1  0.71299800  0.14004600  0.12996000  1
  O  O66  1  0.19232100  0.13113400  0.46666100  1
  O  O67  1  0.30767900  0.13113400  0.96666100  1
  O  O68  1  0.24858000  0.12787800  0.77028000  1
  O  O69  1  0.25142000  0.12787800  0.27028000  1
  O  O70  1  0.85938100  0.04252500  0.88191000  1
  O  O71  1  0.64061900  0.04252500  0.38191000  1
