# generated using pymatgen
data_LiCu2F7
_symmetry_space_group_name_H-M   'P 1'
_cell_length_a   10.57049300
_cell_length_b   14.35254300
_cell_length_c   7.05921100
_cell_angle_alpha   90.00000000
_cell_angle_beta   90.00000000
_cell_angle_gamma   90.00000000
_symmetry_Int_Tables_number   1
_chemical_formula_structural   LiCu2F7
_chemical_formula_sum   'Li8 Cu16 F56'
_cell_volume   1070.97729260
_cell_formula_units_Z   8
loop_
 _symmetry_equiv_pos_site_id
 _symmetry_equiv_pos_as_xyz
  1  'x, y, z'
loop_
 _atom_site_type_symbol
 _atom_site_label
 _atom_site_symmetry_multiplicity
 _atom_site_fract_x
 _atom_site_fract_y
 _atom_site_fract_z
 _atom_site_occupancy
  Li  Li0  1  0.07600900  0.48966000  0.90588800  1
  Li  Li1  1  0.11369800  0.99892100  0.03405800  1
  Li  Li2  1  0.38630200  0.49892100  0.53405800  1
  Li  Li3  1  0.42399100  0.98966000  0.40588800  1
  Li  Li4  1  0.57600900  0.01034000  0.90588800  1
  Li  Li5  1  0.61369800  0.50107900  0.03405800  1
  Li  Li6  1  0.88630200  0.00107900  0.53405800  1
  Li  Li7  1  0.92399100  0.51034000  0.40588800  1
  Cu  Cu8  1  0.03313500  0.68294200  0.02302600  1
  Cu  Cu9  1  0.18123500  0.01323300  0.56123600  1
  Cu  Cu10  1  0.22747500  0.82135100  0.70498700  1
  Cu  Cu11  1  0.23509000  0.33410900  0.70962600  1
  Cu  Cu12  1  0.26491000  0.83410900  0.20962600  1
  Cu  Cu13  1  0.27252500  0.32135100  0.20498700  1
  Cu  Cu14  1  0.31876500  0.51323300  0.06123600  1
  Cu  Cu15  1  0.46686500  0.18294200  0.52302600  1
  Cu  Cu16  1  0.53313500  0.81705800  0.02302600  1
  Cu  Cu17  1  0.68123500  0.48676700  0.56123600  1
  Cu  Cu18  1  0.72747500  0.67864900  0.70498700  1
  Cu  Cu19  1  0.73509000  0.16589100  0.70962600  1
  Cu  Cu20  1  0.76491000  0.66589100  0.20962600  1
  Cu  Cu21  1  0.77252500  0.17864900  0.20498700  1
  Cu  Cu22  1  0.81876500  0.98676700  0.06123600  1
  Cu  Cu23  1  0.96686500  0.31705800  0.52302600  1
  F  F24  1  0.03025400  0.41087200  0.37531600  1
  F  F25  1  0.03514700  0.06994300  0.48364200  1
  F  F26  1  0.06301900  0.38928700  0.73870100  1
  F  F27  1  0.08851800  0.90216100  0.62513500  1
  F  F28  1  0.10624500  0.77071300  0.18407600  1
  F  F29  1  0.10333200  0.73818000  0.79551700  1
  F  F30  1  0.12909700  0.24484100  0.59323700  1
  F  F31  1  0.14457700  0.24022600  0.25135700  1
  F  F32  1  0.17322200  0.05887300  0.81041000  1
  F  F33  1  0.17550800  0.43227400  0.10771500  1
  F  F34  1  0.18878400  0.60097700  0.00127400  1
  F  F35  1  0.19682000  0.95836000  0.28708700  1
  F  F36  1  0.22623600  0.88486300  0.95660400  1
  F  F37  1  0.24033300  0.27273300  0.95047100  1
  F  F38  1  0.25966700  0.77273300  0.45047100  1
  F  F39  1  0.27376400  0.38486300  0.45660400  1
  F  F40  1  0.30318000  0.45836000  0.78708700  1
  F  F41  1  0.31121600  0.10097700  0.50127400  1
  F  F42  1  0.32449200  0.93227400  0.60771500  1
  F  F43  1  0.32677800  0.55887300  0.31041000  1
  F  F44  1  0.35542300  0.74022600  0.75135700  1
  F  F45  1  0.37090300  0.74484100  0.09323700  1
  F  F46  1  0.39666800  0.23818000  0.29551700  1
  F  F47  1  0.39375500  0.27071300  0.68407600  1
  F  F48  1  0.41148200  0.40216100  0.12513500  1
  F  F49  1  0.43698100  0.88928700  0.23870100  1
  F  F50  1  0.46485300  0.56994300  0.98364200  1
  F  F51  1  0.46974600  0.91087200  0.87531600  1
  F  F52  1  0.53025400  0.08912800  0.37531600  1
  F  F53  1  0.53514700  0.43005700  0.48364200  1
  F  F54  1  0.56301900  0.11071300  0.73870100  1
  F  F55  1  0.58851800  0.59783900  0.62513500  1
  F  F56  1  0.60624500  0.72928700  0.18407600  1
  F  F57  1  0.60333200  0.76182000  0.79551700  1
  F  F58  1  0.62909700  0.25515900  0.59323700  1
  F  F59  1  0.64457700  0.25977400  0.25135700  1
  F  F60  1  0.67322200  0.44112700  0.81041000  1
  F  F61  1  0.67550800  0.06772600  0.10771500  1
  F  F62  1  0.68878400  0.89902300  0.00127400  1
  F  F63  1  0.69682000  0.54164000  0.28708700  1
  F  F64  1  0.72623600  0.61513700  0.95660400  1
  F  F65  1  0.74033300  0.22726700  0.95047100  1
  F  F66  1  0.75966700  0.72726700  0.45047100  1
  F  F67  1  0.77376400  0.11513700  0.45660400  1
  F  F68  1  0.80318000  0.04164000  0.78708700  1
  F  F69  1  0.81121600  0.39902300  0.50127400  1
  F  F70  1  0.82449200  0.56772600  0.60771500  1
  F  F71  1  0.82677800  0.94112700  0.31041000  1
  F  F72  1  0.85542300  0.75977400  0.75135700  1
  F  F73  1  0.87090300  0.75515900  0.09323700  1
  F  F74  1  0.89666800  0.26182000  0.29551700  1
  F  F75  1  0.89375500  0.22928700  0.68407600  1
  F  F76  1  0.91148200  0.09783900  0.12513500  1
  F  F77  1  0.93698100  0.61071300  0.23870100  1
  F  F78  1  0.96485300  0.93005700  0.98364200  1
  F  F79  1  0.96974600  0.58912800  0.87531600  1
