# generated using pymatgen
data_Li5Ni3O5F3
_symmetry_space_group_name_H-M   'P 1'
_cell_length_a   6.00220558
_cell_length_b   5.75624416
_cell_length_c   5.99037428
_cell_angle_alpha   61.20209542
_cell_angle_beta   55.66693794
_cell_angle_gamma   61.64563669
_symmetry_Int_Tables_number   1
_chemical_formula_structural   Li5Ni3O5F3
_chemical_formula_sum   'Li5 Ni3 O5 F3'
_cell_volume   143.74384654
_cell_formula_units_Z   1
loop_
 _symmetry_equiv_pos_site_id
 _symmetry_equiv_pos_as_xyz
  1  'x, y, z'
loop_
 _atom_site_type_symbol
 _atom_site_label
 _atom_site_symmetry_multiplicity
 _atom_site_fract_x
 _atom_site_fract_y
 _atom_site_fract_z
 _atom_site_occupancy
  Li  Li0  1  0.50106900  0.00031600  0.00058200  1
  Li  Li1  1  0.99655200  0.00584600  0.00656100  1
  Li  Li2  1  0.99780000  0.48575000  0.01443300  1
  Li  Li3  1  0.99031800  0.01019900  0.48953500  1
  Li  Li4  1  0.50864000  0.49233200  0.49540700  1
  Ni  Ni5  1  0.50650300  0.00562800  0.49490300  1
  Ni  Ni6  1  0.51918400  0.48483900  0.01523300  1
  Ni  Ni7  1  0.00014900  0.50092900  0.49888400  1
  O  O8  1  0.74795900  0.25431200  0.24594600  1
  O  O9  1  0.26194000  0.25898900  0.27447300  1
  O  O10  1  0.75863200  0.28506400  0.74425500  1
  O  O11  1  0.24302800  0.71563100  0.25392300  1
  O  O12  1  0.73489200  0.74145800  0.72461500  1
  F  F13  1  0.27859100  0.22329300  0.78810600  1
  F  F14  1  0.72282600  0.77618600  0.21363600  1
  F  F15  1  0.23191700  0.75923100  0.73950900  1
