# generated using pymatgen
data_Li2Mn3NbO8
_symmetry_space_group_name_H-M   'P 1'
_cell_length_a   8.63445200
_cell_length_b   8.63445200
_cell_length_c   8.63445200
_cell_angle_alpha   90.00000000
_cell_angle_beta   90.00000000
_cell_angle_gamma   90.00000000
_symmetry_Int_Tables_number   1
_chemical_formula_structural   Li2Mn3NbO8
_chemical_formula_sum   'Li8 Mn12 Nb4 O32'
_cell_volume   643.73087371
_cell_formula_units_Z   4
loop_
 _symmetry_equiv_pos_site_id
 _symmetry_equiv_pos_as_xyz
  1  'x, y, z'
loop_
 _atom_site_type_symbol
 _atom_site_label
 _atom_site_symmetry_multiplicity
 _atom_site_fract_x
 _atom_site_fract_y
 _atom_site_fract_z
 _atom_site_occupancy
  Li  Li0  1  0.50717600  0.50717600  0.50717600  1
  Li  Li1  1  0.74282400  0.74282400  0.74282400  1
  Li  Li2  1  0.75717600  0.25717600  0.24282400  1
  Li  Li3  1  0.99282400  0.49282400  0.00717600  1
  Li  Li4  1  0.00717600  0.99282400  0.49282400  1
  Li  Li5  1  0.24282400  0.75717600  0.25717600  1
  Li  Li6  1  0.25717600  0.24282400  0.75717600  1
  Li  Li7  1  0.49282400  0.00717600  0.99282400  1
  Mn  Mn8  1  0.62313100  0.62686900  0.12500000  1
  Mn  Mn9  1  0.62500000  0.87686900  0.37313100  1
  Mn  Mn10  1  0.62686900  0.12500000  0.62313100  1
  Mn  Mn11  1  0.87313100  0.87500000  0.12313100  1
  Mn  Mn12  1  0.87500000  0.12313100  0.87313100  1
  Mn  Mn13  1  0.87686900  0.37313100  0.62500000  1
  Mn  Mn14  1  0.12313100  0.87313100  0.87500000  1
  Mn  Mn15  1  0.12500000  0.62313100  0.62686900  1
  Mn  Mn16  1  0.12686900  0.37500000  0.37686900  1
  Mn  Mn17  1  0.37313100  0.62500000  0.87686900  1
  Mn  Mn18  1  0.37500000  0.37686900  0.12686900  1
  Mn  Mn19  1  0.37686900  0.12686900  0.37500000  1
  Nb  Nb20  1  0.62500000  0.37500000  0.87500000  1
  Nb  Nb21  1  0.87500000  0.62500000  0.37500000  1
  Nb  Nb22  1  0.12500000  0.12500000  0.12500000  1
  Nb  Nb23  1  0.37500000  0.87500000  0.62500000  1
  O  O24  1  0.60342700  0.60842600  0.87211100  1
  O  O25  1  0.62788900  0.39657300  0.10842600  1
  O  O26  1  0.60911400  0.10911400  0.39088600  1
  O  O27  1  0.64157400  0.64657300  0.37788900  1
  O  O28  1  0.60842600  0.87211100  0.60342700  1
  O  O29  1  0.64088600  0.85911400  0.14088600  1
  O  O30  1  0.62211100  0.14157400  0.85342700  1
  O  O31  1  0.64657300  0.37788900  0.64157400  1
  O  O32  1  0.85342700  0.62211100  0.14157400  1
  O  O33  1  0.87788900  0.85842600  0.35342700  1
  O  O34  1  0.85911400  0.14088600  0.64088600  1
  O  O35  1  0.89157400  0.12788900  0.10342700  1
  O  O36  1  0.85842600  0.35342700  0.87788900  1
  O  O37  1  0.89088600  0.89088600  0.89088600  1
  O  O38  1  0.87211100  0.60342700  0.60842600  1
  O  O39  1  0.89657300  0.39157400  0.37211100  1
  O  O40  1  0.10342700  0.89157400  0.12788900  1
  O  O41  1  0.12788900  0.10342700  0.89157400  1
  O  O42  1  0.10911400  0.39088600  0.60911400  1
  O  O43  1  0.14157400  0.85342700  0.62211100  1
  O  O44  1  0.10842600  0.62788900  0.39657300  1
  O  O45  1  0.14088600  0.64088600  0.85911400  1
  O  O46  1  0.12211100  0.35842600  0.14657300  1
  O  O47  1  0.14657300  0.12211100  0.35842600  1
  O  O48  1  0.35342700  0.87788900  0.85842600  1
  O  O49  1  0.37788900  0.64157400  0.64657300  1
  O  O50  1  0.35911400  0.35911400  0.35911400  1
  O  O51  1  0.39157400  0.37211100  0.89657300  1
  O  O52  1  0.35842600  0.14657300  0.12211100  1
  O  O53  1  0.39088600  0.60911400  0.10911400  1
  O  O54  1  0.37211100  0.89657300  0.39157400  1
  O  O55  1  0.39657300  0.10842600  0.62788900  1
