# generated using pymatgen
data_LiFe2(BO3)2
_symmetry_space_group_name_H-M   'P 1'
_cell_length_a   5.27630210
_cell_length_b   9.09859707
_cell_length_c   11.35488493
_cell_angle_alpha   66.33521911
_cell_angle_beta   77.45920186
_cell_angle_gamma   89.55140102
_symmetry_Int_Tables_number   1
_chemical_formula_structural   LiFe2(BO3)2
_chemical_formula_sum   'Li4 Fe8 B8 O24'
_cell_volume   485.44055334
_cell_formula_units_Z   4
loop_
 _symmetry_equiv_pos_site_id
 _symmetry_equiv_pos_as_xyz
  1  'x, y, z'
loop_
 _atom_site_type_symbol
 _atom_site_label
 _atom_site_symmetry_multiplicity
 _atom_site_fract_x
 _atom_site_fract_y
 _atom_site_fract_z
 _atom_site_occupancy
  Li  Li0  1  0.97282893  0.96657087  0.40090177  1
  Li  Li1  1  0.73133123  0.75236903  0.16041849  1
  Li  Li2  1  0.01692993  0.99306989  0.66386519  1
  Li  Li3  1  0.24490525  0.26397462  0.14280074  1
  Fe  Fe4  1  0.98591743  0.64183077  0.38116011  1
  Fe  Fe5  1  0.72810700  0.06965542  0.87583115  1
  Fe  Fe6  1  0.53027426  0.83509743  0.63578200  1
  Fe  Fe7  1  0.75128770  0.44263779  0.12451441  1
  Fe  Fe8  1  0.23119065  0.56166021  0.87682809  1
  Fe  Fe9  1  0.48106950  0.15150615  0.38312167  1
  Fe  Fe10  1  0.02726993  0.34881551  0.63244117  1
  Fe  Fe11  1  0.25379149  0.94200970  0.12275485  1
  B  B12  1  0.97515783  0.31084562  0.37718451  1
  B  B13  1  0.72697855  0.39298125  0.88299988  1
  B  B14  1  0.51653718  0.18032318  0.63069334  1
  B  B15  1  0.75813796  0.10181593  0.13336030  1
  B  B16  1  0.48683170  0.82083974  0.37211060  1
  B  B17  1  0.23789504  0.89749729  0.87494589  1
  B  B18  1  0.03233416  0.69299875  0.62069482  1
  B  B19  1  0.26250096  0.60262489  0.13075445  1
  O  O20  1  0.99050004  0.92837082  0.85751984  1
  O  O21  1  0.85371915  0.28406187  0.83868619  1
  O  O22  1  0.86877036  0.48514628  0.92289022  1
  O  O23  1  0.91720727  0.83584336  0.60341808  1
  O  O24  1  0.94271179  0.58943651  0.57280257  1
  O  O25  1  0.75252500  0.14565752  0.67288060  1
  O  O26  1  0.74129250  0.32155713  0.33890613  1
  O  O27  1  0.46617432  0.40385003  0.89432986  1
  O  O28  1  0.36293361  0.77856004  0.84332979  1
  O  O29  1  0.57111142  0.93075641  0.41623829  1
  O  O30  1  0.65245877  0.71292066  0.35150809  1
  O  O31  1  0.36720734  0.98641074  0.92209368  1
  O  O32  1  0.66208600  0.00053469  0.08313436  1
  O  O33  1  0.38305125  0.30289597  0.63663690  1
  O  O34  1  0.42399097  0.07337886  0.58116781  1
  O  O35  1  0.58820179  0.20054631  0.17606983  1
  O  O36  1  0.51988113  0.61085499  0.12940903  1
  O  O37  1  0.24182510  0.65750069  0.67986036  1
  O  O38  1  0.23952945  0.82921430  0.34417281  1
  O  O39  1  0.05498379  0.42094299  0.41943179  1
  O  O40  1  0.12649281  0.18733347  0.36985583  1
  O  O41  1  0.15417576  0.49644346  0.08957754  1
  O  O42  1  0.09692223  0.70233858  0.17611317  1
  O  O43  1  0.01058748  0.10099426  0.14568178  1
