# generated using pymatgen
data_Li8MnFe7(BO3)8
_symmetry_space_group_name_H-M   'P 1'
_cell_length_a   5.24375600
_cell_length_b   9.04216379
_cell_length_c   10.39727262
_cell_angle_alpha   89.01237103
_cell_angle_beta   89.24872193
_cell_angle_gamma   89.65830790
_symmetry_Int_Tables_number   1
_chemical_formula_structural   Li8MnFe7(BO3)8
_chemical_formula_sum   'Li8 Mn1 Fe7 B8 O24'
_cell_volume   492.86192060
_cell_formula_units_Z   1
loop_
 _symmetry_equiv_pos_site_id
 _symmetry_equiv_pos_as_xyz
  1  'x, y, z'
loop_
 _atom_site_type_symbol
 _atom_site_label
 _atom_site_symmetry_multiplicity
 _atom_site_fract_x
 _atom_site_fract_y
 _atom_site_fract_z
 _atom_site_occupancy
  Li  Li0  1  0.14968400  0.17385300  0.66747600  1
  Li  Li1  1  0.18542300  0.16297900  0.16653300  1
  Li  Li2  1  0.32237400  0.33321900  0.41558500  1
  Li  Li3  1  0.33613400  0.32640600  0.91733900  1
  Li  Li4  1  0.64963800  0.67322000  0.66864900  1
  Li  Li5  1  0.68601300  0.65979300  0.16603700  1
  Li  Li6  1  0.82132600  0.83225500  0.41783700  1
  Li  Li7  1  0.83687800  0.82391800  0.91590500  1
  Mn  Mn8  1  0.67552600  0.99944900  0.13506700  1
  Fe  Fe9  1  0.17823700  0.50376400  0.13361800  1
  Fe  Fe10  1  0.16149000  0.84143700  0.63368500  1
  Fe  Fe11  1  0.33754200  0.66261900  0.38439100  1
  Fe  Fe12  1  0.33644700  0.99782300  0.88204200  1
  Fe  Fe13  1  0.65506700  0.34116000  0.63088900  1
  Fe  Fe14  1  0.83705200  0.16279200  0.38451000  1
  Fe  Fe15  1  0.83627500  0.49261600  0.88126000  1
  B  B16  1  0.17124200  0.82924600  0.12455600  1
  B  B17  1  0.16071500  0.50221300  0.62582300  1
  B  B18  1  0.33223100  0.99689700  0.37761800  1
  B  B19  1  0.32825200  0.66645000  0.87514900  1
  B  B20  1  0.67282100  0.33241000  0.12716300  1
  B  B21  1  0.66267900  0.00091500  0.62577500  1
  B  B22  1  0.83382800  0.49753600  0.37655400  1
  B  B23  1  0.82697800  0.16580300  0.87478000  1
  O  O24  1  0.09344700  0.48580700  0.34687500  1
  O  O25  1  0.08861300  0.17250700  0.86202000  1
  O  O26  1  0.17710900  0.79075200  0.84471700  1
  O  O27  1  0.19414000  0.87333100  0.41543800  1
  O  O28  1  0.21421300  0.13444300  0.36437200  1
  O  O29  1  0.21017000  0.53551400  0.91603800  1
  O  O30  1  0.27706200  0.36393100  0.61353600  1
  O  O31  1  0.28740400  0.96485100  0.09504700  1
  O  O32  1  0.30052500  0.62862200  0.59556200  1
  O  O33  1  0.31859100  0.70846100  0.16563400  1
  O  O34  1  0.40999000  0.32018800  0.11365200  1
  O  O35  1  0.40627700  0.01195900  0.66371300  1
  O  O36  1  0.59377300  0.98617200  0.34899300  1
  O  O37  1  0.58985100  0.67450500  0.86238100  1
  O  O38  1  0.67809000  0.29173800  0.84629300  1
  O  O39  1  0.69519400  0.37361600  0.41730900  1
  O  O40  1  0.71436900  0.63377900  0.36337400  1
  O  O41  1  0.70817100  0.03437200  0.91399800  1
  O  O42  1  0.79320100  0.46533800  0.09618400  1
  O  O43  1  0.77775100  0.86370300  0.61325500  1
  O  O44  1  0.80194500  0.12929300  0.59740800  1
  O  O45  1  0.81862000  0.21085500  0.16766600  1
  O  O46  1  0.91064300  0.81510100  0.11111600  1
  O  O47  1  0.90640100  0.51178800  0.66477600  1
