# generated using pymatgen
data_Li2CoSiO4
_symmetry_space_group_name_H-M   'P 1'
_cell_length_a   5.40540400
_cell_length_b   6.04314100
_cell_length_c   10.73914644
_cell_angle_alpha   86.05518672
_cell_angle_beta   90.00000000
_cell_angle_gamma   90.00000000
_symmetry_Int_Tables_number   1
_chemical_formula_structural   Li2CoSiO4
_chemical_formula_sum   'Li8 Co4 Si4 O16'
_cell_volume   349.96973528
_cell_formula_units_Z   4
loop_
 _symmetry_equiv_pos_site_id
 _symmetry_equiv_pos_as_xyz
  1  'x, y, z'
loop_
 _atom_site_type_symbol
 _atom_site_label
 _atom_site_symmetry_multiplicity
 _atom_site_fract_x
 _atom_site_fract_y
 _atom_site_fract_z
 _atom_site_occupancy
  Li  Li0  1  0.31695400  0.02699900  0.82986400  1
  Li  Li1  1  0.18304600  0.02699900  0.32986400  1
  Li  Li2  1  0.17945700  0.22777400  0.57515700  1
  Li  Li3  1  0.32054300  0.22777400  0.07515700  1
  Li  Li4  1  0.67945700  0.77222600  0.92484300  1
  Li  Li5  1  0.82054300  0.77222600  0.42484300  1
  Li  Li6  1  0.81695400  0.97300100  0.67013600  1
  Li  Li7  1  0.68304600  0.97300100  0.17013600  1
  Co  Co8  1  0.17266800  0.54114600  0.83381000  1
  Co  Co9  1  0.67266800  0.45885400  0.66619000  1
  Co  Co10  1  0.32733200  0.54114600  0.33381000  1
  Co  Co11  1  0.82733200  0.45885400  0.16619000  1
  Si  Si12  1  0.81471800  0.25336600  0.91263500  1
  Si  Si13  1  0.68528200  0.25336600  0.41263500  1
  Si  Si14  1  0.31471800  0.74663400  0.58736500  1
  Si  Si15  1  0.18528200  0.74663400  0.08736500  1
  O  O16  1  0.68505600  0.07257200  0.82898200  1
  O  O17  1  0.81494400  0.07257200  0.32898200  1
  O  O18  1  0.12117800  0.23730300  0.92182700  1
  O  O19  1  0.37882200  0.23730300  0.42182700  1
  O  O20  1  0.81299900  0.25532200  0.55191400  1
  O  O21  1  0.29044500  0.49149600  0.66430600  1
  O  O22  1  0.68700100  0.25532200  0.05191400  1
  O  O23  1  0.20955500  0.49149600  0.16430600  1
  O  O24  1  0.79044500  0.50850400  0.83569400  1
  O  O25  1  0.31299900  0.74467800  0.94808600  1
  O  O26  1  0.70955500  0.50850400  0.33569400  1
  O  O27  1  0.18700100  0.74467800  0.44808600  1
  O  O28  1  0.62117800  0.76269700  0.57817300  1
  O  O29  1  0.87882200  0.76269700  0.07817300  1
  O  O30  1  0.18505600  0.92742800  0.67101800  1
  O  O31  1  0.31494400  0.92742800  0.17101800  1
