# generated using pymatgen
data_LiFeSiO4
_symmetry_space_group_name_H-M   'P 1'
_cell_length_a   10.43840000
_cell_length_b   5.78300500
_cell_length_c   10.36396920
_cell_angle_alpha   89.27784405
_cell_angle_beta   90.00000000
_cell_angle_gamma   90.00000000
_symmetry_Int_Tables_number   1
_chemical_formula_structural   LiFeSiO4
_chemical_formula_sum   'Li8 Fe8 Si8 O32'
_cell_volume   625.57461820
_cell_formula_units_Z   8
loop_
 _symmetry_equiv_pos_site_id
 _symmetry_equiv_pos_as_xyz
  1  'x, y, z'
loop_
 _atom_site_type_symbol
 _atom_site_label
 _atom_site_symmetry_multiplicity
 _atom_site_fract_x
 _atom_site_fract_y
 _atom_site_fract_z
 _atom_site_occupancy
  Li  Li0  1  0.16975100  0.85135300  0.83736400  1
  Li  Li1  1  0.33024900  0.85135300  0.33736400  1
  Li  Li2  1  0.64949100  0.66522700  0.61024200  1
  Li  Li3  1  0.85050900  0.66522700  0.11024200  1
  Li  Li4  1  0.14949100  0.33477300  0.88975800  1
  Li  Li5  1  0.35050900  0.33477300  0.38975800  1
  Li  Li6  1  0.66975100  0.14864700  0.66263600  1
  Li  Li7  1  0.83024900  0.14864700  0.16263600  1
  Fe  Fe8  1  0.87352400  0.85781400  0.50913000  1
  Fe  Fe9  1  0.62647600  0.85781400  0.00913000  1
  Fe  Fe10  1  0.41617100  0.62170800  0.76501300  1
  Fe  Fe11  1  0.08382900  0.62170800  0.26501300  1
  Fe  Fe12  1  0.91617100  0.37829200  0.73498700  1
  Fe  Fe13  1  0.58382900  0.37829200  0.23498700  1
  Fe  Fe14  1  0.37352400  0.14218600  0.99087000  1
  Fe  Fe15  1  0.12647600  0.14218600  0.49087000  1
  Si  Si16  1  0.89487400  0.88163700  0.82471400  1
  Si  Si17  1  0.60512600  0.88163700  0.32471400  1
  Si  Si18  1  0.15168100  0.62401100  0.57453300  1
  Si  Si19  1  0.34831900  0.62401100  0.07453300  1
  Si  Si20  1  0.65168100  0.37598900  0.92546700  1
  Si  Si21  1  0.84831900  0.37598900  0.42546700  1
  Si  Si22  1  0.39487400  0.11836300  0.67528600  1
  Si  Si23  1  0.10512600  0.11836300  0.17528600  1
  O  O24  1  0.80250900  0.87307200  0.95360400  1
  O  O25  1  0.49280600  0.89224700  0.67511600  1
  O  O26  1  0.69749100  0.87307200  0.45360400  1
  O  O27  1  0.00719400  0.89224700  0.17511600  1
  O  O28  1  0.80907800  0.88766700  0.68831500  1
  O  O29  1  0.05990900  0.85762200  0.57198300  1
  O  O30  1  0.69092200  0.88766700  0.18831500  1
  O  O31  1  0.44009100  0.85762200  0.07198300  1
  O  O32  1  0.25342900  0.66690000  0.68835700  1
  O  O33  1  0.98413600  0.64266600  0.82762800  1
  O  O34  1  0.24657100  0.66690000  0.18835700  1
  O  O35  1  0.51586400  0.64266600  0.32762800  1
  O  O36  1  0.56709700  0.61070100  0.88860200  1
  O  O37  1  0.29231900  0.58205200  0.92887300  1
  O  O38  1  0.93290300  0.61070100  0.38860200  1
  O  O39  1  0.20768100  0.58205200  0.42887300  1
  O  O40  1  0.79231900  0.41794800  0.57112700  1
  O  O41  1  0.06709700  0.38929900  0.61139800  1
  O  O42  1  0.70768100  0.41794800  0.07112700  1
  O  O43  1  0.43290300  0.38929900  0.11139800  1
  O  O44  1  0.48413600  0.35733400  0.67237200  1
  O  O45  1  0.75342900  0.33310000  0.81164300  1
  O  O46  1  0.01586400  0.35733400  0.17237200  1
  O  O47  1  0.74657100  0.33310000  0.31164300  1
  O  O48  1  0.55990900  0.14237800  0.92801700  1
  O  O49  1  0.30907800  0.11233300  0.81168500  1
  O  O50  1  0.94009100  0.14237800  0.42801700  1
  O  O51  1  0.19092200  0.11233300  0.31168500  1
  O  O52  1  0.99280600  0.10775300  0.82488400  1
  O  O53  1  0.30250900  0.12692800  0.54639600  1
  O  O54  1  0.50719400  0.10775300  0.32488400  1
  O  O55  1  0.19749100  0.12692800  0.04639600  1
