# generated using pymatgen
data_Li3V3P8O29
_symmetry_space_group_name_H-M   'P 1'
_cell_length_a   9.74194400
_cell_length_b   9.76944995
_cell_length_c   14.06708770
_cell_angle_alpha   90.01147927
_cell_angle_beta   90.18930292
_cell_angle_gamma   119.89141506
_symmetry_Int_Tables_number   1
_chemical_formula_structural   Li3V3P8O29
_chemical_formula_sum   'Li6 V6 P16 O58'
_cell_volume   1160.70369393
_cell_formula_units_Z   2
loop_
 _symmetry_equiv_pos_site_id
 _symmetry_equiv_pos_as_xyz
  1  'x, y, z'
loop_
 _atom_site_type_symbol
 _atom_site_label
 _atom_site_symmetry_multiplicity
 _atom_site_fract_x
 _atom_site_fract_y
 _atom_site_fract_z
 _atom_site_occupancy
  Li  Li0  1  0.09415600  0.32681300  0.44918700  1
  Li  Li1  1  0.67772700  0.90337200  0.93655900  1
  Li  Li2  1  0.23256100  0.90512600  0.44783400  1
  Li  Li3  1  0.91482600  0.22622800  0.05475300  1
  Li  Li4  1  0.30691100  0.08604200  0.05119600  1
  Li  Li5  1  0.96029400  0.97651300  0.51350100  1
  V  V6  1  0.56898500  0.00480100  0.74226300  1
  V  V7  1  0.43725500  0.00134900  0.25194000  1
  V  V8  1  0.00311500  0.44116700  0.24907800  1
  V  V9  1  0.99808000  0.56771900  0.75296700  1
  V  V10  1  0.43489600  0.43456800  0.75015300  1
  V  V11  1  0.56574100  0.56633100  0.25167900  1
  P  P12  1  0.23017800  0.31489100  0.15638400  1
  P  P13  1  0.08785500  0.31466100  0.66002700  1
  P  P14  1  0.69192100  0.77380000  0.65639700  1
  P  P15  1  0.33726900  0.67015600  0.86973200  1
  P  P16  1  0.33374000  0.66698600  0.37018100  1
  P  P17  1  0.68363500  0.91150600  0.15916100  1
  P  P18  1  0.78026600  0.08844900  0.34299900  1
  P  P19  1  0.08546300  0.77423400  0.15398000  1
  P  P20  1  0.91130700  0.22779500  0.84171400  1
  P  P21  1  0.22200300  0.90988300  0.65934300  1
  P  P22  1  0.31920700  0.08958400  0.83988800  1
  P  P23  1  0.66798200  0.33760000  0.62902500  1
  P  P24  1  0.66581600  0.33290100  0.13088200  1
  P  P25  1  0.30953500  0.22685700  0.34315300  1
  P  P26  1  0.91582000  0.69218400  0.34029000  1
  P  P27  1  0.77218800  0.68700200  0.84266200  1
  O  O28  1  0.21570500  0.22150000  0.42719900  1
  O  O29  1  0.25954800  0.34547100  0.66799100  1
  O  O30  1  0.99206400  0.23410900  0.93278400  1
  O  O31  1  0.08442200  0.34059700  0.16014000  1
  O  O32  1  0.38281400  0.47552800  0.17743600  1
  O  O33  1  0.34293300  0.52610100  0.82207700  1
  O  O34  1  0.53583500  0.61639700  0.66821900  1
  O  O35  1  0.76406000  0.76931100  0.92904000  1
  O  O36  1  0.65760800  0.74320200  0.16646700  1
  O  O37  1  0.18507200  0.51325500  0.32673500  1
  O  O38  1  0.08687600  0.47056200  0.67369400  1
  O  O39  1  0.48155000  0.66944000  0.32510900  1
  O  O40  1  0.33700800  0.66618100  0.97554600  1
  O  O41  1  0.32428000  0.66156500  0.47533300  1
  O  O42  1  0.48546500  0.82133500  0.82975600  1
  O  O43  1  0.09469400  0.62026300  0.17832300  1
  O  O44  1  0.18418100  0.66119400  0.82459100  1
  O  O45  1  0.65376700  0.91126900  0.66802200  1
  O  O46  1  0.79909500  0.00815500  0.24594100  1
  O  O47  1  0.78917500  0.00633000  0.42833200  1
  O  O48  1  0.75136200  0.99728900  0.06839500  1
  O  O49  1  0.52162900  0.90339200  0.18050500  1
  O  O50  1  0.32703800  0.81571700  0.33007600  1
  O  O51  1  0.74154900  0.08141400  0.83715100  1
  O  O52  1  0.38062600  0.90879500  0.67184300  1
  O  O53  1  0.08289200  0.73935800  0.66782400  1
  O  O54  1  0.99842400  0.20522300  0.75076900  1
  O  O55  1  0.01165400  0.22857700  0.56966000  1
  O  O56  1  0.00506900  0.78232200  0.42546200  1
  O  O57  1  0.91887400  0.26238400  0.33623100  1
  O  O58  1  0.61973900  0.08754100  0.32643000  1
  O  O59  1  0.25774100  0.91828900  0.16363200  1
  O  O60  1  0.66812000  0.18538000  0.67272500  1
  O  O61  1  0.47783100  0.09485200  0.81852300  1
  O  O62  1  0.24700900  0.00786400  0.93015900  1
  O  O63  1  0.21560700  0.98580500  0.56848600  1
  O  O64  1  0.20517300  0.99967500  0.75001800  1
  O  O65  1  0.34097700  0.08464300  0.33961900  1
  O  O66  1  0.81688500  0.33164800  0.17253400  1
  O  O67  1  0.90335900  0.38002900  0.82321400  1
  O  O68  1  0.51613500  0.18141500  0.17589900  1
  O  O69  1  0.65955400  0.32236000  0.02595400  1
  O  O70  1  0.66869500  0.33139600  0.52356600  1
  O  O71  1  0.52019100  0.33454200  0.67399100  1
  O  O72  1  0.91413800  0.53192100  0.32496800  1
  O  O73  1  0.81590500  0.48201900  0.67519900  1
  O  O74  1  0.34574700  0.25915900  0.83247800  1
  O  O75  1  0.20702800  0.20622600  0.24845300  1
  O  O76  1  0.23891800  0.23402800  0.07015300  1
  O  O77  1  0.46889500  0.38342700  0.32841000  1
  O  O78  1  0.66254600  0.47650800  0.17756400  1
  O  O79  1  0.61895500  0.52683300  0.82424900  1
  O  O80  1  0.91435500  0.65698700  0.83688200  1
  O  O81  1  0.00214800  0.76224000  0.06491500  1
  O  O82  1  0.99878600  0.79443800  0.24656000  1
  O  O83  1  0.74252000  0.65602700  0.33425900  1
  O  O84  1  0.78676200  0.79528800  0.56990900  1
  O  O85  1  0.79694300  0.79426300  0.74977600  1
