# generated using pymatgen
data_Li3V3P8O29
_symmetry_space_group_name_H-M   'P 1'
_cell_length_a   9.76083032
_cell_length_b   9.76083032
_cell_length_c   13.88175578
_cell_angle_alpha   89.87548529
_cell_angle_beta   89.87548529
_cell_angle_gamma   60.16120486
_symmetry_Int_Tables_number   1
_chemical_formula_structural   Li3V3P8O29
_chemical_formula_sum   'Li6 V6 P16 O58'
_cell_volume   1147.22966877
_cell_formula_units_Z   2
loop_
 _symmetry_equiv_pos_site_id
 _symmetry_equiv_pos_as_xyz
  1  'x, y, z'
loop_
 _atom_site_type_symbol
 _atom_site_label
 _atom_site_symmetry_multiplicity
 _atom_site_fract_x
 _atom_site_fract_y
 _atom_site_fract_z
 _atom_site_occupancy
  Li  Li0  1  0.90882100  0.31673100  0.19519800  1
  Li  Li1  1  0.32367100  0.90203000  0.68852600  1
  Li  Li2  1  0.77088000  0.91011000  0.19293600  1
  Li  Li3  1  0.08989000  0.22912000  0.80706400  1
  Li  Li4  1  0.68326900  0.09117900  0.80480200  1
  Li  Li5  1  0.09797000  0.67632900  0.31147400  1
  V  V6  1  0.43108700  0.00404500  0.49269000  1
  V  V7  1  0.56183900  0.00289400  0.00083800  1
  V  V8  1  0.99710600  0.43816100  0.99916200  1
  V  V9  1  0.99595500  0.56891300  0.50731000  1
  V  V10  1  0.56824500  0.43175500  0.50000000  1
  V  V11  1  0.43330800  0.56669200  0.00000000  1
  P  P12  1  0.76923000  0.31517300  0.90588100  1
  P  P13  1  0.91230900  0.31812600  0.40825600  1
  P  P14  1  0.31524000  0.76907700  0.40635800  1
  P  P15  1  0.66122600  0.66851000  0.62296100  1
  P  P16  1  0.66542700  0.66738900  0.12264200  1
  P  P17  1  0.31571600  0.91227000  0.90881200  1
  P  P18  1  0.22589100  0.08593100  0.09546700  1
  P  P19  1  0.91406900  0.77410900  0.90453300  1
  P  P20  1  0.08830100  0.22686000  0.59211300  1
  P  P21  1  0.77314000  0.91169900  0.40788700  1
  P  P22  1  0.68187400  0.08769100  0.59174400  1
  P  P23  1  0.33149000  0.33877400  0.37703900  1
  P  P24  1  0.33261100  0.33457300  0.87735800  1
  P  P25  1  0.68482700  0.23077000  0.09411900  1
  P  P26  1  0.08773000  0.68428400  0.09118800  1
  P  P27  1  0.23092300  0.68476000  0.59364200  1
  O  O28  1  0.76594200  0.23977900  0.18150800  1
  O  O29  1  0.74316700  0.34344000  0.41568100  1
  O  O30  1  0.00648800  0.23839900  0.68452000  1
  O  O31  1  0.91559800  0.33959300  0.90993700  1
  O  O32  1  0.61739800  0.47654000  0.92607500  1
  O  O33  1  0.66483100  0.51998700  0.57670500  1
  O  O34  1  0.47564300  0.61722000  0.42508700  1
  O  O35  1  0.23792100  0.76684600  0.68159300  1
  O  O36  1  0.34154300  0.74383900  0.91430500  1
  O  O37  1  0.81697600  0.51397200  0.07966300  1
  O  O38  1  0.90719800  0.47716600  0.42946700  1
  O  O39  1  0.51991400  0.66630100  0.07620300  1
  O  O40  1  0.66481100  0.66805900  0.73008700  1
  O  O41  1  0.67350500  0.66360800  0.22940200  1
  O  O42  1  0.51260100  0.81872600  0.58175800  1
  O  O43  1  0.90581100  0.61924300  0.92808300  1
  O  O44  1  0.81417200  0.66656800  0.57799300  1
  O  O45  1  0.34325500  0.91262100  0.41408900  1
  O  O46  1  0.20327600  0.00561000  0.99778900  1
  O  O47  1  0.23844200  0.99779300  0.18374300  1
  O  O48  1  0.24591900  0.99947400  0.81708400  1
  O  O49  1  0.47762200  0.90464700  0.92839700  1
  O  O50  1  0.66986100  0.81720300  0.08110900  1
  O  O51  1  0.25757600  0.08146700  0.58837000  1
  O  O52  1  0.61955600  0.90280600  0.42653000  1
  O  O53  1  0.91853300  0.74242400  0.41163000  1
  O  O54  1  0.00175100  0.20560800  0.49996000  1
  O  O55  1  0.99437000  0.24636800  0.31653800  1
  O  O56  1  0.00052600  0.75408100  0.18291600  1
  O  O57  1  0.08265100  0.25743500  0.08817800  1
  O  O58  1  0.38075700  0.09418900  0.07191700  1
  O  O59  1  0.74256500  0.91734900  0.91182200  1
  O  O60  1  0.33343200  0.18582800  0.42200700  1
  O  O61  1  0.52283300  0.09280200  0.57053300  1
  O  O62  1  0.75363200  0.00563000  0.68346200  1
  O  O63  1  0.76160100  0.99351200  0.31548000  1
  O  O64  1  0.79439200  0.99824900  0.50004000  1
  O  O65  1  0.66040700  0.08440200  0.09006300  1
  O  O66  1  0.18279700  0.33013900  0.91889100  1
  O  O67  1  0.09719400  0.38044400  0.57347000  1
  O  O68  1  0.48602800  0.18302400  0.92033700  1
  O  O69  1  0.33639200  0.32649500  0.77059800  1
  O  O70  1  0.33194100  0.33518900  0.26991300  1
  O  O71  1  0.48001300  0.33516900  0.42329500  1
  O  O72  1  0.09535300  0.52237800  0.07160300  1
  O  O73  1  0.18127400  0.48739900  0.41824200  1
  O  O74  1  0.65656000  0.25683300  0.58431900  1
  O  O75  1  0.79217100  0.20782900  0.00000000  1
  O  O76  1  0.76022100  0.23405800  0.81849200  1
  O  O77  1  0.52346000  0.38260200  0.07392500  1
  O  O78  1  0.33369900  0.48008600  0.92379700  1
  O  O79  1  0.38278000  0.52435700  0.57491300  1
  O  O80  1  0.08737900  0.65674500  0.58591100  1
  O  O81  1  0.00220700  0.76155800  0.81625700  1
  O  O82  1  0.99439000  0.79672400  0.00221100  1
  O  O83  1  0.25616100  0.65845700  0.08569500  1
  O  O84  1  0.23315400  0.76207900  0.31840700  1
  O  O85  1  0.20622800  0.79377200  0.50000000  1
