# generated using pymatgen
data_LiVF5
_symmetry_space_group_name_H-M   'P 1'
_cell_length_a   9.93135800
_cell_length_b   5.80731000
_cell_length_c   7.32084220
_cell_angle_alpha   89.77350363
_cell_angle_beta   90.00000000
_cell_angle_gamma   90.00000000
_symmetry_Int_Tables_number   1
_chemical_formula_structural   LiVF5
_chemical_formula_sum   'Li4 V4 F20'
_cell_volume   422.22242873
_cell_formula_units_Z   4
loop_
 _symmetry_equiv_pos_site_id
 _symmetry_equiv_pos_as_xyz
  1  'x, y, z'
loop_
 _atom_site_type_symbol
 _atom_site_label
 _atom_site_symmetry_multiplicity
 _atom_site_fract_x
 _atom_site_fract_y
 _atom_site_fract_z
 _atom_site_occupancy
  Li  Li0  1  0.39480400  0.99496300  0.05256800  1
  Li  Li1  1  0.55455600  0.49784100  0.59194900  1
  Li  Li2  1  0.05455600  0.50215900  0.40805100  1
  Li  Li3  1  0.89480400  0.00503700  0.94743200  1
  V  V4  1  0.37962200  0.98541900  0.58245600  1
  V  V5  1  0.77581100  0.51545700  0.12369000  1
  V  V6  1  0.27581100  0.48454300  0.87631000  1
  V  V7  1  0.87962200  0.01458100  0.41754400  1
  F  F8  1  0.26952300  0.99428000  0.39033000  1
  F  F9  1  0.46716500  0.97053800  0.80611600  1
  F  F10  1  0.76051500  0.79015800  0.29166900  1
  F  F11  1  0.49907100  0.77291600  0.48212900  1
  F  F12  1  0.98460500  0.77259300  0.50548200  1
  F  F13  1  0.79988800  0.72530000  0.93352100  1
  F  F14  1  0.29215300  0.72566000  0.04162600  1
  F  F15  1  0.26923300  0.71412300  0.66925300  1
  F  F16  1  0.95694700  0.52447200  0.18208800  1
  F  F17  1  0.59760700  0.51242900  0.13292700  1
  F  F18  1  0.09760700  0.48757100  0.86707300  1
  F  F19  1  0.45694700  0.47552800  0.81791200  1
  F  F20  1  0.76923300  0.28587700  0.33074700  1
  F  F21  1  0.79215300  0.27434000  0.95837400  1
  F  F22  1  0.29988800  0.27470000  0.06647900  1
  F  F23  1  0.48460500  0.22740700  0.49451800  1
  F  F24  1  0.99907100  0.22708400  0.51787100  1
  F  F25  1  0.26051500  0.20984200  0.70833100  1
  F  F26  1  0.96716500  0.02946200  0.19388400  1
  F  F27  1  0.76952300  0.00572000  0.60967000  1
