# generated using pymatgen
data_Li5Co3(NiO5)2
_symmetry_space_group_name_H-M   'P 1'
_cell_length_a   5.15176967
_cell_length_b   7.63957610
_cell_length_c   10.18646221
_cell_angle_alpha   103.89393119
_cell_angle_beta   81.90379387
_cell_angle_gamma   71.01305321
_symmetry_Int_Tables_number   1
_chemical_formula_structural   Li5Co3(NiO5)2
_chemical_formula_sum   'Li10 Co6 Ni4 O20'
_cell_volume   357.38447467
_cell_formula_units_Z   2
loop_
 _symmetry_equiv_pos_site_id
 _symmetry_equiv_pos_as_xyz
  1  'x, y, z'
loop_
 _atom_site_type_symbol
 _atom_site_label
 _atom_site_symmetry_multiplicity
 _atom_site_fract_x
 _atom_site_fract_y
 _atom_site_fract_z
 _atom_site_occupancy
  Li  Li0  1  0.00009300  0.49923600  0.50033400  1
  Li  Li1  1  0.99990800  0.50076400  0.99966300  1
  Li  Li2  1  0.79551700  0.41041000  0.25193100  1
  Li  Li3  1  0.79517700  0.41058300  0.75134600  1
  Li  Li4  1  0.20482700  0.58942700  0.74864200  1
  Li  Li5  1  0.20446400  0.58960400  0.24807400  1
  Li  Li6  1  0.60418600  0.79004100  0.74623700  1
  Li  Li7  1  0.60194200  0.79148500  0.24684700  1
  Li  Li8  1  0.39804000  0.20852900  0.25315400  1
  Li  Li9  1  0.39581200  0.20996400  0.75376400  1
  Co  Co10  1  0.00000300  0.00000400  0.24999800  1
  Co  Co11  1  0.80423200  0.88415200  0.49344000  1
  Co  Co12  1  0.19576700  0.11583700  0.00655700  1
  Co  Co13  1  0.00001200  0.00000000  0.74999900  1
  Co  Co14  1  0.80122500  0.88458900  0.99438300  1
  Co  Co15  1  0.19879500  0.11540200  0.50560300  1
  Ni  Ni16  1  0.40674600  0.69488100  0.49920700  1
  Ni  Ni17  1  0.40251600  0.69537500  0.99885300  1
  Ni  Ni18  1  0.59745500  0.30464600  0.50117500  1
  Ni  Ni19  1  0.59323900  0.30516400  0.00081700  1
  O  O20  1  0.19656700  0.85622000  0.88656900  1
  O  O21  1  0.19891700  0.85632600  0.38817000  1
  O  O22  1  0.80107300  0.14368200  0.11182600  1
  O  O23  1  0.80343600  0.14377800  0.61343200  1
  O  O24  1  0.39708000  0.93859800  0.61576600  1
  O  O25  1  0.39751400  0.93890800  0.11629400  1
  O  O26  1  0.60249800  0.06106600  0.38369300  1
  O  O27  1  0.60292900  0.06139400  0.88422700  1
  O  O28  1  0.58971300  0.54455600  0.61298400  1
  O  O29  1  0.58745000  0.54365300  0.11125300  1
  O  O30  1  0.41255400  0.45632400  0.38875800  1
  O  O31  1  0.41030800  0.45539700  0.88700900  1
  O  O32  1  0.00683200  0.22464900  0.36896300  1
  O  O33  1  0.00688400  0.22373900  0.86744400  1
  O  O34  1  0.99313200  0.77627300  0.63255600  1
  O  O35  1  0.99317700  0.77534200  0.13102900  1
  O  O36  1  0.79597400  0.66331300  0.38181500  1
  O  O37  1  0.79934700  0.66355200  0.88022900  1
  O  O38  1  0.20065400  0.33644400  0.61976800  1
  O  O39  1  0.20400900  0.33669300  0.11819300  1
