# generated using pymatgen
data_Li4CuNi3(PO4)4
_symmetry_space_group_name_H-M   'P 1'
_cell_length_a   5.96208400
_cell_length_b   4.72453900
_cell_length_c   10.06377143
_cell_angle_alpha   89.21587545
_cell_angle_beta   90.00000000
_cell_angle_gamma   90.00000000
_symmetry_Int_Tables_number   1
_chemical_formula_structural   Li4CuNi3(PO4)4
_chemical_formula_sum   'Li4 Cu1 Ni3 P4 O16'
_cell_volume   283.45075725
_cell_formula_units_Z   1
loop_
 _symmetry_equiv_pos_site_id
 _symmetry_equiv_pos_as_xyz
  1  'x, y, z'
loop_
 _atom_site_type_symbol
 _atom_site_label
 _atom_site_symmetry_multiplicity
 _atom_site_fract_x
 _atom_site_fract_y
 _atom_site_fract_z
 _atom_site_occupancy
  Li  Li0  1  0.24972400  0.00283300  0.99793700  1
  Li  Li1  1  0.75027600  0.00283300  0.99793700  1
  Li  Li2  1  0.75192800  0.49918900  0.50050200  1
  Li  Li3  1  0.24807200  0.49918900  0.50050200  1
  Cu  Cu4  1  0.50000000  0.95350200  0.71756600  1
  Ni  Ni5  1  0.00000000  0.02019500  0.27493200  1
  Ni  Ni6  1  0.00000000  0.48093100  0.77832600  1
  Ni  Ni7  1  0.50000000  0.52126300  0.22363800  1
  P  P8  1  0.50000000  0.08019200  0.40591900  1
  P  P9  1  0.50000000  0.41625100  0.90384800  1
  P  P10  1  0.00000000  0.58600000  0.09482500  1
  P  P11  1  0.00000000  0.91837300  0.59372000  1
  O  O12  1  0.50000000  0.19075000  0.55169200  1
  O  O13  1  0.29401000  0.22481700  0.33600100  1
  O  O14  1  0.70599000  0.22481700  0.33600100  1
  O  O15  1  0.00000000  0.24160600  0.59855900  1
  O  O16  1  0.00000000  0.26183700  0.10087300  1
  O  O17  1  0.29058400  0.28244000  0.83691000  1
  O  O18  1  0.70941600  0.28244000  0.83691000  1
  O  O19  1  0.50000000  0.30376000  0.04988900  1
  O  O20  1  0.00000000  0.70623800  0.95107600  1
  O  O21  1  0.79404500  0.72589900  0.16620400  1
  O  O22  1  0.20595500  0.72589900  0.16620400  1
  O  O23  1  0.50000000  0.74528700  0.89609400  1
  O  O24  1  0.50000000  0.75639700  0.40106200  1
  O  O25  1  0.79641800  0.77320500  0.66613500  1
  O  O26  1  0.20358200  0.77320500  0.66613500  1
  O  O27  1  0.00000000  0.80065300  0.45060000  1
