# generated using pymatgen
data_LiCrPO4
_symmetry_space_group_name_H-M   'P 1'
_cell_length_a   5.77438300
_cell_length_b   7.78185300
_cell_length_c   14.14579200
_cell_angle_alpha   90.00000000
_cell_angle_beta   90.00000000
_cell_angle_gamma   90.00000000
_symmetry_Int_Tables_number   1
_chemical_formula_structural   LiCrPO4
_chemical_formula_sum   'Li8 Cr8 P8 O32'
_cell_volume   635.64681719
_cell_formula_units_Z   8
loop_
 _symmetry_equiv_pos_site_id
 _symmetry_equiv_pos_as_xyz
  1  'x, y, z'
loop_
 _atom_site_type_symbol
 _atom_site_label
 _atom_site_symmetry_multiplicity
 _atom_site_fract_x
 _atom_site_fract_y
 _atom_site_fract_z
 _atom_site_occupancy
  Li  Li0  1  0.42199300  0.17361300  0.52696700  1
  Li  Li1  1  0.92199300  0.17361300  0.97303300  1
  Li  Li2  1  0.42199300  0.32638700  0.02696700  1
  Li  Li3  1  0.92199300  0.32638700  0.47303300  1
  Li  Li4  1  0.07800700  0.67361300  0.52696700  1
  Li  Li5  1  0.57800700  0.67361300  0.97303300  1
  Li  Li6  1  0.07800700  0.82638700  0.02696700  1
  Li  Li7  1  0.57800700  0.82638700  0.47303300  1
  Cr  Cr8  1  0.12918800  0.14047300  0.18848600  1
  Cr  Cr9  1  0.62918800  0.14047300  0.31151400  1
  Cr  Cr10  1  0.62918800  0.35952700  0.81151400  1
  Cr  Cr11  1  0.12918800  0.35952700  0.68848600  1
  Cr  Cr12  1  0.37081200  0.64047300  0.18848600  1
  Cr  Cr13  1  0.87081200  0.64047300  0.31151400  1
  Cr  Cr14  1  0.37081200  0.85952700  0.68848600  1
  Cr  Cr15  1  0.87081200  0.85952700  0.81151400  1
  P  P16  1  0.89198100  0.03196600  0.62724000  1
  P  P17  1  0.39198100  0.03196600  0.87276000  1
  P  P18  1  0.89198100  0.46803400  0.12724000  1
  P  P19  1  0.39198100  0.46803400  0.37276000  1
  P  P20  1  0.60801900  0.53196600  0.62724000  1
  P  P21  1  0.10801900  0.53196600  0.87276000  1
  P  P22  1  0.60801900  0.96803400  0.12724000  1
  P  P23  1  0.10801900  0.96803400  0.37276000  1
  O  O24  1  0.82439100  0.99158900  0.06647500  1
  O  O25  1  0.32439100  0.99158900  0.43352500  1
  O  O26  1  0.32078200  0.07658000  0.76878000  1
  O  O27  1  0.82078200  0.07658000  0.73122000  1
  O  O28  1  0.46364200  0.13824200  0.13386900  1
  O  O29  1  0.96364200  0.13824200  0.36613100  1
  O  O30  1  0.05075100  0.17897100  0.58890000  1
  O  O31  1  0.55075100  0.17897100  0.91110000  1
  O  O32  1  0.05075100  0.32102900  0.08890000  1
  O  O33  1  0.55075100  0.32102900  0.41110000  1
  O  O34  1  0.46364200  0.36175800  0.63386900  1
  O  O35  1  0.96364200  0.36175800  0.86613100  1
  O  O36  1  0.82078200  0.42342000  0.23122000  1
  O  O37  1  0.32078200  0.42342000  0.26878000  1
  O  O38  1  0.82439100  0.50841100  0.56647500  1
  O  O39  1  0.32439100  0.50841100  0.93352500  1
  O  O40  1  0.17560900  0.49158900  0.43352500  1
  O  O41  1  0.67560900  0.49158900  0.06647500  1
  O  O42  1  0.67921800  0.57658000  0.73122000  1
  O  O43  1  0.17921800  0.57658000  0.76878000  1
  O  O44  1  0.03635800  0.63824200  0.13386900  1
  O  O45  1  0.53635800  0.63824200  0.36613100  1
  O  O46  1  0.44924900  0.67897100  0.58890000  1
  O  O47  1  0.94924900  0.67897100  0.91110000  1
  O  O48  1  0.44924900  0.82102900  0.08890000  1
  O  O49  1  0.94924900  0.82102900  0.41110000  1
  O  O50  1  0.03635800  0.86175800  0.63386900  1
  O  O51  1  0.53635800  0.86175800  0.86613100  1
  O  O52  1  0.67921800  0.92342000  0.23122000  1
  O  O53  1  0.17921800  0.92342000  0.26878000  1
  O  O54  1  0.67560900  0.00841100  0.56647500  1
  O  O55  1  0.17560900  0.00841100  0.93352500  1
