# generated using pymatgen
data_Li6Mn3P6WO24
_symmetry_space_group_name_H-M   'P 1'
_cell_length_a   8.78232400
_cell_length_b   8.82494896
_cell_length_c   8.85502803
_cell_angle_alpha   60.12692838
_cell_angle_beta   61.29675812
_cell_angle_gamma   60.93207878
_symmetry_Int_Tables_number   1
_chemical_formula_structural   Li6Mn3P6WO24
_chemical_formula_sum   'Li6 Mn3 P6 W1 O24'
_cell_volume   493.77582437
_cell_formula_units_Z   1
loop_
 _symmetry_equiv_pos_site_id
 _symmetry_equiv_pos_as_xyz
  1  'x, y, z'
loop_
 _atom_site_type_symbol
 _atom_site_label
 _atom_site_symmetry_multiplicity
 _atom_site_fract_x
 _atom_site_fract_y
 _atom_site_fract_z
 _atom_site_occupancy
  Li  Li0  1  0.02696600  0.00833100  0.03023700  1
  Li  Li1  1  0.16683700  0.35486900  0.72164900  1
  Li  Li2  1  0.50289100  0.49299500  0.47334600  1
  Li  Li3  1  0.83717000  0.64037200  0.31639500  1
  Li  Li4  1  0.31834600  0.83085200  0.63934600  1
  Li  Li5  1  0.63680800  0.31140400  0.84100100  1
  Mn  Mn6  1  0.14657000  0.14547500  0.14742500  1
  Mn  Mn7  1  0.36461700  0.34860900  0.34830100  1
  Mn  Mn8  1  0.65859400  0.65303700  0.65719400  1
  P  P9  1  0.75253700  0.43677800  0.05633400  1
  P  P10  1  0.05008100  0.75351500  0.44677100  1
  P  P11  1  0.44152100  0.04859400  0.74665000  1
  P  P12  1  0.53995300  0.95244400  0.24285700  1
  P  P13  1  0.95784600  0.25181400  0.55237100  1
  P  P14  1  0.24451200  0.53499700  0.95218600  1
  W  W15  1  0.84724900  0.85208500  0.85146700  1
  O  O16  1  0.25049200  0.51210000  0.13059200  1
  O  O17  1  0.53610500  0.11660200  0.26020300  1
  O  O18  1  0.92134700  0.25842000  0.07280900  1
  O  O19  1  0.10723000  0.28076500  0.56825700  1
  O  O20  1  0.59957000  0.44735800  0.23503800  1
  O  O21  1  0.82168700  0.60705900  0.97756400  1
  O  O22  1  0.08323100  0.91121900  0.26211400  1
  O  O23  1  0.22120000  0.58672200  0.47975100  1
  O  O24  1  0.44519200  0.23792100  0.59596500  1
  O  O25  1  0.38934800  0.99808200  0.17197600  1
  O  O26  1  0.73876500  0.88638100  0.09794700  1
  O  O27  1  0.02303700  0.19326500  0.39215100  1
  O  O28  1  0.97237200  0.83079900  0.60723500  1
  O  O29  1  0.25535100  0.07358400  0.89753400  1
  O  O30  1  0.60254200  0.98204300  0.82249900  1
  O  O31  1  0.54334000  0.77448900  0.41601400  1
  O  O32  1  0.77613900  0.41888300  0.55369400  1
  O  O33  1  0.89256600  0.09412700  0.74476500  1
  O  O34  1  0.19388700  0.38236400  0.96632400  1
  O  O35  1  0.41907300  0.55055400  0.78335800  1
  O  O36  1  0.90066600  0.69968900  0.46062700  1
  O  O37  1  0.09570700  0.73411700  0.89237400  1
  O  O38  1  0.47252200  0.90322100  0.67954800  1
  O  O39  1  0.69513600  0.45506300  0.90812800  1
