# generated using pymatgen
data_Li4Mn2Cr3Sn3O16
_symmetry_space_group_name_H-M   'P 1'
_cell_length_a   6.08768392
_cell_length_b   6.14059747
_cell_length_c   9.65565550
_cell_angle_alpha   89.87392996
_cell_angle_beta   90.78025628
_cell_angle_gamma   120.34111719
_symmetry_Int_Tables_number   1
_chemical_formula_structural   Li4Mn2Cr3Sn3O16
_chemical_formula_sum   'Li4 Mn2 Cr3 Sn3 O16'
_cell_volume   311.47655894
_cell_formula_units_Z   1
loop_
 _symmetry_equiv_pos_site_id
 _symmetry_equiv_pos_as_xyz
  1  'x, y, z'
loop_
 _atom_site_type_symbol
 _atom_site_label
 _atom_site_symmetry_multiplicity
 _atom_site_fract_x
 _atom_site_fract_y
 _atom_site_fract_z
 _atom_site_occupancy
  Li  Li0  1  0.34412400  0.67169700  0.89284700  1
  Li  Li1  1  0.97093100  0.98632300  0.99149800  1
  Li  Li2  1  0.97064100  0.98570500  0.49928200  1
  Li  Li3  1  0.67408300  0.33701700  0.40005600  1
  Mn  Mn4  1  0.34209200  0.67087000  0.49405700  1
  Mn  Mn5  1  0.67943800  0.33959400  0.97956300  1
  Cr  Cr6  1  0.65962700  0.82953000  0.21347900  1
  Cr  Cr7  1  0.82905200  0.66002700  0.71422000  1
  Cr  Cr8  1  0.82868000  0.16886500  0.71402900  1
  Sn  Sn9  1  0.17484600  0.83461000  0.21306700  1
  Sn  Sn10  1  0.17554700  0.34064500  0.21307700  1
  Sn  Sn11  1  0.33266000  0.16614400  0.71075600  1
  O  O12  1  0.14954900  0.83198600  0.59908200  1
  O  O13  1  0.05007000  0.52459900  0.35011400  1
  O  O14  1  0.33878900  0.67004500  0.09776400  1
  O  O15  1  0.99549200  0.99755900  0.31282700  1
  O  O16  1  0.98948500  0.99466200  0.81001600  1
  O  O17  1  0.15099300  0.32020500  0.59895800  1
  O  O18  1  0.49801100  0.96934400  0.33742100  1
  O  O19  1  0.49898600  0.52685200  0.33608500  1
  O  O20  1  0.32625800  0.16320100  0.08981300  1
  O  O21  1  0.65922900  0.82969300  0.60485800  1
  O  O22  1  0.53193300  0.48196700  0.84844400  1
  O  O23  1  0.53219300  0.04913100  0.84829300  1
  O  O24  1  0.67092800  0.33580400  0.60592600  1
  O  O25  1  0.83386500  0.66845200  0.09546500  1
  O  O26  1  0.95853500  0.47914200  0.84120800  1
  O  O27  1  0.83396400  0.16663400  0.09563600  1
