# generated using pymatgen
data_LiVSiO4
_symmetry_space_group_name_H-M   'P 1'
_cell_length_a   5.79555000
_cell_length_b   5.79555000
_cell_length_c   8.01811000
_cell_angle_alpha   90.00000000
_cell_angle_beta   90.00000000
_cell_angle_gamma   90.00000000
_symmetry_Int_Tables_number   1
_chemical_formula_structural   LiVSiO4
_chemical_formula_sum   'Li4 V4 Si4 O16'
_cell_volume   269.31548434
_cell_formula_units_Z   4
loop_
 _symmetry_equiv_pos_site_id
 _symmetry_equiv_pos_as_xyz
  1  'x, y, z'
loop_
 _atom_site_type_symbol
 _atom_site_label
 _atom_site_symmetry_multiplicity
 _atom_site_fract_x
 _atom_site_fract_y
 _atom_site_fract_z
 _atom_site_occupancy
  Li  Li0  1  0.78654100  0.00000000  0.25000000  1
  Li  Li1  1  0.00000000  0.78654100  0.00000000  1
  Li  Li2  1  0.00000000  0.21345900  0.50000000  1
  Li  Li3  1  0.21345900  0.00000000  0.75000000  1
  V  V4  1  0.50000000  0.77366900  0.00000000  1
  V  V5  1  0.50000000  0.22633100  0.50000000  1
  V  V6  1  0.77366900  0.50000000  0.25000000  1
  V  V7  1  0.22633100  0.50000000  0.75000000  1
  Si  Si8  1  0.74291500  0.74291500  0.62500000  1
  Si  Si9  1  0.74291500  0.25708500  0.87500000  1
  Si  Si10  1  0.25708500  0.74291500  0.37500000  1
  Si  Si11  1  0.25708500  0.25708500  0.12500000  1
  O  O12  1  0.49430200  0.73757900  0.24993300  1
  O  O13  1  0.49430200  0.26242100  0.25006700  1
  O  O14  1  0.73757900  0.49430200  0.00006700  1
  O  O15  1  0.73757900  0.50569800  0.49993300  1
  O  O16  1  0.73962400  0.02277300  0.98990000  1
  O  O17  1  0.73962400  0.97722700  0.51010000  1
  O  O18  1  0.02277300  0.73962400  0.26010000  1
  O  O19  1  0.02277300  0.26037600  0.23990000  1
  O  O20  1  0.97722700  0.73962400  0.73990000  1
  O  O21  1  0.97722700  0.26037600  0.76010000  1
  O  O22  1  0.26037600  0.97722700  0.48990000  1
  O  O23  1  0.26037600  0.02277300  0.01010000  1
  O  O24  1  0.26242100  0.50569800  0.50006700  1
  O  O25  1  0.26242100  0.49430200  0.99993300  1
  O  O26  1  0.50569800  0.73757900  0.75006700  1
  O  O27  1  0.50569800  0.26242100  0.74993300  1
