# generated using pymatgen
data_LiCoBO3
_symmetry_space_group_name_H-M   'P 1'
_cell_length_a   3.08925308
_cell_length_b   8.15249360
_cell_length_c   14.14074181
_cell_angle_alpha   89.99996666
_cell_angle_beta   90.08398567
_cell_angle_gamma   90.04659107
_symmetry_Int_Tables_number   1
_chemical_formula_structural   LiCoBO3
_chemical_formula_sum   'Li6 Co6 B6 O18'
_cell_volume   356.13572174
_cell_formula_units_Z   6
loop_
 _symmetry_equiv_pos_site_id
 _symmetry_equiv_pos_as_xyz
  1  'x, y, z'
loop_
 _atom_site_type_symbol
 _atom_site_label
 _atom_site_symmetry_multiplicity
 _atom_site_fract_x
 _atom_site_fract_y
 _atom_site_fract_z
 _atom_site_occupancy
  Li  Li0  1  0.50001100  0.63001400  0.34905700  1
  Li  Li1  1  0.50003000  0.13118700  0.84864200  1
  Li  Li2  1  0.50008500  0.16081400  0.14123600  1
  Li  Li3  1  0.49990600  0.66201500  0.63993100  1
  Li  Li4  1  0.50000600  0.70798900  0.00969700  1
  Li  Li5  1  0.50021200  0.20843800  0.51053300  1
  Co  Co6  1  0.00106900  0.86703200  0.49139900  1
  Co  Co7  1  0.99758000  0.82508500  0.18648600  1
  Co  Co8  1  0.99909500  0.80777800  0.81886300  1
  Co  Co9  1  0.00108900  0.36710300  0.99418500  1
  Co  Co10  1  0.99781900  0.32905400  0.68768300  1
  Co  Co11  1  0.99970400  0.30845300  0.31988800  1
  B  B12  1  0.50027300  0.49992700  0.16665100  1
  B  B13  1  0.50066900  0.99967600  0.66635800  1
  B  B14  1  0.00027500  0.99997900  0.00004500  1
  B  B15  1  0.00019600  0.49920000  0.50067700  1
  B  B16  1  0.49944700  0.49961100  0.83366800  1
  B  B17  1  0.50011000  0.00071200  0.33334500  1
  O  O18  1  0.00010800  0.50914900  0.40185400  1
  O  O19  1  0.00035500  0.00785900  0.90184700  1
  O  O20  1  0.99940100  0.14354100  0.05327500  1
  O  O21  1  0.99911400  0.64220600  0.55415900  1
  O  O22  1  0.00104400  0.84843100  0.04530400  1
  O  O23  1  0.00136000  0.34700800  0.54444400  1
  O  O24  1  0.50011400  0.36183100  0.22393400  1
  O  O25  1  0.50045500  0.86160300  0.72405200  1
  O  O26  1  0.50102000  0.65502700  0.20709200  1
  O  O27  1  0.50220000  0.15438800  0.70720200  1
  O  O28  1  0.49955100  0.48334800  0.06899600  1
  O  O29  1  0.49905000  0.98288500  0.56886700  1
  O  O30  1  0.50005700  0.36129900  0.89127300  1
  O  O31  1  0.50053700  0.86176900  0.39138600  1
  O  O32  1  0.49998900  0.65554800  0.87345700  1
  O  O33  1  0.49967300  0.15609600  0.37361300  1
  O  O34  1  0.49814400  0.48178800  0.73534700  1
  O  O35  1  0.50025300  0.98215900  0.23555200  1
