# generated using pymatgen
data_Li4Fe5Sb3O16
_symmetry_space_group_name_H-M   'P 1'
_cell_length_a   6.15803972
_cell_length_b   6.15803972
_cell_length_c   9.81265274
_cell_angle_alpha   89.33874823
_cell_angle_beta   89.33874823
_cell_angle_gamma   59.58858364
_symmetry_Int_Tables_number   1
_chemical_formula_structural   Li4Fe5Sb3O16
_chemical_formula_sum   'Li4 Fe5 Sb3 O16'
_cell_volume   320.88410184
_cell_formula_units_Z   1
loop_
 _symmetry_equiv_pos_site_id
 _symmetry_equiv_pos_as_xyz
  1  'x, y, z'
loop_
 _atom_site_type_symbol
 _atom_site_label
 _atom_site_symmetry_multiplicity
 _atom_site_fract_x
 _atom_site_fract_y
 _atom_site_fract_z
 _atom_site_occupancy
  Li  Li0  1  0.66203200  0.66203200  0.11787800  1
  Li  Li1  1  0.99029700  0.99029700  0.00883300  1
  Li  Li2  1  0.99181700  0.99181700  0.49755100  1
  Li  Li3  1  0.32536600  0.32536600  0.60351000  1
  Fe  Fe4  1  0.67682900  0.67682900  0.49876100  1
  Fe  Fe5  1  0.83279500  0.83279500  0.78298800  1
  Fe  Fe6  1  0.34588600  0.34588600  0.01258700  1
  Fe  Fe7  1  0.17398300  0.65620700  0.28351800  1
  Fe  Fe8  1  0.65620700  0.17398300  0.28351800  1
  Sb  Sb9  1  0.33846400  0.83086100  0.78349200  1
  Sb  Sb10  1  0.83086100  0.33846400  0.78349200  1
  Sb  Sb11  1  0.17149200  0.17149200  0.28657000  1
  O  O12  1  0.32426000  0.84588700  0.40238700  1
  O  O13  1  0.51371500  0.51371500  0.66283300  1
  O  O14  1  0.65913000  0.65913000  0.89758200  1
  O  O15  1  0.00842600  0.00842600  0.67924800  1
  O  O16  1  0.00362200  0.00362200  0.19277900  1
  O  O17  1  0.84588700  0.32426000  0.40238700  1
  O  O18  1  0.50383900  0.95726000  0.65834500  1
  O  O19  1  0.95726000  0.50383900  0.65834500  1
  O  O20  1  0.15910800  0.15910800  0.89439000  1
  O  O21  1  0.83624900  0.83624900  0.40277500  1
  O  O22  1  0.03107000  0.47995300  0.16751000  1
  O  O23  1  0.47995300  0.03107000  0.16751000  1
  O  O24  1  0.33015000  0.33015000  0.39853100  1
  O  O25  1  0.17198500  0.69048500  0.89625300  1
  O  O26  1  0.48358100  0.48358100  0.17134200  1
  O  O27  1  0.69048500  0.17198500  0.89625300  1
