# generated using pymatgen
data_LiV(PO3)4
_symmetry_space_group_name_H-M   'P 1'
_cell_length_a   7.60440909
_cell_length_b   7.60440909
_cell_length_c   17.24392000
_cell_angle_alpha   90.00000000
_cell_angle_beta   90.00000000
_cell_angle_gamma   101.42302052
_symmetry_Int_Tables_number   1
_chemical_formula_structural   LiV(PO3)4
_chemical_formula_sum   'Li4 V4 P16 O48'
_cell_volume   977.41265073
_cell_formula_units_Z   4
loop_
 _symmetry_equiv_pos_site_id
 _symmetry_equiv_pos_as_xyz
  1  'x, y, z'
loop_
 _atom_site_type_symbol
 _atom_site_label
 _atom_site_symmetry_multiplicity
 _atom_site_fract_x
 _atom_site_fract_y
 _atom_site_fract_z
 _atom_site_occupancy
  Li  Li0  1  0.19718000  0.09726400  0.63813200  1
  Li  Li1  1  0.90273600  0.80282000  0.86186800  1
  Li  Li2  1  0.80282000  0.90273600  0.13813200  1
  Li  Li3  1  0.09726400  0.19718000  0.36186800  1
  V  V4  1  0.58030100  0.97186800  0.87185500  1
  V  V5  1  0.02813200  0.41969900  0.62814500  1
  V  V6  1  0.41969900  0.02813200  0.37185500  1
  V  V7  1  0.97186800  0.58030100  0.12814500  1
  P  P8  1  0.03781600  0.75758900  0.34215600  1
  P  P9  1  0.24241100  0.96218400  0.15784400  1
  P  P10  1  0.30960200  0.78095500  0.01350000  1
  P  P11  1  0.21904500  0.69039800  0.48650000  1
  P  P12  1  0.37568500  0.62431500  0.75000000  1
  P  P13  1  0.25304900  0.33647200  0.19046100  1
  P  P14  1  0.66352800  0.74695100  0.30953900  1
  P  P15  1  0.35359300  0.35359300  0.50000000  1
  P  P16  1  0.64640700  0.64640700  0.00000000  1
  P  P17  1  0.33647200  0.25304900  0.80953900  1
  P  P18  1  0.74695100  0.66352800  0.69046100  1
  P  P19  1  0.62431500  0.37568500  0.25000000  1
  P  P20  1  0.78095500  0.30960200  0.98650000  1
  P  P21  1  0.69039800  0.21904500  0.51350000  1
  P  P22  1  0.75758900  0.03781600  0.65784400  1
  P  P23  1  0.96218400  0.24241100  0.84215600  1
  O  O24  1  0.14604500  0.94867000  0.35382000  1
  O  O25  1  0.05133000  0.85395500  0.14618000  1
  O  O26  1  0.34510800  0.95688000  0.22991600  1
  O  O27  1  0.04312000  0.65489200  0.27008400  1
  O  O28  1  0.31923000  0.88035100  0.47995600  1
  O  O29  1  0.11964900  0.68077000  0.02004400  1
  O  O30  1  0.09054500  0.63596300  0.41267400  1
  O  O31  1  0.36403700  0.90945500  0.08732600  1
  O  O32  1  0.10987500  0.63715700  0.55847800  1
  O  O33  1  0.36284300  0.89012500  0.94152200  1
  O  O34  1  0.41458900  0.79395800  0.79686600  1
  O  O35  1  0.20604200  0.58541100  0.70313400  1
  O  O36  1  0.51664600  0.80745200  0.35436100  1
  O  O37  1  0.19254800  0.48335400  0.14563900  1
  O  O38  1  0.36018700  0.55736500  0.47693400  1
  O  O39  1  0.44263500  0.63981300  0.02306600  1
  O  O40  1  0.77953500  0.83746200  0.63344400  1
  O  O41  1  0.16253800  0.22046500  0.86655600  1
  O  O42  1  0.53116000  0.60995600  0.68843900  1
  O  O43  1  0.39004400  0.46884000  0.81156100  1
  O  O44  1  0.69338900  0.76292700  0.92888800  1
  O  O45  1  0.23707300  0.30661100  0.57111200  1
  O  O46  1  0.18068200  0.29091700  0.26920500  1
  O  O47  1  0.70908300  0.81931800  0.23079500  1
  O  O48  1  0.29091700  0.18068200  0.73079500  1
  O  O49  1  0.81931800  0.70908300  0.76920500  1
  O  O50  1  0.30661100  0.23707300  0.42888800  1
  O  O51  1  0.76292700  0.69338900  0.07111200  1
  O  O52  1  0.60995600  0.53116000  0.31156100  1
  O  O53  1  0.46884000  0.39004400  0.18843900  1
  O  O54  1  0.22046500  0.16253800  0.13344400  1
  O  O55  1  0.83746200  0.77953500  0.36655600  1
  O  O56  1  0.63981300  0.44263500  0.97693400  1
  O  O57  1  0.55736500  0.36018700  0.52306600  1
  O  O58  1  0.80745200  0.51664600  0.64563900  1
  O  O59  1  0.48335400  0.19254800  0.85436100  1
  O  O60  1  0.79395800  0.41458900  0.20313400  1
  O  O61  1  0.58541100  0.20604200  0.29686600  1
  O  O62  1  0.63715700  0.10987500  0.44152200  1
  O  O63  1  0.89012500  0.36284300  0.05847800  1
  O  O64  1  0.63596300  0.09054500  0.58732600  1
  O  O65  1  0.90945500  0.36403700  0.91267400  1
  O  O66  1  0.68077000  0.11964900  0.97995600  1
  O  O67  1  0.88035100  0.31923000  0.52004400  1
  O  O68  1  0.65489200  0.04312000  0.72991600  1
  O  O69  1  0.95688000  0.34510800  0.77008400  1
  O  O70  1  0.94867000  0.14604500  0.64618000  1
  O  O71  1  0.85395500  0.05133000  0.85382000  1
