# generated using pymatgen
data_Li7V3P8O29
_symmetry_space_group_name_H-M   'P 1'
_cell_length_a   9.83125000
_cell_length_b   9.84588603
_cell_length_c   13.90327273
_cell_angle_alpha   89.78914652
_cell_angle_beta   89.58846646
_cell_angle_gamma   60.12813905
_symmetry_Int_Tables_number   1
_chemical_formula_structural   Li7V3P8O29
_chemical_formula_sum   'Li14 V6 P16 O58'
_cell_volume   1166.96903562
_cell_formula_units_Z   2
loop_
 _symmetry_equiv_pos_site_id
 _symmetry_equiv_pos_as_xyz
  1  'x, y, z'
loop_
 _atom_site_type_symbol
 _atom_site_label
 _atom_site_symmetry_multiplicity
 _atom_site_fract_x
 _atom_site_fract_y
 _atom_site_fract_z
 _atom_site_occupancy
  Li  Li0  1  0.23837300  0.66337400  0.06009400  1
  Li  Li1  1  0.09350800  0.67946800  0.56565500  1
  Li  Li2  1  0.68084100  0.23304600  0.55971200  1
  Li  Li3  1  0.32179700  0.34367200  0.88319500  1
  Li  Li4  1  0.67122700  0.09553700  0.06346800  1
  Li  Li5  1  0.09546000  0.22444800  0.06060600  1
  Li  Li6  1  0.77406700  0.91066100  0.43986000  1
  Li  Li7  1  0.22549400  0.08934400  0.56059700  1
  Li  Li8  1  0.33043600  0.89830900  0.93794800  1
  Li  Li9  1  0.67064100  0.67500100  0.11133700  1
  Li  Li10  1  0.31291300  0.77778700  0.44019500  1
  Li  Li11  1  0.91416800  0.31546800  0.44309400  1
  Li  Li12  1  0.76974100  0.32445900  0.93644900  1
  Li  Li13  1  0.98632100  0.95199100  0.98881400  1
  V  V14  1  0.56736200  0.00162000  0.25051200  1
  V  V15  1  0.43334300  0.99909300  0.74996800  1
  V  V16  1  0.99537600  0.57064100  0.75324900  1
  V  V17  1  0.00171000  0.43558600  0.24723300  1
  V  V18  1  0.43092300  0.56781300  0.25112700  1
  V  V19  1  0.56663100  0.43537600  0.74959600  1
  P  P20  1  0.22450900  0.68421600  0.84280300  1
  P  P21  1  0.08651900  0.67912100  0.34486100  1
  P  P22  1  0.68107200  0.23491800  0.34167000  1
  P  P23  1  0.33114000  0.33561600  0.12378200  1
  P  P24  1  0.33520100  0.33471900  0.62858000  1
  P  P25  1  0.68443800  0.09169000  0.84603600  1
  P  P26  1  0.76860900  0.91617700  0.66001800  1
  P  P27  1  0.09070500  0.22540600  0.84267400  1
  P  P28  1  0.91600200  0.77906000  0.15794100  1
  P  P29  1  0.23114600  0.09019700  0.34147400  1
  P  P30  1  0.31870300  0.90778700  0.15770200  1
  P  P31  1  0.66865100  0.66542700  0.37121700  1
  P  P32  1  0.66039500  0.66616600  0.87339500  1
  P  P33  1  0.32367200  0.76781900  0.65858700  1
  P  P34  1  0.91330900  0.32098800  0.65810800  1
  P  P35  1  0.77317700  0.31826100  0.15528000  1
  O  O36  1  0.24399800  0.75626400  0.56928200  1
  O  O37  1  0.24974700  0.66890700  0.34203500  1
  O  O38  1  0.01574600  0.78601000  0.07782200  1
  O  O39  1  0.08059400  0.66677500  0.84229300  1
  O  O40  1  0.37471600  0.52120500  0.83296700  1
  O  O41  1  0.32305800  0.48892400  0.16167400  1
  O  O42  1  0.51896600  0.38091500  0.31744000  1
  O  O43  1  0.76755300  0.22983300  0.06810500  1
  O  O44  1  0.66557000  0.25679900  0.84305700  1
  O  O45  1  0.18813000  0.48532600  0.66479600  1
  O  O46  1  0.10477500  0.51785300  0.32373700  1
  O  O47  1  0.48538900  0.33257500  0.67605200  1
  O  O48  1  0.31716700  0.34265200  0.01581600  1
  O  O49  1  0.35821400  0.32289900  0.52194800  1
  O  O50  1  0.48318800  0.18927900  0.15740200  1
  O  O51  1  0.11082800  0.36914900  0.83463900  1
  O  O52  1  0.18348400  0.32821100  0.16598400  1
  O  O53  1  0.66909500  0.08692300  0.34408900  1
  O  O54  1  0.78780300  0.00476700  0.75168200  1
  O  O55  1  0.74573200  0.01115600  0.57005500  1
  O  O56  1  0.77441000  0.00871700  0.93506100  1
  O  O57  1  0.52133500  0.10534800  0.83486700  1
  O  O58  1  0.32944400  0.18723600  0.67058300  1
  O  O59  1  0.74961200  0.92067200  0.15533000  1
  O  O60  1  0.37327600  0.10861500  0.32190000  1
  O  O61  1  0.07834200  0.25060300  0.33961000  1
  O  O62  1  0.98825400  0.79570100  0.25856900  1
  O  O63  1  0.00059600  0.75181000  0.43702800  1
  O  O64  1  0.00552500  0.23766500  0.56875400  1
  O  O65  1  0.91412500  0.75514200  0.65729900  1
  O  O66  1  0.61937900  0.90336600  0.68302700  1
  O  O67  1  0.25674900  0.07535700  0.84136400  1
  O  O68  1  0.67282000  0.81390700  0.33674700  1
  O  O69  1  0.48301400  0.88775400  0.16623800  1
  O  O70  1  0.22952900  0.99490400  0.06878300  1
  O  O71  1  0.24282500  0.99996200  0.43190900  1
  O  O72  1  0.21432500  0.99371300  0.25098300  1
  O  O73  1  0.33448600  0.92005800  0.65794600  1
  O  O74  1  0.80300400  0.66994100  0.83462900  1
  O  O75  1  0.90505000  0.62681600  0.16260400  1
  O  O76  1  0.50542200  0.81230200  0.83750800  1
  O  O77  1  0.65051500  0.65504600  0.98165100  1
  O  O78  1  0.68128300  0.64147500  0.47711100  1
  O  O79  1  0.51460100  0.67237200  0.33083700  1
  O  O80  1  0.89884100  0.47869000  0.67528200  1
  O  O81  1  0.81590100  0.51913900  0.31931100  1
  O  O82  1  0.33463100  0.74157600  0.15922100  1
  O  O83  1  0.21331100  0.78937100  0.75054900  1
  O  O84  1  0.22724200  0.77320500  0.93203600  1
  O  O85  1  0.48493100  0.62375400  0.67509800  1
  O  O86  1  0.66540700  0.51192600  0.83221800  1
  O  O87  1  0.62691400  0.48219300  0.16874800  1
  O  O88  1  0.92118200  0.33429500  0.15200500  1
  O  O89  1  0.00159600  0.22090000  0.93133200  1
  O  O90  1  0.00504900  0.20858900  0.74990800  1
  O  O91  1  0.75199800  0.32944100  0.65912500  1
  O  O92  1  0.75059700  0.26054500  0.43084400  1
  O  O93  1  0.79228300  0.21558600  0.25015800  1
