# generated using pymatgen
data_Li6V3P8O29
_symmetry_space_group_name_H-M   'P 1'
_cell_length_a   9.82066220
_cell_length_b   9.82066220
_cell_length_c   13.88352900
_cell_angle_alpha   90.00000000
_cell_angle_beta   90.00000000
_cell_angle_gamma   120.00000132
_symmetry_Int_Tables_number   1
_chemical_formula_structural   Li6V3P8O29
_chemical_formula_sum   'Li12 V6 P16 O58'
_cell_volume   1159.61024379
_cell_formula_units_Z   2
loop_
 _symmetry_equiv_pos_site_id
 _symmetry_equiv_pos_as_xyz
  1  'x, y, z'
loop_
 _atom_site_type_symbol
 _atom_site_label
 _atom_site_symmetry_multiplicity
 _atom_site_fract_x
 _atom_site_fract_y
 _atom_site_fract_z
 _atom_site_occupancy
  Li  Li0  1  0.09606100  0.77144500  0.93908600  1
  Li  Li1  1  0.22855500  0.90393900  0.43908600  1
  Li  Li2  1  0.09606100  0.32461600  0.43908600  1
  Li  Li3  1  0.22855500  0.32461600  0.93908600  1
  Li  Li4  1  0.67538400  0.90393900  0.93908600  1
  Li  Li5  1  0.32461600  0.22855500  0.56091400  1
  Li  Li6  1  0.67538400  0.77144500  0.43908600  1
  Li  Li7  1  0.32461600  0.09606100  0.06091400  1
  Li  Li8  1  0.77144500  0.67538400  0.06091400  1
  Li  Li9  1  0.90393900  0.67538400  0.56091400  1
  Li  Li10  1  0.77144500  0.09606100  0.56091400  1
  Li  Li11  1  0.90393900  0.22855500  0.06091400  1
  V  V12  1  0.43243100  0.43243100  0.75000000  1
  V  V13  1  0.56756900  0.56756900  0.25000000  1
  V  V14  1  0.43243100  0.00000000  0.25000000  1
  V  V15  1  0.56756900  0.00000000  0.75000000  1
  V  V16  1  0.00000000  0.56756900  0.75000000  1
  V  V17  1  0.00000000  0.43243100  0.25000000  1
  P  P18  1  0.08800200  0.76797200  0.15797700  1
  P  P19  1  0.23202800  0.91199800  0.65797700  1
  P  P20  1  0.08800200  0.32003000  0.65797700  1
  P  P21  1  0.33333300  0.66666700  0.87389200  1
  P  P22  1  0.33333300  0.66666700  0.37389200  1
  P  P23  1  0.23202800  0.32003000  0.15797700  1
  P  P24  1  0.32003000  0.23202800  0.34202300  1
  P  P25  1  0.67997000  0.91199800  0.15797700  1
  P  P26  1  0.32003000  0.08800200  0.84202300  1
  P  P27  1  0.67997000  0.76797200  0.65797700  1
  P  P28  1  0.76797200  0.67997000  0.84202300  1
  P  P29  1  0.66666700  0.33333300  0.62610800  1
  P  P30  1  0.66666700  0.33333300  0.12610800  1
  P  P31  1  0.91199800  0.67997000  0.34202300  1
  P  P32  1  0.76797200  0.08800200  0.34202300  1
  P  P33  1  0.91199800  0.23202800  0.84202300  1
  O  O34  1  0.00241900  0.75975000  0.43311000  1
  O  O35  1  0.08269200  0.74729200  0.65833300  1
  O  O36  1  0.24025000  0.99758100  0.93311000  1
  O  O37  1  0.25270800  0.91730800  0.15833300  1
  O  O38  1  0.09882000  0.61908600  0.17477200  1
  O  O39  1  0.18623900  0.67407500  0.83275500  1
  O  O40  1  0.09882000  0.47973400  0.67477200  1
  O  O41  1  0.00241900  0.24266900  0.93311000  1
  O  O42  1  0.08269200  0.33540000  0.15833300  1
  O  O43  1  0.32592500  0.81376100  0.33275500  1
  O  O44  1  0.38091400  0.90118000  0.67477200  1
  O  O45  1  0.18623900  0.51216300  0.33275500  1
  O  O46  1  0.33333300  0.66666700  0.98150100  1
  O  O47  1  0.33333300  0.66666700  0.48150100  1
  O  O48  1  0.32592500  0.51216300  0.83275500  1
  O  O49  1  0.52026600  0.90118000  0.17477200  1
  O  O50  1  0.48783700  0.81376100  0.83275500  1
  O  O51  1  0.25270800  0.33540000  0.65833300  1
  O  O52  1  0.20803600  0.20803600  0.25000000  1
  O  O53  1  0.24025000  0.24266900  0.43311000  1
  O  O54  1  0.24266900  0.24025000  0.06689000  1
  O  O55  1  0.38091400  0.47973400  0.17477200  1
  O  O56  1  0.48783700  0.67407500  0.33275500  1
  O  O57  1  0.33540000  0.25270800  0.84166700  1
  O  O58  1  0.52026600  0.61908600  0.67477200  1
  O  O59  1  0.66460000  0.91730800  0.65833300  1
  O  O60  1  0.20803600  0.00000000  0.75000000  1
  O  O61  1  0.24266900  0.00241900  0.56689000  1
  O  O62  1  0.75733100  0.99758100  0.43311000  1
  O  O63  1  0.33540000  0.08269200  0.34166700  1
  O  O64  1  0.47973400  0.38091400  0.32522800  1
  O  O65  1  0.66460000  0.74729200  0.15833300  1
  O  O66  1  0.51216300  0.32592500  0.66724500  1
  O  O67  1  0.61908600  0.52026600  0.82522800  1
  O  O68  1  0.75733100  0.75975000  0.93311000  1
  O  O69  1  0.75975000  0.75733100  0.56689000  1
  O  O70  1  0.79196400  0.79196400  0.75000000  1
  O  O71  1  0.74729200  0.66460000  0.34166700  1
  O  O72  1  0.51216300  0.18623900  0.16724500  1
  O  O73  1  0.47973400  0.09882000  0.82522800  1
  O  O74  1  0.67407500  0.48783700  0.16724500  1
  O  O75  1  0.66666700  0.33333300  0.01849900  1
  O  O76  1  0.66666700  0.33333300  0.51849900  1
  O  O77  1  0.81376100  0.48783700  0.66724500  1
  O  O78  1  0.61908600  0.09882000  0.32522800  1
  O  O79  1  0.67407500  0.18623900  0.66724500  1
  O  O80  1  0.91730800  0.66460000  0.84166700  1
  O  O81  1  0.00000000  0.79196400  0.25000000  1
  O  O82  1  0.99758100  0.75733100  0.06689000  1
  O  O83  1  0.90118000  0.52026600  0.32522800  1
  O  O84  1  0.81376100  0.32592500  0.16724500  1
  O  O85  1  0.90118000  0.38091400  0.82522800  1
  O  O86  1  0.74729200  0.08269200  0.84166700  1
  O  O87  1  0.75975000  0.00241900  0.06689000  1
  O  O88  1  0.79196400  0.00000000  0.25000000  1
  O  O89  1  0.91730800  0.25270800  0.34166700  1
  O  O90  1  0.99758100  0.24025000  0.56689000  1
  O  O91  1  0.00000000  0.20803600  0.75000000  1
