# generated using pymatgen
data_KLi7(H2N)8
_symmetry_space_group_name_H-M   'P 1'
_cell_length_a   23.19346611
_cell_length_b   23.19346611
_cell_length_c   23.19346611
_cell_angle_alpha   161.91411826
_cell_angle_beta   161.91411826
_cell_angle_gamma   25.68579434
_symmetry_Int_Tables_number   1
_chemical_formula_structural   KLi7(H2N)8
_chemical_formula_sum   'K4 Li28 H64 N32'
_cell_volume   1202.04055011
_cell_formula_units_Z   4
loop_
 _symmetry_equiv_pos_site_id
 _symmetry_equiv_pos_as_xyz
  1  'x, y, z'
loop_
 _atom_site_type_symbol
 _atom_site_label
 _atom_site_symmetry_multiplicity
 _atom_site_fract_x
 _atom_site_fract_y
 _atom_site_fract_z
 _atom_site_occupancy
  K  K0  1  0.87500000  0.62500000  0.75000000  1
  K  K1  1  0.87500000  0.12500000  0.25000000  1
  K  K2  1  0.87500000  0.12500000  0.75000000  1
  K  K3  1  0.37500000  0.12500000  0.25000000  1
  Li  Li4  1  0.50168000  0.00168000  0.50000000  1
  Li  Li5  1  0.75168000  0.75168000  0.00000000  1
  Li  Li6  1  0.24832000  0.24832000  0.00000000  1
  Li  Li7  1  0.99832000  0.49832000  0.50000000  1
  Li  Li8  1  0.80644100  0.30644100  0.50000000  1
  Li  Li9  1  0.05644100  0.05644100  0.00000000  1
  Li  Li10  1  0.94355900  0.94355900  0.00000000  1
  Li  Li11  1  0.69355900  0.19355900  0.50000000  1
  Li  Li12  1  0.55877800  0.05877800  0.50000000  1
  Li  Li13  1  0.80877800  0.80877800  0.00000000  1
  Li  Li14  1  0.19122200  0.19122200  0.00000000  1
  Li  Li15  1  0.94122200  0.44122200  0.50000000  1
  Li  Li16  1  0.44538600  0.94538600  0.50000000  1
  Li  Li17  1  0.69538600  0.69538600  0.00000000  1
  Li  Li18  1  0.30461400  0.30461400  0.00000000  1
  Li  Li19  1  0.05461400  0.55461400  0.50000000  1
  Li  Li20  1  0.30539900  0.80539900  0.50000000  1
  Li  Li21  1  0.55539900  0.55539900  0.00000000  1
  Li  Li22  1  0.44460100  0.44460100  0.00000000  1
  Li  Li23  1  0.19460100  0.69460100  0.50000000  1
  Li  Li24  1  0.95648400  0.45639300  0.02172600  1
  Li  Li25  1  0.43466700  0.93475800  0.97827400  1
  Li  Li26  1  0.68475800  0.20648400  0.00009100  1
  Li  Li27  1  0.20639300  0.68466700  0.99990900  1
  Li  Li28  1  0.79351600  0.79360700  0.47827400  1
  Li  Li29  1  0.31533300  0.31524200  0.52172600  1
  Li  Li30  1  0.06524200  0.04351600  0.49990900  1
  Li  Li31  1  0.54360700  0.56533300  0.50009100  1
  H  H32  1  0.69918400  0.46405700  0.63741100  1
  H  H33  1  0.82664600  0.06177300  0.36258900  1
  H  H34  1  0.81177300  0.94918400  0.73512600  1
  H  H35  1  0.21405700  0.07664600  0.26487400  1
  H  H36  1  0.05081600  0.78594300  0.86258900  1
  H  H37  1  0.92335400  0.18822700  0.13741100  1
  H  H38  1  0.93822700  0.30081600  0.76487400  1
  H  H39  1  0.53594300  0.17335400  0.23512600  1
  H  H40  1  0.90150800  0.50885300  0.84546200  1
  H  H41  1  0.66339100  0.05604500  0.15453800  1
  H  H42  1  0.80604500  0.15150800  0.89265400  1
  H  H43  1  0.25885300  0.91339100  0.10734600  1
  H  H44  1  0.84849200  0.74114700  0.65453800  1
  H  H45  1  0.08660900  0.19395500  0.34546200  1
  H  H46  1  0.94395500  0.09849200  0.60734600  1
  H  H47  1  0.49114700  0.33660900  0.39265400  1
  H  H48  1  0.57012500  0.41956800  0.78781000  1
  H  H49  1  0.63175800  0.78231600  0.21219000  1
  H  H50  1  0.53231600  0.82012500  0.65055800  1
  H  H51  1  0.16956800  0.88175800  0.34944200  1
  H  H52  1  0.17987500  0.83043200  0.71219000  1
  H  H53  1  0.11824200  0.46768400  0.28781000  1
  H  H54  1  0.21768400  0.42987500  0.84944200  1
  H  H55  1  0.58043200  0.36824200  0.15055800  1
  H  H56  1  0.71468600  0.33555400  0.89032300  1
  H  H57  1  0.44523100  0.82436300  0.10967700  1
  H  H58  1  0.57436300  0.96468600  0.87913200  1
  H  H59  1  0.08555400  0.69523100  0.12086800  1
  H  H60  1  0.03531400  0.91444600  0.60967700  1
  H  H61  1  0.30476900  0.42563700  0.39032300  1
  H  H62  1  0.17563700  0.28531400  0.62086800  1
  H  H63  1  0.66444600  0.55476900  0.37913200  1
  H  H64  1  0.39356400  0.00008500  0.84149700  1
  H  H65  1  0.15858800  0.55206600  0.15850300  1
  H  H66  1  0.30206600  0.64356400  0.89347900  1
  H  H67  1  0.75008500  0.40858800  0.10652100  1
  H  H68  1  0.35643600  0.24991500  0.65850300  1
  H  H69  1  0.59141200  0.69793400  0.34149700  1
  H  H70  1  0.44793400  0.60643600  0.60652100  1
  H  H71  1  0.99991500  0.84141200  0.39347900  1
  H  H72  1  0.18138400  0.96314900  0.62425900  1
  H  H73  1  0.33889000  0.55712500  0.37574100  1
  H  H74  1  0.30712500  0.43138400  0.71823500  1
  H  H75  1  0.71314900  0.58889000  0.28176500  1
  H  H76  1  0.56861600  0.28685100  0.87574100  1
  H  H77  1  0.41111000  0.69287500  0.12425900  1
  H  H78  1  0.44287500  0.81861600  0.78176500  1
  H  H79  1  0.03685100  0.66111000  0.21823500  1
  H  H80  1  0.13340100  0.77654700  0.71334600  1
  H  H81  1  0.06320100  0.42005500  0.28665400  1
  H  H82  1  0.17005500  0.38340100  0.85685400  1
  H  H83  1  0.52654700  0.31320100  0.14314600  1
  H  H84  1  0.61659900  0.47345300  0.78665400  1
  H  H85  1  0.68679900  0.82994500  0.21334600  1
  H  H86  1  0.57994500  0.86659900  0.64314600  1
  H  H87  1  0.22345300  0.93679900  0.35685400  1
  H  H88  1  0.95759200  0.89803600  0.67641700  1
  H  H89  1  0.22162000  0.28117500  0.32358300  1
  H  H90  1  0.03117500  0.20759200  0.55955500  1
  H  H91  1  0.64803600  0.47162000  0.44044500  1
  H  H92  1  0.79240800  0.35196400  0.82358300  1
  H  H93  1  0.52838000  0.96882500  0.17641700  1
  H  H94  1  0.71882500  0.04240800  0.94044500  1
  H  H95  1  0.10196400  0.77838000  0.05955500  1
  N  N96  1  0.76463700  0.54360200  0.74412300  1
  N  N97  1  0.79947900  0.02051500  0.25587700  1
  N  N98  1  0.77051500  0.01463700  0.72103600  1
  N  N99  1  0.29360200  0.04947900  0.27896400  1
  N  N100  1  0.98536300  0.70639800  0.75587700  1
  N  N101  1  0.95052100  0.22948500  0.24412300  1
  N  N102  1  0.97948500  0.23536300  0.77896400  1
  N  N103  1  0.45639800  0.20052100  0.22103600  1
  N  N104  1  0.57462800  0.33274900  0.74477000  1
  N  N105  1  0.58797800  0.82985700  0.25523000  1
  N  N106  1  0.57985700  0.82462800  0.74187900  1
  N  N107  1  0.08274900  0.83797800  0.25812100  1
  N  N108  1  0.17537200  0.91725100  0.75523000  1
  N  N109  1  0.16202200  0.42014300  0.24477000  1
  N  N110  1  0.17014300  0.42537200  0.75812100  1
  N  N111  1  0.66725100  0.41202200  0.24187900  1
  N  N112  1  0.26090200  0.03990800  0.74419900  1
  N  N113  1  0.29570900  0.51670300  0.25580100  1
  N  N114  1  0.26670300  0.51090200  0.72099400  1
  N  N115  1  0.78990800  0.54570900  0.27900600  1
  N  N116  1  0.48909800  0.21009200  0.75580100  1
  N  N117  1  0.45429100  0.73329700  0.24419900  1
  N  N118  1  0.48329700  0.73909800  0.77900600  1
  N  N119  1  0.96009200  0.70429100  0.22099400  1
  N  N120  1  0.06682000  0.83435200  0.73958900  1
  N  N121  1  0.09476300  0.32723100  0.26041100  1
  N  N122  1  0.07723100  0.31682000  0.73246800  1
  N  N123  1  0.58435200  0.34476300  0.26753200  1
  N  N124  1  0.68318000  0.41564800  0.76041100  1
  N  N125  1  0.65523700  0.92276900  0.23958900  1
  N  N126  1  0.67276900  0.93318000  0.76753200  1
  N  N127  1  0.16564800  0.90523700  0.23246800  1
