# generated using pymatgen
data_Li3Mn(PO4)2
_symmetry_space_group_name_H-M   'P 1'
_cell_length_a   8.08794100
_cell_length_b   8.47310535
_cell_length_c   10.41390328
_cell_angle_alpha   90.04006806
_cell_angle_beta   90.01954259
_cell_angle_gamma   107.44543523
_symmetry_Int_Tables_number   1
_chemical_formula_structural   Li3Mn(PO4)2
_chemical_formula_sum   'Li12 Mn4 P8 O32'
_cell_volume   680.83775790
_cell_formula_units_Z   4
loop_
 _symmetry_equiv_pos_site_id
 _symmetry_equiv_pos_as_xyz
  1  'x, y, z'
loop_
 _atom_site_type_symbol
 _atom_site_label
 _atom_site_symmetry_multiplicity
 _atom_site_fract_x
 _atom_site_fract_y
 _atom_site_fract_z
 _atom_site_occupancy
  Li  Li0  1  0.63686200  0.12836000  0.14325000  1
  Li  Li1  1  0.46961200  0.22946700  0.43971200  1
  Li  Li2  1  0.82363700  0.35306300  0.83489000  1
  Li  Li3  1  0.51497600  0.26738800  0.92861200  1
  Li  Li4  1  0.38572600  0.39497300  0.17111700  1
  Li  Li5  1  0.38525200  0.39324700  0.66621800  1
  Li  Li6  1  0.64257800  0.64214500  0.35445500  1
  Li  Li7  1  0.81431600  0.84687300  0.66813500  1
  Li  Li8  1  0.18696800  0.65435200  0.15353400  1
  Li  Li9  1  0.51189600  0.77576600  0.58273600  1
  Li  Li10  1  0.35275100  0.83374000  0.85318600  1
  Li  Li11  1  0.39233700  0.90122000  0.33242600  1
  Mn  Mn12  1  0.89158500  0.35335100  0.33586500  1
  Mn  Mn13  1  0.11488600  0.13355900  0.84147100  1
  Mn  Mn14  1  0.10738000  0.63342700  0.65760500  1
  Mn  Mn15  1  0.88137900  0.85838000  0.15476300  1
  P  P16  1  0.78729200  0.04465100  0.41920600  1
  P  P17  1  0.27111000  0.02194200  0.08862800  1
  P  P18  1  0.71643100  0.48136100  0.58293700  1
  P  P19  1  0.79374900  0.54284800  0.08488300  1
  P  P20  1  0.21079500  0.44744300  0.91725600  1
  P  P21  1  0.28892600  0.52389300  0.41107100  1
  P  P22  1  0.71397900  0.98194300  0.90196900  1
  P  P23  1  0.21202400  0.94943700  0.58628400  1
  O  O24  1  0.67647400  0.14258900  0.34105900  1
  O  O25  1  0.95768400  0.19266300  0.43753200  1
  O  O26  1  0.66521200  0.13986700  0.87451700  1
  O  O27  1  0.09630800  0.03317900  0.14697300  1
  O  O28  1  0.20081300  0.09346500  0.67039700  1
  O  O29  1  0.41321000  0.19105400  0.10736400  1
  O  O30  1  0.57470300  0.31768700  0.60719300  1
  O  O31  1  0.81170000  0.39603000  0.16697300  1
  O  O32  1  0.87992200  0.47883600  0.66860000  1
  O  O33  1  0.32174300  0.34350900  0.85018000  1
  O  O34  1  0.71540800  0.47644900  0.95713000  1
  O  O35  1  0.77196700  0.49752000  0.43932500  1
  O  O36  1  0.02975500  0.30935800  0.91518900  1
  O  O37  1  0.37890600  0.40079100  0.35946400  1
  O  O38  1  0.68928000  0.64144600  0.16355100  1
  O  O39  1  0.97249300  0.68403600  0.07617500  1
  O  O40  1  0.65211400  0.62801500  0.62047900  1
  O  O41  1  0.23788000  0.49372000  0.55559000  1
  O  O42  1  0.27373800  0.50519000  0.05020800  1
  O  O43  1  0.12354300  0.51656000  0.32705800  1
  O  O44  1  0.20058500  0.59139100  0.83030400  1
  O  O45  1  0.41679000  0.70062600  0.39722600  1
  O  O46  1  0.58384800  0.82584700  0.85064000  1
  O  O47  1  0.81010500  0.90591800  0.33099500  1
  O  O48  1  0.89006100  0.98168300  0.82925800  1
  O  O49  1  0.31048700  0.83676800  0.65837100  1
  O  O50  1  0.70640600  0.97170300  0.54440600  1
  O  O51  1  0.74661800  0.97951000  0.04999700  1
  O  O52  1  0.02900200  0.81205400  0.57975100  1
  O  O53  1  0.33099400  0.88608000  0.15413200  1
  O  O54  1  0.29407300  0.00951000  0.45816900  1
  O  O55  1  0.24548600  0.99107600  0.94060000  1
