# generated using pymatgen
data_Li8TiMn7(PO4)12
_symmetry_space_group_name_H-M   'P 1'
_cell_length_a   8.56324600
_cell_length_b   8.83247236
_cell_length_c   11.98747190
_cell_angle_alpha   89.93538387
_cell_angle_beta   89.88801300
_cell_angle_gamma   88.61125519
_symmetry_Int_Tables_number   1
_chemical_formula_structural   Li8TiMn7(PO4)12
_chemical_formula_sum   'Li8 Ti1 Mn7 P12 O48'
_cell_volume   906.39946883
_cell_formula_units_Z   1
loop_
 _symmetry_equiv_pos_site_id
 _symmetry_equiv_pos_as_xyz
  1  'x, y, z'
loop_
 _atom_site_type_symbol
 _atom_site_label
 _atom_site_symmetry_multiplicity
 _atom_site_fract_x
 _atom_site_fract_y
 _atom_site_fract_z
 _atom_site_occupancy
  Li  Li0  1  0.21469900  0.27658300  0.81955400  1
  Li  Li1  1  0.21628100  0.22073000  0.18159500  1
  Li  Li2  1  0.28258000  0.78002100  0.68075800  1
  Li  Li3  1  0.28421200  0.72485900  0.31729400  1
  Li  Li4  1  0.71578600  0.27582500  0.68180700  1
  Li  Li5  1  0.71681800  0.22119600  0.31785500  1
  Li  Li6  1  0.78287500  0.77906500  0.81919400  1
  Li  Li7  1  0.78409400  0.72359300  0.17965300  1
  Ti  Ti8  1  0.75361400  0.53785500  0.38733000  1
  Mn  Mn9  1  0.25004400  0.03574700  0.38621500  1
  Mn  Mn10  1  0.24806300  0.46194800  0.61355800  1
  Mn  Mn11  1  0.25153600  0.96400900  0.88530700  1
  Mn  Mn12  1  0.25188700  0.53703300  0.11226300  1
  Mn  Mn13  1  0.74816600  0.46199700  0.88641300  1
  Mn  Mn14  1  0.74939200  0.03501500  0.11337600  1
  Mn  Mn15  1  0.75112200  0.96465700  0.61457200  1
  P  P16  1  0.03681900  0.74862700  0.50051700  1
  P  P17  1  0.46478700  0.25206500  0.99972300  1
  P  P18  1  0.53424800  0.74627200  0.00069000  1
  P  P19  1  0.96709100  0.25085800  0.49985700  1
  P  P20  1  0.10623500  0.60615300  0.85148800  1
  P  P21  1  0.10535900  0.89435000  0.14348900  1
  P  P22  1  0.39281500  0.39428700  0.35173200  1
  P  P23  1  0.39596500  0.10518600  0.64769300  1
  P  P24  1  0.60522300  0.89708300  0.35460000  1
  P  P25  1  0.60412200  0.60599900  0.65016200  1
  P  P26  1  0.89483200  0.39560800  0.14580600  1
  P  P27  1  0.89516700  0.10468200  0.85314100  1
  O  O28  1  0.06000200  0.35711200  0.57571900  1
  O  O29  1  0.06101100  0.14369700  0.42404300  1
  O  O30  1  0.07579600  0.10366000  0.84141600  1
  O  O31  1  0.07610500  0.39888100  0.15579300  1
  O  O32  1  0.14077000  0.82906200  0.41744500  1
  O  O33  1  0.14320400  0.65772200  0.58434500  1
  O  O34  1  0.15559200  0.56114500  0.97070400  1
  O  O35  1  0.15307900  0.93365400  0.02495400  1
  O  O36  1  0.15771000  0.76385800  0.81784100  1
  O  O37  1  0.16010900  0.73063000  0.17710100  1
  O  O38  1  0.18012200  0.48222300  0.77311000  1
  O  O39  1  0.17525100  0.01261900  0.22259900  1
  O  O40  1  0.32587400  0.98635800  0.72845700  1
  O  O41  1  0.32024100  0.51868700  0.27310100  1
  O  O42  1  0.34212000  0.23716000  0.31748800  1
  O  O43  1  0.34125600  0.26889600  0.68040600  1
  O  O44  1  0.34366200  0.43820700  0.47146500  1
  O  O45  1  0.34522600  0.06113900  0.53149600  1
  O  O46  1  0.35747100  0.16825600  0.91965700  1
  O  O47  1  0.35622500  0.34179900  0.08381700  1
  O  O48  1  0.42418800  0.89787700  0.34342600  1
  O  O49  1  0.42347400  0.60344500  0.65746800  1
  O  O50  1  0.44131200  0.85508400  0.92550200  1
  O  O51  1  0.43988000  0.63971600  0.07595600  1
  O  O52  1  0.55807000  0.35803200  0.92369100  1
  O  O53  1  0.55900200  0.14365000  0.07467300  1
  O  O54  1  0.57416400  0.40216700  0.34473000  1
  O  O55  1  0.57688600  0.10386200  0.65944700  1
  O  O56  1  0.64212400  0.65725100  0.91576600  1
  O  O57  1  0.64005300  0.82902500  0.08194000  1
  O  O58  1  0.65380300  0.93897600  0.47226000  1
  O  O59  1  0.65786500  0.56339100  0.52992400  1
  O  O60  1  0.65677800  0.76342500  0.68239500  1
  O  O61  1  0.66052600  0.73271300  0.32425100  1
  O  O62  1  0.67806600  0.48156500  0.72723100  1
  O  O63  1  0.67676200  0.01414000  0.27411500  1
  O  O64  1  0.82488700  0.98572700  0.77321600  1
  O  O65  1  0.82379400  0.51820000  0.22635400  1
  O  O66  1  0.83994200  0.26798800  0.82018100  1
  O  O67  1  0.84333800  0.23852200  0.18113100  1
  O  O68  1  0.84506200  0.43843600  0.02657400  1
  O  O69  1  0.84500200  0.06174200  0.97036300  1
  O  O70  1  0.85735000  0.34449500  0.41855800  1
  O  O71  1  0.85800600  0.16900100  0.57972300  1
  O  O72  1  0.92397500  0.89471100  0.15488400  1
  O  O73  1  0.92517900  0.60326900  0.84199100  1
  O  O74  1  0.94239000  0.85772300  0.57466400  1
  O  O75  1  0.93346500  0.63980000  0.43298800  1
