# generated using pymatgen
data_Li3Cr(CO3)3
_symmetry_space_group_name_H-M   'P 1'
_cell_length_a   6.01075608
_cell_length_b   6.01075608
_cell_length_c   9.48975600
_cell_angle_alpha   90.00000000
_cell_angle_beta   90.00000000
_cell_angle_gamma   107.74516988
_symmetry_Int_Tables_number   1
_chemical_formula_structural   Li3Cr(CO3)3
_chemical_formula_sum   'Li6 Cr2 C6 O18'
_cell_volume   326.54455366
_cell_formula_units_Z   2
loop_
 _symmetry_equiv_pos_site_id
 _symmetry_equiv_pos_as_xyz
  1  'x, y, z'
loop_
 _atom_site_type_symbol
 _atom_site_label
 _atom_site_symmetry_multiplicity
 _atom_site_fract_x
 _atom_site_fract_y
 _atom_site_fract_z
 _atom_site_occupancy
  Li  Li0  1  0.05064800  0.05064800  0.00000000  1
  Li  Li1  1  0.36480900  0.39500300  0.25000000  1
  Li  Li2  1  0.19762700  0.82750000  0.25000000  1
  Li  Li3  1  0.05064800  0.05064800  0.50000000  1
  Li  Li4  1  0.82750000  0.19762700  0.75000000  1
  Li  Li5  1  0.39500300  0.36480900  0.75000000  1
  Cr  Cr6  1  0.81028700  0.28115600  0.25000000  1
  Cr  Cr7  1  0.28115600  0.81028700  0.75000000  1
  C  C8  1  0.55912900  0.12570700  0.98360700  1
  C  C9  1  0.70293600  0.76885900  0.25000000  1
  C  C10  1  0.55912900  0.12570700  0.51639300  1
  C  C11  1  0.12570700  0.55912900  0.48360700  1
  C  C12  1  0.76885900  0.70293600  0.75000000  1
  C  C13  1  0.12570700  0.55912900  0.01639300  1
  O  O14  1  0.74847300  0.09717700  0.94385000  1
  O  O15  1  0.53284700  0.19451000  0.11206200  1
  O  O16  1  0.09026400  0.37735900  0.10274800  1
  O  O17  1  0.77822700  0.59098300  0.25000000  1
  O  O18  1  0.86779000  0.97438500  0.25000000  1
  O  O19  1  0.48620900  0.74431900  0.25000000  1
  O  O20  1  0.09026400  0.37735900  0.39725200  1
  O  O21  1  0.53284700  0.19451000  0.38793800  1
  O  O22  1  0.74847300  0.09717700  0.55615000  1
  O  O23  1  0.09717700  0.74847300  0.44385000  1
  O  O24  1  0.19451000  0.53284700  0.61206200  1
  O  O25  1  0.37735900  0.09026400  0.60274800  1
  O  O26  1  0.74431900  0.48620900  0.75000000  1
  O  O27  1  0.59098300  0.77822700  0.75000000  1
  O  O28  1  0.97438500  0.86779000  0.75000000  1
  O  O29  1  0.37735900  0.09026400  0.89725200  1
  O  O30  1  0.19451000  0.53284700  0.88793800  1
  O  O31  1  0.09717700  0.74847300  0.05615000  1
