# generated using pymatgen
data_LiMnF3
_symmetry_space_group_name_H-M   'P 1'
_cell_length_a   5.37667100
_cell_length_b   7.32303100
_cell_length_c   11.20508300
_cell_angle_alpha   90.00000000
_cell_angle_beta   90.00000000
_cell_angle_gamma   90.00000000
_symmetry_Int_Tables_number   1
_chemical_formula_structural   LiMnF3
_chemical_formula_sum   'Li8 Mn8 F24'
_cell_volume   441.18365383
_cell_formula_units_Z   8
loop_
 _symmetry_equiv_pos_site_id
 _symmetry_equiv_pos_as_xyz
  1  'x, y, z'
loop_
 _atom_site_type_symbol
 _atom_site_label
 _atom_site_symmetry_multiplicity
 _atom_site_fract_x
 _atom_site_fract_y
 _atom_site_fract_z
 _atom_site_occupancy
  Li  Li0  1  0.13591300  0.50718300  0.11732600  1
  Li  Li1  1  0.13591300  0.99281700  0.11732600  1
  Li  Li2  1  0.63591300  0.00718300  0.38267400  1
  Li  Li3  1  0.63591300  0.49281700  0.38267400  1
  Li  Li4  1  0.36408700  0.50718300  0.61732600  1
  Li  Li5  1  0.36408700  0.99281700  0.61732600  1
  Li  Li6  1  0.86408700  0.00718300  0.88267400  1
  Li  Li7  1  0.86408700  0.49281700  0.88267400  1
  Mn  Mn8  1  0.67198300  0.75000000  0.17349200  1
  Mn  Mn9  1  0.64709700  0.25000000  0.10026600  1
  Mn  Mn10  1  0.14709700  0.75000000  0.39973400  1
  Mn  Mn11  1  0.17198300  0.25000000  0.32650800  1
  Mn  Mn12  1  0.82801700  0.75000000  0.67349200  1
  Mn  Mn13  1  0.85290300  0.25000000  0.60026600  1
  Mn  Mn14  1  0.35290300  0.75000000  0.89973400  1
  Mn  Mn15  1  0.32801700  0.25000000  0.82650800  1
  F  F16  1  0.77052300  0.54413700  0.04966800  1
  F  F17  1  0.77052300  0.95586300  0.04966800  1
  F  F18  1  0.30234100  0.75000000  0.09038900  1
  F  F19  1  0.02090000  0.25000000  0.15215800  1
  F  F20  1  0.44706700  0.42748600  0.22013400  1
  F  F21  1  0.44706700  0.07251400  0.22013400  1
  F  F22  1  0.94706700  0.92748600  0.27986600  1
  F  F23  1  0.94706700  0.57251400  0.27986600  1
  F  F24  1  0.52090000  0.75000000  0.34784200  1
  F  F25  1  0.80234100  0.25000000  0.40961100  1
  F  F26  1  0.27052300  0.04413700  0.45033200  1
  F  F27  1  0.27052300  0.45586300  0.45033200  1
  F  F28  1  0.72947700  0.54413700  0.54966800  1
  F  F29  1  0.72947700  0.95586300  0.54966800  1
  F  F30  1  0.19765900  0.75000000  0.59038900  1
  F  F31  1  0.47910000  0.25000000  0.65215800  1
  F  F32  1  0.05293300  0.07251400  0.72013400  1
  F  F33  1  0.05293300  0.42748600  0.72013400  1
  F  F34  1  0.55293300  0.57251400  0.77986600  1
  F  F35  1  0.55293300  0.92748600  0.77986600  1
  F  F36  1  0.97910000  0.75000000  0.84784200  1
  F  F37  1  0.69765900  0.25000000  0.90961100  1
  F  F38  1  0.22947700  0.04413700  0.95033200  1
  F  F39  1  0.22947700  0.45586300  0.95033200  1
