# generated using pymatgen
data_Li4Fe(PO4)2
_symmetry_space_group_name_H-M   'P 1'
_cell_length_a   6.61016555
_cell_length_b   7.64585885
_cell_length_c   7.79749881
_cell_angle_alpha   60.06051325
_cell_angle_beta   110.45294236
_cell_angle_gamma   107.24613744
_symmetry_Int_Tables_number   1
_chemical_formula_structural   Li4Fe(PO4)2
_chemical_formula_sum   'Li8 Fe2 P4 O16'
_cell_volume   316.33299832
_cell_formula_units_Z   2
loop_
 _symmetry_equiv_pos_site_id
 _symmetry_equiv_pos_as_xyz
  1  'x, y, z'
loop_
 _atom_site_type_symbol
 _atom_site_label
 _atom_site_symmetry_multiplicity
 _atom_site_fract_x
 _atom_site_fract_y
 _atom_site_fract_z
 _atom_site_occupancy
  Li  Li0  1  0.03248700  0.19223700  0.32668500  1
  Li  Li1  1  0.53249800  0.69243200  0.82660800  1
  Li  Li2  1  0.46755100  0.30774500  0.17336400  1
  Li  Li3  1  0.96753100  0.80756100  0.67338300  1
  Li  Li4  1  0.62642700  0.96187000  0.23808700  1
  Li  Li5  1  0.12671400  0.46177800  0.73805500  1
  Li  Li6  1  0.87365000  0.53811700  0.26196100  1
  Li  Li7  1  0.37335600  0.03820600  0.76193100  1
  Fe  Fe8  1  0.50000400  0.49998400  0.50006000  1
  Fe  Fe9  1  0.99986100  0.99997100  0.99995700  1
  P  P10  1  0.77064300  0.13671300  0.59295800  1
  P  P11  1  0.27057500  0.63668500  0.09295900  1
  P  P12  1  0.72939700  0.36332100  0.90702400  1
  P  P13  1  0.22937700  0.86331500  0.40703500  1
  O  O14  1  0.00267800  0.22130100  0.69067500  1
  O  O15  1  0.50265700  0.72124500  0.19071900  1
  O  O16  1  0.49728200  0.27890000  0.80925400  1
  O  O17  1  0.99733100  0.77857700  0.30933300  1
  O  O18  1  0.79247500  0.03701300  0.47084600  1
  O  O19  1  0.29249200  0.53715900  0.97076300  1
  O  O20  1  0.70754000  0.46297200  0.02911300  1
  O  O21  1  0.20751900  0.96290400  0.52925800  1
  O  O22  1  0.86481100  0.18363100  0.05688800  1
  O  O23  1  0.36504800  0.68370400  0.55698100  1
  O  O24  1  0.63515200  0.31638600  0.44296700  1
  O  O25  1  0.13492300  0.81626500  0.94316000  1
  O  O26  1  0.17013800  0.47250200  0.27666600  1
  O  O27  1  0.67009200  0.97267400  0.77669500  1
  O  O28  1  0.32983800  0.02752800  0.22320600  1
  O  O29  1  0.82995500  0.52730300  0.72341200  1
