# generated using pymatgen
data_Li4V7(PO4)6
_symmetry_space_group_name_H-M   'P 1'
_cell_length_a   8.91268503
_cell_length_b   8.91268503
_cell_length_c   6.70780170
_cell_angle_alpha   79.96582669
_cell_angle_beta   79.96582669
_cell_angle_gamma   105.82994495
_symmetry_Int_Tables_number   1
_chemical_formula_structural   Li4V7(PO4)6
_chemical_formula_sum   'Li4 V7 P6 O24'
_cell_volume   490.76647948
_cell_formula_units_Z   1
loop_
 _symmetry_equiv_pos_site_id
 _symmetry_equiv_pos_as_xyz
  1  'x, y, z'
loop_
 _atom_site_type_symbol
 _atom_site_label
 _atom_site_symmetry_multiplicity
 _atom_site_fract_x
 _atom_site_fract_y
 _atom_site_fract_z
 _atom_site_occupancy
  Li  Li0  1  0.99595800  0.99595800  0.49175000  1
  Li  Li1  1  0.63068100  0.63068100  0.58846000  1
  Li  Li2  1  0.32647400  0.54693900  0.49014600  1
  Li  Li3  1  0.54693900  0.32647400  0.49014600  1
  V  V4  1  0.35692000  0.99277000  0.19388500  1
  V  V5  1  0.99277000  0.35692000  0.19388500  1
  V  V6  1  0.99630800  0.99630800  0.99758300  1
  V  V7  1  0.67336500  0.31661000  0.00492300  1
  V  V8  1  0.31661000  0.67336500  0.00492300  1
  V  V9  1  0.63746800  0.99802300  0.81415000  1
  V  V10  1  0.99802300  0.63746800  0.81415000  1
  P  P11  1  0.27963600  0.90760400  0.69804000  1
  P  P12  1  0.90760400  0.27963600  0.69804000  1
  P  P13  1  0.66386900  0.66386900  0.08899400  1
  P  P14  1  0.32516500  0.32516500  0.91671700  1
  P  P15  1  0.71642700  0.07841500  0.30846600  1
  P  P16  1  0.07841500  0.71642700  0.30846600  1
  O  O17  1  0.94993200  0.64717400  0.51118200  1
  O  O18  1  0.64717400  0.94993200  0.51118200  1
  O  O19  1  0.94052300  0.36967300  0.87773500  1
  O  O20  1  0.36967300  0.94052300  0.87773500  1
  O  O21  1  0.79332500  0.79332500  0.13785200  1
  O  O22  1  0.56931200  0.74338600  0.94480300  1
  O  O23  1  0.74338600  0.56931200  0.94480300  1
  O  O24  1  0.89607600  0.09677600  0.75503500  1
  O  O25  1  0.09677600  0.89607600  0.75503500  1
  O  O26  1  0.26893800  0.72713700  0.69961500  1
  O  O27  1  0.72713700  0.26893800  0.69961500  1
  O  O28  1  0.55039700  0.55039700  0.29285000  1
  O  O29  1  0.43989300  0.43989300  0.71201200  1
  O  O30  1  0.71796900  0.25585800  0.31453100  1
  O  O31  1  0.25585800  0.71796900  0.31453100  1
  O  O32  1  0.90092000  0.09942800  0.24069000  1
  O  O33  1  0.09942800  0.90092000  0.24069000  1
  O  O34  1  0.19729000  0.19729000  0.86484400  1
  O  O35  1  0.62343200  0.04556500  0.13217600  1
  O  O36  1  0.04556500  0.62343200  0.13217600  1
  O  O37  1  0.24475700  0.42267600  0.05258100  1
  O  O38  1  0.42267600  0.24475700  0.05258100  1
  O  O39  1  0.36311700  0.03488500  0.49691500  1
  O  O40  1  0.03488500  0.36311700  0.49691500  1
