# generated using pymatgen
data_Li3Mn4(BO3)4
_symmetry_space_group_name_H-M   'P 1'
_cell_length_a   5.29649500
_cell_length_b   10.32782969
_cell_length_c   13.95326477
_cell_angle_alpha   91.04399326
_cell_angle_beta   100.25190949
_cell_angle_gamma   91.58883963
_symmetry_Int_Tables_number   1
_chemical_formula_structural   Li3Mn4(BO3)4
_chemical_formula_sum   'Li9 Mn12 B12 O36'
_cell_volume   750.57924615
_cell_formula_units_Z   3
loop_
 _symmetry_equiv_pos_site_id
 _symmetry_equiv_pos_as_xyz
  1  'x, y, z'
loop_
 _atom_site_type_symbol
 _atom_site_label
 _atom_site_symmetry_multiplicity
 _atom_site_fract_x
 _atom_site_fract_y
 _atom_site_fract_z
 _atom_site_occupancy
  Li  Li0  1  0.78399800  0.16738700  0.38119000  1
  Li  Li1  1  0.75541600  0.65749100  0.38933200  1
  Li  Li2  1  0.89746900  0.90450300  0.94599600  1
  Li  Li3  1  0.55519400  0.39683200  0.27843100  1
  Li  Li4  1  0.46126100  0.17595800  0.71511900  1
  Li  Li5  1  0.13426300  0.15998000  0.04885700  1
  Li  Li6  1  0.40854200  0.65496700  0.72340700  1
  Li  Li7  1  0.08043900  0.67265300  0.05836600  1
  Li  Li8  1  0.22321400  0.89589000  0.61145600  1
  Mn  Mn9  1  0.00195100  0.38663600  0.15096200  1
  Mn  Mn10  1  0.90294700  0.13152000  0.60848600  1
  Mn  Mn11  1  0.97555700  0.62419900  0.83622700  1
  Mn  Mn12  1  0.65575200  0.63290500  0.16830900  1
  Mn  Mn13  1  0.65576400  0.37892000  0.50879400  1
  Mn  Mn14  1  0.77741400  0.88152100  0.72824300  1
  Mn  Mn15  1  0.45124800  0.88419300  0.06141500  1
  Mn  Mn16  1  0.57689300  0.13361700  0.94060100  1
  Mn  Mn17  1  0.20758000  0.13164300  0.26897300  1
  Mn  Mn18  1  0.30724600  0.62526600  0.49881400  1
  Mn  Mn19  1  0.33868500  0.38271800  0.84574300  1
  Mn  Mn20  1  0.11823600  0.87682100  0.38711000  1
  B  B21  1  0.98516000  0.88570400  0.16565000  1
  B  B22  1  0.66377600  0.13237500  0.16504100  1
  B  B23  1  0.86990900  0.62340500  0.61596500  1
  B  B24  1  0.79373600  0.37514500  0.71991200  1
  B  B25  1  0.46101400  0.37211500  0.05182500  1
  B  B26  1  0.67160100  0.86812500  0.50646200  1
  B  B27  1  0.33972200  0.13157300  0.49817600  1
  B  B28  1  0.21963100  0.61911300  0.27734400  1
  B  B29  1  0.54100800  0.63011600  0.95054500  1
  B  B30  1  0.11229100  0.36957500  0.38003800  1
  B  B31  1  0.32714800  0.87254500  0.83585500  1
  B  B32  1  0.01314500  0.13014700  0.83531600  1
  O  O33  1  0.91888200  0.16309500  0.15546100  1
  O  O34  1  0.85670100  0.36297600  0.38538800  1
  O  O35  1  0.74504100  0.83779300  0.17410700  1
  O  O36  1  0.98447000  0.42719400  0.79318100  1
  O  O37  1  0.87269000  0.33706400  0.63223900  1
  O  O38  1  0.61616800  0.42001100  0.13734900  1
  O  O39  1  0.77004000  0.83920400  0.42583100  1
  O  O40  1  0.83081200  0.92613500  0.58844200  1
  O  O41  1  0.95458600  0.10286600  0.92478100  1
  O  O42  1  0.58412400  0.14522400  0.25262100  1
  O  O43  1  0.83666800  0.09823000  0.75139000  1
  O  O44  1  0.49460700  0.09216000  0.08087500  1
  O  O45  1  0.70316300  0.57019300  0.53127700  1
  O  O46  1  0.75932500  0.66222500  0.69479700  1
  O  O47  1  0.42700500  0.66892400  0.02859500  1
  O  O48  1  0.58514100  0.18347400  0.48880100  1
  O  O49  1  0.47827300  0.59680600  0.28762100  1
  O  O50  1  0.79777900  0.64307200  0.95374600  1
  O  O51  1  0.54762000  0.36078400  0.73248100  1
  O  O52  1  0.20662900  0.34714200  0.04658900  1
  O  O53  1  0.41320900  0.83731400  0.51027800  1
  O  O54  1  0.57417000  0.34486500  0.96970800  1
  O  O55  1  0.29513600  0.42132200  0.45509200  1
  O  O56  1  0.20311000  0.32517900  0.29520000  1
  O  O57  1  0.50124100  0.92067200  0.91642500  1
  O  O58  1  0.07424800  0.87197500  0.07947300  1
  O  O59  1  0.39927900  0.85911000  0.74623100  1
  O  O60  1  0.28203700  0.11097600  0.58847500  1
  O  O61  1  0.14008300  0.94461000  0.24873000  1
  O  O62  1  0.16229400  0.09898700  0.41348200  1
  O  O63  1  0.37935400  0.57886100  0.86483200  1
  O  O64  1  0.05736300  0.59182700  0.18761800  1
  O  O65  1  0.11186200  0.66542700  0.35483600  1
  O  O66  1  0.25739200  0.18505300  0.82733700  1
  O  O67  1  0.12446500  0.63941200  0.61576900  1
  O  O68  1  0.07635100  0.83526100  0.84531700  1
