# generated using pymatgen
data_Na3Li3Fe2P2(CO7)2
_symmetry_space_group_name_H-M   'P 1'
_cell_length_a   6.71274900
_cell_length_b   8.72233426
_cell_length_c   10.17081485
_cell_angle_alpha   92.39637928
_cell_angle_beta   90.58074093
_cell_angle_gamma   90.08347708
_symmetry_Int_Tables_number   1
_chemical_formula_structural   Na3Li3Fe2P2(CO7)2
_chemical_formula_sum   'Na6 Li6 Fe4 P4 C4 O28'
_cell_volume   594.95735289
_cell_formula_units_Z   2
loop_
 _symmetry_equiv_pos_site_id
 _symmetry_equiv_pos_as_xyz
  1  'x, y, z'
loop_
 _atom_site_type_symbol
 _atom_site_label
 _atom_site_symmetry_multiplicity
 _atom_site_fract_x
 _atom_site_fract_y
 _atom_site_fract_z
 _atom_site_occupancy
  Na  Na0  1  0.25720100  0.08640300  0.12120400  1
  Na  Na1  1  0.99761300  0.25939900  0.37099100  1
  Na  Na2  1  0.00061700  0.25732300  0.87682400  1
  Na  Na3  1  0.50129500  0.25559300  0.87184200  1
  Na  Na4  1  0.49985000  0.74573100  0.12377700  1
  Na  Na5  1  0.50212800  0.73972500  0.62764600  1
  Li  Li6  1  0.24017500  0.09284800  0.61839500  1
  Li  Li7  1  0.46409500  0.28953900  0.38852200  1
  Li  Li8  1  0.97290100  0.72014700  0.11711000  1
  Li  Li9  1  0.98320100  0.72314700  0.62482700  1
  Li  Li10  1  0.76034000  0.90045600  0.37864600  1
  Li  Li11  1  0.76689800  0.89743800  0.87560500  1
  Fe  Fe12  1  0.74424800  0.35831200  0.11749000  1
  Fe  Fe13  1  0.74927300  0.34754300  0.60844300  1
  Fe  Fe14  1  0.24234200  0.66115600  0.39131800  1
  Fe  Fe15  1  0.24235700  0.64717200  0.88839500  1
  P  P16  1  0.24657400  0.41963500  0.14841200  1
  P  P17  1  0.24376400  0.41005900  0.64239600  1
  P  P18  1  0.74667800  0.59487200  0.35820500  1
  P  P19  1  0.75312400  0.59138100  0.85790300  1
  C  C20  1  0.76028300  0.04357600  0.13489900  1
  C  C21  1  0.76248900  0.04084400  0.63662000  1
  C  C22  1  0.26286100  0.96154600  0.36950800  1
  C  C23  1  0.24508300  0.93824500  0.84812600  1
  O  O24  1  0.28359600  0.10609800  0.34878300  1
  O  O25  1  0.24916200  0.08167400  0.82012300  1
  O  O26  1  0.75376900  0.06920000  0.01043700  1
  O  O27  1  0.76172500  0.07298100  0.51325400  1
  O  O28  1  0.74496600  0.15864200  0.22120000  1
  O  O29  1  0.74662300  0.15330800  0.72567200  1
  O  O30  1  0.06297000  0.31611700  0.11358200  1
  O  O31  1  0.43091000  0.32971000  0.09616700  1
  O  O32  1  0.06333800  0.30369500  0.60475400  1
  O  O33  1  0.43026500  0.31769300  0.59382100  1
  O  O34  1  0.26662300  0.44244500  0.30177300  1
  O  O35  1  0.72807600  0.43229800  0.41429800  1
  O  O36  1  0.25362600  0.43404700  0.79551400  1
  O  O37  1  0.74962400  0.43504700  0.92411300  1
  O  O38  1  0.22730400  0.57975600  0.08849800  1
  O  O39  1  0.77128800  0.57561800  0.20552800  1
  O  O40  1  0.22962600  0.56883400  0.58104300  1
  O  O41  1  0.77954500  0.56324600  0.70598600  1
  O  O42  1  0.56191400  0.69700600  0.38930900  1
  O  O43  1  0.92666500  0.68898100  0.41710900  1
  O  O44  1  0.56216400  0.68806800  0.88398000  1
  O  O45  1  0.92649700  0.69506300  0.91403600  1
  O  O46  1  0.24497200  0.86174100  0.27003500  1
  O  O47  1  0.22584500  0.83269300  0.75407900  1
  O  O48  1  0.25645300  0.91222100  0.48811100  1
  O  O49  1  0.25941700  0.89437800  0.96828100  1
  O  O50  1  0.78023400  0.90581000  0.17801400  1
  O  O51  1  0.77741100  0.90153800  0.67539500  1
