# generated using pymatgen
data_LiV2P4(HO8)2
_symmetry_space_group_name_H-M   'P 1'
_cell_length_a   7.90623300
_cell_length_b   7.35948400
_cell_length_c   9.76170552
_cell_angle_alpha   75.56311956
_cell_angle_beta   90.00000000
_cell_angle_gamma   90.00000000
_symmetry_Int_Tables_number   1
_chemical_formula_structural   LiV2P4(HO8)2
_chemical_formula_sum   'Li2 V4 P8 H4 O32'
_cell_volume   550.05702991
_cell_formula_units_Z   2
loop_
 _symmetry_equiv_pos_site_id
 _symmetry_equiv_pos_as_xyz
  1  'x, y, z'
loop_
 _atom_site_type_symbol
 _atom_site_label
 _atom_site_symmetry_multiplicity
 _atom_site_fract_x
 _atom_site_fract_y
 _atom_site_fract_z
 _atom_site_occupancy
  Li  Li0  1  0.37017100  0.89941900  0.82462800  1
  Li  Li1  1  0.87017100  0.10058100  0.17537200  1
  V  V2  1  0.50611700  0.26057400  0.62073300  1
  V  V3  1  0.00611700  0.73942600  0.37926700  1
  V  V4  1  0.49516600  0.25717600  0.12484200  1
  V  V5  1  0.99516600  0.74282400  0.87515800  1
  P  P6  1  0.34900900  0.51642300  0.81226800  1
  P  P7  1  0.85569400  0.47602500  0.69254200  1
  P  P8  1  0.14986700  0.01779200  0.56436400  1
  P  P9  1  0.64986700  0.98220800  0.43563600  1
  P  P10  1  0.35569400  0.52397500  0.30745800  1
  P  P11  1  0.84900900  0.48357700  0.18773200  1
  P  P12  1  0.15647300  0.01160500  0.06202900  1
  P  P13  1  0.65647300  0.98839500  0.93797100  1
  H  H14  1  0.50996200  0.75940200  0.60798600  1
  H  H15  1  0.00996200  0.24059800  0.39201400  1
  H  H16  1  0.50790300  0.76503500  0.10649100  1
  H  H17  1  0.00790300  0.23496500  0.89350900  1
  O  O18  1  0.55481400  0.09665600  0.80472600  1
  O  O19  1  0.16957300  0.55886300  0.85356700  1
  O  O20  1  0.82619400  0.61175000  0.78708900  1
  O  O21  1  0.44328100  0.69542100  0.74525600  1
  O  O22  1  0.05676200  0.90293100  0.69669800  1
  O  O23  1  0.32818200  0.06463700  0.61397200  1
  O  O24  1  0.95241500  0.30107200  0.75561800  1
  O  O25  1  0.34337800  0.38301900  0.70857200  1
  O  O26  1  0.66088000  0.11150300  0.54061400  1
  O  O27  1  0.05790300  0.20110100  0.49676600  1
  O  O28  1  0.67513900  0.42155900  0.64279000  1
  O  O29  1  0.94101700  0.59735200  0.55288500  1
  O  O30  1  0.55790300  0.79889900  0.50323400  1
  O  O31  1  0.16088000  0.88849700  0.45938600  1
  O  O32  1  0.82818200  0.93536300  0.38602800  1
  O  O33  1  0.55676200  0.09706900  0.30330200  1
  O  O34  1  0.44101700  0.40264800  0.44711500  1
  O  O35  1  0.17513900  0.57844100  0.35721000  1
  O  O36  1  0.84337800  0.61698100  0.29142800  1
  O  O37  1  0.45241500  0.69892800  0.24438200  1
  O  O38  1  0.05481400  0.90334400  0.19527400  1
  O  O39  1  0.32917700  0.06860300  0.10433400  1
  O  O40  1  0.94328100  0.30457900  0.25474400  1
  O  O41  1  0.32619400  0.38825000  0.21291100  1
  O  O42  1  0.67577300  0.11271400  0.04354100  1
  O  O43  1  0.04402000  0.18639100  0.00260100  1
  O  O44  1  0.66957300  0.44113700  0.14643300  1
  O  O45  1  0.94386700  0.59780300  0.05366500  1
  O  O46  1  0.54402000  0.81360900  0.99739900  1
  O  O47  1  0.17577300  0.88728600  0.95645900  1
  O  O48  1  0.82917700  0.93139700  0.89566600  1
  O  O49  1  0.44386700  0.40219700  0.94633500  1
