# generated using pymatgen
data_Li2Co2(SO4)3
_symmetry_space_group_name_H-M   'P 1'
_cell_length_a   8.65126400
_cell_length_b   8.76094900
_cell_length_c   24.04798100
_cell_angle_alpha   90.00000000
_cell_angle_beta   90.00000000
_cell_angle_gamma   90.00000000
_symmetry_Int_Tables_number   1
_chemical_formula_structural   Li2Co2(SO4)3
_chemical_formula_sum   'Li16 Co16 S24 O96'
_cell_volume   1822.67542205
_cell_formula_units_Z   8
loop_
 _symmetry_equiv_pos_site_id
 _symmetry_equiv_pos_as_xyz
  1  'x, y, z'
loop_
 _atom_site_type_symbol
 _atom_site_label
 _atom_site_symmetry_multiplicity
 _atom_site_fract_x
 _atom_site_fract_y
 _atom_site_fract_z
 _atom_site_occupancy
  Li  Li0  1  0.03728400  0.62208100  0.29045600  1
  Li  Li1  1  0.03728400  0.87791900  0.79045600  1
  Li  Li2  1  0.14541200  0.56889300  0.50918400  1
  Li  Li3  1  0.14541200  0.93110700  0.00918400  1
  Li  Li4  1  0.35458800  0.06889300  0.50918400  1
  Li  Li5  1  0.35458800  0.43110700  0.00918400  1
  Li  Li6  1  0.46271600  0.12208100  0.29045600  1
  Li  Li7  1  0.46271600  0.37791900  0.79045600  1
  Li  Li8  1  0.53728400  0.62208100  0.20954400  1
  Li  Li9  1  0.53728400  0.87791900  0.70954400  1
  Li  Li10  1  0.64541200  0.56889300  0.99081600  1
  Li  Li11  1  0.64541200  0.93110700  0.49081600  1
  Li  Li12  1  0.85458800  0.43110700  0.49081600  1
  Li  Li13  1  0.85458800  0.06889300  0.99081600  1
  Li  Li14  1  0.96271600  0.12208100  0.20954400  1
  Li  Li15  1  0.96271600  0.37791900  0.70954400  1
  Co  Co16  1  0.00393600  0.39962200  0.06362200  1
  Co  Co17  1  0.00393600  0.10037800  0.56362200  1
  Co  Co18  1  0.99968000  0.79584700  0.17902400  1
  Co  Co19  1  0.99968000  0.70415300  0.67902400  1
  Co  Co20  1  0.50032000  0.29584700  0.17902400  1
  Co  Co21  1  0.50032000  0.20415300  0.67902400  1
  Co  Co22  1  0.49606400  0.60037800  0.56362200  1
  Co  Co23  1  0.49606400  0.89962200  0.06362200  1
  Co  Co24  1  0.50393600  0.39962200  0.43637800  1
  Co  Co25  1  0.50393600  0.10037800  0.93637800  1
  Co  Co26  1  0.49968000  0.70415300  0.82097600  1
  Co  Co27  1  0.49968000  0.79584700  0.32097600  1
  Co  Co28  1  0.00032000  0.29584700  0.32097600  1
  Co  Co29  1  0.00032000  0.20415300  0.82097600  1
  Co  Co30  1  0.99606400  0.89962200  0.43637800  1
  Co  Co31  1  0.99606400  0.60037800  0.93637800  1
  S  S32  1  0.14381100  0.94710800  0.29970800  1
  S  S33  1  0.14381100  0.55289200  0.79970800  1
  S  S34  1  0.14860400  0.25373700  0.44677100  1
  S  S35  1  0.14860400  0.24626300  0.94677100  1
  S  S36  1  0.19685500  0.09425400  0.11651100  1
  S  S37  1  0.19685500  0.40574600  0.61651100  1
  S  S38  1  0.30314500  0.59425400  0.11651100  1
  S  S39  1  0.30314500  0.90574600  0.61651100  1
  S  S40  1  0.35139600  0.75373700  0.44677100  1
  S  S41  1  0.35139600  0.74626300  0.94677100  1
  S  S42  1  0.35618900  0.44710800  0.29970800  1
  S  S43  1  0.35618900  0.05289200  0.79970800  1
  S  S44  1  0.64381100  0.55289200  0.70029200  1
  S  S45  1  0.64381100  0.94710800  0.20029200  1
  S  S46  1  0.64860400  0.24626300  0.55322900  1
  S  S47  1  0.64860400  0.25373700  0.05322900  1
  S  S48  1  0.69685500  0.09425400  0.38348900  1
  S  S49  1  0.69685500  0.40574600  0.88348900  1
  S  S50  1  0.80314500  0.59425400  0.38348900  1
  S  S51  1  0.80314500  0.90574600  0.88348900  1
  S  S52  1  0.85139600  0.75373700  0.05322900  1
  S  S53  1  0.85139600  0.74626300  0.55322900  1
  S  S54  1  0.85618900  0.44710800  0.20029200  1
  S  S55  1  0.85618900  0.05289200  0.70029200  1
  O  O56  1  0.06384500  0.39050100  0.46519800  1
  O  O57  1  0.06384500  0.10949900  0.96519800  1
  O  O58  1  0.08202000  0.09612700  0.27913200  1
  O  O59  1  0.08202000  0.40387300  0.77913200  1
  O  O60  1  0.08362700  0.11068300  0.47488300  1
  O  O61  1  0.08362700  0.38931700  0.97488300  1
  O  O62  1  0.08690800  0.91246100  0.35565400  1
  O  O63  1  0.08690800  0.58753900  0.85565400  1
  O  O64  1  0.09469300  0.19116000  0.08239700  1
  O  O65  1  0.09469300  0.30884000  0.58239700  1
  O  O66  1  0.09188100  0.82295700  0.26104700  1
  O  O67  1  0.09188100  0.67704300  0.76104700  1
  O  O68  1  0.09864300  0.00954800  0.15721200  1
  O  O69  1  0.09864300  0.49045200  0.65721200  1
  O  O70  1  0.13954700  0.23242700  0.38654600  1
  O  O71  1  0.13954700  0.26757300  0.88654600  1
  O  O72  1  0.18349400  0.45389600  0.29817300  1
  O  O73  1  0.18349400  0.04610400  0.79817300  1
  O  O74  1  0.18712400  0.68294500  0.14690600  1
  O  O75  1  0.18712400  0.81705500  0.64690600  1
  O  O76  1  0.18716300  0.76448000  0.46574700  1
  O  O77  1  0.18716300  0.73552000  0.96574700  1
  O  O78  1  0.22730100  0.48332000  0.07724700  1
  O  O79  1  0.22730100  0.01668000  0.57724700  1
  O  O80  1  0.27269900  0.98332000  0.07724700  1
  O  O81  1  0.27269900  0.51668000  0.57724700  1
  O  O82  1  0.31283700  0.23552000  0.96574700  1
  O  O83  1  0.31283700  0.26448000  0.46574700  1
  O  O84  1  0.31287600  0.18294500  0.14690600  1
  O  O85  1  0.31287600  0.31705500  0.64690600  1
  O  O86  1  0.31650600  0.95389600  0.29817300  1
  O  O87  1  0.31650600  0.54610400  0.79817300  1
  O  O88  1  0.36045300  0.73242700  0.38654600  1
  O  O89  1  0.36045300  0.76757300  0.88654600  1
  O  O90  1  0.40135700  0.50954800  0.15721200  1
  O  O91  1  0.40135700  0.99045200  0.65721200  1
  O  O92  1  0.40811900  0.32295700  0.26104700  1
  O  O93  1  0.40811900  0.17704300  0.76104700  1
  O  O94  1  0.40530700  0.69116000  0.08239700  1
  O  O95  1  0.40530700  0.80884000  0.58239700  1
  O  O96  1  0.41309200  0.08753900  0.85565400  1
  O  O97  1  0.41309200  0.41246100  0.35565400  1
  O  O98  1  0.41637300  0.61068300  0.47488300  1
  O  O99  1  0.41637300  0.88931700  0.97488300  1
  O  O100  1  0.41798000  0.59612700  0.27913200  1
  O  O101  1  0.41798000  0.90387300  0.77913200  1
  O  O102  1  0.43615500  0.60949900  0.96519800  1
  O  O103  1  0.43615500  0.89050100  0.46519800  1
  O  O104  1  0.56384500  0.39050100  0.03480200  1
  O  O105  1  0.56384500  0.10949900  0.53480200  1
  O  O106  1  0.58202000  0.09612700  0.22086800  1
  O  O107  1  0.58202000  0.40387300  0.72086800  1
  O  O108  1  0.58362700  0.11068300  0.02511700  1
  O  O109  1  0.58362700  0.38931700  0.52511700  1
  O  O110  1  0.58690800  0.58753900  0.64434600  1
  O  O111  1  0.58690800  0.91246100  0.14434600  1
  O  O112  1  0.59469300  0.19116000  0.41760300  1
  O  O113  1  0.59469300  0.30884000  0.91760300  1
  O  O114  1  0.59188100  0.67704300  0.73895300  1
  O  O115  1  0.59188100  0.82295700  0.23895300  1
  O  O116  1  0.59864300  0.00954800  0.34278800  1
  O  O117  1  0.59864300  0.49045200  0.84278800  1
  O  O118  1  0.63954700  0.23242700  0.11345400  1
  O  O119  1  0.63954700  0.26757300  0.61345400  1
  O  O120  1  0.68349400  0.45389600  0.20182700  1
  O  O121  1  0.68349400  0.04610400  0.70182700  1
  O  O122  1  0.68712400  0.68294500  0.35309400  1
  O  O123  1  0.68712400  0.81705500  0.85309400  1
  O  O124  1  0.68716300  0.76448000  0.03425300  1
  O  O125  1  0.68716300  0.73552000  0.53425300  1
  O  O126  1  0.72730100  0.48332000  0.42275300  1
  O  O127  1  0.72730100  0.01668000  0.92275300  1
  O  O128  1  0.77269900  0.98332000  0.42275300  1
  O  O129  1  0.77269900  0.51668000  0.92275300  1
  O  O130  1  0.81283700  0.26448000  0.03425300  1
  O  O131  1  0.81283700  0.23552000  0.53425300  1
  O  O132  1  0.81287600  0.18294500  0.35309400  1
  O  O133  1  0.81287600  0.31705500  0.85309400  1
  O  O134  1  0.81650600  0.54610400  0.70182700  1
  O  O135  1  0.81650600  0.95389600  0.20182700  1
  O  O136  1  0.86045300  0.73242700  0.11345400  1
  O  O137  1  0.86045300  0.76757300  0.61345400  1
  O  O138  1  0.90135700  0.50954800  0.34278800  1
  O  O139  1  0.90135700  0.99045200  0.84278800  1
  O  O140  1  0.90811900  0.32295700  0.23895300  1
  O  O141  1  0.90811900  0.17704300  0.73895300  1
  O  O142  1  0.90530700  0.69116000  0.41760300  1
  O  O143  1  0.90530700  0.80884000  0.91760300  1
  O  O144  1  0.91309200  0.41246100  0.14434600  1
  O  O145  1  0.91309200  0.08753900  0.64434600  1
  O  O146  1  0.91637300  0.61068300  0.02511700  1
  O  O147  1  0.91637300  0.88931700  0.52511700  1
  O  O148  1  0.91798000  0.59612700  0.22086800  1
  O  O149  1  0.91798000  0.90387300  0.72086800  1
  O  O150  1  0.93615500  0.60949900  0.53480200  1
  O  O151  1  0.93615500  0.89050100  0.03480200  1
