# generated using pymatgen
data_Li5V6O5F19
_symmetry_space_group_name_H-M   'P 1'
_cell_length_a   5.19919300
_cell_length_b   5.40585973
_cell_length_c   16.27618149
_cell_angle_alpha   80.61862514
_cell_angle_beta   89.73042037
_cell_angle_gamma   89.55679497
_symmetry_Int_Tables_number   1
_chemical_formula_structural   Li5V6O5F19
_chemical_formula_sum   'Li5 V6 O5 F19'
_cell_volume   451.32542610
_cell_formula_units_Z   1
loop_
 _symmetry_equiv_pos_site_id
 _symmetry_equiv_pos_as_xyz
  1  'x, y, z'
loop_
 _atom_site_type_symbol
 _atom_site_label
 _atom_site_symmetry_multiplicity
 _atom_site_fract_x
 _atom_site_fract_y
 _atom_site_fract_z
 _atom_site_occupancy
  Li  Li0  1  0.45643600  0.62610500  0.55755200  1
  Li  Li1  1  0.04793600  0.69973400  0.87046700  1
  Li  Li2  1  0.28052700  0.19277600  0.15141700  1
  Li  Li3  1  0.03686000  0.12363900  0.56251900  1
  Li  Li4  1  0.76291300  0.64010300  0.17050000  1
  V  V5  1  0.96829000  0.62812100  0.66734500  1
  V  V6  1  0.51757600  0.80648500  0.33552700  1
  V  V7  1  0.02879300  0.02766500  0.00380200  1
  V  V8  1  0.53401800  0.52005500  0.99668700  1
  V  V9  1  0.52129700  0.12904400  0.67238100  1
  V  V10  1  0.99492100  0.33224500  0.33808300  1
  O  O11  1  0.80623000  0.37630600  0.63962000  1
  O  O12  1  0.79835400  0.70350600  0.98528600  1
  O  O13  1  0.69217900  0.88510500  0.63781800  1
  O  O14  1  0.21643400  0.26064400  0.02715100  1
  O  O15  1  0.71340200  0.56530000  0.31211400  1
  F  F16  1  0.71278700  0.21730600  0.97264800  1
  F  F17  1  0.30380600  0.46052700  0.68853900  1
  F  F18  1  0.91176900  0.93331900  0.11867300  1
  F  F19  1  0.57672300  0.76913900  0.44981200  1
  F  F20  1  0.89664600  0.60051600  0.77996200  1
  F  F21  1  0.38253600  0.56531700  0.89204900  1
  F  F22  1  0.41084400  0.90393800  0.22289500  1
  F  F23  1  0.11200700  0.76468800  0.55839100  1
  F  F24  1  0.79071200  0.05815200  0.31395100  1
  F  F25  1  0.29204600  0.10534600  0.35439900  1
  F  F26  1  0.19135900  0.95008700  0.68957700  1
  F  F27  1  0.57393000  0.41372600  0.11976100  1
  F  F28  1  0.08541900  0.02820300  0.89091000  1
  F  F29  1  0.92171400  0.25795300  0.44788100  1
  F  F30  1  0.57682400  0.11068700  0.78054600  1
  F  F31  1  0.07625600  0.39693600  0.22453300  1
  F  F32  1  0.37973300  0.26359300  0.56136100  1
  F  F33  1  0.29352400  0.76450000  0.03163500  1
  F  F34  1  0.20472600  0.60773000  0.35941500  1
