# generated using pymatgen
data_LiV4OF11
_symmetry_space_group_name_H-M   'P 1'
_cell_length_a   5.56251717
_cell_length_b   5.56251717
_cell_length_c   17.52175666
_cell_angle_alpha   78.42501692
_cell_angle_beta   78.42501692
_cell_angle_gamma   55.79192031
_symmetry_Int_Tables_number   1
_chemical_formula_structural   LiV4OF11
_chemical_formula_sum   'Li2 V8 O2 F22'
_cell_volume   436.65185824
_cell_formula_units_Z   2
loop_
 _symmetry_equiv_pos_site_id
 _symmetry_equiv_pos_as_xyz
  1  'x, y, z'
loop_
 _atom_site_type_symbol
 _atom_site_label
 _atom_site_symmetry_multiplicity
 _atom_site_fract_x
 _atom_site_fract_y
 _atom_site_fract_z
 _atom_site_occupancy
  Li  Li0  1  0.61592400  0.72262900  0.14600600  1
  Li  Li1  1  0.27737100  0.38407600  0.85399400  1
  V  V2  1  0.90765100  0.98130600  0.19406700  1
  V  V3  1  0.47896600  0.63226600  0.31237500  1
  V  V4  1  0.11435300  0.25829900  0.43810100  1
  V  V5  1  0.74170100  0.88564700  0.56189900  1
  V  V6  1  0.62677900  0.74158700  0.93831000  1
  V  V7  1  0.01869300  0.09234900  0.80593300  1
  V  V8  1  0.36773400  0.52103400  0.68762500  1
  V  V9  1  0.25841300  0.37322100  0.06169000  1
  O  O10  1  0.28213600  0.78237200  0.21918400  1
  O  O11  1  0.21762800  0.71786400  0.78081600  1
  F  F12  1  0.18519300  0.55890600  0.37571100  1
  F  F13  1  0.31161100  0.20644000  0.75987400  1
  F  F14  1  0.79356000  0.68838900  0.24012600  1
  F  F15  1  0.52583700  0.28151200  0.59906300  1
  F  F16  1  0.71848800  0.47416300  0.40093700  1
  F  F17  1  0.23184400  0.97132900  0.90607400  1
  F  F18  1  0.77871300  0.29372400  0.72113900  1
  F  F19  1  0.70627600  0.22128700  0.27886100  1
  F  F20  1  0.95340300  0.48926600  0.52822100  1
  F  F21  1  0.48284600  0.95061100  0.03502800  1
  F  F22  1  0.67432100  0.06098000  0.87927500  1
  F  F23  1  0.03698800  0.96301200  0.50000000  1
  F  F24  1  0.28041900  0.02901100  0.34739400  1
  F  F25  1  0.97098900  0.71958100  0.65260600  1
  F  F26  1  0.02867100  0.76815600  0.09392600  1
  F  F27  1  0.80527200  0.50622000  0.85147100  1
  F  F28  1  0.51073400  0.04659700  0.47177900  1
  F  F29  1  0.04938900  0.51715400  0.96497200  1
  F  F30  1  0.44109400  0.81480700  0.62428900  1
  F  F31  1  0.93902000  0.32567900  0.12072500  1
  F  F32  1  0.55751900  0.44248100  0.00000000  1
  F  F33  1  0.49378000  0.19472800  0.14852900  1
