# generated using pymatgen
data_Li5Mn8(BO3)8
_symmetry_space_group_name_H-M   'P 1'
_cell_length_a   5.32507300
_cell_length_b   9.10669990
_cell_length_c   10.32816999
_cell_angle_alpha   90.34111784
_cell_angle_beta   91.05397266
_cell_angle_gamma   90.02541180
_symmetry_Int_Tables_number   1
_chemical_formula_structural   Li5Mn8(BO3)8
_chemical_formula_sum   'Li5 Mn8 B8 O24'
_cell_volume   500.75895052
_cell_formula_units_Z   1
loop_
 _symmetry_equiv_pos_site_id
 _symmetry_equiv_pos_as_xyz
  1  'x, y, z'
loop_
 _atom_site_type_symbol
 _atom_site_label
 _atom_site_symmetry_multiplicity
 _atom_site_fract_x
 _atom_site_fract_y
 _atom_site_fract_z
 _atom_site_occupancy
  Li  Li0  1  0.86712400  0.98518000  0.33034100  1
  Li  Li1  1  0.83927700  0.00829600  0.82574900  1
  Li  Li2  1  0.36998200  0.51817900  0.84395100  1
  Li  Li3  1  0.33953700  0.48465700  0.31450500  1
  Li  Li4  1  0.15572400  0.01257200  0.59228400  1
  Mn  Mn5  1  0.85630600  0.32128800  0.86743800  1
  Mn  Mn6  1  0.83500100  0.63805600  0.37541000  1
  Mn  Mn7  1  0.66170500  0.15589300  0.11810400  1
  Mn  Mn8  1  0.64472900  0.81205200  0.62197700  1
  Mn  Mn9  1  0.34980600  0.17133200  0.36820800  1
  Mn  Mn10  1  0.34067100  0.85878600  0.88148100  1
  Mn  Mn11  1  0.17297700  0.35677900  0.61421900  1
  Mn  Mn12  1  0.13701000  0.68510700  0.12201500  1
  B  B13  1  0.83156100  0.32313600  0.37355000  1
  B  B14  1  0.83538100  0.66785000  0.87043800  1
  B  B15  1  0.66629900  0.81109100  0.13255700  1
  B  B16  1  0.66716900  0.16395700  0.63054000  1
  B  B17  1  0.32430400  0.82657300  0.37933700  1
  B  B18  1  0.33144500  0.18054000  0.86535700  1
  B  B19  1  0.16266600  0.33042700  0.11546300  1
  B  B20  1  0.17002000  0.69288000  0.63357800  1
  O  O21  1  0.93211600  0.29796000  0.04999100  1
  O  O22  1  0.93759500  0.69851000  0.57087800  1
  O  O23  1  0.78346100  0.68009900  0.17051600  1
  O  O24  1  0.78049300  0.94240900  0.15066700  1
  O  O25  1  0.80327900  0.28779400  0.67819800  1
  O  O26  1  0.78680600  0.02918500  0.63321400  1
  O  O27  1  0.74846900  0.18435200  0.33304100  1
  O  O28  1  0.72678500  0.53521800  0.86431500  1
  O  O29  1  0.71880300  0.79558300  0.81471900  1
  O  O30  1  0.66689100  0.43775800  0.37774300  1
  O  O31  1  0.58827400  0.16379300  0.89842700  1
  O  O32  1  0.56776300  0.80574100  0.43165000  1
  O  O33  1  0.43036700  0.80104200  0.07347500  1
  O  O34  1  0.42179600  0.17820200  0.58428600  1
  O  O35  1  0.29673600  0.21196400  0.16500000  1
  O  O36  1  0.28883100  0.56653700  0.66108000  1
  O  O37  1  0.28536500  0.82893100  0.66708300  1
  O  O38  1  0.23995200  0.47046400  0.13411300  1
  O  O39  1  0.21705600  0.70383800  0.31479200  1
  O  O40  1  0.23563900  0.31984000  0.83667100  1
  O  O41  1  0.20106200  0.95607600  0.39451600  1
  O  O42  1  0.17906800  0.06053700  0.86175500  1
  O  O43  1  0.08570600  0.34425100  0.41038100  1
  O  O44  1  0.07148600  0.69336000  0.92970300  1
