# generated using pymatgen
data_Li4Cr5Sn3O16
_symmetry_space_group_name_H-M   'P 1'
_cell_length_a   6.07965389
_cell_length_b   6.07965389
_cell_length_c   9.60344135
_cell_angle_alpha   89.66950476
_cell_angle_beta   89.66950476
_cell_angle_gamma   60.15447855
_symmetry_Int_Tables_number   1
_chemical_formula_structural   Li4Cr5Sn3O16
_chemical_formula_sum   'Li4 Cr5 Sn3 O16'
_cell_volume   307.87860894
_cell_formula_units_Z   1
loop_
 _symmetry_equiv_pos_site_id
 _symmetry_equiv_pos_as_xyz
  1  'x, y, z'
loop_
 _atom_site_type_symbol
 _atom_site_label
 _atom_site_symmetry_multiplicity
 _atom_site_fract_x
 _atom_site_fract_y
 _atom_site_fract_z
 _atom_site_occupancy
  Li  Li0  1  0.67047000  0.67047000  0.88796200  1
  Li  Li1  1  0.98688700  0.98688700  0.99199600  1
  Li  Li2  1  0.99368600  0.99368600  0.50167300  1
  Li  Li3  1  0.33462300  0.33462300  0.39629000  1
  Cr  Cr4  1  0.66932000  0.66932000  0.48907400  1
  Cr  Cr5  1  0.83043200  0.83043200  0.21495500  1
  Cr  Cr6  1  0.33846500  0.33846500  0.98281500  1
  Cr  Cr7  1  0.66116000  0.16979800  0.71107300  1
  Cr  Cr8  1  0.16979800  0.66116000  0.71107300  1
  Sn  Sn9  1  0.83160400  0.33846400  0.21318800  1
  Sn  Sn10  1  0.33846400  0.83160400  0.21318800  1
  Sn  Sn11  1  0.17009100  0.17009100  0.71383100  1
  O  O12  1  0.82926700  0.32777700  0.59850300  1
  O  O13  1  0.52052400  0.52052400  0.35002000  1
  O  O14  1  0.67180700  0.67180700  0.09754500  1
  O  O15  1  0.99522500  0.99522500  0.31679500  1
  O  O16  1  0.99460800  0.99460800  0.80797600  1
  O  O17  1  0.32777700  0.82926700  0.59850300  1
  O  O18  1  0.96124900  0.52500800  0.34499500  1
  O  O19  1  0.52500800  0.96124900  0.34499500  1
  O  O20  1  0.16353800  0.16353800  0.09306700  1
  O  O21  1  0.83359600  0.83359600  0.60895200  1
  O  O22  1  0.48873000  0.04314800  0.84305400  1
  O  O23  1  0.04314800  0.48873000  0.84305400  1
  O  O24  1  0.33841900  0.33841900  0.60173100  1
  O  O25  1  0.67211100  0.16256800  0.09911700  1
  O  O26  1  0.47863900  0.47863900  0.83324100  1
  O  O27  1  0.16256800  0.67211100  0.09911700  1
