# generated using pymatgen
data_Li4VF8
_symmetry_space_group_name_H-M   'P 1'
_cell_length_a   5.66736600
_cell_length_b   9.45151400
_cell_length_c   9.47623100
_cell_angle_alpha   90.00000000
_cell_angle_beta   90.00000000
_cell_angle_gamma   90.00000000
_symmetry_Int_Tables_number   1
_chemical_formula_structural   Li4VF8
_chemical_formula_sum   'Li16 V4 F32'
_cell_volume   507.59610540
_cell_formula_units_Z   4
loop_
 _symmetry_equiv_pos_site_id
 _symmetry_equiv_pos_as_xyz
  1  'x, y, z'
loop_
 _atom_site_type_symbol
 _atom_site_label
 _atom_site_symmetry_multiplicity
 _atom_site_fract_x
 _atom_site_fract_y
 _atom_site_fract_z
 _atom_site_occupancy
  Li  Li0  1  0.12243400  0.57812800  0.10914300  1
  Li  Li1  1  0.12243400  0.92187200  0.10914300  1
  Li  Li2  1  0.61288800  0.56384900  0.13101400  1
  Li  Li3  1  0.61288800  0.93615100  0.13101400  1
  Li  Li4  1  0.11288800  0.06384900  0.36898600  1
  Li  Li5  1  0.11288800  0.43615100  0.36898600  1
  Li  Li6  1  0.62243400  0.07812800  0.39085700  1
  Li  Li7  1  0.62243400  0.42187200  0.39085700  1
  Li  Li8  1  0.37756600  0.57812800  0.60914300  1
  Li  Li9  1  0.37756600  0.92187200  0.60914300  1
  Li  Li10  1  0.88711200  0.56384900  0.63101400  1
  Li  Li11  1  0.88711200  0.93615100  0.63101400  1
  Li  Li12  1  0.38711200  0.06384900  0.86898600  1
  Li  Li13  1  0.38711200  0.43615100  0.86898600  1
  Li  Li14  1  0.87756600  0.07812800  0.89085700  1
  Li  Li15  1  0.87756600  0.42187200  0.89085700  1
  V  V16  1  0.37215800  0.25000000  0.13382800  1
  V  V17  1  0.87215800  0.75000000  0.36617200  1
  V  V18  1  0.12784200  0.25000000  0.63382800  1
  V  V19  1  0.62784200  0.75000000  0.86617200  1
  F  F20  1  0.15909200  0.12039100  0.02312500  1
  F  F21  1  0.15909200  0.37960900  0.02312500  1
  F  F22  1  0.59308700  0.12530900  0.02807000  1
  F  F23  1  0.59308700  0.37469100  0.02807000  1
  F  F24  1  0.11509100  0.75000000  0.22472000  1
  F  F25  1  0.61830700  0.75000000  0.23467000  1
  F  F26  1  0.37080400  0.03723200  0.23702000  1
  F  F27  1  0.37080400  0.46276800  0.23702000  1
  F  F28  1  0.87080400  0.53723200  0.26298000  1
  F  F29  1  0.87080400  0.96276800  0.26298000  1
  F  F30  1  0.11830700  0.25000000  0.26533000  1
  F  F31  1  0.61509100  0.25000000  0.27528000  1
  F  F32  1  0.09308700  0.62530900  0.47193000  1
  F  F33  1  0.09308700  0.87469100  0.47193000  1
  F  F34  1  0.65909200  0.62039100  0.47687500  1
  F  F35  1  0.65909200  0.87960900  0.47687500  1
  F  F36  1  0.34090800  0.12039100  0.52312500  1
  F  F37  1  0.34090800  0.37960900  0.52312500  1
  F  F38  1  0.90691300  0.12530900  0.52807000  1
  F  F39  1  0.90691300  0.37469100  0.52807000  1
  F  F40  1  0.38490900  0.75000000  0.72472000  1
  F  F41  1  0.88169300  0.75000000  0.73467000  1
  F  F42  1  0.12919600  0.03723200  0.73702000  1
  F  F43  1  0.12919600  0.46276800  0.73702000  1
  F  F44  1  0.62919600  0.53723200  0.76298000  1
  F  F45  1  0.62919600  0.96276800  0.76298000  1
  F  F46  1  0.38169300  0.25000000  0.76533000  1
  F  F47  1  0.88490900  0.25000000  0.77528000  1
  F  F48  1  0.40691300  0.62530900  0.97193000  1
  F  F49  1  0.40691300  0.87469100  0.97193000  1
  F  F50  1  0.84090800  0.62039100  0.97687500  1
  F  F51  1  0.84090800  0.87960900  0.97687500  1
