# generated using pymatgen
data_Li4V3OF11
_symmetry_space_group_name_H-M   'P 1'
_cell_length_a   5.25273100
_cell_length_b   5.46019680
_cell_length_c   16.18088969
_cell_angle_alpha   99.58871736
_cell_angle_beta   89.87235206
_cell_angle_gamma   91.35676010
_symmetry_Int_Tables_number   1
_chemical_formula_structural   Li4V3OF11
_chemical_formula_sum   'Li8 V6 O2 F22'
_cell_volume   457.47045060
_cell_formula_units_Z   2
loop_
 _symmetry_equiv_pos_site_id
 _symmetry_equiv_pos_as_xyz
  1  'x, y, z'
loop_
 _atom_site_type_symbol
 _atom_site_label
 _atom_site_symmetry_multiplicity
 _atom_site_fract_x
 _atom_site_fract_y
 _atom_site_fract_z
 _atom_site_occupancy
  Li  Li0  1  0.67535900  0.19595400  0.84274000  1
  Li  Li1  1  0.46570800  0.23214700  0.56761700  1
  Li  Li2  1  0.03237400  0.04182700  0.21488100  1
  Li  Li3  1  0.51435500  0.14560600  0.10761500  1
  Li  Li4  1  0.19770900  0.64355300  0.81909400  1
  Li  Li5  1  0.01131300  0.70366100  0.56373500  1
  Li  Li6  1  0.53822900  0.78512600  0.45050300  1
  Li  Li7  1  0.97860200  0.57839900  0.09627200  1
  V  V8  1  0.98590600  0.30007900  0.66347900  1
  V  V9  1  0.50503300  0.17074500  0.33562900  1
  V  V10  1  0.48451700  0.49954800  0.00096500  1
  V  V11  1  0.01575600  0.02058900  0.99868500  1
  V  V12  1  0.51874500  0.83775700  0.66701700  1
  V  V13  1  0.00478900  0.66005200  0.33176600  1
  O  O14  1  0.81273300  0.99388200  0.62867800  1
  O  O15  1  0.19507400  0.32403400  0.03440000  1
  F  F16  1  0.68697100  0.17916400  0.96483100  1
  F  F17  1  0.33180000  0.16255000  0.68598000  1
  F  F18  1  0.86373000  0.02936700  0.11593100  1
  F  F19  1  0.59097000  0.16268100  0.45020100  1
  F  F20  1  0.91587800  0.37354300  0.78245200  1
  F  F21  1  0.38009000  0.15181900  0.22285700  1
  F  F22  1  0.42107600  0.47130900  0.88124500  1
  F  F23  1  0.12704200  0.34416200  0.55419300  1
  F  F24  1  0.84169300  0.32656200  0.29957900  1
  F  F25  1  0.68538300  0.49945300  0.62603900  1
  F  F26  1  0.82280900  0.68323500  0.98703400  1
  F  F27  1  0.33973200  0.50130800  0.36527800  1
  F  F28  1  0.18911000  0.64967500  0.69379000  1
  F  F29  1  0.63338500  0.49448100  0.11392000  1
  F  F30  1  0.88005500  0.67535300  0.44464300  1
  F  F31  1  0.58761100  0.87348200  0.78437000  1
  F  F32  1  0.09619400  0.94342300  0.88320000  1
  F  F33  1  0.08963600  0.68150700  0.21774700  1
  F  F34  1  0.36108900  0.81548200  0.54961400  1
  F  F35  1  0.68241100  0.85094000  0.31051900  1
  F  F36  1  0.31566400  0.83709200  0.04362000  1
  F  F37  1  0.18127400  0.98424000  0.36065000  1
