# generated using pymatgen
data_Li2Mn2Si2O7
_symmetry_space_group_name_H-M   'P 1'
_cell_length_a   13.42035600
_cell_length_b   5.54640000
_cell_length_c   10.18007087
_cell_angle_alpha   57.10911196
_cell_angle_beta   90.00000000
_cell_angle_gamma   90.00000000
_symmetry_Int_Tables_number   1
_chemical_formula_structural   Li2Mn2Si2O7
_chemical_formula_sum   'Li8 Mn8 Si8 O28'
_cell_volume   636.28751813
_cell_formula_units_Z   4
loop_
 _symmetry_equiv_pos_site_id
 _symmetry_equiv_pos_as_xyz
  1  'x, y, z'
loop_
 _atom_site_type_symbol
 _atom_site_label
 _atom_site_symmetry_multiplicity
 _atom_site_fract_x
 _atom_site_fract_y
 _atom_site_fract_z
 _atom_site_occupancy
  Li  Li0  1  0.35672200  0.72770800  0.11736100  1
  Li  Li1  1  0.74311500  0.03402500  0.16777200  1
  Li  Li2  1  0.24311500  0.96597500  0.33222800  1
  Li  Li3  1  0.85672200  0.27229200  0.38263900  1
  Li  Li4  1  0.14327800  0.72770800  0.61736100  1
  Li  Li5  1  0.75688500  0.03402500  0.66777200  1
  Li  Li6  1  0.25688500  0.96597500  0.83222800  1
  Li  Li7  1  0.64327800  0.27229200  0.88263900  1
  Mn  Mn8  1  0.08612300  0.54303100  0.11322400  1
  Mn  Mn9  1  0.49089200  0.15962200  0.19794700  1
  Mn  Mn10  1  0.99089200  0.84037800  0.30205300  1
  Mn  Mn11  1  0.58612300  0.45696900  0.38677600  1
  Mn  Mn12  1  0.41387700  0.54303100  0.61322400  1
  Mn  Mn13  1  0.00910800  0.15962200  0.69794700  1
  Mn  Mn14  1  0.50910800  0.84037800  0.80205300  1
  Mn  Mn15  1  0.91387700  0.45696900  0.88677600  1
  Si  Si16  1  0.88218600  0.77989700  0.04157800  1
  Si  Si17  1  0.67311200  0.64271600  0.04080800  1
  Si  Si18  1  0.17311200  0.35728400  0.45919200  1
  Si  Si19  1  0.38218600  0.22010300  0.45842200  1
  Si  Si20  1  0.61781400  0.77989700  0.54157800  1
  Si  Si21  1  0.82688800  0.64271600  0.54080800  1
  Si  Si22  1  0.32688800  0.35728400  0.95919200  1
  Si  Si23  1  0.11781400  0.22010300  0.95842200  1
  O  O24  1  0.79468900  0.56772200  0.03858300  1
  O  O25  1  0.16845800  0.92114500  0.00160400  1
  O  O26  1  0.03520300  0.19745200  0.08554700  1
  O  O27  1  0.61952100  0.35033600  0.06766700  1
  O  O28  1  0.35717100  0.07226400  0.13110300  1
  O  O29  1  0.65827600  0.70952300  0.17684800  1
  O  O30  1  0.93845300  0.59558800  0.21296600  1
  O  O31  1  0.43845300  0.40441200  0.28703400  1
  O  O32  1  0.15827600  0.29047700  0.32315200  1
  O  O33  1  0.85717100  0.92773600  0.36889700  1
  O  O34  1  0.11952100  0.64966400  0.43233300  1
  O  O35  1  0.53520300  0.80254800  0.41445300  1
  O  O36  1  0.66845800  0.07885500  0.49839600  1
  O  O37  1  0.29468900  0.43227800  0.46141700  1
  O  O38  1  0.70531100  0.56772200  0.53858300  1
  O  O39  1  0.33154200  0.92114500  0.50160400  1
  O  O40  1  0.46479700  0.19745200  0.58554700  1
  O  O41  1  0.88047900  0.35033600  0.56766700  1
  O  O42  1  0.14282900  0.07226400  0.63110300  1
  O  O43  1  0.84172400  0.70952300  0.67684800  1
  O  O44  1  0.56154700  0.59558800  0.71296600  1
  O  O45  1  0.06154700  0.40441200  0.78703400  1
  O  O46  1  0.34172400  0.29047700  0.82315200  1
  O  O47  1  0.64282900  0.92773600  0.86889700  1
  O  O48  1  0.38047900  0.64966400  0.93233300  1
  O  O49  1  0.96479700  0.80254800  0.91445300  1
  O  O50  1  0.83154200  0.07885500  0.99839600  1
  O  O51  1  0.20531100  0.43227800  0.96141700  1
