# generated using pymatgen
data_Li6V3P8O29
_symmetry_space_group_name_H-M   'P 1'
_cell_length_a   9.78306400
_cell_length_b   9.78936005
_cell_length_c   13.97569010
_cell_angle_alpha   89.90622853
_cell_angle_beta   90.20552532
_cell_angle_gamma   119.72263358
_symmetry_Int_Tables_number   1
_chemical_formula_structural   Li6V3P8O29
_chemical_formula_sum   'Li12 V6 P16 O58'
_cell_volume   1162.35112412
_cell_formula_units_Z   2
loop_
 _symmetry_equiv_pos_site_id
 _symmetry_equiv_pos_as_xyz
  1  'x, y, z'
loop_
 _atom_site_type_symbol
 _atom_site_label
 _atom_site_symmetry_multiplicity
 _atom_site_fract_x
 _atom_site_fract_y
 _atom_site_fract_z
 _atom_site_occupancy
  Li  Li0  1  0.09815300  0.76605200  0.55920600  1
  Li  Li1  1  0.66539500  0.90572900  0.56083200  1
  Li  Li2  1  0.66944900  0.76603400  0.05743400  1
  Li  Li3  1  0.10442900  0.33716800  0.05908000  1
  Li  Li4  1  0.76196400  0.66717300  0.44099600  1
  Li  Li5  1  0.23410100  0.33716600  0.56284700  1
  Li  Li6  1  0.91598600  0.67892500  0.93694900  1
  Li  Li7  1  0.65409500  0.32923500  0.11147300  1
  Li  Li8  1  0.33327000  0.09788100  0.43851500  1
  Li  Li9  1  0.77261600  0.09460800  0.93860300  1
  Li  Li10  1  0.08004500  0.02282300  0.00703400  1
  Li  Li11  1  0.98571400  0.03828400  0.49442500  1
  V  V12  1  0.56000800  0.56127300  0.24957500  1
  V  V13  1  0.43522900  0.43228500  0.75442400  1
  V  V14  1  0.00236400  0.56393500  0.74779500  1
  V  V15  1  0.99644300  0.43232600  0.25233200  1
  V  V16  1  0.43226800  0.99418100  0.24856600  1
  V  V17  1  0.56315100  0.00083900  0.75106600  1
  P  P18  1  0.22295600  0.91381400  0.83992100  1
  P  P19  1  0.08289800  0.77281200  0.34084000  1
  P  P20  1  0.69099800  0.91462300  0.34506000  1
  P  P21  1  0.33191800  0.66392600  0.12969600  1
  P  P22  1  0.33557900  0.66627900  0.63065800  1
  P  P23  1  0.68595700  0.77298000  0.84150600  1
  P  P24  1  0.77164500  0.68557000  0.65760200  1
  P  P25  1  0.08692100  0.31224600  0.84543200  1
  P  P26  1  0.90937600  0.68565600  0.15433000  1
  P  P27  1  0.22632300  0.31309400  0.34429200  1
  P  P28  1  0.30797600  0.21726600  0.15993400  1
  P  P29  1  0.66272700  0.33139300  0.36832600  1
  P  P30  1  0.67177000  0.33710600  0.87100100  1
  P  P31  1  0.31070300  0.08545000  0.65513900  1
  P  P32  1  0.91351300  0.22049800  0.66080600  1
  P  P33  1  0.77439900  0.08919300  0.15948000  1
  O  O34  1  0.22761100  0.00007800  0.56422200  1
  O  O35  1  0.25063400  0.91542100  0.34157000  1
  O  O36  1  0.99281100  0.77076700  0.06519400  1
  O  O37  1  0.08529000  0.74045300  0.83604000  1
  O  O38  1  0.38326000  0.91985300  0.83076900  1
  O  O39  1  0.33370800  0.80989200  0.17768900  1
  O  O40  1  0.53777500  0.92084200  0.33425300  1
  O  O41  1  0.76341000  0.99592500  0.07091800  1
  O  O42  1  0.66549100  0.92023300  0.84070600  1
  O  O43  1  0.19038800  0.67768400  0.66935900  1
  O  O44  1  0.08392900  0.61723200  0.32982000  1
  O  O45  1  0.48877100  0.81153300  0.67197100  1
  O  O46  1  0.34391800  0.66774600  0.02366700  1
  O  O47  1  0.33639500  0.66469700  0.52367600  1
  O  O48  1  0.48262900  0.66569400  0.17403800  1
  O  O49  1  0.08607600  0.46763500  0.83004600  1
  O  O50  1  0.18284300  0.51265400  0.16761500  1
  O  O51  1  0.66309100  0.74528500  0.33922200  1
  O  O52  1  0.79630500  0.79496300  0.75024900  1
  O  O53  1  0.77480900  0.77707000  0.56942700  1
  O  O54  1  0.77151400  0.77030500  0.93081000  1
  O  O55  1  0.52655000  0.62278500  0.82767800  1
  O  O56  1  0.32600300  0.51211500  0.67267100  1
  O  O57  1  0.74033800  0.66092700  0.15614400  1
  O  O58  1  0.38182400  0.46876500  0.33353100  1
  O  O59  1  0.08574200  0.33914900  0.33471600  1
  O  O60  1  0.99735700  0.79298600  0.24701100  1
  O  O61  1  0.99436900  0.77478200  0.42922500  1
  O  O62  1  0.00598000  0.20684000  0.57956200  1
  O  O63  1  0.91636700  0.66032100  0.65729900  1
  O  O64  1  0.61708400  0.53078400  0.66967600  1
  O  O65  1  0.25411200  0.33904100  0.83922500  1
  O  O66  1  0.66908200  0.48357600  0.32232300  1
  O  O67  1  0.46978200  0.37228800  0.16561400  1
  O  O68  1  0.20405500  0.21200200  0.07929200  1
  O  O69  1  0.21871100  0.22575300  0.43584500  1
  O  O70  1  0.21339100  0.19894700  0.25795700  1
  O  O71  1  0.33278500  0.25212200  0.65849100  1
  O  O72  1  0.81570500  0.49005400  0.83111800  1
  O  O73  1  0.89749000  0.52246700  0.16875100  1
  O  O74  1  0.52138000  0.33211000  0.82629100  1
  O  O75  1  0.67355500  0.34138700  0.97844800  1
  O  O76  1  0.66471500  0.34587100  0.47450000  1
  O  O77  1  0.50756000  0.18513000  0.33043600  1
  O  O78  1  0.91851100  0.37994400  0.66842200  1
  O  O79  1  0.80493400  0.32475900  0.32151700  1
  O  O80  1  0.33974900  0.07921000  0.15860200  1
  O  O81  1  0.19850300  0.99054800  0.74314500  1
  O  O82  1  0.20707100  0.99697500  0.92351200  1
  O  O83  1  0.46860200  0.08939500  0.67095500  1
  O  O84  1  0.67902400  0.19032600  0.83352900  1
  O  O85  1  0.62584700  0.10717600  0.17251700  1
  O  O86  1  0.91957300  0.25513000  0.15610800  1
  O  O87  1  0.00456000  0.22950300  0.93647200  1
  O  O88  1  0.98605100  0.19606400  0.75885800  1
  O  O89  1  0.74098400  0.08299600  0.65908900  1
  O  O90  1  0.78153400  0.99160400  0.43496800  1
  O  O91  1  0.79747500  0.00527300  0.25212000  1
