# generated using pymatgen
data_Li2CuSnO4
_symmetry_space_group_name_H-M   'P 1'
_cell_length_a   3.01707900
_cell_length_b   5.41784100
_cell_length_c   5.54141949
_cell_angle_alpha   65.85842787
_cell_angle_beta   90.00000000
_cell_angle_gamma   90.00000000
_symmetry_Int_Tables_number   1
_chemical_formula_structural   Li2CuSnO4
_chemical_formula_sum   'Li2 Cu1 Sn1 O4'
_cell_volume   82.65797550
_cell_formula_units_Z   1
loop_
 _symmetry_equiv_pos_site_id
 _symmetry_equiv_pos_as_xyz
  1  'x, y, z'
loop_
 _atom_site_type_symbol
 _atom_site_label
 _atom_site_symmetry_multiplicity
 _atom_site_fract_x
 _atom_site_fract_y
 _atom_site_fract_z
 _atom_site_occupancy
  Li  Li0  1  0.00000000  0.00000000  0.00000000  1
  Li  Li1  1  0.50000000  0.00000000  0.50000000  1
  Cu  Cu2  1  0.00000000  0.50000000  0.50000000  1
  Sn  Sn3  1  0.50000000  0.50000000  0.00000000  1
  O  O4  1  0.00000000  0.23584700  0.22100500  1
  O  O5  1  0.50000000  0.29747000  0.74575100  1
  O  O6  1  0.00000000  0.76415300  0.77899500  1
  O  O7  1  0.50000000  0.70253000  0.25424900  1
