# generated using pymatgen
data_Li2Mn2P4H6O17
_symmetry_space_group_name_H-M   'P 1'
_cell_length_a   8.74086900
_cell_length_b   9.06539468
_cell_length_c   9.32940861
_cell_angle_alpha   116.69933256
_cell_angle_beta   100.11588977
_cell_angle_gamma   89.95595401
_symmetry_Int_Tables_number   1
_chemical_formula_structural   Li2Mn2P4H6O17
_chemical_formula_sum   'Li4 Mn4 P8 H12 O34'
_cell_volume   647.59638977
_cell_formula_units_Z   2
loop_
 _symmetry_equiv_pos_site_id
 _symmetry_equiv_pos_as_xyz
  1  'x, y, z'
loop_
 _atom_site_type_symbol
 _atom_site_label
 _atom_site_symmetry_multiplicity
 _atom_site_fract_x
 _atom_site_fract_y
 _atom_site_fract_z
 _atom_site_occupancy
  Li  Li0  1  0.24528800  0.80238700  0.88720600  1
  Li  Li1  1  0.67921600  0.26489300  0.48230200  1
  Li  Li2  1  0.32078400  0.73510700  0.51769800  1
  Li  Li3  1  0.75471200  0.19761300  0.11279400  1
  Mn  Mn4  1  0.13262000  0.29084300  0.75325000  1
  Mn  Mn5  1  0.62750100  0.77971400  0.73374800  1
  Mn  Mn6  1  0.37249900  0.22028600  0.26625200  1
  Mn  Mn7  1  0.86738000  0.70915700  0.24675000  1
  P  P8  1  0.41102400  0.08757700  0.85696900  1
  P  P9  1  0.89529300  0.58724300  0.83939300  1
  P  P10  1  0.42976300  0.44885400  0.69587800  1
  P  P11  1  0.13995800  0.00898800  0.35012100  1
  P  P12  1  0.86004200  0.99101200  0.64987900  1
  P  P13  1  0.57023700  0.55114600  0.30412200  1
  P  P14  1  0.10470700  0.41275700  0.16060700  1
  P  P15  1  0.58897600  0.91242300  0.14303100  1
  H  H16  1  0.97459800  0.19956800  0.95178500  1
  H  H17  1  0.57049600  0.28928500  0.89136100  1
  H  H18  1  0.65603300  0.50594300  0.89123400  1
  H  H19  1  0.70441400  0.98355800  0.44289400  1
  H  H20  1  0.11997100  0.59944400  0.60444500  1
  H  H21  1  0.05431500  0.75815100  0.59198900  1
  H  H22  1  0.94568500  0.24184900  0.40801100  1
  H  H23  1  0.88002900  0.40055600  0.39555500  1
  H  H24  1  0.29558600  0.01644200  0.55710600  1
  H  H25  1  0.34396700  0.49405700  0.10876600  1
  H  H26  1  0.42950400  0.71071500  0.10863900  1
  H  H27  1  0.02540200  0.80043200  0.04821500  1
  O  O28  1  0.33604200  0.07522300  0.98599800  1
  O  O29  1  0.56725900  0.20999600  0.94063100  1
  O  O30  1  0.30763800  0.15339300  0.74776400  1
  O  O31  1  0.81528400  0.58687400  0.97365100  1
  O  O32  1  0.03335300  0.73260100  0.92786700  1
  O  O33  1  0.99052400  0.12954000  0.77012900  1
  O  O34  1  0.55573800  0.42570600  0.82891700  1
  O  O35  1  0.26903600  0.45702100  0.74745600  1
  O  O36  1  0.74074300  0.07131300  0.55978300  1
  O  O37  1  0.07919300  0.15655000  0.48095200  1
  O  O38  1  0.95949900  0.42249900  0.73916400  1
  O  O39  1  0.46082000  0.62198200  0.70830500  1
  O  O40  1  0.44000300  0.30651400  0.53144200  1
  O  O41  1  0.77856600  0.61447900  0.71020700  1
  O  O42  1  0.14899000  0.71479400  0.63481000  1
  O  O43  1  0.45104900  0.91802500  0.73090900  1
  O  O44  1  0.78240600  0.94861900  0.76381300  1
  O  O45  1  0.21759400  0.05138100  0.23618700  1
  O  O46  1  0.54895100  0.08197500  0.26909100  1
  O  O47  1  0.85101000  0.28520600  0.36519000  1
  O  O48  1  0.22143400  0.38552100  0.28979300  1
  O  O49  1  0.55999700  0.69348600  0.46855800  1
  O  O50  1  0.53918000  0.37801800  0.29169500  1
  O  O51  1  0.04050100  0.57750100  0.26083600  1
  O  O52  1  0.92080700  0.84345000  0.51904800  1
  O  O53  1  0.25925700  0.92868700  0.44021700  1
  O  O54  1  0.73096400  0.54297900  0.25254400  1
  O  O55  1  0.44426200  0.57429400  0.17108300  1
  O  O56  1  0.00947600  0.87046000  0.22987100  1
  O  O57  1  0.96664700  0.26739900  0.07213300  1
  O  O58  1  0.18471600  0.41312600  0.02634900  1
  O  O59  1  0.69236200  0.84660700  0.25223600  1
  O  O60  1  0.43274100  0.79000400  0.05936900  1
  O  O61  1  0.66395800  0.92477700  0.01400200  1
