# generated using pymatgen
data_Li4Mn3V2Co3O16
_symmetry_space_group_name_H-M   'P 1'
_cell_length_a   5.85558205
_cell_length_b   5.85558205
_cell_length_c   9.49559132
_cell_angle_alpha   89.36721512
_cell_angle_beta   89.36721512
_cell_angle_gamma   59.89470245
_symmetry_Int_Tables_number   1
_chemical_formula_structural   Li4Mn3V2Co3O16
_chemical_formula_sum   'Li4 Mn3 V2 Co3 O16'
_cell_volume   281.64090005
_cell_formula_units_Z   1
loop_
 _symmetry_equiv_pos_site_id
 _symmetry_equiv_pos_as_xyz
  1  'x, y, z'
loop_
 _atom_site_type_symbol
 _atom_site_label
 _atom_site_symmetry_multiplicity
 _atom_site_fract_x
 _atom_site_fract_y
 _atom_site_fract_z
 _atom_site_occupancy
  Li  Li0  1  0.66899800  0.66899800  0.89732100  1
  Li  Li1  1  0.99693600  0.99693600  0.99916300  1
  Li  Li2  1  0.00250700  0.00250700  0.48837900  1
  Li  Li3  1  0.33478900  0.33478900  0.40083700  1
  Mn  Mn4  1  0.82381200  0.82381200  0.21777200  1
  Mn  Mn5  1  0.66258200  0.16993400  0.71583100  1
  Mn  Mn6  1  0.16993400  0.66258200  0.71583100  1
  V  V7  1  0.65965000  0.65965000  0.48313500  1
  V  V8  1  0.32739100  0.32739100  0.99676900  1
  Co  Co9  1  0.82544200  0.34098600  0.21293300  1
  Co  Co10  1  0.34098600  0.82544200  0.21293300  1
  Co  Co11  1  0.16975100  0.16975100  0.71067100  1
  O  O12  1  0.83301500  0.33062500  0.59984300  1
  O  O13  1  0.52259000  0.52259000  0.36358000  1
  O  O14  1  0.67051000  0.67051000  0.10633400  1
  O  O15  1  0.99294500  0.99294500  0.29896100  1
  O  O16  1  0.00238500  0.00238500  0.80832100  1
  O  O17  1  0.33062500  0.83301500  0.59984300  1
  O  O18  1  0.96519600  0.53515600  0.34712100  1
  O  O19  1  0.53515600  0.96519600  0.34712100  1
  O  O20  1  0.17144000  0.17144000  0.07956100  1
  O  O21  1  0.83934900  0.83934900  0.60399800  1
  O  O22  1  0.48820900  0.04228200  0.84002700  1
  O  O23  1  0.04228200  0.48820900  0.84002700  1
  O  O24  1  0.33526300  0.33526300  0.61189000  1
  O  O25  1  0.64681200  0.16008600  0.08683400  1
  O  O26  1  0.48086600  0.48086600  0.83563400  1
  O  O27  1  0.16008600  0.64681200  0.08683400  1
