# generated using pymatgen
data_Li2Co(Si2O5)2
_symmetry_space_group_name_H-M   'P 1'
_cell_length_a   9.98392100
_cell_length_b   6.94435200
_cell_length_c   14.86217615
_cell_angle_alpha   66.33691698
_cell_angle_beta   90.00000000
_cell_angle_gamma   90.00000000
_symmetry_Int_Tables_number   1
_chemical_formula_structural   Li2Co(Si2O5)2
_chemical_formula_sum   'Li8 Co4 Si16 O40'
_cell_volume   943.78586147
_cell_formula_units_Z   4
loop_
 _symmetry_equiv_pos_site_id
 _symmetry_equiv_pos_as_xyz
  1  'x, y, z'
loop_
 _atom_site_type_symbol
 _atom_site_label
 _atom_site_symmetry_multiplicity
 _atom_site_fract_x
 _atom_site_fract_y
 _atom_site_fract_z
 _atom_site_occupancy
  Li  Li0  1  0.85930700  0.97046900  0.41941500  1
  Li  Li1  1  0.09021200  0.54516100  0.76117600  1
  Li  Li2  1  0.59021200  0.45483900  0.73882400  1
  Li  Li3  1  0.35930700  0.02953100  0.08058500  1
  Li  Li4  1  0.64069300  0.97046900  0.91941500  1
  Li  Li5  1  0.40978800  0.54516100  0.26117600  1
  Li  Li6  1  0.90978800  0.45483900  0.23882400  1
  Li  Li7  1  0.14069300  0.02953100  0.58058500  1
  Co  Co8  1  0.86445400  0.78975300  0.66164100  1
  Co  Co9  1  0.36445400  0.21024700  0.83835900  1
  Co  Co10  1  0.63554600  0.78975300  0.16164100  1
  Co  Co11  1  0.13554600  0.21024700  0.33835900  1
  Si  Si12  1  0.72662000  0.64754800  0.86407200  1
  Si  Si13  1  0.44703800  0.66600400  0.83774600  1
  Si  Si14  1  0.02769600  0.08522300  0.16834100  1
  Si  Si15  1  0.26578100  0.78827700  0.45846400  1
  Si  Si16  1  0.76578100  0.21172300  0.04153600  1
  Si  Si17  1  0.52769600  0.91477700  0.33165900  1
  Si  Si18  1  0.77338000  0.64754800  0.36407200  1
  Si  Si19  1  0.05296200  0.66600400  0.33774600  1
  Si  Si20  1  0.94703800  0.33399600  0.66225400  1
  Si  Si21  1  0.22662000  0.35245200  0.63592800  1
  Si  Si22  1  0.47230400  0.08522300  0.66834100  1
  Si  Si23  1  0.23421900  0.78827700  0.95846400  1
  Si  Si24  1  0.73421900  0.21172300  0.54153600  1
  Si  Si25  1  0.97230400  0.91477700  0.83165900  1
  Si  Si26  1  0.55296200  0.33399600  0.16225400  1
  Si  Si27  1  0.27338000  0.35245200  0.13592800  1
  O  O28  1  0.55102500  0.17041300  0.27906800  1
  O  O29  1  0.69612600  0.29815100  0.11854800  1
  O  O30  1  0.17846000  0.97888600  0.46533500  1
  O  O31  1  0.98808900  0.18435300  0.24679400  1
  O  O32  1  0.42163200  0.27966100  0.10528800  1
  O  O33  1  0.71893700  0.66199800  0.75309600  1
  O  O34  1  0.17694500  0.17672200  0.11803200  1
  O  O35  1  0.41917500  0.86023600  0.42071300  1
  O  O36  1  0.77497700  0.41162500  0.93530700  1
  O  O37  1  0.91917500  0.13976400  0.07928700  1
  O  O38  1  0.67694500  0.82327800  0.38196800  1
  O  O39  1  0.97276200  0.56912100  0.65149600  1
  O  O40  1  0.47276200  0.43087900  0.84850400  1
  O  O41  1  0.27497700  0.58837500  0.56469300  1
  O  O42  1  0.92163200  0.72033900  0.39471200  1
  O  O43  1  0.48808900  0.81564700  0.25320600  1
  O  O44  1  0.67846000  0.02111400  0.03466500  1
  O  O45  1  0.19612600  0.70184900  0.38145200  1
  O  O46  1  0.05102500  0.82958700  0.22093200  1
  O  O47  1  0.21893700  0.33800200  0.74690400  1
  O  O48  1  0.78106300  0.66199800  0.25309600  1
  O  O49  1  0.94897500  0.17041300  0.77906800  1
  O  O50  1  0.80387400  0.29815100  0.61854800  1
  O  O51  1  0.32154000  0.97888600  0.96533500  1
  O  O52  1  0.51191100  0.18435300  0.74679400  1
  O  O53  1  0.07836800  0.27966100  0.60528800  1
  O  O54  1  0.72502300  0.41162500  0.43530700  1
  O  O55  1  0.52723800  0.56912100  0.15149600  1
  O  O56  1  0.02723800  0.43087900  0.34850400  1
  O  O57  1  0.32305500  0.17672200  0.61803200  1
  O  O58  1  0.08082500  0.86023600  0.92071300  1
  O  O59  1  0.22502300  0.58837500  0.06469300  1
  O  O60  1  0.58082500  0.13976400  0.57928700  1
  O  O61  1  0.82305500  0.82327800  0.88196800  1
  O  O62  1  0.28106300  0.33800200  0.24690400  1
  O  O63  1  0.57836800  0.72033900  0.89471200  1
  O  O64  1  0.01191100  0.81564700  0.75320600  1
  O  O65  1  0.82154000  0.02111400  0.53466500  1
  O  O66  1  0.30387400  0.70184900  0.88145200  1
  O  O67  1  0.44897500  0.82958700  0.72093200  1
