# generated using pymatgen
data_LiCoPO4F
_symmetry_space_group_name_H-M   'P 1'
_cell_length_a   13.31976700
_cell_length_b   5.11787900
_cell_length_c   11.28037439
_cell_angle_alpha   89.66798317
_cell_angle_beta   90.00000000
_cell_angle_gamma   90.00000000
_symmetry_Int_Tables_number   1
_chemical_formula_structural   LiCoPO4F
_chemical_formula_sum   'Li8 Co8 P8 O32 F8'
_cell_volume   768.95843284
_cell_formula_units_Z   8
loop_
 _symmetry_equiv_pos_site_id
 _symmetry_equiv_pos_as_xyz
  1  'x, y, z'
loop_
 _atom_site_type_symbol
 _atom_site_label
 _atom_site_symmetry_multiplicity
 _atom_site_fract_x
 _atom_site_fract_y
 _atom_site_fract_z
 _atom_site_occupancy
  Li  Li0  1  0.77012500  0.78817200  0.17985900  1
  Li  Li1  1  0.22987500  0.78817200  0.67985900  1
  Li  Li2  1  0.75719700  0.32759100  0.81437900  1
  Li  Li3  1  0.24280300  0.32759100  0.31437900  1
  Li  Li4  1  0.35734300  0.21494600  0.10574500  1
  Li  Li5  1  0.64265700  0.21494600  0.60574500  1
  Li  Li6  1  0.22394100  0.20913500  0.81380500  1
  Li  Li7  1  0.77605900  0.20913500  0.31380500  1
  Co  Co8  1  0.48030200  0.78108400  0.16935700  1
  Co  Co9  1  0.51969800  0.78108400  0.66935700  1
  Co  Co10  1  0.01863700  0.71608900  0.67088700  1
  Co  Co11  1  0.98136300  0.71608900  0.17088700  1
  Co  Co12  1  0.01511500  0.28390400  0.83072200  1
  Co  Co13  1  0.98488500  0.28390400  0.33072200  1
  Co  Co14  1  0.47602400  0.21309100  0.33798400  1
  Co  Co15  1  0.52397600  0.21309100  0.83798400  1
  P  P16  1  0.87688300  0.79372600  0.90813700  1
  P  P17  1  0.12311700  0.79372600  0.40813700  1
  P  P18  1  0.61903700  0.71061800  0.40454800  1
  P  P19  1  0.38096300  0.71061800  0.90454800  1
  P  P20  1  0.62036200  0.29496500  0.09738000  1
  P  P21  1  0.37963800  0.29496500  0.59738000  1
  P  P22  1  0.88205900  0.19318200  0.59124200  1
  P  P23  1  0.11794100  0.19318200  0.09124200  1
  O  O24  1  0.90752500  0.89898800  0.60961700  1
  O  O25  1  0.09247500  0.89898800  0.10961700  1
  O  O26  1  0.52847100  0.84995000  0.33931500  1
  O  O27  1  0.47152900  0.84995000  0.83931500  1
  O  O28  1  0.71749600  0.80220300  0.35370200  1
  O  O29  1  0.28250400  0.80220300  0.85370200  1
  O  O30  1  0.39278800  0.79546100  0.03704800  1
  O  O31  1  0.60721200  0.79546100  0.53704800  1
  O  O32  1  0.88822500  0.76726500  0.04545300  1
  O  O33  1  0.11177500  0.76726500  0.54545300  1
  O  O34  1  0.77838900  0.68100100  0.87016200  1
  O  O35  1  0.22161100  0.68100100  0.37016200  1
  O  O36  1  0.03214900  0.64455400  0.34846100  1
  O  O37  1  0.96785100  0.64455400  0.84846100  1
  O  O38  1  0.60413100  0.59063300  0.12617200  1
  O  O39  1  0.39586900  0.59063300  0.62617200  1
  O  O40  1  0.40024600  0.40790100  0.89585700  1
  O  O41  1  0.59975400  0.40790100  0.39585700  1
  O  O42  1  0.96566100  0.35137200  0.65789500  1
  O  O43  1  0.03433900  0.35137200  0.15789500  1
  O  O44  1  0.77932100  0.26193900  0.63753000  1
  O  O45  1  0.22067900  0.26193900  0.13753000  1
  O  O46  1  0.88972900  0.26101500  0.45661900  1
  O  O47  1  0.11027100  0.26101500  0.95661900  1
  O  O48  1  0.61506300  0.26159700  0.95905800  1
  O  O49  1  0.38493700  0.26159700  0.45905800  1
  O  O50  1  0.71624700  0.18475700  0.14735600  1
  O  O51  1  0.28375300  0.18475700  0.64735600  1
  O  O52  1  0.52576800  0.14782600  0.14755200  1
  O  O53  1  0.47423200  0.14782600  0.64755200  1
  O  O54  1  0.89201400  0.08997100  0.87270000  1
  O  O55  1  0.10798600  0.08997100  0.37270000  1
  F  F56  1  0.90758200  0.99847100  0.25458800  1
  F  F57  1  0.37099300  0.00679000  0.25060900  1
  F  F58  1  0.62900700  0.00679000  0.75060900  1
  F  F59  1  0.09241800  0.99847100  0.75458800  1
  F  F60  1  0.41062200  0.48513500  0.23923800  1
  F  F61  1  0.86872200  0.49699400  0.24834000  1
  F  F62  1  0.58937800  0.48513500  0.73923800  1
  F  F63  1  0.13127800  0.49699400  0.74834000  1
