# generated using pymatgen
data_Li3Fe10O7F9
_symmetry_space_group_name_H-M   'P 1'
_cell_length_a   6.10324000
_cell_length_b   6.20469491
_cell_length_c   10.61635109
_cell_angle_alpha   75.00401462
_cell_angle_beta   74.57448855
_cell_angle_gamma   61.71900948
_symmetry_Int_Tables_number   1
_chemical_formula_structural   Li3Fe10O7F9
_chemical_formula_sum   'Li3 Fe10 O7 F9'
_cell_volume   337.08878635
_cell_formula_units_Z   1
loop_
 _symmetry_equiv_pos_site_id
 _symmetry_equiv_pos_as_xyz
  1  'x, y, z'
loop_
 _atom_site_type_symbol
 _atom_site_label
 _atom_site_symmetry_multiplicity
 _atom_site_fract_x
 _atom_site_fract_y
 _atom_site_fract_z
 _atom_site_occupancy
  Li  Li0  1  0.21365400  0.12634200  0.43058300  1
  Li  Li1  1  0.79221600  0.86600500  0.57419000  1
  Li  Li2  1  0.00237900  0.99925800  0.99554700  1
  Fe  Fe3  1  0.25384800  0.72893200  0.24928200  1
  Fe  Fe4  1  0.26611400  0.75800600  0.75582800  1
  Fe  Fe5  1  0.25372400  0.24805400  0.75465900  1
  Fe  Fe6  1  0.49942000  0.52007900  0.98890100  1
  Fe  Fe7  1  0.75680900  0.73176400  0.25213200  1
  Fe  Fe8  1  0.73984200  0.25076800  0.25000300  1
  Fe  Fe9  1  0.49989100  0.50139500  0.50186200  1
  Fe  Fe10  1  0.48941500  0.99716200  0.98953700  1
  Fe  Fe11  1  0.99744800  0.50411300  0.99940800  1
  Fe  Fe12  1  0.74882600  0.27252400  0.74827900  1
  O  O13  1  0.41478400  0.80328600  0.36673600  1
  O  O14  1  0.36765000  0.37921700  0.88464000  1
  O  O15  1  0.10363700  0.65268200  0.12221000  1
  O  O16  1  0.35094000  0.88870700  0.88150100  1
  O  O17  1  0.88221500  0.35482200  0.88125500  1
  O  O18  1  0.63871600  0.60588700  0.12002400  1
  O  O19  1  0.59102000  0.19499400  0.63254100  1
  F  F20  1  0.10089800  0.12375700  0.12717000  1
  F  F21  1  0.12394400  0.65060700  0.63893900  1
  F  F22  1  0.12889100  0.11347900  0.62851200  1
  F  F23  1  0.39277400  0.34030000  0.36684200  1
  F  F24  1  0.62581600  0.64531200  0.62556500  1
  F  F25  1  0.62898400  0.11103000  0.11577500  1
  F  F26  1  0.87447000  0.89264500  0.36872500  1
  F  F27  1  0.88727400  0.35332700  0.36915900  1
  F  F28  1  0.87441100  0.88553700  0.88019100  1
