# generated using pymatgen
data_Li5MnP3O11
_symmetry_space_group_name_H-M   'P 1'
_cell_length_a   5.37798500
_cell_length_b   8.57452485
_cell_length_c   9.63373654
_cell_angle_alpha   84.51305111
_cell_angle_beta   88.68880285
_cell_angle_gamma   84.34683503
_symmetry_Int_Tables_number   1
_chemical_formula_structural   Li5MnP3O11
_chemical_formula_sum   'Li10 Mn2 P6 O22'
_cell_volume   440.01999466
_cell_formula_units_Z   2
loop_
 _symmetry_equiv_pos_site_id
 _symmetry_equiv_pos_as_xyz
  1  'x, y, z'
loop_
 _atom_site_type_symbol
 _atom_site_label
 _atom_site_symmetry_multiplicity
 _atom_site_fract_x
 _atom_site_fract_y
 _atom_site_fract_z
 _atom_site_occupancy
  Li  Li0  1  0.77820900  0.66303300  0.66114700  1
  Li  Li1  1  0.71266800  0.37819000  0.16696000  1
  Li  Li2  1  0.68085300  0.61466100  0.32037300  1
  Li  Li3  1  0.82824400  0.37966400  0.84650400  1
  Li  Li4  1  0.48872200  0.99556200  0.15913300  1
  Li  Li5  1  0.51127800  0.00443800  0.84086700  1
  Li  Li6  1  0.17175600  0.62033600  0.15349600  1
  Li  Li7  1  0.31914700  0.38533900  0.67962700  1
  Li  Li8  1  0.28733200  0.62181000  0.83304000  1
  Li  Li9  1  0.22179100  0.33696700  0.33885300  1
  Mn  Mn10  1  0.00000000  0.00000000  0.00000000  1
  Mn  Mn11  1  0.50000000  0.00000000  0.50000000  1
  P  P12  1  0.96239900  0.04728400  0.68853100  1
  P  P13  1  0.77761800  0.70231100  0.98469700  1
  P  P14  1  0.73011100  0.32763600  0.52170400  1
  P  P15  1  0.26988900  0.67236400  0.47829600  1
  P  P16  1  0.22238200  0.29768900  0.01530300  1
  P  P17  1  0.03760100  0.95271600  0.31146900  1
  O  O18  1  0.04841600  0.74157000  0.94035400  1
  O  O19  1  0.94754900  0.18453900  0.55981000  1
  O  O20  1  0.87197000  0.13066600  0.81779400  1
  O  O21  1  0.79263300  0.60028400  0.12777200  1
  O  O22  1  0.81993100  0.39973600  0.38103500  1
  O  O23  1  0.76219100  0.01605200  0.30755900  1
  O  O24  1  0.77203100  0.93133700  0.66229900  1
  O  O25  1  0.71366300  0.43222700  0.64252600  1
  O  O26  1  0.65968000  0.61685200  0.87095500  1
  O  O27  1  0.63029500  0.86489100  0.00523000  1
  O  O28  1  0.52111100  0.74620800  0.48365600  1
  O  O29  1  0.47888900  0.25379200  0.51634400  1
  O  O30  1  0.36970500  0.13510900  0.99477000  1
  O  O31  1  0.34032000  0.38314800  0.12904500  1
  O  O32  1  0.28633700  0.56777300  0.35747400  1
  O  O33  1  0.22796900  0.06866300  0.33770100  1
  O  O34  1  0.23780900  0.98394800  0.69244100  1
  O  O35  1  0.18006900  0.60026400  0.61896500  1
  O  O36  1  0.20736700  0.39971600  0.87222800  1
  O  O37  1  0.12803000  0.86933400  0.18220600  1
  O  O38  1  0.05245100  0.81546100  0.44019000  1
  O  O39  1  0.95158400  0.25843000  0.05964600  1
