# generated using pymatgen
data_Li3Mn3(PO4)4
_symmetry_space_group_name_H-M   'P 1'
_cell_length_a   6.00365800
_cell_length_b   9.63087800
_cell_length_c   11.08334078
_cell_angle_alpha   65.03253228
_cell_angle_beta   90.00000000
_cell_angle_gamma   90.00000000
_symmetry_Int_Tables_number   1
_chemical_formula_structural   Li3Mn3(PO4)4
_chemical_formula_sum   'Li6 Mn6 P8 O32'
_cell_volume   580.95584552
_cell_formula_units_Z   2
loop_
 _symmetry_equiv_pos_site_id
 _symmetry_equiv_pos_as_xyz
  1  'x, y, z'
loop_
 _atom_site_type_symbol
 _atom_site_label
 _atom_site_symmetry_multiplicity
 _atom_site_fract_x
 _atom_site_fract_y
 _atom_site_fract_z
 _atom_site_occupancy
  Li  Li0  1  0.27698900  0.00131600  0.51339800  1
  Li  Li1  1  0.50712600  0.65181700  0.72745900  1
  Li  Li2  1  0.26001600  0.51262700  0.98410300  1
  Li  Li3  1  0.72301100  0.50131600  0.51339800  1
  Li  Li4  1  0.49287400  0.15181700  0.72745900  1
  Li  Li5  1  0.73998400  0.01262700  0.98410300  1
  Mn  Mn6  1  0.00705000  0.87144200  0.77350900  1
  Mn  Mn7  1  0.00194500  0.83139100  0.28360100  1
  Mn  Mn8  1  0.99295000  0.37144200  0.77350900  1
  Mn  Mn9  1  0.49729300  0.62053800  0.21368900  1
  Mn  Mn10  1  0.99805500  0.33139100  0.28360100  1
  Mn  Mn11  1  0.50270700  0.12053800  0.21368900  1
  P  P12  1  0.48788900  0.83034800  0.90550200  1
  P  P13  1  0.99693500  0.74698600  0.59562700  1
  P  P14  1  0.49600700  0.76238000  0.40244100  1
  P  P15  1  0.51211100  0.33034800  0.90550200  1
  P  P16  1  0.99279300  0.65829400  0.09758300  1
  P  P17  1  0.00306500  0.24698600  0.59562700  1
  P  P18  1  0.50399300  0.26238000  0.40244100  1
  P  P19  1  0.00720700  0.15829400  0.09758300  1
  O  O20  1  0.28093800  0.93389700  0.83526600  1
  O  O21  1  0.69520600  0.93302700  0.84258200  1
  O  O22  1  0.00152100  0.68265500  0.95246000  1
  O  O23  1  0.48273100  0.67626600  0.90045400  1
  O  O24  1  0.49022300  0.93178300  0.38234700  1
  O  O25  1  0.20633300  0.78815000  0.65786600  1
  O  O26  1  0.80811700  0.78777800  0.67285400  1
  O  O27  1  0.99961400  0.86242700  0.44446600  1
  O  O28  1  0.50518500  0.64900700  0.54598900  1
  O  O29  1  0.29974400  0.72975000  0.32285600  1
  O  O30  1  0.70134900  0.72757100  0.32857900  1
  O  O31  1  0.98331100  0.58351500  0.60719800  1
  O  O32  1  0.99139800  0.80977000  0.11452200  1
  O  O33  1  0.49426200  0.80938900  0.05608500  1
  O  O34  1  0.30479400  0.43302700  0.84258200  1
  O  O35  1  0.71906200  0.43389700  0.83526600  1
  O  O36  1  0.99847900  0.18265500  0.95246000  1
  O  O37  1  0.79380500  0.55356000  0.17298300  1
  O  O38  1  0.19709300  0.55162200  0.16902600  1
  O  O39  1  0.51726900  0.17626600  0.90045400  1
  O  O40  1  0.50977700  0.43178300  0.38234700  1
  O  O41  1  0.79366700  0.28815000  0.65786600  1
  O  O42  1  0.19188300  0.28777800  0.67285400  1
  O  O43  1  0.00038600  0.36242700  0.44446600  1
  O  O44  1  0.49481500  0.14900700  0.54598900  1
  O  O45  1  0.29865100  0.22757100  0.32857900  1
  O  O46  1  0.70025600  0.22975000  0.32285600  1
  O  O47  1  0.01668900  0.08351500  0.60719800  1
  O  O48  1  0.00860200  0.30977000  0.11452200  1
  O  O49  1  0.50573800  0.30938900  0.05608500  1
  O  O50  1  0.80290700  0.05162200  0.16902600  1
  O  O51  1  0.20619500  0.05356000  0.17298300  1
