# generated using pymatgen
data_Li10Ti2Fe3Ni3O16
_symmetry_space_group_name_H-M   'P 1'
_cell_length_a   5.95613800
_cell_length_b   5.97404066
_cell_length_c   9.82747873
_cell_angle_alpha   89.74338575
_cell_angle_beta   89.49040809
_cell_angle_gamma   60.32075799
_symmetry_Int_Tables_number   1
_chemical_formula_structural   Li10Ti2Fe3Ni3O16
_chemical_formula_sum   'Li10 Ti2 Fe3 Ni3 O16'
_cell_volume   303.79676852
_cell_formula_units_Z   1
loop_
 _symmetry_equiv_pos_site_id
 _symmetry_equiv_pos_as_xyz
  1  'x, y, z'
loop_
 _atom_site_type_symbol
 _atom_site_label
 _atom_site_symmetry_multiplicity
 _atom_site_fract_x
 _atom_site_fract_y
 _atom_site_fract_z
 _atom_site_occupancy
  Li  Li0  1  0.19517700  0.61310600  0.95782200  1
  Li  Li1  1  0.19332800  0.19715900  0.95894100  1
  Li  Li2  1  0.33062500  0.33585900  0.74737100  1
  Li  Li3  1  0.60509500  0.19994700  0.96142900  1
  Li  Li4  1  0.38108200  0.80856200  0.45816100  1
  Li  Li5  1  0.00098800  0.00042800  0.02683300  1
  Li  Li6  1  0.65974300  0.67305700  0.24787200  1
  Li  Li7  1  0.79683100  0.80918500  0.46497100  1
  Li  Li8  1  0.99303900  0.00188200  0.53012500  1
  Li  Li9  1  0.79552100  0.40090600  0.46470600  1
  Ti  Ti10  1  0.34035500  0.32137600  0.48645800  1
  Ti  Ti11  1  0.67746800  0.65595600  0.98528200  1
  Fe  Fe12  1  0.16848400  0.65743500  0.22920800  1
  Fe  Fe13  1  0.16642400  0.16803800  0.22692800  1
  Fe  Fe14  1  0.34340600  0.82666500  0.72853500  1
  Ni  Ni15  1  0.66031600  0.16879600  0.22678100  1
  Ni  Ni16  1  0.83183200  0.83010700  0.72786600  1
  Ni  Ni17  1  0.83146400  0.33869900  0.72712900  1
  O  O18  1  0.17633200  0.65963900  0.60039700  1
  O  O19  1  0.01454100  0.50214600  0.35821700  1
  O  O20  1  0.01012800  0.99584500  0.83509300  1
  O  O21  1  0.48373800  0.49431300  0.35353400  1
  O  O22  1  0.17213000  0.16975400  0.59714300  1
  O  O23  1  0.32699000  0.34002400  0.10918400  1
  O  O24  1  0.00347300  0.99114900  0.33581300  1
  O  O25  1  0.49210000  0.02366100  0.36237400  1
  O  O26  1  0.50602300  0.98013800  0.85552900  1
  O  O27  1  0.65005800  0.17797700  0.59513400  1
  O  O28  1  0.34519600  0.81580900  0.09672800  1
  O  O29  1  0.50735300  0.51360200  0.85388400  1
  O  O30  1  0.65751600  0.67226200  0.60942100  1
  O  O31  1  0.83321500  0.82444500  0.09896200  1
  O  O32  1  0.97778700  0.51195600  0.85811400  1
  O  O33  1  0.82045200  0.34645900  0.09028100  1
