# generated using pymatgen
data_Li2Mn2FeO6
_symmetry_space_group_name_H-M   'P 1'
_cell_length_a   5.13645332
_cell_length_b   5.13645332
_cell_length_c   10.25700200
_cell_angle_alpha   90.00000000
_cell_angle_beta   90.00000000
_cell_angle_gamma   118.84308455
_symmetry_Int_Tables_number   1
_chemical_formula_structural   Li2Mn2FeO6
_chemical_formula_sum   'Li4 Mn4 Fe2 O12'
_cell_volume   237.04104725
_cell_formula_units_Z   2
loop_
 _symmetry_equiv_pos_site_id
 _symmetry_equiv_pos_as_xyz
  1  'x, y, z'
loop_
 _atom_site_type_symbol
 _atom_site_label
 _atom_site_symmetry_multiplicity
 _atom_site_fract_x
 _atom_site_fract_y
 _atom_site_fract_z
 _atom_site_occupancy
  Li  Li0  1  0.65213300  0.15213300  0.75000000  1
  Li  Li1  1  0.84786700  0.34786700  0.25000000  1
  Li  Li2  1  0.15213300  0.65213300  0.75000000  1
  Li  Li3  1  0.34786700  0.84786700  0.25000000  1
  Mn  Mn4  1  0.83747300  0.16252700  0.50000000  1
  Mn  Mn5  1  0.66252700  0.33747300  0.00000000  1
  Mn  Mn6  1  0.33747300  0.66252700  0.00000000  1
  Mn  Mn7  1  0.16252700  0.83747300  0.50000000  1
  Fe  Fe8  1  0.00000000  0.00000000  0.00000000  1
  Fe  Fe9  1  0.50000000  0.50000000  0.50000000  1
  O  O10  1  0.66625500  0.02006600  0.10607700  1
  O  O11  1  0.33374500  0.97993400  0.89392300  1
  O  O12  1  0.52006600  0.16625500  0.39392300  1
  O  O13  1  0.83374500  0.47993400  0.60607700  1
  O  O14  1  0.16306800  0.16306800  0.59610200  1
  O  O15  1  0.33693200  0.33693200  0.09610200  1
  O  O16  1  0.66306800  0.66306800  0.90389800  1
  O  O17  1  0.97993400  0.33374500  0.89392300  1
  O  O18  1  0.83693200  0.83693200  0.40389800  1
  O  O19  1  0.16625500  0.52006600  0.39392300  1
  O  O20  1  0.47993400  0.83374500  0.60607700  1
  O  O21  1  0.02006600  0.66625500  0.10607700  1
