# generated using pymatgen
data_Li9TiMn3(PO4)6
_symmetry_space_group_name_H-M   'P 1'
_cell_length_a   8.53923957
_cell_length_b   9.31199709
_cell_length_c   8.68890558
_cell_angle_alpha   117.84014311
_cell_angle_beta   59.62801310
_cell_angle_gamma   116.86311112
_symmetry_Int_Tables_number   1
_chemical_formula_structural   Li9TiMn3(PO4)6
_chemical_formula_sum   'Li9 Ti1 Mn3 P6 O24'
_cell_volume   505.58744291
_cell_formula_units_Z   1
loop_
 _symmetry_equiv_pos_site_id
 _symmetry_equiv_pos_as_xyz
  1  'x, y, z'
loop_
 _atom_site_type_symbol
 _atom_site_label
 _atom_site_symmetry_multiplicity
 _atom_site_fract_x
 _atom_site_fract_y
 _atom_site_fract_z
 _atom_site_occupancy
  Li  Li0  1  0.93706998  0.85960039  0.25646893  1
  Li  Li1  1  0.25968183  0.82522492  0.64214860  1
  Li  Li2  1  0.72051941  0.91362341  0.94956173  1
  Li  Li3  1  0.42222227  0.40163613  0.24396190  1
  Li  Li4  1  0.14329767  0.35225096  0.77136870  1
  Li  Li5  1  0.66954865  0.33676867  0.34950522  1
  Li  Li6  1  0.53689755  0.60200947  0.81701771  1
  Li  Li7  1  0.33942121  0.09879779  0.04442068  1
  Li  Li8  1  0.79565614  0.33467346  0.52526087  1
  Ti  Ti9  1  0.66056149  0.95080570  0.63525353  1
  Mn  Mn10  1  0.13939230  0.42381423  0.14566255  1
  Mn  Mn11  1  0.32511107  0.00631215  0.36300295  1
  Mn  Mn12  1  0.86900824  0.56690115  0.85188150  1
  P  P13  1  0.06662834  0.23649483  0.44049720  1
  P  P14  1  0.55025765  0.74622421  0.24640659  1
  P  P15  1  0.27031482  0.74701632  0.93591278  1
  P  P16  1  0.77083845  0.24572848  0.00914935  1
  P  P17  1  0.45398785  0.23922727  0.73672970  1
  P  P18  1  0.92523213  0.71839986  0.53697282  1
  O  O19  1  0.22487093  0.89288657  0.12661748  1
  O  O20  1  0.24182007  0.58145022  0.96071382  1
  O  O21  1  0.90103467  0.52874640  0.41082429  1
  O  O22  1  0.13582097  0.81963967  0.50423207  1
  O  O23  1  0.17688340  0.24523631  0.23457843  1
  O  O24  1  0.53482176  0.87034228  0.18579903  1
  O  O25  1  0.15021480  0.72577282  0.83685793  1
  O  O26  1  0.39700058  0.57514586  0.21681445  1
  O  O27  1  0.19296402  0.20768276  0.49780044  1
  O  O28  1  0.51821665  0.82032729  0.46157695  1
  O  O29  1  0.75091549  0.72183188  0.13539106  1
  O  O30  1  0.48458689  0.79509370  0.80789008  1
  O  O31  1  0.56446793  0.25294016  0.15027632  1
  O  O32  1  0.25508849  0.26213105  0.84839804  1
  O  O33  1  0.51553424  0.19547472  0.51975439  1
  O  O34  1  0.83935008  0.80025221  0.48793549  1
  O  O35  1  0.60672040  0.40788893  0.78585260  1
  O  O36  1  0.86560714  0.24107100  0.11808350  1
  O  O37  1  0.46080867  0.09606024  0.77953220  1
  O  O38  1  0.81788194  0.72410981  0.74726566  1
  O  O39  1  0.87714694  0.09099529  0.44919205  1
  O  O40  1  0.01912979  0.40506210  0.57018838  1
  O  O41  1  0.88445305  0.39592730  0.93287180  1
  O  O42  1  0.76391507  0.07862105  0.84097122  1
