# generated using pymatgen
data_Li3Mn4(BO3)4
_symmetry_space_group_name_H-M   'P 1'
_cell_length_a   6.17320900
_cell_length_b   9.05168721
_cell_length_c   9.34097088
_cell_angle_alpha   82.15805044
_cell_angle_beta   83.38174453
_cell_angle_gamma   76.99513147
_symmetry_Int_Tables_number   1
_chemical_formula_structural   Li3Mn4(BO3)4
_chemical_formula_sum   'Li6 Mn8 B8 O24'
_cell_volume   501.87417443
_cell_formula_units_Z   2
loop_
 _symmetry_equiv_pos_site_id
 _symmetry_equiv_pos_as_xyz
  1  'x, y, z'
loop_
 _atom_site_type_symbol
 _atom_site_label
 _atom_site_symmetry_multiplicity
 _atom_site_fract_x
 _atom_site_fract_y
 _atom_site_fract_z
 _atom_site_occupancy
  Li  Li0  1  0.83364600  0.28264300  0.00251100  1
  Li  Li1  1  0.16635400  0.71735700  0.99748900  1
  Li  Li2  1  0.58056300  0.77969200  0.23767100  1
  Li  Li3  1  0.67584800  0.71801500  0.50805100  1
  Li  Li4  1  0.32415200  0.28198500  0.49194900  1
  Li  Li5  1  0.41943700  0.22030800  0.76232900  1
  Mn  Mn6  1  0.77348200  0.94902100  0.96616000  1
  Mn  Mn7  1  0.22651800  0.05097900  0.03384000  1
  Mn  Mn8  1  0.98084400  0.53695500  0.27023800  1
  Mn  Mn9  1  0.73500000  0.05467200  0.51763200  1
  Mn  Mn10  1  0.52048400  0.44224400  0.22805700  1
  Mn  Mn11  1  0.26500000  0.94532800  0.48236800  1
  Mn  Mn12  1  0.01915600  0.46304500  0.72976200  1
  Mn  Mn13  1  0.47951600  0.55775600  0.77194300  1
  B  B14  1  0.76979800  0.61524300  0.97855600  1
  B  B15  1  0.23020200  0.38475700  0.02144400  1
  B  B16  1  0.97025600  0.87283300  0.27342700  1
  B  B17  1  0.70149200  0.38929700  0.52407000  1
  B  B18  1  0.53338500  0.11383200  0.22593500  1
  B  B19  1  0.29850800  0.61070300  0.47593000  1
  B  B20  1  0.02974400  0.12716700  0.72657300  1
  B  B21  1  0.46661500  0.88616800  0.77406500  1
  O  O22  1  0.75094000  0.49720200  0.89773600  1
  O  O23  1  0.87935700  0.72562300  0.91683200  1
  O  O24  1  0.60948900  0.23587500  0.15293400  1
  O  O25  1  0.30576400  0.39580500  0.87473500  1
  O  O26  1  0.04719700  0.88527100  0.12650700  1
  O  O27  1  0.69423600  0.60419500  0.12526500  1
  O  O28  1  0.12064300  0.27437700  0.08316800  1
  O  O29  1  0.86387900  0.75759300  0.33395400  1
  O  O30  1  0.24906000  0.50279800  0.10226400  1
  O  O31  1  0.99181300  0.98180600  0.36065300  1
  O  O32  1  0.75859100  0.40609500  0.37541900  1
  O  O33  1  0.52348200  0.99178200  0.15076200  1
  O  O34  1  0.72985100  0.50429900  0.60302300  1
  O  O35  1  0.46619700  0.10523100  0.37590900  1
  O  O36  1  0.27014900  0.49570100  0.39697700  1
  O  O37  1  0.00818700  0.01819400  0.63934700  1
  O  O38  1  0.39112500  0.73000400  0.40959500  1
  O  O39  1  0.13612100  0.24240700  0.66604600  1
  O  O40  1  0.53380300  0.89476900  0.62409100  1
  O  O41  1  0.24140900  0.59390500  0.62458100  1
  O  O42  1  0.95280300  0.11472900  0.87349300  1
  O  O43  1  0.60887500  0.26999600  0.59040500  1
  O  O44  1  0.39051100  0.76412500  0.84706600  1
  O  O45  1  0.47651800  0.00821800  0.84923800  1
