# generated using pymatgen
data_Li4Ni8O9F7
_symmetry_space_group_name_H-M   'P 1'
_cell_length_a   5.94522454
_cell_length_b   5.91144836
_cell_length_c   10.44735798
_cell_angle_alpha   107.34483583
_cell_angle_beta   72.60910993
_cell_angle_gamma   123.29262102
_symmetry_Int_Tables_number   1
_chemical_formula_structural   Li4Ni8O9F7
_chemical_formula_sum   'Li4 Ni8 O9 F7'
_cell_volume   288.71506524
_cell_formula_units_Z   1
loop_
 _symmetry_equiv_pos_site_id
 _symmetry_equiv_pos_as_xyz
  1  'x, y, z'
loop_
 _atom_site_type_symbol
 _atom_site_label
 _atom_site_symmetry_multiplicity
 _atom_site_fract_x
 _atom_site_fract_y
 _atom_site_fract_z
 _atom_site_occupancy
  Li  Li0  1  0.81857400  0.71801900  0.05499700  1
  Li  Li1  1  0.69710500  0.79118500  0.44994700  1
  Li  Li2  1  0.29277200  0.20681300  0.55029900  1
  Li  Li3  1  0.20194400  0.29224700  0.94972300  1
  Ni  Ni4  1  0.24481100  0.75087700  0.24412800  1
  Ni  Ni5  1  0.25030000  0.24173000  0.24742400  1
  Ni  Ni6  1  0.99744000  0.49877500  0.49910400  1
  Ni  Ni7  1  0.49291100  0.00102900  0.00277600  1
  Ni  Ni8  1  0.24811000  0.74903500  0.74996600  1
  Ni  Ni9  1  0.75081400  0.24896500  0.24875300  1
  Ni  Ni10  1  0.74697600  0.74915100  0.75047200  1
  Ni  Ni11  1  0.74845200  0.24927700  0.75010500  1
  O  O12  1  0.14768000  0.90757800  0.13141000  1
  O  O13  1  0.11674600  0.37429700  0.15604200  1
  O  O14  1  0.59497600  0.90302100  0.13702500  1
  O  O15  1  0.61094900  0.88348600  0.65450200  1
  O  O16  1  0.90736100  0.59442400  0.36148900  1
  O  O17  1  0.09127300  0.40487400  0.63541100  1
  O  O18  1  0.38531800  0.12214400  0.34299600  1
  O  O19  1  0.40441300  0.09505700  0.86337000  1
  O  O20  1  0.88554100  0.61569900  0.84524000  1
  F  F21  1  0.11273300  0.87570400  0.61827700  1
  F  F22  1  0.63278800  0.38612300  0.12394400  1
  F  F23  1  0.36979000  0.59856300  0.37411100  1
  F  F24  1  0.62187700  0.38320400  0.61913800  1
  F  F25  1  0.38066700  0.62117700  0.87904200  1
  F  F26  1  0.87771900  0.12167800  0.37985500  1
  F  F27  1  0.86995700  0.11586500  0.88045500  1
