# generated using pymatgen
data_Li2MnV(PO4)3
_symmetry_space_group_name_H-M   'P 1'
_cell_length_a   8.30838100
_cell_length_b   8.31154595
_cell_length_c   8.95526670
_cell_angle_alpha   89.05262749
_cell_angle_beta   117.31594846
_cell_angle_gamma   119.21323654
_symmetry_Int_Tables_number   1
_chemical_formula_structural   Li2MnV(PO4)3
_chemical_formula_sum   'Li4 Mn2 V2 P6 O24'
_cell_volume   462.09061573
_cell_formula_units_Z   2
loop_
 _symmetry_equiv_pos_site_id
 _symmetry_equiv_pos_as_xyz
  1  'x, y, z'
loop_
 _atom_site_type_symbol
 _atom_site_label
 _atom_site_symmetry_multiplicity
 _atom_site_fract_x
 _atom_site_fract_y
 _atom_site_fract_z
 _atom_site_occupancy
  Li  Li0  1  0.60532300  0.68219000  0.87076700  1
  Li  Li1  1  0.94490300  0.26994400  0.86258200  1
  Li  Li2  1  0.63224000  0.43964100  0.37503400  1
  Li  Li3  1  0.81891000  0.07461600  0.14382600  1
  Mn  Mn4  1  0.28455600  0.14670900  0.43535000  1
  Mn  Mn5  1  0.71755700  0.85379400  0.56751600  1
  V  V6  1  0.30230000  0.66491200  0.96056800  1
  V  V7  1  0.68905200  0.34660100  0.04153600  1
  P  P8  1  0.22107000  0.26495700  0.75337100  1
  P  P9  1  0.49961000  0.96306900  0.75012800  1
  P  P10  1  0.79453900  0.55051400  0.75325500  1
  P  P11  1  0.20350400  0.45863500  0.24778100  1
  P  P12  1  0.50051700  0.03308500  0.25486100  1
  P  P13  1  0.78990000  0.74209300  0.24952000  1
  O  O14  1  0.39405900  0.22498900  0.89293000  1
  O  O15  1  0.00901100  0.14026600  0.74767400  1
  O  O16  1  0.31105500  0.48107600  0.81776400  1
  O  O17  1  0.34948600  0.82889600  0.81669500  1
  O  O18  1  0.69172900  0.15259000  0.90083200  1
  O  O19  1  0.72648100  0.52459800  0.89312600  1
  O  O20  1  0.19723800  0.22332100  0.57630400  1
  O  O21  1  0.60744800  0.86520200  0.72926600  1
  O  O22  1  0.37229000  0.99878000  0.58394200  1
  O  O23  1  0.98774600  0.52449800  0.81781700  1
  O  O24  1  0.86392500  0.75623200  0.74049000  1
  O  O25  1  0.61356400  0.40219500  0.57974800  1
  O  O26  1  0.38949300  0.60754900  0.41410300  1
  O  O27  1  0.13446300  0.24948300  0.25915400  1
  O  O28  1  0.99139600  0.45659500  0.17636400  1
  O  O29  1  0.63685700  0.00679600  0.42746900  1
  O  O30  1  0.40905800  0.14354500  0.28507400  1
  O  O31  1  0.78155300  0.75284300  0.41673200  1
  O  O32  1  0.25365200  0.47949700  0.09506600  1
  O  O33  1  0.31762300  0.83748200  0.11433900  1
  O  O34  1  0.65279400  0.15891400  0.18722400  1
  O  O35  1  0.70690400  0.52496100  0.19514400  1
  O  O36  1  0.00383000  0.87736500  0.26643500  1
  O  O37  1  0.62737400  0.78502500  0.10081600  1
