# generated using pymatgen
data_Li4Cr2(PO4)3
_symmetry_space_group_name_H-M   'P 1'
_cell_length_a   9.18343126
_cell_length_b   8.51184039
_cell_length_c   8.31361898
_cell_angle_alpha   61.20454298
_cell_angle_beta   63.79114594
_cell_angle_gamma   61.81239913
_symmetry_Int_Tables_number   1
_chemical_formula_structural   Li4Cr2(PO4)3
_chemical_formula_sum   'Li8 Cr4 P6 O24'
_cell_volume   482.28922404
_cell_formula_units_Z   2
loop_
 _symmetry_equiv_pos_site_id
 _symmetry_equiv_pos_as_xyz
  1  'x, y, z'
loop_
 _atom_site_type_symbol
 _atom_site_label
 _atom_site_symmetry_multiplicity
 _atom_site_fract_x
 _atom_site_fract_y
 _atom_site_fract_z
 _atom_site_occupancy
  Li  Li0  1  0.15339590  0.66492873  0.27339162  1
  Li  Li1  1  0.13597492  0.27494013  0.92039889  1
  Li  Li2  1  0.10341363  0.93479272  0.68620995  1
  Li  Li3  1  0.58188164  0.21828777  0.46267677  1
  Li  Li4  1  0.41811836  0.78171223  0.53732323  1
  Li  Li5  1  0.89658637  0.06520728  0.31379005  1
  Li  Li6  1  0.86402508  0.72505987  0.07960111  1
  Li  Li7  1  0.84660410  0.33507127  0.72660838  1
  Cr  Cr8  1  0.03736357  0.64775909  0.66071214  1
  Cr  Cr9  1  0.56002060  0.15031236  0.14406341  1
  Cr  Cr10  1  0.43997940  0.84968764  0.85593659  1
  Cr  Cr11  1  0.96263643  0.35224091  0.33928786  1
  P  P12  1  0.24291726  0.24292424  0.54969776  1
  P  P13  1  0.26006024  0.96258555  0.24318646  1
  P  P14  1  0.25348227  0.54947025  0.95244047  1
  P  P15  1  0.74651773  0.45052975  0.04755953  1
  P  P16  1  0.73993976  0.03741445  0.75681354  1
  P  P17  1  0.75708274  0.75707576  0.45030224  1
  O  O18  1  0.10220447  0.14875472  0.20109708  1
  O  O19  1  0.10084558  0.58650970  0.12794340  1
  O  O20  1  0.09472544  0.20255335  0.54675557  1
  O  O21  1  0.19299906  0.45493214  0.51345656  1
  O  O22  1  0.27070091  0.11824264  0.75218168  1
  O  O23  1  0.41464788  0.18498087  0.40154184  1
  O  O24  1  0.28122520  0.85261825  0.12400578  1
  O  O25  1  0.21773806  0.84321974  0.45912832  1
  O  O26  1  0.19941697  0.50125823  0.83398905  1
  O  O27  1  0.58586303  0.60559650  0.99183254  1
  O  O28  1  0.70670227  0.25632434  0.17826112  1
  O  O29  1  0.57574162  -0.00171681  0.80953577  1
  O  O30  1  0.42425838  0.00171681  0.19046423  1
  O  O31  1  0.29329773  0.74367566  0.82173888  1
  O  O32  1  0.41413697  0.39440350  0.00816746  1
  O  O33  1  0.80058303  0.49874177  0.16601095  1
  O  O34  1  0.78226194  0.15678026  0.54087168  1
  O  O35  1  0.71877480  0.14738175  0.87599422  1
  O  O36  1  0.58535212  0.81501913  0.59845816  1
  O  O37  1  0.72929909  0.88175736  0.24781832  1
  O  O38  1  0.80700094  0.54506786  0.48654344  1
  O  O39  1  0.90527456  0.79744665  0.45324443  1
  O  O40  1  0.89915442  0.41349030  0.87205660  1
  O  O41  1  0.89779553  0.85124528  0.79890292  1
