# generated using pymatgen
data_LiFeSiO4
_symmetry_space_group_name_H-M   'P 1'
_cell_length_a   5.07333100
_cell_length_b   6.06731700
_cell_length_c   11.39118100
_cell_angle_alpha   90.00000000
_cell_angle_beta   90.00000000
_cell_angle_gamma   90.00000000
_symmetry_Int_Tables_number   1
_chemical_formula_structural   LiFeSiO4
_chemical_formula_sum   'Li4 Fe4 Si4 O16'
_cell_volume   350.63772251
_cell_formula_units_Z   4
loop_
 _symmetry_equiv_pos_site_id
 _symmetry_equiv_pos_as_xyz
  1  'x, y, z'
loop_
 _atom_site_type_symbol
 _atom_site_label
 _atom_site_symmetry_multiplicity
 _atom_site_fract_x
 _atom_site_fract_y
 _atom_site_fract_z
 _atom_site_occupancy
  Li  Li0  1  0.74501800  0.75077400  0.08100200  1
  Li  Li1  1  0.24501800  0.25077400  0.41899800  1
  Li  Li2  1  0.74501800  0.74922600  0.58100200  1
  Li  Li3  1  0.24501800  0.24922600  0.91899800  1
  Fe  Fe4  1  0.24678500  0.01241800  0.17393100  1
  Fe  Fe5  1  0.74678500  0.51241800  0.32606900  1
  Fe  Fe6  1  0.24678500  0.48758200  0.67393100  1
  Fe  Fe7  1  0.74678500  0.98758200  0.82606900  1
  Si  Si8  1  0.24861300  0.50904000  0.16551300  1
  Si  Si9  1  0.74861300  0.00904000  0.33448700  1
  Si  Si10  1  0.24861300  0.99096000  0.66551300  1
  Si  Si11  1  0.74861300  0.49096000  0.83448700  1
  O  O12  1  0.18259800  0.28269100  0.08999700  1
  O  O13  1  0.13704600  0.73832400  0.10445000  1
  O  O14  1  0.56975800  0.52883700  0.18053900  1
  O  O15  1  0.61603200  0.98887200  0.20190000  1
  O  O16  1  0.11603200  0.48887200  0.29810000  1
  O  O17  1  0.06975800  0.02883700  0.31946100  1
  O  O18  1  0.63704600  0.23832400  0.39555000  1
  O  O19  1  0.68259800  0.78269100  0.41000300  1
  O  O20  1  0.18259800  0.21730900  0.58999700  1
  O  O21  1  0.13704600  0.76167600  0.60445000  1
  O  O22  1  0.56975800  0.97116300  0.68053900  1
  O  O23  1  0.61603200  0.51112800  0.70190000  1
  O  O24  1  0.11603200  0.01112800  0.79810000  1
  O  O25  1  0.06975800  0.47116300  0.81946100  1
  O  O26  1  0.63704600  0.26167600  0.89555000  1
  O  O27  1  0.68259800  0.71730900  0.91000300  1
