# generated using pymatgen
data_Li7V(O2F)2
_symmetry_space_group_name_H-M   'P 1'
_cell_length_a   5.41997309
_cell_length_b   5.95187325
_cell_length_c   18.58029394
_cell_angle_alpha   92.21913416
_cell_angle_beta   95.75254374
_cell_angle_gamma   63.00024784
_symmetry_Int_Tables_number   1
_chemical_formula_structural   Li7V(O2F)2
_chemical_formula_sum   'Li28 V4 O16 F8'
_cell_volume   531.34905429
_cell_formula_units_Z   4
loop_
 _symmetry_equiv_pos_site_id
 _symmetry_equiv_pos_as_xyz
  1  'x, y, z'
loop_
 _atom_site_type_symbol
 _atom_site_label
 _atom_site_symmetry_multiplicity
 _atom_site_fract_x
 _atom_site_fract_y
 _atom_site_fract_z
 _atom_site_occupancy
  Li  Li0  1  0.52253700  0.99330500  0.37600200  1
  Li  Li1  1  0.02281800  0.49328300  0.87599800  1
  Li  Li2  1  0.20508200  0.34156800  0.03305300  1
  Li  Li3  1  0.70543500  0.84145300  0.53308500  1
  Li  Li4  1  0.62227800  0.95277800  0.09482000  1
  Li  Li5  1  0.12277500  0.45280700  0.59491400  1
  Li  Li6  1  0.12245500  0.78151600  0.15557100  1
  Li  Li7  1  0.62292900  0.28156000  0.65565700  1
  Li  Li8  1  0.54599500  0.37667400  0.22335600  1
  Li  Li9  1  0.04637000  0.87655400  0.72343400  1
  Li  Li10  1  0.74676500  0.25345100  0.37393900  1
  Li  Li11  1  0.24679300  0.75349900  0.87395800  1
  Li  Li12  1  0.42322900  0.59038800  0.05380600  1
  Li  Li13  1  0.92350100  0.09026600  0.55381300  1
  Li  Li14  1  0.06992900  0.91040400  0.44177500  1
  Li  Li15  1  0.56982500  0.41055200  0.94175500  1
  Li  Li16  1  0.81112800  0.25293300  0.12388400  1
  Li  Li17  1  0.31164600  0.75275300  0.62394600  1
  Li  Li18  1  0.97292900  0.06609500  0.27259100  1
  Li  Li19  1  0.47307700  0.56603500  0.77267500  1
  Li  Li20  1  0.32686000  0.70597000  0.33501300  1
  Li  Li21  1  0.82703600  0.20605300  0.83506100  1
  Li  Li22  1  0.86889900  0.58330100  0.41030300  1
  Li  Li23  1  0.36898700  0.08343900  0.91036600  1
  Li  Li24  1  0.28070400  0.16607900  0.48007500  1
  Li  Li25  1  0.78052300  0.66619000  0.98002900  1
  Li  Li26  1  0.16155800  0.33209800  0.29985700  1
  Li  Li27  1  0.66190200  0.83207400  0.79991800  1
  V  V28  1  0.00172300  0.99955100  0.99934300  1
  V  V29  1  0.21394600  0.28849700  0.75595100  1
  V  V30  1  0.50195400  0.49930200  0.49936900  1
  V  V31  1  0.71373800  0.78866500  0.25594700  1
  O  O32  1  0.47655500  0.79914200  0.44439100  1
  O  O33  1  0.97645400  0.29916800  0.94437600  1
  O  O34  1  0.34717100  0.98205900  0.28330400  1
  O  O35  1  0.84751800  0.48190700  0.78327300  1
  O  O36  1  0.76148700  0.02750000  0.19052500  1
  O  O37  1  0.26182500  0.52735500  0.69051800  1
  O  O38  1  0.88864200  0.89099400  0.34872200  1
  O  O39  1  0.38860000  0.39103200  0.84869500  1
  O  O40  1  0.60974600  0.22668800  0.02953100  1
  O  O41  1  0.11007300  0.72664100  0.52956600  1
  O  O42  1  0.89304600  0.28409400  0.46956200  1
  O  O43  1  0.39286500  0.78429200  0.96962200  1
  O  O44  1  0.76819100  0.45780500  0.30184500  1
  O  O45  1  0.26834100  0.95780400  0.80188300  1
  O  O46  1  0.02188600  0.70865500  0.05471900  1
  O  O47  1  0.52209400  0.20861600  0.55474300  1
  F  F48  1  0.17381400  0.10434000  0.09337600  1
  F  F49  1  0.67436400  0.60416600  0.59338200  1
  F  F50  1  0.56857500  0.60384800  0.15213000  1
  F  F51  1  0.06889400  0.10374200  0.65216400  1
  F  F52  1  0.17250100  0.55746400  0.23741800  1
  F  F53  1  0.67289300  0.05737300  0.73744000  1
  F  F54  1  0.35296700  0.35906800  0.39845200  1
  F  F55  1  0.85294100  0.85906000  0.89847400  1
