# generated using pymatgen
data_Li5Mn2(PO4)3
_symmetry_space_group_name_H-M   'P 1'
_cell_length_a   8.92232000
_cell_length_b   8.89919500
_cell_length_c   12.58011908
_cell_angle_alpha   89.48252315
_cell_angle_beta   90.00000000
_cell_angle_gamma   90.00000000
_symmetry_Int_Tables_number   1
_chemical_formula_structural   Li5Mn2(PO4)3
_chemical_formula_sum   'Li20 Mn8 P12 O48'
_cell_volume   998.83915222
_cell_formula_units_Z   4
loop_
 _symmetry_equiv_pos_site_id
 _symmetry_equiv_pos_as_xyz
  1  'x, y, z'
loop_
 _atom_site_type_symbol
 _atom_site_label
 _atom_site_symmetry_multiplicity
 _atom_site_fract_x
 _atom_site_fract_y
 _atom_site_fract_z
 _atom_site_occupancy
  Li  Li0  1  0.51946700  0.20061500  0.09233000  1
  Li  Li1  1  0.09577600  0.17681400  0.44697300  1
  Li  Li2  1  0.72763900  0.12047700  0.49649100  1
  Li  Li3  1  0.64529300  0.15485700  0.73365000  1
  Li  Li4  1  0.77007800  0.04247700  0.93245600  1
  Li  Li5  1  0.27007800  0.95752300  0.06754400  1
  Li  Li6  1  0.14529300  0.84514300  0.26635000  1
  Li  Li7  1  0.22763900  0.87952300  0.50350900  1
  Li  Li8  1  0.59577600  0.82318600  0.55302700  1
  Li  Li9  1  0.01946700  0.79938500  0.90767000  1
  Li  Li10  1  0.98325300  0.70447400  0.58789400  1
  Li  Li11  1  0.40675400  0.67218000  0.94476400  1
  Li  Li12  1  0.77667000  0.63660700  0.00614400  1
  Li  Li13  1  0.68255800  0.59589400  0.23957000  1
  Li  Li14  1  0.73474600  0.54703300  0.44607300  1
  Li  Li15  1  0.23474600  0.45296700  0.55392700  1
  Li  Li16  1  0.18255800  0.40410600  0.76043000  1
  Li  Li17  1  0.27667000  0.36339300  0.99385600  1
  Li  Li18  1  0.90675400  0.32782000  0.05523600  1
  Li  Li19  1  0.48325300  0.29552600  0.41210600  1
  Mn  Mn20  1  0.53531800  0.99199700  0.35066600  1
  Mn  Mn21  1  0.03531800  0.00800300  0.64933400  1
  Mn  Mn22  1  0.43980100  0.99441000  0.85738300  1
  Mn  Mn23  1  0.93980100  0.00559000  0.14261700  1
  Mn  Mn24  1  0.04583700  0.49967700  0.34912800  1
  Mn  Mn25  1  0.54583700  0.50032300  0.65087200  1
  Mn  Mn26  1  0.93392300  0.49850600  0.85240100  1
  Mn  Mn27  1  0.43392300  0.50149400  0.14759900  1
  P  P28  1  0.24771800  0.19687800  0.24247900  1
  P  P29  1  0.39312200  0.14642800  0.59517300  1
  P  P30  1  0.10168500  0.15031300  0.90697200  1
  P  P31  1  0.89312200  0.85357200  0.40482700  1
  P  P32  1  0.60168500  0.84968700  0.09302800  1
  P  P33  1  0.74771800  0.80312200  0.75752100  1
  P  P34  1  0.24347000  0.69809600  0.74062900  1
  P  P35  1  0.40334500  0.65015900  0.40285000  1
  P  P36  1  0.11081600  0.64898900  0.09286200  1
  P  P37  1  0.90334500  0.34984100  0.59715000  1
  P  P38  1  0.61081600  0.35101100  0.90713800  1
  P  P39  1  0.74347000  0.30190400  0.25937100  1
  O  O40  1  0.85874600  0.21857000  0.19059700  1
  O  O41  1  0.86984800  0.17772600  0.60794000  1
  O  O42  1  0.68315200  0.20831300  0.35534000  1
  O  O43  1  0.59599700  0.18115300  0.93967600  1
  O  O44  1  0.37912000  0.16350900  0.31962900  1
  O  O45  1  0.23418200  0.09237800  0.56117800  1
  O  O46  1  0.41966500  0.12621000  0.71513400  1
  O  O47  1  0.97252400  0.12485700  0.98899800  1
  O  O48  1  0.25548500  0.09446500  0.94942200  1
  O  O49  1  0.18256400  0.04527900  0.20039200  1
  O  O50  1  0.06129100  0.06810600  0.80457600  1
  O  O51  1  0.51695700  0.05890600  0.53286800  1
  O  O52  1  0.01695700  0.94109400  0.46713200  1
  O  O53  1  0.56129100  0.93189400  0.19542400  1
  O  O54  1  0.68256400  0.95472100  0.79960800  1
  O  O55  1  0.75548500  0.90553500  0.05057800  1
  O  O56  1  0.91966500  0.87379000  0.28486600  1
  O  O57  1  0.47252400  0.87514300  0.01100200  1
  O  O58  1  0.73418200  0.90762200  0.43882200  1
  O  O59  1  0.87912000  0.83649100  0.68037100  1
  O  O60  1  0.18315200  0.79168700  0.64466000  1
  O  O61  1  0.36984800  0.82227400  0.39206000  1
  O  O62  1  0.09599700  0.81884700  0.06032400  1
  O  O63  1  0.35874600  0.78143000  0.80940300  1
  O  O64  1  0.62956000  0.71704900  0.69253900  1
  O  O65  1  0.90785100  0.68386900  0.43800800  1
  O  O66  1  0.61732000  0.67512500  0.10788700  1
  O  O67  1  0.80769000  0.71193800  0.85585100  1
  O  O68  1  0.11444300  0.65023000  0.81674700  1
  O  O69  1  0.26283800  0.58914400  0.04841200  1
  O  O70  1  0.52512000  0.62508100  0.49077900  1
  O  O71  1  0.11513700  0.63544300  0.21557900  1
  O  O72  1  0.25320500  0.57391700  0.43211100  1
  O  O73  1  0.31047500  0.54889700  0.69392100  1
  O  O74  1  0.47183800  0.58498600  0.30012200  1
  O  O75  1  0.97968600  0.56171500  0.04115000  1
  O  O76  1  0.47968600  0.43828500  0.95885000  1
  O  O77  1  0.97183800  0.41501400  0.69987800  1
  O  O78  1  0.81047500  0.45110300  0.30607900  1
  O  O79  1  0.75320500  0.42608300  0.56788900  1
  O  O80  1  0.02512000  0.37491900  0.50922100  1
  O  O81  1  0.61513700  0.36455700  0.78442100  1
  O  O82  1  0.76283800  0.41085600  0.95158800  1
  O  O83  1  0.61444300  0.34977000  0.18325300  1
  O  O84  1  0.40785100  0.31613100  0.56199200  1
  O  O85  1  0.30769000  0.28806200  0.14414900  1
  O  O86  1  0.11732000  0.32487500  0.89211300  1
  O  O87  1  0.12956000  0.28295100  0.30746100  1
