# generated using pymatgen
data_Li2CrH8Cl5O4
_symmetry_space_group_name_H-M   'P 1'
_cell_length_a   8.49730336
_cell_length_b   8.49730336
_cell_length_c   13.60380270
_cell_angle_alpha   68.13869890
_cell_angle_beta   68.13869890
_cell_angle_gamma   43.98086174
_symmetry_Int_Tables_number   1
_chemical_formula_structural   Li2CrH8Cl5O4
_chemical_formula_sum   'Li4 Cr2 H16 Cl10 O8'
_cell_volume   624.67791540
_cell_formula_units_Z   2
loop_
 _symmetry_equiv_pos_site_id
 _symmetry_equiv_pos_as_xyz
  1  'x, y, z'
loop_
 _atom_site_type_symbol
 _atom_site_label
 _atom_site_symmetry_multiplicity
 _atom_site_fract_x
 _atom_site_fract_y
 _atom_site_fract_z
 _atom_site_occupancy
  Li  Li0  1  0.39572600  0.12453600  0.88948100  1
  Li  Li1  1  0.87546400  0.60427400  0.61051900  1
  Li  Li2  1  0.12453600  0.39572600  0.38948100  1
  Li  Li3  1  0.60427400  0.87546400  0.11051900  1
  Cr  Cr4  1  0.00000000  0.00000000  0.00000000  1
  Cr  Cr5  1  0.00000000  0.00000000  0.50000000  1
  H  H6  1  0.32426900  0.65956200  0.38261400  1
  H  H7  1  0.88680100  0.36045700  0.02792500  1
  H  H8  1  0.72272800  0.20096600  0.36089200  1
  H  H9  1  0.25001500  0.56209600  0.49595600  1
  H  H10  1  0.43790400  0.74998500  0.00404400  1
  H  H11  1  0.79903400  0.27727200  0.13910800  1
  H  H12  1  0.63954300  0.11319900  0.47207500  1
  H  H13  1  0.34043800  0.67573100  0.11738600  1
  H  H14  1  0.65956200  0.32426900  0.88261400  1
  H  H15  1  0.36045700  0.88680100  0.52792500  1
  H  H16  1  0.20096600  0.72272800  0.86089200  1
  H  H17  1  0.56209600  0.25001500  0.99595600  1
  H  H18  1  0.74998500  0.43790400  0.50404400  1
  H  H19  1  0.27727200  0.79903400  0.63910800  1
  H  H20  1  0.11319900  0.63954300  0.97207500  1
  H  H21  1  0.67573100  0.34043800  0.61738600  1
  Cl  Cl22  1  0.86841200  0.85568500  0.65772600  1
  Cl  Cl23  1  0.70105000  0.73212000  0.95822800  1
  Cl  Cl24  1  0.26788000  0.29895000  0.54177200  1
  Cl  Cl25  1  0.50838300  0.49161700  0.25000000  1
  Cl  Cl26  1  0.14431500  0.13158800  0.84227400  1
  Cl  Cl27  1  0.85568500  0.86841200  0.15772600  1
  Cl  Cl28  1  0.49161700  0.50838300  0.75000000  1
  Cl  Cl29  1  0.73212000  0.70105000  0.45822800  1
  Cl  Cl30  1  0.29895000  0.26788000  0.04177200  1
  Cl  Cl31  1  0.13158800  0.14431500  0.34227400  1
  O  O32  1  0.25558900  0.68507500  0.45864400  1
  O  O33  1  0.78045700  0.07495000  0.42394400  1
  O  O34  1  0.92505000  0.21954300  0.07605600  1
  O  O35  1  0.31492500  0.74441100  0.04135600  1
  O  O36  1  0.68507500  0.25558900  0.95864400  1
  O  O37  1  0.07495000  0.78045700  0.92394400  1
  O  O38  1  0.21954300  0.92505000  0.57605600  1
  O  O39  1  0.74441100  0.31492500  0.54135600  1
