# generated using pymatgen
data_LiCrSiO4
_symmetry_space_group_name_H-M   'P 1'
_cell_length_a   5.69923500
_cell_length_b   8.04846200
_cell_length_c   5.69923700
_cell_angle_alpha   89.99998283
_cell_angle_beta   90.00006032
_cell_angle_gamma   90.00001717
_symmetry_Int_Tables_number   1
_chemical_formula_structural   LiCrSiO4
_chemical_formula_sum   'Li4 Cr4 Si4 O16'
_cell_volume   261.42443619
_cell_formula_units_Z   4
loop_
 _symmetry_equiv_pos_site_id
 _symmetry_equiv_pos_as_xyz
  1  'x, y, z'
loop_
 _atom_site_type_symbol
 _atom_site_label
 _atom_site_symmetry_multiplicity
 _atom_site_fract_x
 _atom_site_fract_y
 _atom_site_fract_z
 _atom_site_occupancy
  Li  Li0  1  0.22007400  0.00000000  0.00000000  1
  Li  Li1  1  0.77992700  0.50000000  0.00000000  1
  Li  Li2  1  0.00000100  0.25000000  0.22007200  1
  Li  Li3  1  0.00000000  0.75000000  0.77992800  1
  Cr  Cr4  1  0.23508500  0.00000000  0.50000100  1
  Cr  Cr5  1  0.76491100  0.50000000  0.50000000  1
  Cr  Cr6  1  0.50000300  0.25000000  0.23509600  1
  Cr  Cr7  1  0.50000100  0.75000000  0.76490400  1
  Si  Si8  1  0.25517500  0.62500100  0.25517600  1
  Si  Si9  1  0.74482400  0.87500000  0.25517700  1
  Si  Si10  1  0.25517500  0.37499900  0.74482400  1
  Si  Si11  1  0.74482400  0.12500000  0.74482300  1
  O  O12  1  0.26024700  0.26093400  0.98441700  1
  O  O13  1  0.73975400  0.23906600  0.98441500  1
  O  O14  1  0.98441800  0.98906800  0.26024900  1
  O  O15  1  0.01558200  0.51093200  0.26024700  1
  O  O16  1  0.01558200  0.48906800  0.73975100  1
  O  O17  1  0.98441700  0.01093200  0.73975100  1
  O  O18  1  0.26024600  0.73906600  0.01558300  1
  O  O19  1  0.73975400  0.76093400  0.01558400  1
  O  O20  1  0.49565700  0.50090800  0.25978600  1
  O  O21  1  0.50434300  0.99909200  0.25978700  1
  O  O22  1  0.25978000  0.25090300  0.50434600  1
  O  O23  1  0.74022000  0.24909800  0.50434700  1
  O  O24  1  0.25978000  0.74909800  0.49565300  1
  O  O25  1  0.74022100  0.75090300  0.49565300  1
  O  O26  1  0.49565700  0.49909200  0.74021400  1
  O  O27  1  0.50434300  0.00090800  0.74021300  1
