# generated using pymatgen
data_Li2V3FeO8
_symmetry_space_group_name_H-M   'P 1'
_cell_length_a   8.40319900
_cell_length_b   8.41882292
_cell_length_c   8.45123260
_cell_angle_alpha   90.24167655
_cell_angle_beta   90.00100007
_cell_angle_gamma   90.00174847
_symmetry_Int_Tables_number   1
_chemical_formula_structural   Li2V3FeO8
_chemical_formula_sum   'Li8 V12 Fe4 O32'
_cell_volume   597.87750608
_cell_formula_units_Z   4
loop_
 _symmetry_equiv_pos_site_id
 _symmetry_equiv_pos_as_xyz
  1  'x, y, z'
loop_
 _atom_site_type_symbol
 _atom_site_label
 _atom_site_symmetry_multiplicity
 _atom_site_fract_x
 _atom_site_fract_y
 _atom_site_fract_z
 _atom_site_occupancy
  Li  Li0  1  0.12412000  0.87543200  0.37380300  1
  Li  Li1  1  0.25219900  0.74914200  0.74984900  1
  Li  Li2  1  0.24935000  0.25027800  0.24937100  1
  Li  Li3  1  0.37459800  0.12794900  0.87438600  1
  Li  Li4  1  0.62504800  0.62450900  0.62580700  1
  Li  Li5  1  0.75225700  0.75098300  0.24958900  1
  Li  Li6  1  0.74923800  0.24965900  0.75077200  1
  Li  Li7  1  0.87486900  0.37186100  0.12596100  1
  V  V8  1  0.11400600  0.62081700  0.12369300  1
  V  V9  1  0.11362500  0.37451900  0.88177400  1
  V  V10  1  0.12451200  0.11440000  0.61969100  1
  V  V11  1  0.37615900  0.87588100  0.12787800  1
  V  V12  1  0.37200600  0.62197500  0.37501300  1
  V  V13  1  0.38079200  0.38480700  0.62543800  1
  V  V14  1  0.61378900  0.87888300  0.87638300  1
  V  V15  1  0.61341900  0.12544700  0.11819400  1
  V  V16  1  0.62441000  0.38584900  0.38030200  1
  V  V17  1  0.87679200  0.62410400  0.87197600  1
  V  V18  1  0.87200000  0.87820600  0.62501100  1
  V  V19  1  0.88047600  0.11531100  0.37484100  1
  Fe  Fe20  1  0.99953200  0.49650500  0.49957300  1
  Fe  Fe21  1  0.50061100  0.49792200  0.99740400  1
  Fe  Fe22  1  0.49930200  0.00342400  0.50028300  1
  Fe  Fe23  1  0.00033400  0.00231000  0.00243400  1
  O  O24  1  0.10482300  0.13482400  0.39370200  1
  O  O25  1  0.11683000  0.90212400  0.63043600  1
  O  O26  1  0.11852500  0.61289700  0.88837700  1
  O  O27  1  0.13373600  0.39303000  0.10405700  1
  O  O28  1  0.12235800  0.13990000  0.86650500  1
  O  O29  1  0.13295100  0.36286500  0.63457500  1
  O  O30  1  0.12946300  0.62109800  0.36063400  1
  O  O31  1  0.13863900  0.86577600  0.12133900  1
  O  O32  1  0.35968200  0.14029000  0.62008800  1
  O  O33  1  0.36254700  0.37826700  0.85782800  1
  O  O34  1  0.36308000  0.62928800  0.13011600  1
  O  O35  1  0.37894000  0.86040800  0.36652800  1
  O  O36  1  0.36979900  0.59982500  0.61195800  1
  O  O37  1  0.38755400  0.38319800  0.38675900  1
  O  O38  1  0.39882300  0.11462900  0.12896400  1
  O  O39  1  0.40045000  0.87126300  0.88706700  1
  O  O40  1  0.60511200  0.36537500  0.60636600  1
  O  O41  1  0.61712400  0.59807900  0.36972000  1
  O  O42  1  0.61768200  0.88675300  0.11175200  1
  O  O43  1  0.63368800  0.10676200  0.89607500  1
  O  O44  1  0.62209500  0.36004800  0.13345900  1
  O  O45  1  0.63270900  0.13723400  0.36547700  1
  O  O46  1  0.62975500  0.87908400  0.63930600  1
  O  O47  1  0.63879200  0.63412500  0.87809400  1
  O  O48  1  0.85957900  0.35978500  0.38007100  1
  O  O49  1  0.86216600  0.12156700  0.14230200  1
  O  O50  1  0.86286500  0.87056100  0.87020300  1
  O  O51  1  0.87982300  0.63980700  0.63364400  1
  O  O52  1  0.86969100  0.90027300  0.38796300  1
  O  O53  1  0.88754600  0.11695300  0.61345100  1
  O  O54  1  0.89904600  0.38528800  0.87114200  1
  O  O55  1  0.90068300  0.62853000  0.11269700  1
