# generated using pymatgen
data_LiSiBiO4
_symmetry_space_group_name_H-M   'P 1'
_cell_length_a   5.28222100
_cell_length_b   8.85058400
_cell_length_c   22.33826900
_cell_angle_alpha   90.00000000
_cell_angle_beta   90.00000000
_cell_angle_gamma   90.00000000
_symmetry_Int_Tables_number   1
_chemical_formula_structural   LiSiBiO4
_chemical_formula_sum   'Li12 Si12 Bi12 O48'
_cell_volume   1044.33062097
_cell_formula_units_Z   12
loop_
 _symmetry_equiv_pos_site_id
 _symmetry_equiv_pos_as_xyz
  1  'x, y, z'
loop_
 _atom_site_type_symbol
 _atom_site_label
 _atom_site_symmetry_multiplicity
 _atom_site_fract_x
 _atom_site_fract_y
 _atom_site_fract_z
 _atom_site_occupancy
  Li  Li0  1  0.02203700  0.57931900  0.08676700  1
  Li  Li1  1  0.49763600  0.07409500  0.08126000  1
  Li  Li2  1  0.99086600  0.92164500  0.24965300  1
  Li  Li3  1  0.49086600  0.42164500  0.25034700  1
  Li  Li4  1  0.99763600  0.57409500  0.41874000  1
  Li  Li5  1  0.52203700  0.07931900  0.41323300  1
  Li  Li6  1  0.02203700  0.92068100  0.58676700  1
  Li  Li7  1  0.49763600  0.42590500  0.58126000  1
  Li  Li8  1  0.99086600  0.57835500  0.74965300  1
  Li  Li9  1  0.49086600  0.07835500  0.75034700  1
  Li  Li10  1  0.99763600  0.92590500  0.91874000  1
  Li  Li11  1  0.52203700  0.42068100  0.91323300  1
  Si  Si12  1  0.99377700  0.91804900  0.07742400  1
  Si  Si13  1  0.52924100  0.41463700  0.09114000  1
  Si  Si14  1  0.99487800  0.58052500  0.24397400  1
  Si  Si15  1  0.49487800  0.08052500  0.25602600  1
  Si  Si16  1  0.02924100  0.91463700  0.40886000  1
  Si  Si17  1  0.49377700  0.41804900  0.42257600  1
  Si  Si18  1  0.99377700  0.58195100  0.57742400  1
  Si  Si19  1  0.52924100  0.08536300  0.59114000  1
  Si  Si20  1  0.99487800  0.91947500  0.74397400  1
  Si  Si21  1  0.49487800  0.41947500  0.75602600  1
  Si  Si22  1  0.02924100  0.58536300  0.90886000  1
  Si  Si23  1  0.49377700  0.08195100  0.92257600  1
  Bi  Bi24  1  0.04210900  0.21979500  0.00457400  1
  Bi  Bi25  1  0.54210900  0.78020500  0.99542600  1
  Bi  Bi26  1  0.49564700  0.72827900  0.16583300  1
  Bi  Bi27  1  0.96787500  0.28284700  0.16728400  1
  Bi  Bi28  1  0.46787500  0.78284700  0.33271600  1
  Bi  Bi29  1  0.99564700  0.22827900  0.33416700  1
  Bi  Bi30  1  0.04210900  0.28020500  0.50457400  1
  Bi  Bi31  1  0.54210900  0.71979500  0.49542600  1
  Bi  Bi32  1  0.49564700  0.77172100  0.66583300  1
  Bi  Bi33  1  0.96787500  0.21715300  0.66728400  1
  Bi  Bi34  1  0.46787500  0.71715300  0.83271600  1
  Bi  Bi35  1  0.99564700  0.27172100  0.83416700  1
  O  O36  1  0.41638300  0.06295500  0.99421900  1
  O  O37  1  0.91638300  0.93704500  0.00578100  1
  O  O38  1  0.64921600  0.57491000  0.06650100  1
  O  O39  1  0.70772700  0.26566000  0.07412100  1
  O  O40  1  0.23317400  0.39050700  0.06980200  1
  O  O41  1  0.19194500  0.77628500  0.08449400  1
  O  O42  1  0.71333400  0.89416000  0.10964500  1
  O  O43  1  0.12713300  0.07751700  0.09898700  1
  O  O44  1  0.56144900  0.41682400  0.16478400  1
  O  O45  1  0.05207600  0.55112600  0.17249600  1
  O  O46  1  0.36077500  0.92577500  0.22744300  1
  O  O47  1  0.30121700  0.22672700  0.25221900  1
  O  O48  1  0.77750900  0.10683200  0.22654300  1
  O  O49  1  0.80121700  0.72672700  0.24778100  1
  O  O50  1  0.27750900  0.60683200  0.27345700  1
  O  O51  1  0.86077500  0.42577500  0.27255700  1
  O  O52  1  0.55207600  0.05112600  0.32750400  1
  O  O53  1  0.06144900  0.91682400  0.33521600  1
  O  O54  1  0.62713300  0.57751700  0.40101300  1
  O  O55  1  0.21333400  0.39416000  0.39035500  1
  O  O56  1  0.69194500  0.27628500  0.41550600  1
  O  O57  1  0.73317400  0.89050700  0.43019800  1
  O  O58  1  0.20772700  0.76566000  0.42587900  1
  O  O59  1  0.14921600  0.07491000  0.43349900  1
  O  O60  1  0.41638300  0.43704500  0.49421900  1
  O  O61  1  0.91638300  0.56295500  0.50578100  1
  O  O62  1  0.64921600  0.92509000  0.56650100  1
  O  O63  1  0.70772700  0.23434000  0.57412100  1
  O  O64  1  0.23317400  0.10949300  0.56980200  1
  O  O65  1  0.19194500  0.72371500  0.58449400  1
  O  O66  1  0.71333400  0.60584000  0.60964500  1
  O  O67  1  0.12713300  0.42248300  0.59898700  1
  O  O68  1  0.56144900  0.08317600  0.66478400  1
  O  O69  1  0.05207600  0.94887400  0.67249600  1
  O  O70  1  0.36077500  0.57422500  0.72744300  1
  O  O71  1  0.77750900  0.39316800  0.72654300  1
  O  O72  1  0.30121700  0.27327300  0.75221900  1
  O  O73  1  0.27750900  0.89316800  0.77345700  1
  O  O74  1  0.80121700  0.77327300  0.74778100  1
  O  O75  1  0.86077500  0.07422500  0.77255700  1
  O  O76  1  0.55207600  0.44887400  0.82750400  1
  O  O77  1  0.06144900  0.58317600  0.83521600  1
  O  O78  1  0.62713300  0.92248300  0.90101300  1
  O  O79  1  0.21333400  0.10584000  0.89035500  1
  O  O80  1  0.69194500  0.22371500  0.91550600  1
  O  O81  1  0.73317400  0.60949300  0.93019800  1
  O  O82  1  0.20772700  0.73434000  0.92587900  1
  O  O83  1  0.14921600  0.42509000  0.93349900  1
