# generated using pymatgen
data_Li4Fe3Sn3(SbO8)2
_symmetry_space_group_name_H-M   'P 1'
_cell_length_a   6.21086561
_cell_length_b   10.76035484
_cell_length_c   9.94325051
_cell_angle_alpha   89.48558784
_cell_angle_beta   90.85600136
_cell_angle_gamma   90.36564846
_symmetry_Int_Tables_number   1
_chemical_formula_structural   Li4Fe3Sn3(SbO8)2
_chemical_formula_sum   'Li8 Fe6 Sn6 Sb4 O32'
_cell_volume   664.40463573
_cell_formula_units_Z   2
loop_
 _symmetry_equiv_pos_site_id
 _symmetry_equiv_pos_as_xyz
  1  'x, y, z'
loop_
 _atom_site_type_symbol
 _atom_site_label
 _atom_site_symmetry_multiplicity
 _atom_site_fract_x
 _atom_site_fract_y
 _atom_site_fract_z
 _atom_site_occupancy
  Li  Li0  1  0.49600300  0.16795500  0.90000100  1
  Li  Li1  1  0.99619000  0.66800500  0.90001200  1
  Li  Li2  1  0.98004000  0.00652800  0.97984400  1
  Li  Li3  1  0.48006300  0.50633200  0.97981900  1
  Li  Li4  1  0.98811500  0.00453900  0.49626800  1
  Li  Li5  1  0.48731800  0.50389100  0.49621400  1
  Li  Li6  1  0.49076600  0.83610100  0.41125500  1
  Li  Li7  1  0.99122100  0.33592600  0.41153600  1
  Fe  Fe8  1  0.74258300  0.08449300  0.21344900  1
  Fe  Fe9  1  0.24234500  0.58445500  0.21339200  1
  Fe  Fe10  1  0.24777700  0.41217700  0.71193500  1
  Fe  Fe11  1  0.74811500  0.91152300  0.71049800  1
  Fe  Fe12  1  0.50716900  0.67009400  0.71080300  1
  Fe  Fe13  1  0.00549100  0.17020400  0.71170700  1
  Sn  Sn14  1  0.25892500  0.91413500  0.71355000  1
  Sn  Sn15  1  0.75870800  0.41339600  0.71323100  1
  Sn  Sn16  1  0.50200000  0.33055000  0.21350800  1
  Sn  Sn17  1  0.00177300  0.83065200  0.21348200  1
  Sn  Sn18  1  0.25447300  0.08430000  0.21291500  1
  Sn  Sn19  1  0.75451300  0.58419700  0.21295600  1
  Sb  Sb20  1  0.51030100  0.16332500  0.49124100  1
  Sb  Sb21  1  0.01046700  0.66377100  0.49142000  1
  Sb  Sb22  1  0.51519700  0.82830200  0.97918300  1
  Sb  Sb23  1  0.01544100  0.32826300  0.97948800  1
  O  O24  1  0.27646500  0.24061300  0.34558400  1
  O  O25  1  0.77631700  0.74046300  0.34572500  1
  O  O26  1  0.49495700  0.16935100  0.10334500  1
  O  O27  1  0.99452300  0.66941900  0.10317300  1
  O  O28  1  0.00139100  0.99903500  0.30828900  1
  O  O29  1  0.50188300  0.49895200  0.30828900  1
  O  O30  1  0.00788600  0.99759600  0.79847400  1
  O  O31  1  0.50795400  0.49746400  0.79827800  1
  O  O32  1  0.25127300  0.91685000  0.09778500  1
  O  O33  1  0.75139300  0.41677600  0.09771100  1
  O  O34  1  0.74936100  0.08274300  0.58400400  1
  O  O35  1  0.25085900  0.58435700  0.58408500  1
  O  O36  1  0.49371700  0.83516900  0.60633500  1
  O  O37  1  0.99592900  0.33474300  0.60713100  1
  O  O38  1  0.72612400  0.75785200  0.85491700  1
  O  O39  1  0.22707200  0.25798700  0.85615400  1
  O  O40  1  0.50811300  0.32846400  0.58741100  1
  O  O41  1  0.00705700  0.82864600  0.58786100  1
  O  O42  1  0.26067600  0.08182600  0.58719100  1
  O  O43  1  0.76142000  0.58148500  0.58777300  1
  O  O44  1  0.71516600  0.24454600  0.34880200  1
  O  O45  1  0.21483300  0.74482000  0.34853400  1
  O  O46  1  0.49182400  0.02090000  0.34781500  1
  O  O47  1  0.99211000  0.52099200  0.34807700  1
  O  O48  1  0.49625700  0.98113800  0.85760000  1
  O  O49  1  0.99599500  0.48086200  0.85727100  1
  O  O50  1  0.27564400  0.76205700  0.85744600  1
  O  O51  1  0.77616100  0.26169000  0.85720900  1
  O  O52  1  0.75193800  0.91304300  0.09411100  1
  O  O53  1  0.25205100  0.41333400  0.09452000  1
  O  O54  1  0.50443800  0.66702400  0.09348300  1
  O  O55  1  0.00452600  0.16699200  0.09359400  1
