# generated using pymatgen
data_Li2FeSiO4
_symmetry_space_group_name_H-M   'P 1'
_cell_length_a   5.45603300
_cell_length_b   10.61018400
_cell_length_c   12.91359700
_cell_angle_alpha   90.00000000
_cell_angle_beta   90.00000000
_cell_angle_gamma   90.00000000
_symmetry_Int_Tables_number   1
_chemical_formula_structural   Li2FeSiO4
_chemical_formula_sum   'Li16 Fe8 Si8 O32'
_cell_volume   747.56185484
_cell_formula_units_Z   8
loop_
 _symmetry_equiv_pos_site_id
 _symmetry_equiv_pos_as_xyz
  1  'x, y, z'
loop_
 _atom_site_type_symbol
 _atom_site_label
 _atom_site_symmetry_multiplicity
 _atom_site_fract_x
 _atom_site_fract_y
 _atom_site_fract_z
 _atom_site_occupancy
  Li  Li0  1  0.96502400  0.97167600  0.56129900  1
  Li  Li1  1  0.46443600  0.94997400  0.94204900  1
  Li  Li2  1  0.35894100  0.21141100  0.29748900  1
  Li  Li3  1  0.84630800  0.20933300  0.19974100  1
  Li  Li4  1  0.84630800  0.29066700  0.69974100  1
  Li  Li5  1  0.35894100  0.28858900  0.79748900  1
  Li  Li6  1  0.96502400  0.52832400  0.06129900  1
  Li  Li7  1  0.46443600  0.55002600  0.44204900  1
  Li  Li8  1  0.53556400  0.44997400  0.94204900  1
  Li  Li9  1  0.03497600  0.47167600  0.56129900  1
  Li  Li10  1  0.64105900  0.71141100  0.29748900  1
  Li  Li11  1  0.15369200  0.70933300  0.19974100  1
  Li  Li12  1  0.15369200  0.79066700  0.69974100  1
  Li  Li13  1  0.64105900  0.78858900  0.79748900  1
  Li  Li14  1  0.03497600  0.02832400  0.06129900  1
  Li  Li15  1  0.53556400  0.05002600  0.44204900  1
  Fe  Fe16  1  0.97303000  0.03532300  0.81358000  1
  Fe  Fe17  1  0.51694200  0.20520300  0.05574100  1
  Fe  Fe18  1  0.51694200  0.29479700  0.55574100  1
  Fe  Fe19  1  0.97303000  0.46467700  0.31358000  1
  Fe  Fe20  1  0.02697000  0.53532300  0.81358000  1
  Fe  Fe21  1  0.48305800  0.70520300  0.05574100  1
  Fe  Fe22  1  0.48305800  0.79479700  0.55574100  1
  Fe  Fe23  1  0.02697000  0.96467700  0.31358000  1
  Si  Si24  1  0.47994400  0.03505700  0.69120200  1
  Si  Si25  1  0.01918700  0.21394500  0.43768400  1
  Si  Si26  1  0.01918700  0.28605500  0.93768400  1
  Si  Si27  1  0.47994400  0.46494300  0.19120200  1
  Si  Si28  1  0.52005600  0.53505700  0.69120200  1
  Si  Si29  1  0.98081300  0.71394500  0.43768400  1
  Si  Si30  1  0.98081300  0.78605500  0.93768400  1
  Si  Si31  1  0.52005600  0.96494300  0.19120200  1
  O  O32  1  0.38633400  0.02045000  0.29725100  1
  O  O33  1  0.81078400  0.01297200  0.19216400  1
  O  O34  1  0.89628100  0.07332100  0.43249000  1
  O  O35  1  0.39894600  0.02811800  0.08582100  1
  O  O36  1  0.52034000  0.19008200  0.69031300  1
  O  O37  1  0.00746400  0.22448500  0.81940700  1
  O  O38  1  0.31692800  0.19893100  0.45776700  1
  O  O39  1  0.88851500  0.19651700  0.02673600  1
  O  O40  1  0.88851500  0.30348300  0.52673600  1
  O  O41  1  0.31692800  0.30106900  0.95776700  1
  O  O42  1  0.00746400  0.27551500  0.31940700  1
  O  O43  1  0.52034000  0.30991800  0.19031300  1
  O  O44  1  0.39894600  0.47188200  0.58582100  1
  O  O45  1  0.89628100  0.42667900  0.93249000  1
  O  O46  1  0.81078400  0.48702800  0.69216400  1
  O  O47  1  0.38633400  0.47955000  0.79725100  1
  O  O48  1  0.61366600  0.52045000  0.29725100  1
  O  O49  1  0.18921600  0.51297200  0.19216400  1
  O  O50  1  0.10371900  0.57332100  0.43249000  1
  O  O51  1  0.60105400  0.52811800  0.08582100  1
  O  O52  1  0.47966000  0.69008200  0.69031300  1
  O  O53  1  0.99253600  0.72448500  0.81940700  1
  O  O54  1  0.68307200  0.69893100  0.45776700  1
  O  O55  1  0.11148500  0.69651700  0.02673600  1
  O  O56  1  0.11148500  0.80348300  0.52673600  1
  O  O57  1  0.68307200  0.80106900  0.95776700  1
  O  O58  1  0.99253600  0.77551500  0.31940700  1
  O  O59  1  0.47966000  0.80991800  0.19031300  1
  O  O60  1  0.60105400  0.97188200  0.58582100  1
  O  O61  1  0.10371900  0.92667900  0.93249000  1
  O  O62  1  0.18921600  0.98702800  0.69216400  1
  O  O63  1  0.61366600  0.97955000  0.79725100  1
