# generated using pymatgen
data_Li6Fe3Co(PO4)6
_symmetry_space_group_name_H-M   'P 1'
_cell_length_a   8.51501100
_cell_length_b   8.56349188
_cell_length_c   8.56741020
_cell_angle_alpha   61.35398273
_cell_angle_beta   61.45366752
_cell_angle_gamma   61.49145883
_symmetry_Int_Tables_number   1
_chemical_formula_structural   Li6Fe3Co(PO4)6
_chemical_formula_sum   'Li6 Fe3 Co1 P6 O24'
_cell_volume   455.95933732
_cell_formula_units_Z   1
loop_
 _symmetry_equiv_pos_site_id
 _symmetry_equiv_pos_as_xyz
  1  'x, y, z'
loop_
 _atom_site_type_symbol
 _atom_site_label
 _atom_site_symmetry_multiplicity
 _atom_site_fract_x
 _atom_site_fract_y
 _atom_site_fract_z
 _atom_site_occupancy
  Li  Li0  1  0.02572400  0.00511500  0.99274200  1
  Li  Li1  1  0.75119200  0.15500800  0.34768200  1
  Li  Li2  1  0.47504100  0.50394700  0.49286000  1
  Li  Li3  1  0.22619100  0.84863700  0.65557200  1
  Li  Li4  1  0.65912400  0.22601100  0.84767200  1
  Li  Li5  1  0.84600200  0.65939500  0.22556800  1
  Fe  Fe6  1  0.14646900  0.14411300  0.13609500  1
  Fe  Fe7  1  0.35246600  0.36425700  0.35448000  1
  Fe  Fe8  1  0.64645500  0.64626900  0.64773400  1
  Co  Co9  1  0.85712200  0.85583100  0.85592700  1
  P  P10  1  0.04717800  0.74928900  0.45948600  1
  P  P11  1  0.45948600  0.04744600  0.74698900  1
  P  P12  1  0.74828900  0.46169400  0.04574900  1
  P  P13  1  0.24481400  0.54577100  0.95619400  1
  P  P14  1  0.54804900  0.96124400  0.24562600  1
  P  P15  1  0.95420900  0.24426300  0.54151500  1
  O  O16  1  0.12546600  0.29135200  0.49756100  1
  O  O17  1  0.29961400  0.51280900  0.11733100  1
  O  O18  1  0.04009700  0.92208800  0.27671500  1
  O  O19  1  0.53339200  0.11878300  0.29545200  1
  O  O20  1  0.24086600  0.59459900  0.43150900  1
  O  O21  1  0.02190000  0.79933800  0.62415200  1
  O  O22  1  0.26831000  0.06349800  0.90738900  1
  O  O23  1  0.45465200  0.23298000  0.57785400  1
  O  O24  1  0.59351900  0.43373900  0.24194500  1
  O  O25  1  0.19637500  0.38130000  0.98878700  1
  O  O26  1  0.07457600  0.73685700  0.94634000  1
  O  O27  1  0.37225800  0.00324700  0.20797200  1
  O  O28  1  0.62374000  0.01789000  0.80192300  1
  O  O29  1  0.90699500  0.26706700  0.06420700  1
  O  O30  1  0.80171600  0.62412600  0.01873800  1
  O  O31  1  0.39862100  0.58127400  0.75877700  1
  O  O32  1  0.58088500  0.76314800  0.39859800  1
  O  O33  1  0.73516900  0.94715000  0.07167800  1
  O  O34  1  0.96719700  0.20213200  0.38038900  1
  O  O35  1  0.75999100  0.39954500  0.58429400  1
  O  O36  1  0.49382800  0.88728100  0.68714100  1
  O  O37  1  0.94911000  0.07326000  0.73185700  1
  O  O38  1  0.68405300  0.49608300  0.88943900  1
  O  O39  1  0.88985700  0.68116000  0.49906100  1
