# generated using pymatgen
data_Li5V3(FeO5)2
_symmetry_space_group_name_H-M   'P 1'
_cell_length_a   5.10557719
_cell_length_b   5.24227128
_cell_length_c   7.93920982
_cell_angle_alpha   108.13615889
_cell_angle_beta   102.28897218
_cell_angle_gamma   100.71425366
_symmetry_Int_Tables_number   1
_chemical_formula_structural   Li5V3(FeO5)2
_chemical_formula_sum   'Li5 V3 Fe2 O10'
_cell_volume   189.89278801
_cell_formula_units_Z   1
loop_
 _symmetry_equiv_pos_site_id
 _symmetry_equiv_pos_as_xyz
  1  'x, y, z'
loop_
 _atom_site_type_symbol
 _atom_site_label
 _atom_site_symmetry_multiplicity
 _atom_site_fract_x
 _atom_site_fract_y
 _atom_site_fract_z
 _atom_site_occupancy
  Li  Li0  1  0.20566725  0.92573096  0.41419456  1
  Li  Li1  1  0.38970232  0.28193823  0.77559032  1
  Li  Li2  1  0.50000000  0.50000000  0.50000000  1
  Li  Li3  1  0.61029768  0.71806177  0.22440968  1
  Li  Li4  1  0.79433275  0.07426904  0.58580544  1
  V  V5  1  0.69993443  0.89778847  0.89440176  1
  V  V6  1  0.30006557  0.10221153  0.10559824  1
  V  V7  1  0.00000000  0.50000000  0.00000000  1
  Fe  Fe8  1  0.09252401  0.67320377  0.67277146  1
  Fe  Fe9  1  0.90747599  0.32679623  0.32722854  1
  O  O10  1  0.05631784  0.10960471  0.86577226  1
  O  O11  1  0.34037165  0.72745331  0.95548296  1
  O  O12  1  0.14631236  0.29980958  0.54988976  1
  O  O13  1  0.23309435  0.47269045  0.22885904  1
  O  O14  1  0.46803991  0.89486588  0.67471676  1
  O  O15  1  0.53196009  0.10513412  0.32528324  1
  O  O16  1  0.76690565  0.52730955  0.77114096  1
  O  O17  1  0.85368764  0.70019042  0.45011024  1
  O  O18  1  0.65962835  0.27254669  0.04451704  1
  O  O19  1  0.94368216  0.89039529  0.13422774  1
