# generated using pymatgen
data_Li7Mn3Co3O16
_symmetry_space_group_name_H-M   'P 1'
_cell_length_a   5.67585224
_cell_length_b   5.67554306
_cell_length_c   9.92152476
_cell_angle_alpha   92.44690686
_cell_angle_beta   87.56299939
_cell_angle_gamma   120.12308275
_symmetry_Int_Tables_number   1
_chemical_formula_structural   Li7Mn3Co3O16
_chemical_formula_sum   'Li7 Mn3 Co3 O16'
_cell_volume   276.10990295
_cell_formula_units_Z   1
loop_
 _symmetry_equiv_pos_site_id
 _symmetry_equiv_pos_as_xyz
  1  'x, y, z'
loop_
 _atom_site_type_symbol
 _atom_site_label
 _atom_site_symmetry_multiplicity
 _atom_site_fract_x
 _atom_site_fract_y
 _atom_site_fract_z
 _atom_site_occupancy
  Li  Li0  1  0.97565400  0.02469500  0.50913800  1
  Li  Li1  1  0.66254400  0.33734700  0.02213500  1
  Li  Li2  1  0.66592500  0.33396300  0.57892000  1
  Li  Li3  1  0.66483700  0.33506600  0.79661600  1
  Li  Li4  1  0.65892400  0.82793200  0.04407700  1
  Li  Li5  1  0.31496500  0.68523900  0.50086000  1
  Li  Li6  1  0.17210500  0.34121300  0.04408700  1
  Mn  Mn7  1  0.82650600  0.67067700  0.28204700  1
  Mn  Mn8  1  0.32945400  0.17367500  0.28206000  1
  Mn  Mn9  1  0.16315200  0.83676700  0.79444500  1
  Co  Co10  1  0.83084200  0.16927700  0.29032000  1
  Co  Co11  1  0.66202800  0.83442100  0.78762400  1
  Co  Co12  1  0.16547800  0.33788000  0.78762300  1
  O  O13  1  0.99682000  0.00331800  0.17914200  1
  O  O14  1  0.00250100  0.99731700  0.69029500  1
  O  O15  1  0.83685300  0.16317200  0.89475100  1
  O  O16  1  0.95863200  0.46318700  0.17512500  1
  O  O17  1  0.53694700  0.04148200  0.17510400  1
  O  O18  1  0.65566600  0.34447400  0.38804900  1
  O  O19  1  0.82183000  0.68873200  0.89552200  1
  O  O20  1  0.51127800  0.48878000  0.16792800  1
  O  O21  1  0.67261100  0.85484100  0.38681600  1
  O  O22  1  0.49067700  0.50915200  0.68649900  1
  O  O23  1  0.31123800  0.17814900  0.89553200  1
  O  O24  1  0.49693800  0.98208500  0.68489200  1
  O  O25  1  0.32860900  0.67137800  0.89544600  1
  O  O26  1  0.14531700  0.32766600  0.38684600  1
  O  O27  1  0.01777400  0.50289800  0.68487400  1
  O  O28  1  0.14232700  0.85791000  0.38979200  1
