# generated using pymatgen
data_Li9Cr5O12
_symmetry_space_group_name_H-M   'P 1'
_cell_length_a   5.24136960
_cell_length_b   5.24138163
_cell_length_c   10.05454690
_cell_angle_alpha   93.04242280
_cell_angle_beta   86.95868716
_cell_angle_gamma   59.34199360
_symmetry_Int_Tables_number   1
_chemical_formula_structural   Li9Cr5O12
_chemical_formula_sum   'Li9 Cr5 O12'
_cell_volume   236.24135017
_cell_formula_units_Z   1
loop_
 _symmetry_equiv_pos_site_id
 _symmetry_equiv_pos_as_xyz
  1  'x, y, z'
loop_
 _atom_site_type_symbol
 _atom_site_label
 _atom_site_symmetry_multiplicity
 _atom_site_fract_x
 _atom_site_fract_y
 _atom_site_fract_z
 _atom_site_occupancy
  Li  Li0  1  0.80173400  0.19828700  0.25525100  1
  Li  Li1  1  0.73963200  0.26033100  0.80526400  1
  Li  Li2  1  0.35262800  0.19194800  0.75229500  1
  Li  Li3  1  0.80793000  0.64736000  0.75222600  1
  Li  Li4  1  0.00002600  0.99993100  0.99995500  1
  Li  Li5  1  0.19205900  0.35255900  0.24776700  1
  Li  Li6  1  0.64745000  0.80776900  0.24777700  1
  Li  Li7  1  0.26039000  0.73958100  0.19476700  1
  Li  Li8  1  0.19859400  0.80140000  0.74465200  1
  Cr  Cr9  1  0.16525300  0.16538900  0.49999900  1
  Cr  Cr10  1  0.49999500  0.49978600  0.49996100  1
  Cr  Cr11  1  0.83464900  0.83498800  0.50000400  1
  Cr  Cr12  1  0.33215900  0.33223100  0.00011000  1
  Cr  Cr13  1  0.66770100  0.66788000  0.00006700  1
  O  O14  1  0.81453600  0.18559100  0.60599400  1
  O  O15  1  0.32771900  0.02134000  0.11911400  1
  O  O16  1  0.97861600  0.67222400  0.11911600  1
  O  O17  1  0.85428200  0.47717200  0.39204100  1
  O  O18  1  0.52294400  0.14581700  0.39205700  1
  O  O19  1  0.60812500  0.39185600  0.11501400  1
  O  O20  1  0.39175900  0.60817200  0.88500600  1
  O  O21  1  0.47708600  0.85434100  0.60788800  1
  O  O22  1  0.14579100  0.52297100  0.60788100  1
  O  O23  1  0.02131200  0.32778700  0.88092700  1
  O  O24  1  0.67215300  0.97863600  0.88091000  1
  O  O25  1  0.18545800  0.81465800  0.39391800  1
