# generated using pymatgen
data_LiSiBiO4
_symmetry_space_group_name_H-M   'P 1'
_cell_length_a   5.77458700
_cell_length_b   7.09848800
_cell_length_c   9.05877100
_cell_angle_alpha   90.00000000
_cell_angle_beta   90.00000000
_cell_angle_gamma   90.00000000
_symmetry_Int_Tables_number   1
_chemical_formula_structural   LiSiBiO4
_chemical_formula_sum   'Li4 Si4 Bi4 O16'
_cell_volume   371.32660117
_cell_formula_units_Z   4
loop_
 _symmetry_equiv_pos_site_id
 _symmetry_equiv_pos_as_xyz
  1  'x, y, z'
loop_
 _atom_site_type_symbol
 _atom_site_label
 _atom_site_symmetry_multiplicity
 _atom_site_fract_x
 _atom_site_fract_y
 _atom_site_fract_z
 _atom_site_occupancy
  Li  Li0  1  0.00000000  0.00000000  0.00000000  1
  Li  Li1  1  0.00000000  0.50000000  0.00000000  1
  Li  Li2  1  0.50000000  0.50000000  0.50000000  1
  Li  Li3  1  0.50000000  0.00000000  0.50000000  1
  Si  Si4  1  0.91557300  0.75000000  0.67762200  1
  Si  Si5  1  0.58442700  0.75000000  0.17762200  1
  Si  Si6  1  0.41557300  0.25000000  0.82237800  1
  Si  Si7  1  0.08442700  0.25000000  0.32237800  1
  Bi  Bi8  1  0.86719100  0.25000000  0.65596500  1
  Bi  Bi9  1  0.63280900  0.25000000  0.15596500  1
  Bi  Bi10  1  0.36719100  0.75000000  0.84403500  1
  Bi  Bi11  1  0.13280900  0.75000000  0.34403500  1
  O  O12  1  0.01187400  0.25000000  0.14405900  1
  O  O13  1  0.67783800  0.25000000  0.90485600  1
  O  O14  1  0.73452400  0.93596000  0.13361400  1
  O  O15  1  0.73452400  0.56404000  0.13361400  1
  O  O16  1  0.76547600  0.93596000  0.63361400  1
  O  O17  1  0.76547600  0.56404000  0.63361400  1
  O  O18  1  0.82216200  0.25000000  0.40485600  1
  O  O19  1  0.48812600  0.25000000  0.64405900  1
  O  O20  1  0.51187400  0.75000000  0.35594100  1
  O  O21  1  0.17783800  0.75000000  0.59514400  1
  O  O22  1  0.26547600  0.43596000  0.86638600  1
  O  O23  1  0.26547600  0.06404000  0.86638600  1
  O  O24  1  0.23452400  0.06404000  0.36638600  1
  O  O25  1  0.23452400  0.43596000  0.36638600  1
  O  O26  1  0.98812600  0.75000000  0.85594100  1
  O  O27  1  0.32216200  0.75000000  0.09514400  1
