# generated using pymatgen
data_LiCr(PO3)3
_symmetry_space_group_name_H-M   'P 1'
_cell_length_a   5.53219200
_cell_length_b   10.72532200
_cell_length_c   11.66929600
_cell_angle_alpha   90.00000000
_cell_angle_beta   90.00000000
_cell_angle_gamma   90.00000000
_symmetry_Int_Tables_number   1
_chemical_formula_structural   LiCr(PO3)3
_chemical_formula_sum   'Li4 Cr4 P12 O36'
_cell_volume   692.39231689
_cell_formula_units_Z   4
loop_
 _symmetry_equiv_pos_site_id
 _symmetry_equiv_pos_as_xyz
  1  'x, y, z'
loop_
 _atom_site_type_symbol
 _atom_site_label
 _atom_site_symmetry_multiplicity
 _atom_site_fract_x
 _atom_site_fract_y
 _atom_site_fract_z
 _atom_site_occupancy
  Li  Li0  1  0.08366900  0.11674400  0.07686300  1
  Li  Li1  1  0.58366900  0.38325600  0.92313700  1
  Li  Li2  1  0.91633100  0.61674400  0.42313700  1
  Li  Li3  1  0.41633100  0.88325600  0.57686300  1
  Cr  Cr4  1  0.58921700  0.03104100  0.85915300  1
  Cr  Cr5  1  0.08921700  0.46895900  0.14084700  1
  Cr  Cr6  1  0.41078300  0.53104100  0.64084700  1
  Cr  Cr7  1  0.91078300  0.96895900  0.35915300  1
  P  P8  1  0.87785400  0.07527500  0.62291700  1
  P  P9  1  0.37354600  0.15019000  0.36569000  1
  P  P10  1  0.06472100  0.19832200  0.82066300  1
  P  P11  1  0.56472100  0.30167800  0.17933700  1
  P  P12  1  0.87354600  0.34981000  0.63431000  1
  P  P13  1  0.37785400  0.42472500  0.37708300  1
  P  P14  1  0.12214600  0.57527500  0.87708300  1
  P  P15  1  0.62645400  0.65019000  0.13431000  1
  P  P16  1  0.93527900  0.69832200  0.67933700  1
  P  P17  1  0.43527900  0.80167800  0.32066300  1
  P  P18  1  0.12645400  0.84981000  0.86569000  1
  P  P19  1  0.62214600  0.92472500  0.12291700  1
  O  O20  1  0.51354800  0.00902900  0.03444900  1
  O  O21  1  0.64460700  0.03487300  0.67982900  1
  O  O22  1  0.50019900  0.05946800  0.44111500  1
  O  O23  1  0.08327200  0.09191700  0.72139700  1
  O  O24  1  0.12598100  0.12031700  0.31808400  1
  O  O25  1  0.82587600  0.18447300  0.88348800  1
  O  O26  1  0.29403300  0.19880300  0.88810600  1
  O  O27  1  0.55181300  0.17804300  0.25731800  1
  O  O28  1  0.86046100  0.21447100  0.57195100  1
  O  O29  1  0.36046100  0.28552900  0.42804900  1
  O  O30  1  0.05181300  0.32195700  0.74268200  1
  O  O31  1  0.79403300  0.30119700  0.11189400  1
  O  O32  1  0.32587600  0.31552700  0.11651200  1
  O  O33  1  0.62598100  0.37968300  0.68191600  1
  O  O34  1  0.58327200  0.40808300  0.27860300  1
  O  O35  1  0.00019900  0.44053200  0.55888500  1
  O  O36  1  0.14460700  0.46512700  0.32017100  1
  O  O37  1  0.01354800  0.49097100  0.96555100  1
  O  O38  1  0.48645200  0.50902900  0.46555100  1
  O  O39  1  0.35539300  0.53487300  0.82017100  1
  O  O40  1  0.49980100  0.55946800  0.05888500  1
  O  O41  1  0.91672800  0.59191700  0.77860300  1
  O  O42  1  0.87401900  0.62031700  0.18191600  1
  O  O43  1  0.17412400  0.68447300  0.61651200  1
  O  O44  1  0.70596700  0.69880300  0.61189400  1
  O  O45  1  0.44818700  0.67804300  0.24268200  1
  O  O46  1  0.13953900  0.71447100  0.92804900  1
  O  O47  1  0.63953900  0.78552900  0.07195100  1
  O  O48  1  0.94818700  0.82195700  0.75731800  1
  O  O49  1  0.20596700  0.80119700  0.38810600  1
  O  O50  1  0.67412400  0.81552700  0.38348800  1
  O  O51  1  0.37401900  0.87968300  0.81808400  1
  O  O52  1  0.41672800  0.90808300  0.22139700  1
  O  O53  1  0.99980100  0.94053200  0.94111500  1
  O  O54  1  0.85539300  0.96512700  0.17982900  1
  O  O55  1  0.98645200  0.99097100  0.53444900  1
