# generated using pymatgen
data_Li2VCr(P2O7)2
_symmetry_space_group_name_H-M   'P 1'
_cell_length_a   8.22779100
_cell_length_b   7.02720600
_cell_length_c   9.73405613
_cell_angle_alpha   71.21143650
_cell_angle_beta   90.00000000
_cell_angle_gamma   90.00000000
_symmetry_Int_Tables_number   1
_chemical_formula_structural   Li2VCr(P2O7)2
_chemical_formula_sum   'Li4 V2 Cr2 P8 O28'
_cell_volume   532.81738080
_cell_formula_units_Z   2
loop_
 _symmetry_equiv_pos_site_id
 _symmetry_equiv_pos_as_xyz
  1  'x, y, z'
loop_
 _atom_site_type_symbol
 _atom_site_label
 _atom_site_symmetry_multiplicity
 _atom_site_fract_x
 _atom_site_fract_y
 _atom_site_fract_z
 _atom_site_occupancy
  Li  Li0  1  0.86300900  0.67681200  0.66152300  1
  Li  Li1  1  0.36300900  0.32318800  0.33847700  1
  Li  Li2  1  0.86282700  0.67635700  0.16173000  1
  Li  Li3  1  0.36282700  0.32364300  0.83827000  1
  V  V4  1  0.49945900  0.72929100  0.64193900  1
  V  V5  1  0.99945900  0.27070900  0.35806100  1
  Cr  Cr6  1  0.50020400  0.72728800  0.14264100  1
  Cr  Cr7  1  0.00020400  0.27271200  0.85735900  1
  P  P8  1  0.17979200  0.52161900  0.55037500  1
  P  P9  1  0.78463500  0.08650900  0.64488600  1
  P  P10  1  0.28463500  0.91349100  0.35511400  1
  P  P11  1  0.67979200  0.47838100  0.44962500  1
  P  P12  1  0.18057300  0.52279800  0.04956600  1
  P  P13  1  0.78314000  0.08480900  0.14300100  1
  P  P14  1  0.28314000  0.91519100  0.85699900  1
  P  P15  1  0.68057300  0.47720200  0.95043400  1
  O  O16  1  0.32228200  0.85343600  0.72450500  1
  O  O17  1  0.69691900  0.88512700  0.68503300  1
  O  O18  1  0.03654800  0.48177400  0.65666600  1
  O  O19  1  0.34404600  0.50431900  0.62688900  1
  O  O20  1  0.67826000  0.60585600  0.55151200  1
  O  O21  1  0.43494700  0.91725800  0.44833100  1
  O  O22  1  0.15240900  0.75319300  0.45276900  1
  O  O23  1  0.65240900  0.24680700  0.54723100  1
  O  O24  1  0.93494700  0.08274200  0.55166900  1
  O  O25  1  0.17826000  0.39414400  0.44848800  1
  O  O26  1  0.84404600  0.49568100  0.37311100  1
  O  O27  1  0.53654800  0.51822600  0.34333400  1
  O  O28  1  0.32417300  0.85240700  0.22295400  1
  O  O29  1  0.69334000  0.88333400  0.18422500  1
  O  O30  1  0.19691900  0.11487300  0.31496700  1
  O  O31  1  0.82228200  0.14656400  0.27549500  1
  O  O32  1  0.03830200  0.48194400  0.15704800  1
  O  O33  1  0.34601400  0.50944800  0.12563300  1
  O  O34  1  0.67971900  0.60608900  0.05058100  1
  O  O35  1  0.43362400  0.91761200  0.94927800  1
  O  O36  1  0.15135700  0.75404600  0.95279900  1
  O  O37  1  0.65135700  0.24595400  0.04720100  1
  O  O38  1  0.93362400  0.08238800  0.05072200  1
  O  O39  1  0.17971900  0.39391100  0.94941900  1
  O  O40  1  0.84601400  0.49055200  0.87436700  1
  O  O41  1  0.53830200  0.51805600  0.84295200  1
  O  O42  1  0.19334000  0.11666600  0.81577500  1
  O  O43  1  0.82417300  0.14759300  0.77704600  1
