# generated using pymatgen
data_Li8MnFe7(BO3)8
_symmetry_space_group_name_H-M   'P 1'
_cell_length_a   5.22172200
_cell_length_b   9.06358808
_cell_length_c   10.40015206
_cell_angle_alpha   91.63205561
_cell_angle_beta   91.05173527
_cell_angle_gamma   89.99231301
_symmetry_Int_Tables_number   1
_chemical_formula_structural   Li8MnFe7(BO3)8
_chemical_formula_sum   'Li8 Mn1 Fe7 B8 O24'
_cell_volume   491.93098439
_cell_formula_units_Z   1
loop_
 _symmetry_equiv_pos_site_id
 _symmetry_equiv_pos_as_xyz
  1  'x, y, z'
loop_
 _atom_site_type_symbol
 _atom_site_label
 _atom_site_symmetry_multiplicity
 _atom_site_fract_x
 _atom_site_fract_y
 _atom_site_fract_z
 _atom_site_occupancy
  Li  Li0  1  0.84919800  0.82805300  0.66490500  1
  Li  Li1  1  0.81705000  0.83617800  0.16848500  1
  Li  Li2  1  0.68144200  0.66855300  0.41574300  1
  Li  Li3  1  0.66205800  0.67396500  0.91485900  1
  Li  Li4  1  0.34614300  0.32747000  0.66657500  1
  Li  Li5  1  0.31770900  0.33678200  0.16748500  1
  Li  Li6  1  0.18441400  0.17037000  0.41439400  1
  Li  Li7  1  0.16190600  0.17488100  0.91517300  1
  Mn  Mn8  1  0.66715400  0.00300200  0.88422800  1
  Fe  Fe9  1  0.81978900  0.50104800  0.13365200  1
  Fe  Fe10  1  0.84198700  0.16129000  0.63282300  1
  Fe  Fe11  1  0.67404900  0.33119900  0.38385200  1
  Fe  Fe12  1  0.33380200  0.65952300  0.63424000  1
  Fe  Fe13  1  0.31554000  0.99965200  0.13143100  1
  Fe  Fe14  1  0.18265500  0.83276600  0.38288100  1
  Fe  Fe15  1  0.16566500  0.50030000  0.88558400  1
  B  B16  1  0.82842600  0.16804700  0.12847400  1
  B  B17  1  0.83363700  0.50024200  0.62559500  1
  B  B18  1  0.66857400  0.00136500  0.37522200  1
  B  B19  1  0.67174000  0.33693100  0.87511500  1
  B  B20  1  0.32976000  0.66685100  0.12603200  1
  B  B21  1  0.33772500  0.00019300  0.62508700  1
  B  B22  1  0.16557300  0.50211100  0.37545300  1
  B  B23  1  0.16894800  0.83210800  0.87653700  1
  O  O24  1  0.90346900  0.51420000  0.34592600  1
  O  O25  1  0.90600200  0.82115900  0.86189300  1
  O  O26  1  0.82133100  0.21308600  0.84497000  1
  O  O27  1  0.80812200  0.12738100  0.41519300  1
  O  O28  1  0.78777500  0.86688200  0.36219100  1
  O  O29  1  0.78798600  0.46860400  0.91678000  1
  O  O30  1  0.72023000  0.63769200  0.61307600  1
  O  O31  1  0.70767500  0.03317200  0.09939900  1
  O  O32  1  0.69190100  0.37212100  0.59668300  1
  O  O33  1  0.68684500  0.29156100  0.16539100  1
  O  O34  1  0.59379500  0.67847600  0.11422800  1
  O  O35  1  0.59406700  0.99140600  0.66447600  1
  O  O36  1  0.40470500  0.01441400  0.34717700  1
  O  O37  1  0.40752300  0.32781000  0.86226200  1
  O  O38  1  0.32264300  0.71005300  0.84608400  1
  O  O39  1  0.30457700  0.62675600  0.41677000  1
  O  O40  1  0.28807000  0.36761000  0.36155900  1
  O  O41  1  0.27993900  0.96571600  0.91900100  1
  O  O42  1  0.21021900  0.53177000  0.09599300  1
  O  O43  1  0.22150800  0.13765300  0.61306800  1
  O  O44  1  0.19744300  0.87265100  0.59632200  1
  O  O45  1  0.18685400  0.78919300  0.16526700  1
  O  O46  1  0.09252900  0.17892300  0.11534900  1
  O  O47  1  0.09045100  0.48943100  0.66471500  1
