# generated using pymatgen
data_Li7Ti12Fe5O32
_symmetry_space_group_name_H-M   'P 1'
_cell_length_a   8.52466385
_cell_length_b   8.52466385
_cell_length_c   8.52466396
_cell_angle_alpha   90.09597416
_cell_angle_beta   90.09597416
_cell_angle_gamma   90.09597382
_symmetry_Int_Tables_number   1
_chemical_formula_structural   Li7Ti12Fe5O32
_chemical_formula_sum   'Li7 Ti12 Fe5 O32'
_cell_volume   619.48381371
_cell_formula_units_Z   1
loop_
 _symmetry_equiv_pos_site_id
 _symmetry_equiv_pos_as_xyz
  1  'x, y, z'
loop_
 _atom_site_type_symbol
 _atom_site_label
 _atom_site_symmetry_multiplicity
 _atom_site_fract_x
 _atom_site_fract_y
 _atom_site_fract_z
 _atom_site_occupancy
  Li  Li0  1  0.49838300  0.99760500  0.50174800  1
  Li  Li1  1  0.62531900  0.87527300  0.12501300  1
  Li  Li2  1  0.12501300  0.62531900  0.87527300  1
  Li  Li3  1  0.99760500  0.50174800  0.49838300  1
  Li  Li4  1  0.50174800  0.49838300  0.99760500  1
  Li  Li5  1  0.37600400  0.37600400  0.37600400  1
  Li  Li6  1  0.87527300  0.12501300  0.62531900  1
  Ti  Ti7  1  0.86451900  0.87724300  0.37484300  1
  Ti  Ti8  1  0.12303800  0.86814100  0.62727500  1
  Ti  Ti9  1  0.37484300  0.86451900  0.87724300  1
  Ti  Ti10  1  0.86814100  0.62727500  0.12303800  1
  Ti  Ti11  1  0.62137400  0.62757000  0.36776000  1
  Ti  Ti12  1  0.36776000  0.62137400  0.62757000  1
  Ti  Ti13  1  0.13623600  0.38321400  0.12700400  1
  Ti  Ti14  1  0.87724300  0.37484300  0.86451900  1
  Ti  Ti15  1  0.62757000  0.36776000  0.62137400  1
  Ti  Ti16  1  0.12700400  0.13623600  0.38321400  1
  Ti  Ti17  1  0.38321400  0.12700400  0.13623600  1
  Ti  Ti18  1  0.62727500  0.12303800  0.86814100  1
  Fe  Fe19  1  0.25080300  0.75128700  0.25052700  1
  Fe  Fe20  1  0.74921200  0.74921200  0.74921200  1
  Fe  Fe21  1  0.75128700  0.25052700  0.25080300  1
  Fe  Fe22  1  0.25052700  0.25080300  0.75128700  1
  Fe  Fe23  1  0.99991400  0.99991400  0.99991400  1
  O  O24  1  0.60852800  0.89351700  0.87420900  1
  O  O25  1  0.11157200  0.88771100  0.38827100  1
  O  O26  1  0.37618800  0.89191000  0.10587900  1
  O  O27  1  0.89351700  0.87420900  0.60852800  1
  O  O28  1  0.14395700  0.87640200  0.85675600  1
  O  O29  1  0.64573300  0.85966300  0.37600700  1
  O  O30  1  0.36166200  0.86028700  0.63919300  1
  O  O31  1  0.87640200  0.85675600  0.14395700  1
  O  O32  1  0.37600700  0.64573300  0.85966300  1
  O  O33  1  0.86028700  0.63919300  0.36166200  1
  O  O34  1  0.14671500  0.64051300  0.62266500  1
  O  O35  1  0.64051300  0.62266500  0.14671500  1
  O  O36  1  0.39605600  0.62610500  0.39055900  1
  O  O37  1  0.87420900  0.60852800  0.89351700  1
  O  O38  1  0.61178700  0.61178700  0.61178700  1
  O  O39  1  0.10828800  0.60615500  0.12775100  1
  O  O40  1  0.39055900  0.39605600  0.62610500  1
  O  O41  1  0.88771100  0.38827100  0.11157200  1
  O  O42  1  0.62610500  0.39055900  0.39605600  1
  O  O43  1  0.10587900  0.37618800  0.89191000  1
  O  O44  1  0.85966300  0.37600700  0.64573300  1
  O  O45  1  0.35516100  0.35794900  0.12321400  1
  O  O46  1  0.63919300  0.36166200  0.86028700  1
  O  O47  1  0.12321400  0.35516100  0.35794900  1
  O  O48  1  0.62266500  0.14671500  0.64051300  1
  O  O49  1  0.13835200  0.13835200  0.13835200  1
  O  O50  1  0.85675600  0.14395700  0.87640200  1
  O  O51  1  0.35794900  0.12321400  0.35516100  1
  O  O52  1  0.60615500  0.12775100  0.10828800  1
  O  O53  1  0.12775100  0.10828800  0.60615500  1
  O  O54  1  0.38827100  0.11157200  0.88771100  1
  O  O55  1  0.89191000  0.10587900  0.37618800  1
