# generated using pymatgen
data_Li2VSn(PO4)2
_symmetry_space_group_name_H-M   'P 1'
_cell_length_a   8.04515177
_cell_length_b   8.04363830
_cell_length_c   11.18936142
_cell_angle_alpha   89.72499506
_cell_angle_beta   89.72229993
_cell_angle_gamma   105.51160197
_symmetry_Int_Tables_number   1
_chemical_formula_structural   Li2VSn(PO4)2
_chemical_formula_sum   'Li8 V4 Sn4 P8 O32'
_cell_volume   697.69305957
_cell_formula_units_Z   4
loop_
 _symmetry_equiv_pos_site_id
 _symmetry_equiv_pos_as_xyz
  1  'x, y, z'
loop_
 _atom_site_type_symbol
 _atom_site_label
 _atom_site_symmetry_multiplicity
 _atom_site_fract_x
 _atom_site_fract_y
 _atom_site_fract_z
 _atom_site_occupancy
  Li  Li0  1  0.00000000  0.00000000  0.99999900  1
  Li  Li1  1  0.50000000  0.50000100  0.00000000  1
  Li  Li2  1  0.25000700  0.75000000  0.99999600  1
  Li  Li3  1  0.74999300  0.24999900  0.00000300  1
  Li  Li4  1  0.25004700  0.25001300  0.50002100  1
  Li  Li5  1  0.74995100  0.74998600  0.49997800  1
  Li  Li6  1  0.49999900  0.99999700  0.49999900  1
  Li  Li7  1  0.99999800  0.49999800  0.49999900  1
  V  V8  1  0.09536800  0.34534200  0.21215200  1
  V  V9  1  0.90463200  0.65464700  0.78785200  1
  V  V10  1  0.59534800  0.84534500  0.21215700  1
  V  V11  1  0.40465700  0.15465900  0.78784000  1
  Sn  Sn12  1  0.60973100  0.35977800  0.27648800  1
  Sn  Sn13  1  0.10973100  0.85977700  0.27649200  1
  Sn  Sn14  1  0.39026900  0.64022400  0.72351000  1
  Sn  Sn15  1  0.89027300  0.14022200  0.72350900  1
  P  P16  1  0.32930600  0.07930800  0.07540600  1
  P  P17  1  0.82930800  0.57932200  0.07540300  1
  P  P18  1  0.67069400  0.92069100  0.92459500  1
  P  P19  1  0.17069000  0.42067800  0.92459600  1
  P  P20  1  0.80027400  0.05031800  0.39047100  1
  P  P21  1  0.30027700  0.55030700  0.39047400  1
  P  P22  1  0.19972800  0.94968400  0.60953100  1
  P  P23  1  0.69972000  0.44969500  0.60952600  1
  O  O24  1  0.72775800  0.97790000  0.05389200  1
  O  O25  1  0.22775500  0.47787500  0.05388800  1
  O  O26  1  0.27224100  0.02209800  0.94610900  1
  O  O27  1  0.77224300  0.52212100  0.94611200  1
  O  O28  1  0.48758400  0.23762500  0.08260400  1
  O  O29  1  0.98759000  0.73764100  0.08260700  1
  O  O30  1  0.51241600  0.76237800  0.91739400  1
  O  O31  1  0.01241200  0.26235600  0.91739200  1
  O  O32  1  0.45661200  0.70663400  0.37364300  1
  O  O33  1  0.95659500  0.20664300  0.37363600  1
  O  O34  1  0.54338400  0.29336800  0.62635900  1
  O  O35  1  0.04340800  0.79336000  0.62636900  1
  O  O36  1  0.24855900  0.99852500  0.47721400  1
  O  O37  1  0.74854900  0.49852000  0.47721400  1
  O  O38  1  0.75144400  0.00147800  0.52278800  1
  O  O39  1  0.25144800  0.50148100  0.52278500  1
  O  O40  1  0.16566200  0.11217300  0.13961100  1
  O  O41  1  0.66567100  0.61218700  0.13961400  1
  O  O42  1  0.36211300  0.91568900  0.13972100  1
  O  O43  1  0.86212100  0.41570800  0.13971100  1
  O  O44  1  0.63788800  0.08430900  0.86028100  1
  O  O45  1  0.13787700  0.58429100  0.86028700  1
  O  O46  1  0.83433500  0.88782500  0.86038700  1
  O  O47  1  0.33432900  0.38781600  0.86038700  1
  O  O48  1  0.63086300  0.07398900  0.32977900  1
  O  O49  1  0.13088600  0.57399100  0.32977800  1
  O  O50  1  0.82390500  0.88086500  0.32977400  1
  O  O51  1  0.32391400  0.38086100  0.32978100  1
  O  O52  1  0.17609700  0.11913800  0.67023000  1
  O  O53  1  0.67608600  0.61914200  0.67021800  1
  O  O54  1  0.36914000  0.92601300  0.67022100  1
  O  O55  1  0.86911300  0.42600800  0.67022000  1
