# generated using pymatgen
data_Li2Nb4ZnO12
_symmetry_space_group_name_H-M   'P 1'
_cell_length_a   7.69029200
_cell_length_b   7.71807040
_cell_length_c   11.89757088
_cell_angle_alpha   104.99620294
_cell_angle_beta   92.51589396
_cell_angle_gamma   93.72579248
_symmetry_Int_Tables_number   1
_chemical_formula_structural   Li2Nb4ZnO12
_chemical_formula_sum   'Li6 Nb12 Zn3 O36'
_cell_volume   679.32772985
_cell_formula_units_Z   3
loop_
 _symmetry_equiv_pos_site_id
 _symmetry_equiv_pos_as_xyz
  1  'x, y, z'
loop_
 _atom_site_type_symbol
 _atom_site_label
 _atom_site_symmetry_multiplicity
 _atom_site_fract_x
 _atom_site_fract_y
 _atom_site_fract_z
 _atom_site_occupancy
  Li  Li0  1  0.21912900  0.04368400  0.52359900  1
  Li  Li1  1  0.21831000  0.38054800  0.18686500  1
  Li  Li2  1  0.71816700  0.86771200  0.18329800  1
  Li  Li3  1  0.21580800  0.20287300  0.85073600  1
  Li  Li4  1  0.21721000  0.53693900  0.51922400  1
  Li  Li5  1  0.21839600  0.70726100  0.85423100  1
  Nb  Nb6  1  0.48812000  0.15653200  0.32992400  1
  Nb  Nb7  1  0.00473500  0.17067000  0.33106200  1
  Nb  Nb8  1  0.50326500  0.33361800  0.66924000  1
  Nb  Nb9  1  0.49944200  0.65941400  0.33649500  1
  Nb  Nb10  1  0.00429500  0.33772800  0.66504900  1
  Nb  Nb11  1  0.00539200  0.67736000  0.33095200  1
  Nb  Nb12  1  0.49391300  0.49627200  0.99781300  1
  Nb  Nb13  1  0.49518700  0.82922400  0.66542700  1
  Nb  Nb14  1  0.00013600  0.50092700  0.99509100  1
  Nb  Nb15  1  0.99736300  0.83496000  0.66316000  1
  Nb  Nb16  1  0.50311000  0.00221700  0.00004000  1
  Nb  Nb17  1  0.00950800  0.00642900  0.00420400  1
  Zn  Zn18  1  0.72390100  0.04320500  0.51681300  1
  Zn  Zn19  1  0.72711700  0.37394000  0.18855500  1
  Zn  Zn20  1  0.72572800  0.71022300  0.85423300  1
  O  O21  1  0.58484400  0.25236300  0.03616900  1
  O  O22  1  0.08110800  0.12948200  0.15946500  1
  O  O23  1  0.76762900  0.18480200  0.27713600  1
  O  O24  1  0.26033700  0.10015300  0.36511700  1
  O  O25  1  0.26452000  0.43175000  0.02831400  1
  O  O26  1  0.95944000  0.15633100  0.48902800  1
  O  O27  1  0.95884300  0.49086400  0.15390900  1
  O  O28  1  0.45753200  0.03926800  0.61578900  1
  O  O29  1  0.45891700  0.37025400  0.27898000  1
  O  O30  1  0.57483400  0.25957800  0.48671100  1
  O  O31  1  0.57983100  0.61351000  0.15470000  1
  O  O32  1  0.08617600  0.07842600  0.69233400  1
  O  O33  1  0.08098300  0.41431800  0.36325500  1
  O  O34  1  0.07878300  0.74164600  0.01669100  1
  O  O35  1  0.76624600  0.26725800  0.68160500  1
  O  O36  1  0.76718300  0.59317000  0.34573500  1
  O  O37  1  0.76947100  0.92793600  0.02379700  1
  O  O38  1  0.26766500  0.01116500  0.94469800  1
  O  O39  1  0.26891200  0.34341100  0.60908100  1
  O  O40  1  0.26535700  0.66420700  0.28144700  1
  O  O41  1  0.97530000  0.20687100  0.94867900  1
  O  O42  1  0.97744400  0.54618100  0.61654700  1
  O  O43  1  0.95049400  0.87780200  0.28066800  1
  O  O44  1  0.45146900  0.33030800  0.82289600  1
  O  O45  1  0.45376500  0.66368000  0.49191000  1
  O  O46  1  0.47763500  0.99669500  0.15646100  1
  O  O47  1  0.58455600  0.58223100  0.70140000  1
  O  O48  1  0.58612600  0.91025400  0.36226700  1
  O  O49  1  0.08373200  0.44765800  0.82337900  1
  O  O50  1  0.08070500  0.78794600  0.48936300  1
  O  O51  1  0.76445300  0.52418900  0.94426800  1
  O  O52  1  0.76502500  0.86096600  0.61004800  1
  O  O53  1  0.26435600  0.76782800  0.69511400  1
  O  O54  1  0.95542300  0.82567500  0.82006000  1
  O  O55  1  0.45758700  0.70652100  0.94766900  1
  O  O56  1  0.57870500  0.93191900  0.82440900  1
