# generated using pymatgen
data_LiNiPO4
_symmetry_space_group_name_H-M   'P 1'
_cell_length_a   5.01663700
_cell_length_b   6.29224900
_cell_length_c   10.99197000
_cell_angle_alpha   90.00000000
_cell_angle_beta   90.00000000
_cell_angle_gamma   90.00000000
_symmetry_Int_Tables_number   1
_chemical_formula_structural   LiNiPO4
_chemical_formula_sum   'Li4 Ni4 P4 O16'
_cell_volume   346.97174620
_cell_formula_units_Z   4
loop_
 _symmetry_equiv_pos_site_id
 _symmetry_equiv_pos_as_xyz
  1  'x, y, z'
loop_
 _atom_site_type_symbol
 _atom_site_label
 _atom_site_symmetry_multiplicity
 _atom_site_fract_x
 _atom_site_fract_y
 _atom_site_fract_z
 _atom_site_occupancy
  Li  Li0  1  0.24777900  0.01424200  0.16674000  1
  Li  Li1  1  0.74777900  0.51424200  0.33326000  1
  Li  Li2  1  0.24777900  0.48575800  0.66674000  1
  Li  Li3  1  0.74777900  0.98575800  0.83326000  1
  Ni  Ni4  1  0.74050500  0.27982500  0.08098900  1
  Ni  Ni5  1  0.24050500  0.77982500  0.41901100  1
  Ni  Ni6  1  0.74050500  0.22017500  0.58098900  1
  Ni  Ni7  1  0.24050500  0.72017500  0.91901100  1
  P  P8  1  0.25083400  0.51582600  0.17523800  1
  P  P9  1  0.75083400  0.01582600  0.32476200  1
  P  P10  1  0.25083400  0.98417400  0.67523800  1
  P  P11  1  0.75083400  0.48417400  0.82476200  1
  O  O12  1  0.18820000  0.71391000  0.09419500  1
  O  O13  1  0.12417400  0.31242500  0.11888200  1
  O  O14  1  0.63847700  0.05025100  0.19484300  1
  O  O15  1  0.55612400  0.48750000  0.18160800  1
  O  O16  1  0.05612400  0.98750000  0.31839200  1
  O  O17  1  0.13847700  0.55025100  0.30515700  1
  O  O18  1  0.62417400  0.81242500  0.38111800  1
  O  O19  1  0.68820000  0.21391000  0.40580500  1
  O  O20  1  0.18820000  0.78609000  0.59419500  1
  O  O21  1  0.12417400  0.18757500  0.61888200  1
  O  O22  1  0.63847700  0.44974900  0.69484300  1
  O  O23  1  0.55612400  0.01250000  0.68160800  1
  O  O24  1  0.05612400  0.51250000  0.81839200  1
  O  O25  1  0.13847700  0.94974900  0.80515700  1
  O  O26  1  0.62417400  0.68757500  0.88111800  1
  O  O27  1  0.68820000  0.28609000  0.90580500  1
