# generated using pymatgen
data_LiMn2F5
_symmetry_space_group_name_H-M   'P 1'
_cell_length_a   8.06431999
_cell_length_b   8.06431999
_cell_length_c   10.10624460
_cell_angle_alpha   63.00048251
_cell_angle_beta   63.00048251
_cell_angle_gamma   49.04633604
_symmetry_Int_Tables_number   1
_chemical_formula_structural   LiMn2F5
_chemical_formula_sum   'Li4 Mn8 F20'
_cell_volume   430.16113750
_cell_formula_units_Z   4
loop_
 _symmetry_equiv_pos_site_id
 _symmetry_equiv_pos_as_xyz
  1  'x, y, z'
loop_
 _atom_site_type_symbol
 _atom_site_label
 _atom_site_symmetry_multiplicity
 _atom_site_fract_x
 _atom_site_fract_y
 _atom_site_fract_z
 _atom_site_occupancy
  Li  Li0  1  0.69807600  0.92387500  0.31861100  1
  Li  Li1  1  0.07612500  0.30192400  0.18138900  1
  Li  Li2  1  0.92387500  0.69807600  0.81861100  1
  Li  Li3  1  0.30192400  0.07612500  0.68138900  1
  Mn  Mn4  1  0.77872300  0.50587600  0.64878400  1
  Mn  Mn5  1  0.17204500  0.72711800  0.98598500  1
  Mn  Mn6  1  0.27288200  0.82795500  0.51401500  1
  Mn  Mn7  1  0.50587600  0.77872300  0.14878400  1
  Mn  Mn8  1  0.49412400  0.22127700  0.85121600  1
  Mn  Mn9  1  0.72711800  0.17204500  0.48598500  1
  Mn  Mn10  1  0.82795500  0.27288200  0.01401500  1
  Mn  Mn11  1  0.22127700  0.49412400  0.35121600  1
  F  F12  1  0.89891100  0.95092800  0.13793100  1
  F  F13  1  0.11974900  0.27949200  0.53932500  1
  F  F14  1  0.43881300  0.79807600  0.64256700  1
  F  F15  1  0.15378400  0.47213700  0.18364900  1
  F  F16  1  0.52786300  0.84621600  0.31635100  1
  F  F17  1  0.61332900  0.35356700  0.89763600  1
  F  F18  1  0.64643300  0.38667100  0.60236400  1
  F  F19  1  0.04907200  0.10108900  0.36206900  1
  F  F20  1  0.27949200  0.11974900  0.03932500  1
  F  F21  1  0.20192400  0.56118700  0.85743300  1
  F  F22  1  0.79807600  0.43881300  0.14256700  1
  F  F23  1  0.72050800  0.88025100  0.96067500  1
  F  F24  1  0.95092800  0.89891100  0.63793100  1
  F  F25  1  0.35356700  0.61332900  0.39763600  1
  F  F26  1  0.38667100  0.64643300  0.10236400  1
  F  F27  1  0.47213700  0.15378400  0.68364900  1
  F  F28  1  0.84621600  0.52786300  0.81635100  1
  F  F29  1  0.56118700  0.20192400  0.35743300  1
  F  F30  1  0.88025100  0.72050800  0.46067500  1
  F  F31  1  0.10108900  0.04907200  0.86206900  1
