# generated using pymatgen
data_LiCoSiO4
_symmetry_space_group_name_H-M   'P 1'
_cell_length_a   5.20816000
_cell_length_b   5.96744400
_cell_length_c   11.25382000
_cell_angle_alpha   90.00000000
_cell_angle_beta   90.00000000
_cell_angle_gamma   90.00000000
_symmetry_Int_Tables_number   1
_chemical_formula_structural   LiCoSiO4
_chemical_formula_sum   'Li4 Co4 Si4 O16'
_cell_volume   349.76200868
_cell_formula_units_Z   4
loop_
 _symmetry_equiv_pos_site_id
 _symmetry_equiv_pos_as_xyz
  1  'x, y, z'
loop_
 _atom_site_type_symbol
 _atom_site_label
 _atom_site_symmetry_multiplicity
 _atom_site_fract_x
 _atom_site_fract_y
 _atom_site_fract_z
 _atom_site_occupancy
  Li  Li0  1  0.69729200  0.48397000  0.17256800  1
  Li  Li1  1  0.80270800  0.48397000  0.67256800  1
  Li  Li2  1  0.19729200  0.98397000  0.32743200  1
  Li  Li3  1  0.30270800  0.98397000  0.82743200  1
  Co  Co4  1  0.82293200  0.25747000  0.42211600  1
  Co  Co5  1  0.67706800  0.25747000  0.92211600  1
  Co  Co6  1  0.32293200  0.75747000  0.07788400  1
  Co  Co7  1  0.17706800  0.75747000  0.57788400  1
  Si  Si8  1  0.18392600  0.25048200  0.07752900  1
  Si  Si9  1  0.31607400  0.25048200  0.57752900  1
  Si  Si10  1  0.68392600  0.75048200  0.42247100  1
  Si  Si11  1  0.81607400  0.75048200  0.92247100  1
  O  O12  1  0.25074800  0.02510100  0.15731000  1
  O  O13  1  0.24925200  0.02510100  0.65731000  1
  O  O14  1  0.87065400  0.27196100  0.06242800  1
  O  O15  1  0.17801300  0.23288400  0.44629400  1
  O  O16  1  0.32198700  0.23288400  0.94629400  1
  O  O17  1  0.62934600  0.27196100  0.56242800  1
  O  O18  1  0.28917500  0.47458000  0.14762300  1
  O  O19  1  0.21082500  0.47458000  0.64762300  1
  O  O20  1  0.74925200  0.52510100  0.84269000  1
  O  O21  1  0.75074800  0.52510100  0.34269000  1
  O  O22  1  0.67801300  0.73288400  0.05370600  1
  O  O23  1  0.37065400  0.77196100  0.43757200  1
  O  O24  1  0.82198700  0.73288400  0.55370600  1
  O  O25  1  0.12934600  0.77196100  0.93757200  1
  O  O26  1  0.78917500  0.97458000  0.35237700  1
  O  O27  1  0.71082500  0.97458000  0.85237700  1
