# generated using pymatgen
data_Li4Ti11O24
_symmetry_space_group_name_H-M   'P 1'
_cell_length_a   5.05666300
_cell_length_b   8.91622845
_cell_length_c   9.64578982
_cell_angle_alpha   89.95523325
_cell_angle_beta   89.88364763
_cell_angle_gamma   89.95753049
_symmetry_Int_Tables_number   1
_chemical_formula_structural   Li4Ti11O24
_chemical_formula_sum   'Li4 Ti11 O24'
_cell_volume   434.89242808
_cell_formula_units_Z   1
loop_
 _symmetry_equiv_pos_site_id
 _symmetry_equiv_pos_as_xyz
  1  'x, y, z'
loop_
 _atom_site_type_symbol
 _atom_site_label
 _atom_site_symmetry_multiplicity
 _atom_site_fract_x
 _atom_site_fract_y
 _atom_site_fract_z
 _atom_site_occupancy
  Li  Li0  1  0.52393400  0.08284800  0.64797100  1
  Li  Li1  1  0.43678000  0.25227300  0.03468600  1
  Li  Li2  1  0.06633900  0.25070200  0.53853600  1
  Li  Li3  1  0.06620600  0.91547000  0.53861900  1
  Ti  Ti4  1  0.97723000  0.75023500  0.13657100  1
  Ti  Ti5  1  0.97370200  0.41927300  0.14109200  1
  Ti  Ti6  1  0.98666200  0.07920200  0.14040900  1
  Ti  Ti7  1  0.53422600  0.75600900  0.64416500  1
  Ti  Ti8  1  0.52268600  0.41179500  0.64201100  1
  Ti  Ti9  1  0.49295100  0.24642300  0.36993200  1
  Ti  Ti10  1  0.49290700  0.91716500  0.36532800  1
  Ti  Ti11  1  0.47089700  0.58471300  0.36376200  1
  Ti  Ti12  1  0.00601300  0.24688400  0.85137000  1
  Ti  Ti13  1  0.03283200  0.92098900  0.85822500  1
  Ti  Ti14  1  0.04245200  0.58319200  0.86258000  1
  O  O15  1  0.83056100  0.08073300  0.77967000  1
  O  O16  1  0.81295000  0.74905700  0.77799900  1
  O  O17  1  0.80376500  0.41839300  0.77938900  1
  O  O18  1  0.81457400  0.58135900  0.04053100  1
  O  O19  1  0.81562500  0.91927100  0.04067900  1
  O  O20  1  0.80447300  0.24944100  0.03996300  1
  O  O21  1  0.67376300  0.58327000  0.53729600  1
  O  O22  1  0.69813700  0.90744300  0.53140300  1
  O  O23  1  0.69978600  0.25949300  0.53362400  1
  O  O24  1  0.69683000  0.08451000  0.27740400  1
  O  O25  1  0.68210600  0.41898700  0.27523100  1
  O  O26  1  0.67872800  0.74687700  0.27465300  1
  O  O27  1  0.27807300  0.26674400  0.71539000  1
  O  O28  1  0.28334600  0.90057200  0.71517000  1
  O  O29  1  0.31195100  0.58346800  0.72521800  1
  O  O30  1  0.29920100  0.75638600  0.45948100  1
  O  O31  1  0.29730100  0.40952300  0.45990000  1
  O  O32  1  0.29092300  0.08466800  0.44965700  1
  O  O33  1  0.19519500  0.41336100  0.96323000  1
  O  O34  1  0.19256000  0.74777500  0.96341500  1
  O  O35  1  0.20415600  0.08876600  0.96134800  1
  O  O36  1  0.20532600  0.25153800  0.21048300  1
  O  O37  1  0.18455300  0.91485200  0.22323400  1
  O  O38  1  0.18012100  0.58300700  0.22781400  1
