# generated using pymatgen
data_Li3Sn3(PO4)4
_symmetry_space_group_name_H-M   'P 1'
_cell_length_a   8.63413600
_cell_length_b   9.23073282
_cell_length_c   13.40109839
_cell_angle_alpha   92.56704310
_cell_angle_beta   90.76337497
_cell_angle_gamma   90.97658656
_symmetry_Int_Tables_number   1
_chemical_formula_structural   Li3Sn3(PO4)4
_chemical_formula_sum   'Li9 Sn9 P12 O48'
_cell_volume   1066.72665558
_cell_formula_units_Z   3
loop_
 _symmetry_equiv_pos_site_id
 _symmetry_equiv_pos_as_xyz
  1  'x, y, z'
loop_
 _atom_site_type_symbol
 _atom_site_label
 _atom_site_symmetry_multiplicity
 _atom_site_fract_x
 _atom_site_fract_y
 _atom_site_fract_z
 _atom_site_occupancy
  Li  Li0  1  0.14288400  0.23585900  0.84057000  1
  Li  Li1  1  0.85656900  0.10248100  0.48796400  1
  Li  Li2  1  0.38470100  0.73801500  0.84063000  1
  Li  Li3  1  0.38073800  0.40591200  0.50284100  1
  Li  Li4  1  0.35903600  0.05242400  0.17382400  1
  Li  Li5  1  0.62519500  0.92564800  0.83206000  1
  Li  Li6  1  0.62302300  0.59554500  0.49325700  1
  Li  Li7  1  0.12184300  0.57518100  0.17840700  1
  Li  Li8  1  0.87683100  0.76103500  0.15850800  1
  Sn  Sn9  1  0.48185500  0.34404400  0.83766000  1
  Sn  Sn10  1  0.51146900  0.99315800  0.49575700  1
  Sn  Sn11  1  0.87062300  0.44945300  0.80854500  1
  Sn  Sn12  1  0.00387700  0.82730600  0.83735600  1
  Sn  Sn13  1  0.00242200  0.50083200  0.49580400  1
  Sn  Sn14  1  0.00807700  0.16600500  0.17187400  1
  Sn  Sn15  1  0.62455200  0.28303000  0.12281500  1
  Sn  Sn16  1  0.12462100  0.88155000  0.52592300  1
  Sn  Sn17  1  0.49881500  0.67140900  0.16743900  1
  P  P18  1  0.82760300  0.13617700  0.93703600  1
  P  P19  1  0.30283900  0.01617600  0.73251500  1
  P  P20  1  0.69981600  0.66256300  0.95809900  1
  P  P21  1  0.70200900  0.31141100  0.59677400  1
  P  P22  1  0.19879000  0.53188700  0.71594600  1
  P  P23  1  0.18440600  0.18893200  0.39707900  1
  P  P24  1  0.80067100  0.80358300  0.61542600  1
  P  P25  1  0.81223800  0.48621000  0.27801500  1
  P  P26  1  0.30861000  0.67241200  0.37984600  1
  P  P27  1  0.28052300  0.35578500  0.06396400  1
  P  P28  1  0.69343200  0.98327600  0.26761100  1
  P  P29  1  0.18977200  0.85156300  0.06166600  1
  O  O30  1  0.12800500  0.98077600  0.75893800  1
  O  O31  1  0.65337100  0.14358100  0.91703800  1
  O  O32  1  0.92737500  0.24611300  0.88196400  1
  O  O33  1  0.25953500  0.33449000  0.95136800  1
  O  O34  1  0.32564500  0.17761300  0.76295500  1
  O  O35  1  0.67739400  0.49674500  0.94374200  1
  O  O36  1  0.66565900  0.15003200  0.56499100  1
  O  O37  1  0.70213900  0.31884500  0.71272300  1
  O  O38  1  0.11477700  0.40050000  0.75795500  1
  O  O39  1  0.70276500  0.01938400  0.38146500  1
  O  O40  1  0.07311500  0.08356600  0.44838900  1
  O  O41  1  0.36812400  0.54635600  0.75055500  1
  O  O42  1  0.87393300  0.69707400  0.93225700  1
  O  O43  1  0.35403300  0.18008300  0.43307100  1
  O  O44  1  0.87537800  0.33593800  0.56107100  1
  O  O45  1  0.58547200  0.75078900  0.90132100  1
  O  O46  1  0.18928600  0.82889100  0.94426700  1
  O  O47  1  0.58918400  0.41436100  0.55228400  1
  O  O48  1  0.18792700  0.51571000  0.59780000  1
  O  O49  1  0.58139700  0.08355700  0.21355500  1
  O  O50  1  0.11629200  0.67558100  0.75011900  1
  O  O51  1  0.17701500  0.15277200  0.28042600  1
  O  O52  1  0.13164300  0.34754600  0.41609300  1
  O  O53  1  0.14983600  0.01435100  0.09131400  1
  O  O54  1  0.87952400  0.98085600  0.91110500  1
  O  O55  1  0.87939000  0.65754600  0.58049500  1
  O  O56  1  0.81230500  0.81925500  0.73256700  1
  O  O57  1  0.85120900  0.32020000  0.25158500  1
  O  O58  1  0.41755500  0.91799800  0.77977600  1
  O  O59  1  0.81707500  0.51184600  0.39488800  1
  O  O60  1  0.42158500  0.58096300  0.43438100  1
  O  O61  1  0.85392000  0.16286700  0.05408800  1
  O  O62  1  0.37529100  0.23346200  0.10877600  1
  O  O63  1  0.13399200  0.63993700  0.40505900  1
  O  O64  1  0.63025100  0.79566200  0.57724600  1
  O  O65  1  0.11913000  0.35513000  0.11899200  1
  O  O66  1  0.63662300  0.50661300  0.24513700  1
  O  O67  1  0.88350400  0.93446300  0.57084600  1
  O  O68  1  0.31490000  0.00365400  0.61429300  1
  O  O69  1  0.91917500  0.58839200  0.22775000  1
  O  O70  1  0.31767700  0.64137200  0.26307700  1
  O  O71  1  0.33685900  0.83955900  0.39952400  1
  O  O72  1  0.36503900  0.50609200  0.08767200  1
  O  O73  1  0.63631100  0.82202400  0.25347800  1
  O  O74  1  0.68456100  0.70003400  0.07488500  1
  O  O75  1  0.08153400  0.74713800  0.10947000  1
  O  O76  1  0.36346600  0.83693200  0.10070200  1
  O  O77  1  0.86199300  0.99449200  0.22333600  1
