# generated using pymatgen
data_Li3Mn4(BO3)4
_symmetry_space_group_name_H-M   'P 1'
_cell_length_a   5.27492600
_cell_length_b   10.37347809
_cell_length_c   13.97357975
_cell_angle_alpha   91.31537272
_cell_angle_beta   100.42443138
_cell_angle_gamma   91.48075033
_symmetry_Int_Tables_number   1
_chemical_formula_structural   Li3Mn4(BO3)4
_chemical_formula_sum   'Li9 Mn12 B12 O36'
_cell_volume   751.45625555
_cell_formula_units_Z   3
loop_
 _symmetry_equiv_pos_site_id
 _symmetry_equiv_pos_as_xyz
  1  'x, y, z'
loop_
 _atom_site_type_symbol
 _atom_site_label
 _atom_site_symmetry_multiplicity
 _atom_site_fract_x
 _atom_site_fract_y
 _atom_site_fract_z
 _atom_site_occupancy
  Li  Li0  1  0.78297300  0.15557600  0.38131400  1
  Li  Li1  1  0.75668900  0.67057800  0.39101800  1
  Li  Li2  1  0.89262400  0.90162800  0.94473500  1
  Li  Li3  1  0.56031600  0.39894600  0.27485400  1
  Li  Li4  1  0.13023800  0.16145900  0.04809000  1
  Li  Li5  1  0.44784000  0.16975000  0.71465600  1
  Li  Li6  1  0.07915100  0.67229900  0.05871700  1
  Li  Li7  1  0.42423500  0.65832300  0.72162400  1
  Li  Li8  1  0.22458500  0.39948300  0.61430400  1
  Mn  Mn9  1  0.00898400  0.38721100  0.15581300  1
  Mn  Mn10  1  0.87302100  0.13084100  0.60487600  1
  Mn  Mn11  1  0.65648600  0.63382400  0.17009400  1
  Mn  Mn12  1  0.97606900  0.62534000  0.83513100  1
  Mn  Mn13  1  0.67040500  0.38424400  0.49277100  1
  Mn  Mn14  1  0.44980200  0.88568000  0.06527900  1
  Mn  Mn15  1  0.78679000  0.87537400  0.72267300  1
  Mn  Mn16  1  0.57327900  0.13135200  0.94183300  1
  Mn  Mn17  1  0.21267800  0.13254500  0.27001800  1
  Mn  Mn18  1  0.32226400  0.63416000  0.49957200  1
  Mn  Mn19  1  0.32984000  0.38028300  0.84813900  1
  Mn  Mn20  1  0.12439300  0.88271200  0.39039800  1
  B  B21  1  0.98354600  0.88626600  0.16718900  1
  B  B22  1  0.66515300  0.13376800  0.16581200  1
  B  B23  1  0.88906300  0.61714700  0.61176000  1
  B  B24  1  0.78439300  0.36920500  0.71718800  1
  B  B25  1  0.46052000  0.37200600  0.05224800  1
  B  B26  1  0.65989700  0.88035600  0.50297300  1
  B  B27  1  0.32819300  0.13492500  0.49712400  1
  B  B28  1  0.22069000  0.62134700  0.27937000  1
  B  B29  1  0.53988200  0.62765700  0.95217100  1
  B  B30  1  0.11602100  0.36593700  0.38315800  1
  B  B31  1  0.33913900  0.86674100  0.84168400  1
  B  B32  1  0.01022600  0.13135600  0.83279000  1
  O  O33  1  0.92053300  0.16740900  0.15714500  1
  O  O34  1  0.85388100  0.35512200  0.37601700  1
  O  O35  1  0.74430900  0.83743100  0.17685400  1
  O  O36  1  0.87533900  0.32363600  0.63244500  1
  O  O37  1  0.96869800  0.42202700  0.79169900  1
  O  O38  1  0.61901400  0.42123500  0.13670200  1
  O  O39  1  0.77247500  0.85447400  0.42579900  1
  O  O40  1  0.79751900  0.94785800  0.58735600  1
  O  O41  1  0.95009100  0.10469100  0.92138500  1
  O  O42  1  0.58581100  0.14146300  0.25333700  1
  O  O43  1  0.83199700  0.10153000  0.74766700  1
  O  O44  1  0.49417500  0.09459700  0.08178800  1
  O  O45  1  0.72244600  0.58691600  0.52331100  1
  O  O46  1  0.78471400  0.66483200  0.68974100  1
  O  O47  1  0.42848000  0.66924400  0.03018100  1
  O  O48  1  0.58618000  0.16385800  0.48942100  1
  O  O49  1  0.48119800  0.59877800  0.29032500  1
  O  O50  1  0.79608300  0.64229700  0.95275600  1
  O  O51  1  0.20511200  0.34808800  0.04779700  1
  O  O52  1  0.52745100  0.36325400  0.72174600  1
  O  O53  1  0.41137200  0.83785900  0.50690400  1
  O  O54  1  0.57025900  0.34242500  0.96935600  1
  O  O55  1  0.22550200  0.32710400  0.30090400  1
  O  O56  1  0.27449600  0.41223300  0.46756500  1
  O  O57  1  0.43731600  0.83767300  0.76092700  1
  O  O58  1  0.06942900  0.87259600  0.08037300  1
  O  O59  1  0.49746100  0.92521700  0.92339000  1
  O  O60  1  0.13931000  0.94632300  0.24965200  1
  O  O61  1  0.24779400  0.14509900  0.58461800  1
  O  O62  1  0.15540200  0.09846200  0.41187200  1
  O  O63  1  0.05943000  0.59263400  0.18932500  1
  O  O64  1  0.37363400  0.57170900  0.86855800  1
  O  O65  1  0.11213700  0.66872100  0.35626900  1
  O  O66  1  0.25660000  0.18499600  0.82590100  1
  O  O67  1  0.14893500  0.59505900  0.62009800  1
  O  O68  1  0.07944000  0.83581500  0.84506200  1
