# generated using pymatgen
data_Li11V4F24
_symmetry_space_group_name_H-M   'P 1'
_cell_length_a   11.38667780
_cell_length_b   11.38667780
_cell_length_c   11.38667780
_cell_angle_alpha   128.22036261
_cell_angle_beta   128.22036261
_cell_angle_gamma   76.26832046
_symmetry_Int_Tables_number   1
_chemical_formula_structural   Li11V4F24
_chemical_formula_sum   'Li22 V8 F48'
_cell_volume   885.60016771
_cell_formula_units_Z   2
loop_
 _symmetry_equiv_pos_site_id
 _symmetry_equiv_pos_as_xyz
  1  'x, y, z'
loop_
 _atom_site_type_symbol
 _atom_site_label
 _atom_site_symmetry_multiplicity
 _atom_site_fract_x
 _atom_site_fract_y
 _atom_site_fract_z
 _atom_site_occupancy
  Li  Li0  1  0.25000000  0.75000000  0.50000000  1
  Li  Li1  1  0.22389100  0.22389100  0.00000000  1
  Li  Li2  1  0.48219200  0.50499100  0.49264600  1
  Li  Li3  1  0.67679300  0.41959500  0.73525800  1
  Li  Li4  1  0.77610900  0.77610900  0.00000000  1
  Li  Li5  1  0.73765600  0.26045400  0.99264600  1
  Li  Li6  1  0.69153400  0.92679300  0.75719800  1
  Li  Li7  1  0.58040500  0.31566300  0.25719800  1
  Li  Li8  1  0.68433700  0.94153400  0.26474200  1
  Li  Li9  1  0.01045400  0.51780800  0.02279800  1
  Li  Li10  1  0.49501000  0.98765600  0.97720200  1
  Li  Li11  1  0.25499000  0.26234400  0.52279800  1
  Li  Li12  1  0.73954600  0.73219200  0.47720200  1
  Li  Li13  1  0.06566300  0.30846600  0.23525800  1
  Li  Li14  1  0.16959500  0.93433700  0.24280200  1
  Li  Li15  1  0.05846600  0.32320700  0.74280200  1
  Li  Li16  1  0.01234400  0.98954600  0.50735400  1
  Li  Li17  1  0.97389100  0.47389100  0.50000000  1
  Li  Li18  1  0.07320700  0.83040500  0.76474200  1
  Li  Li19  1  0.26780800  0.74501000  0.00735400  1
  Li  Li20  1  0.52610900  0.02610900  0.50000000  1
  Li  Li21  1  0.50000000  0.50000000  0.00000000  1
  V  V22  1  0.87500000  0.12500000  0.75000000  1
  V  V23  1  0.37500000  0.12500000  0.25000000  1
  V  V24  1  0.87500000  0.62500000  0.25000000  1
  V  V25  1  0.37500000  0.62500000  0.25000000  1
  V  V26  1  0.37500000  0.62500000  0.75000000  1
  V  V27  1  0.87500000  0.62500000  0.75000000  1
  V  V28  1  0.37500000  0.12500000  0.75000000  1
  V  V29  1  0.87500000  0.12500000  0.25000000  1
  F  F30  1  0.38195600  0.94801900  0.74064400  1
  F  F31  1  0.35868900  0.61804400  0.56606300  1
  F  F32  1  0.23093700  0.25394100  0.21622300  1
  F  F33  1  0.50756900  0.49002300  0.74468700  1
  F  F34  1  0.03771800  0.01471400  0.78377700  1
  F  F35  1  0.54018400  0.31172700  0.45260500  1
  F  F36  1  0.55914400  0.09308900  0.75478700  1
  F  F37  1  0.84308900  0.58830200  0.03394500  1
  F  F38  1  0.05198100  0.79262500  0.43393700  1
  F  F39  1  0.41169800  0.44564300  0.25478700  1
  F  F40  1  0.74605900  0.96228200  0.97699600  1
  F  F41  1  0.38481400  0.11467600  0.07284900  1
  F  F42  1  0.51288200  0.75756900  0.51754600  1
  F  F43  1  0.68803500  0.61518600  0.72986100  1
  F  F44  1  0.86467600  0.29182700  0.22986100  1
  F  F45  1  0.98528600  0.76906300  0.02300400  1
  F  F46  1  0.55435700  0.80914400  0.96605500  1
  F  F47  1  0.06172700  0.10912200  0.27154300  1
  F  F48  1  0.54262500  0.60868900  0.24064400  1
  F  F49  1  0.04182700  0.31196500  0.92715100  1
  F  F50  1  0.74533600  0.76288200  0.25531300  1
  F  F51  1  0.85912200  0.08757900  0.54739500  1
  F  F52  1  0.91242100  0.45981600  0.77154300  1
  F  F53  1  0.50997700  0.25466400  0.01754600  1
  F  F54  1  0.24002300  0.99533600  0.48245400  1
  F  F55  1  0.83757900  0.79018400  0.72845700  1
  F  F56  1  0.89087800  0.16242100  0.95260500  1
  F  F57  1  0.00466400  0.48711800  0.24468700  1
  F  F58  1  0.70817300  0.93803500  0.57284900  1
  F  F59  1  0.20737500  0.64131100  0.25935600  1
  F  F60  1  0.68827300  0.14087800  0.22845700  1
  F  F61  1  0.19564300  0.44085600  0.53394500  1
  F  F62  1  0.76471400  0.48093700  0.47699600  1
  F  F63  1  0.88532400  0.95817300  0.27013900  1
  F  F64  1  0.06196500  0.63481400  0.77013900  1
  F  F65  1  0.23711800  0.49243100  0.98245400  1
  F  F66  1  0.36518600  0.13532400  0.42715100  1
  F  F67  1  0.00394100  0.28771800  0.52300400  1
  F  F68  1  0.33830200  0.80435700  0.24521300  1
  F  F69  1  0.69801900  0.45737500  0.06606300  1
  F  F70  1  0.90691100  0.66169800  0.46605500  1
  F  F71  1  0.19085600  0.15691100  0.74521300  1
  F  F72  1  0.20981600  0.93827300  0.04739500  1
  F  F73  1  0.71228200  0.23528600  0.71622300  1
  F  F74  1  0.24243100  0.75997700  0.75531300  1
  F  F75  1  0.51906300  0.99605900  0.28377700  1
  F  F76  1  0.39131100  0.63195600  0.93393700  1
  F  F77  1  0.36804400  0.30198100  0.75935600  1
