# generated using pymatgen
data_Li3MnV(PO4)3
_symmetry_space_group_name_H-M   'P 1'
_cell_length_a   9.88910246
_cell_length_b   9.88910246
_cell_length_c   9.80683032
_cell_angle_alpha   87.05460967
_cell_angle_beta   87.05460967
_cell_angle_gamma   84.54851838
_symmetry_Int_Tables_number   1
_chemical_formula_structural   Li3MnV(PO4)3
_chemical_formula_sum   'Li12 Mn4 V4 P12 O48'
_cell_volume   952.40994058
_cell_formula_units_Z   4
loop_
 _symmetry_equiv_pos_site_id
 _symmetry_equiv_pos_as_xyz
  1  'x, y, z'
loop_
 _atom_site_type_symbol
 _atom_site_label
 _atom_site_symmetry_multiplicity
 _atom_site_fract_x
 _atom_site_fract_y
 _atom_site_fract_z
 _atom_site_occupancy
  Li  Li0  1  0.98635600  0.51272300  0.25027700  1
  Li  Li1  1  0.01625000  0.25805500  0.38395400  1
  Li  Li2  1  0.77326400  0.56700600  0.46083100  1
  Li  Li3  1  0.77749400  0.73434600  0.17654700  1
  Li  Li4  1  0.74194500  0.98375000  0.61604600  1
  Li  Li5  1  0.62138500  0.74698200  0.82263800  1
  Li  Li6  1  0.48727700  0.01364400  0.74972300  1
  Li  Li7  1  0.43299400  0.22673600  0.53916900  1
  Li  Li8  1  0.32010600  0.91330900  0.98246700  1
  Li  Li9  1  0.26565400  0.22250600  0.82345300  1
  Li  Li10  1  0.25301800  0.37861500  0.17736200  1
  Li  Li11  1  0.08669100  0.67989400  0.01753300  1
  Mn  Mn12  1  0.53032600  0.46967400  0.00000000  1
  Mn  Mn13  1  0.26279600  0.97431600  0.27693900  1
  Mn  Mn14  1  0.24324100  0.75675900  0.50000000  1
  Mn  Mn15  1  0.02568400  0.73720400  0.72306100  1
  V  V16  1  0.97007400  0.24887100  0.78316200  1
  V  V17  1  0.75415100  0.24584900  0.00000000  1
  V  V18  1  0.75112900  0.02992600  0.21683800  1
  V  V19  1  0.46581800  0.53418200  0.50000000  1
  P  P20  1  0.94509900  0.81564200  0.40813800  1
  P  P21  1  0.82556000  0.94419200  0.90092600  1
  P  P22  1  0.83961500  0.54843600  0.93294900  1
  P  P23  1  0.68157900  0.34031900  0.30230400  1
  P  P24  1  0.65968100  0.31842100  0.69769600  1
  P  P25  1  0.55586700  0.84138300  0.42188400  1
  P  P26  1  0.45156400  0.16038500  0.06705100  1
  P  P27  1  0.34839700  0.68400800  0.79800800  1
  P  P28  1  0.31599200  0.65160300  0.20199200  1
  P  P29  1  0.15861700  0.44413300  0.57811600  1
  P  P30  1  0.18435800  0.05490100  0.59186200  1
  P  P31  1  0.05580800  0.17444000  0.09907400  1
  O  O32  1  0.96460900  0.86697700  0.86261900  1
  O  O33  1  0.90908300  0.82410200  0.56355400  1
  O  O34  1  0.88839000  0.60898600  0.79469100  1
  O  O35  1  0.88649600  0.95089100  0.33663000  1
  O  O36  1  0.89286200  0.69114200  0.34649000  1
  O  O37  1  0.87479600  0.38788100  0.92892800  1
  O  O38  1  0.90532900  0.59922900  0.05749600  1
  O  O39  1  0.89770500  0.16014900  0.12596800  1
  O  O40  1  0.83985100  0.10229500  0.87403200  1
  O  O41  1  0.81721100  0.31151400  0.67123900  1
  O  O42  1  0.79629600  0.90962300  0.05612000  1
  O  O43  1  0.80566400  0.40211700  0.35132200  1
  O  O44  1  0.71027900  0.91161400  0.81357900  1
  O  O45  1  0.68130800  0.58694200  0.94360900  1
  O  O46  1  0.68848600  0.18278900  0.32876100  1
  O  O47  1  0.67642700  0.37212100  0.14089600  1
  O  O48  1  0.63240900  0.88140600  0.28555300  1
  O  O49  1  0.59284500  0.91065700  0.54703900  1
  O  O50  1  0.62787900  0.32357300  0.85910400  1
  O  O51  1  0.60250400  0.45571600  0.63217300  1
  O  O52  1  0.58657700  0.68150400  0.44052100  1
  O  O53  1  0.59788300  0.19433600  0.64867800  1
  O  O54  1  0.61211900  0.12520400  0.07107200  1
  O  O55  1  0.54428400  0.39749600  0.36782700  1
  O  O56  1  0.42338000  0.80411400  0.83998700  1
  O  O57  1  0.45422400  0.59367800  0.14494300  1
  O  O58  1  0.40632200  0.54577600  0.85505700  1
  O  O59  1  0.39723400  0.87785900  0.40365200  1
  O  O60  1  0.37167500  0.67591000  0.63512800  1
  O  O61  1  0.40077100  0.09467100  0.94250400  1
  O  O62  1  0.41305800  0.31869200  0.05639100  1
  O  O63  1  0.39101400  0.11161000  0.20530900  1
  O  O64  1  0.32409000  0.62832500  0.36487200  1
  O  O65  1  0.29442600  0.80543000  0.15807300  1
  O  O66  1  0.31849600  0.41342300  0.55947900  1
  O  O67  1  0.30885800  0.10713800  0.65351000  1
  O  O68  1  0.19457000  0.70557400  0.84192700  1
  O  O69  1  0.18420700  0.89696300  0.62308400  1
  O  O70  1  0.19588600  0.57662000  0.16001300  1
  O  O71  1  0.17589800  0.09091700  0.43644600  1
  O  O72  1  0.12214100  0.60276600  0.59634800  1
  O  O73  1  0.10303700  0.81579300  0.37691600  1
  O  O74  1  0.11859400  0.36759100  0.71444700  1
  O  O75  1  0.09037700  0.20370400  0.94388000  1
  O  O76  1  0.08934300  0.40715500  0.45296100  1
  O  O77  1  0.13302300  0.03539100  0.13738100  1
  O  O78  1  0.08838600  0.28972100  0.18642100  1
  O  O79  1  0.04910900  0.11350400  0.66337000  1
