# generated using pymatgen
data_Li3Cu3(PO4)2
_symmetry_space_group_name_H-M   'P 1'
_cell_length_a   5.43902100
_cell_length_b   6.22688240
_cell_length_c   10.17685344
_cell_angle_alpha   89.98918266
_cell_angle_beta   89.68960481
_cell_angle_gamma   89.53917258
_symmetry_Int_Tables_number   1
_chemical_formula_structural   Li3Cu3(PO4)2
_chemical_formula_sum   'Li6 Cu6 P4 O16'
_cell_volume   344.65493017
_cell_formula_units_Z   2
loop_
 _symmetry_equiv_pos_site_id
 _symmetry_equiv_pos_as_xyz
  1  'x, y, z'
loop_
 _atom_site_type_symbol
 _atom_site_label
 _atom_site_symmetry_multiplicity
 _atom_site_fract_x
 _atom_site_fract_y
 _atom_site_fract_z
 _atom_site_occupancy
  Li  Li0  1  0.15484100  0.99974500  0.25374800  1
  Li  Li1  1  0.15560100  0.99859700  0.75265000  1
  Li  Li2  1  0.32985100  0.24495600  0.50451600  1
  Li  Li3  1  0.32671200  0.24957700  0.00209500  1
  Li  Li4  1  0.67148100  0.25254900  0.75370100  1
  Li  Li5  1  0.84612100  0.50057000  0.50485100  1
  Cu  Cu6  1  0.66163400  0.26167800  0.24974000  1
  Cu  Cu7  1  0.82147100  0.50274600  0.00435300  1
  Cu  Cu8  1  0.66209000  0.73803600  0.25292400  1
  Cu  Cu9  1  0.66203200  0.74241800  0.75517500  1
  Cu  Cu10  1  0.33577300  0.75815200  0.50419700  1
  Cu  Cu11  1  0.33162400  0.75130800  0.00034900  1
  P  P12  1  0.83273400  0.00772900  0.99744100  1
  P  P13  1  0.83054500  0.00601000  0.50319900  1
  P  P14  1  0.17495100  0.49040600  0.74815000  1
  P  P15  1  0.17726400  0.49523100  0.25377100  1
  O  O16  1  0.84143000  0.00447500  0.34994800  1
  O  O17  1  0.09804800  0.01227400  0.55844500  1
  O  O18  1  0.83509200  0.00891600  0.84442400  1
  O  O19  1  0.09633700  0.01493100  0.05393800  1
  O  O20  1  0.68435300  0.20451800  0.55486100  1
  O  O21  1  0.67711000  0.20535600  0.04581900  1
  O  O22  1  0.31620400  0.29259000  0.80289600  1
  O  O23  1  0.30582700  0.29014900  0.31027300  1
  O  O24  1  0.18070900  0.48632500  0.10112800  1
  O  O25  1  0.91154600  0.49946800  0.31157000  1
  O  O26  1  0.17674900  0.48787500  0.59465000  1
  O  O27  1  0.90179200  0.48437300  0.79565900  1
  O  O28  1  0.30214900  0.70890700  0.29853500  1
  O  O29  1  0.29386500  0.70539700  0.79627200  1
  O  O30  1  0.70467900  0.79248300  0.54940000  1
  O  O31  1  0.69938500  0.80225600  0.04873100  1
