# generated using pymatgen
data_Li11V12(CoO8)4
_symmetry_space_group_name_H-M   'P 1'
_cell_length_a   8.33053955
_cell_length_b   8.33053955
_cell_length_c   8.41712584
_cell_angle_alpha   89.86198832
_cell_angle_beta   89.86198832
_cell_angle_gamma   90.00439646
_symmetry_Int_Tables_number   1
_chemical_formula_structural   Li11V12(CoO8)4
_chemical_formula_sum   'Li11 V12 Co4 O32'
_cell_volume   584.12737479
_cell_formula_units_Z   1
loop_
 _symmetry_equiv_pos_site_id
 _symmetry_equiv_pos_as_xyz
  1  'x, y, z'
loop_
 _atom_site_type_symbol
 _atom_site_label
 _atom_site_symmetry_multiplicity
 _atom_site_fract_x
 _atom_site_fract_y
 _atom_site_fract_z
 _atom_site_occupancy
  Li  Li0  1  0.87411100  0.12588900  0.50000000  1
  Li  Li1  1  0.24133200  0.50213600  0.37284600  1
  Li  Li2  1  0.88183000  0.87453700  0.25578700  1
  Li  Li3  1  0.62861000  0.12960300  0.25541000  1
  Li  Li4  1  0.87322300  0.62134600  0.00734700  1
  Li  Li5  1  0.13176100  0.86823900  0.00000000  1
  Li  Li6  1  0.61814900  0.38185100  0.00000000  1
  Li  Li7  1  0.37865400  0.12677700  0.99265300  1
  Li  Li8  1  0.87039700  0.37139000  0.74459000  1
  Li  Li9  1  0.12546300  0.11817000  0.74421300  1
  Li  Li10  1  0.49786400  0.75866800  0.62715400  1
  V  V11  1  0.37439600  0.12126400  0.50638000  1
  V  V12  1  0.62245200  0.37754800  0.50000000  1
  V  V13  1  0.87873600  0.62560400  0.49362000  1
  V  V14  1  0.12985900  0.13415500  0.25846300  1
  V  V15  1  0.37478500  0.86247700  0.26127700  1
  V  V16  1  0.62636800  0.62284900  0.25957000  1
  V  V17  1  0.87146300  0.12853700  0.00000000  1
  V  V18  1  0.12932800  0.38330900  0.00404000  1
  V  V19  1  0.61669100  0.87067200  0.99596000  1
  V  V20  1  0.37715100  0.37363200  0.74043000  1
  V  V21  1  0.13752300  0.62521500  0.73872300  1
  V  V22  1  0.86584500  0.87014100  0.74153700  1
  Co  Co23  1  0.12728700  0.87271300  0.50000000  1
  Co  Co24  1  0.87992300  0.37641000  0.25453900  1
  Co  Co25  1  0.37582600  0.62417400  0.00000000  1
  Co  Co26  1  0.62359000  0.12007700  0.74546100  1
  O  O27  1  0.89552700  0.86216100  0.49663500  1
  O  O28  1  0.11666100  0.64038000  0.50924100  1
  O  O29  1  0.38037000  0.36157300  0.50409000  1
  O  O30  1  0.61607100  0.13863600  0.51069100  1
  O  O31  1  0.86136400  0.38392900  0.48930900  1
  O  O32  1  0.63842700  0.61963000  0.49591000  1
  O  O33  1  0.35962000  0.88333900  0.49075900  1
  O  O34  1  0.13783900  0.10447300  0.50336500  1
  O  O35  1  0.87373400  0.61418900  0.26833400  1
  O  O36  1  0.64846100  0.38452500  0.25381200  1
  O  O37  1  0.37507900  0.10675800  0.27016800  1
  O  O38  1  0.13707000  0.89243500  0.26566600  1
  O  O39  1  0.37835400  0.64433300  0.24397600  1
  O  O40  1  0.61587700  0.86929400  0.23710900  1
  O  O41  1  0.88663500  0.13926500  0.24761600  1
  O  O42  1  0.11538000  0.37031000  0.23535100  1
  O  O43  1  0.62744800  0.63874600  0.01814000  1
  O  O44  1  0.38923200  0.88261600  0.01925500  1
  O  O45  1  0.11660100  0.14110900  0.00398900  1
  O  O46  1  0.88472200  0.36886300  0.01798400  1
  O  O47  1  0.63113700  0.11527800  0.98201600  1
  O  O48  1  0.85889100  0.88339900  0.99601100  1
  O  O49  1  0.11738400  0.61076800  0.98074500  1
  O  O50  1  0.36125400  0.37255200  0.98186000  1
  O  O51  1  0.62969000  0.88462000  0.76464900  1
  O  O52  1  0.86073500  0.11336500  0.75238400  1
  O  O53  1  0.13070600  0.38412300  0.76289100  1
  O  O54  1  0.35566700  0.62164600  0.75602400  1
  O  O55  1  0.10756500  0.86293000  0.73433400  1
  O  O56  1  0.89324200  0.62492100  0.72983200  1
  O  O57  1  0.61547500  0.35153900  0.74618800  1
  O  O58  1  0.38581100  0.12626600  0.73166600  1
