# generated using pymatgen
data_Na2LiMnPCO7
_symmetry_space_group_name_H-M   'P 1'
_cell_length_a   6.84940500
_cell_length_b   8.84796713
_cell_length_c   10.23115906
_cell_angle_alpha   90.73285094
_cell_angle_beta   90.14373858
_cell_angle_gamma   90.33708862
_symmetry_Int_Tables_number   1
_chemical_formula_structural   Na2LiMnPCO7
_chemical_formula_sum   'Na8 Li4 Mn4 P4 C4 O28'
_cell_volume   619.97858809
_cell_formula_units_Z   4
loop_
 _symmetry_equiv_pos_site_id
 _symmetry_equiv_pos_as_xyz
  1  'x, y, z'
loop_
 _atom_site_type_symbol
 _atom_site_label
 _atom_site_symmetry_multiplicity
 _atom_site_fract_x
 _atom_site_fract_y
 _atom_site_fract_z
 _atom_site_occupancy
  Na  Na0  1  0.24650100  0.91705800  0.87903900  1
  Na  Na1  1  0.99968600  0.74313000  0.62291400  1
  Na  Na2  1  0.50003300  0.74260500  0.62261000  1
  Na  Na3  1  0.99974400  0.74287700  0.12628100  1
  Na  Na4  1  0.50040900  0.74284700  0.12576900  1
  Na  Na5  1  0.50168200  0.25572400  0.87481400  1
  Na  Na6  1  0.49972200  0.25705300  0.37671400  1
  Na  Na7  1  0.00083400  0.25621500  0.37608100  1
  Li  Li8  1  0.24981800  0.91558000  0.37704700  1
  Li  Li9  1  0.98037100  0.27081700  0.88311400  1
  Li  Li10  1  0.75648500  0.08866200  0.62507000  1
  Li  Li11  1  0.75343900  0.09038400  0.12442100  1
  Mn  Mn12  1  0.74878900  0.63823300  0.88652100  1
  Mn  Mn13  1  0.75049100  0.63896100  0.38809000  1
  Mn  Mn14  1  0.24806700  0.35678600  0.61336400  1
  Mn  Mn15  1  0.24691900  0.35745200  0.10994400  1
  P  P16  1  0.24437400  0.58579100  0.85170800  1
  P  P17  1  0.25028600  0.59530800  0.35245800  1
  P  P18  1  0.75385800  0.40177600  0.64844600  1
  P  P19  1  0.74923700  0.40458100  0.14513500  1
  C  C20  1  0.75835700  0.95370800  0.86814700  1
  C  C21  1  0.75022100  0.94788100  0.36605100  1
  C  C22  1  0.24918900  0.05244600  0.62876000  1
  C  C23  1  0.24935800  0.05810400  0.13813900  1
  O  O24  1  0.25124500  0.90946700  0.64922000  1
  O  O25  1  0.25121800  0.91402500  0.15586800  1
  O  O26  1  0.75071200  0.90956300  0.98919100  1
  O  O27  1  0.75121100  0.90598800  0.48806500  1
  O  O28  1  0.74834500  0.85320700  0.77321300  1
  O  O29  1  0.75103500  0.84594000  0.27250700  1
  O  O30  1  0.06550000  0.68257000  0.89325200  1
  O  O31  1  0.43116200  0.67333200  0.89648900  1
  O  O32  1  0.06953200  0.69173100  0.39175100  1
  O  O33  1  0.43250800  0.69213100  0.39149500  1
  O  O34  1  0.24802900  0.57048800  0.69962200  1
  O  O35  1  0.74966300  0.56245500  0.58772500  1
  O  O36  1  0.24912400  0.57010100  0.20079100  1
  O  O37  1  0.74984000  0.56435600  0.08396100  1
  O  O38  1  0.23251900  0.42316700  0.90830900  1
  O  O39  1  0.76605700  0.42233700  0.80081500  1
  O  O40  1  0.25086600  0.43736800  0.41654200  1
  O  O41  1  0.75422600  0.42755400  0.29684200  1
  O  O42  1  0.56903600  0.30709800  0.61225900  1
  O  O43  1  0.93074500  0.30655800  0.60236200  1
  O  O44  1  0.56600600  0.30931700  0.10677700  1
  O  O45  1  0.92714400  0.30765400  0.10045100  1
  O  O46  1  0.24709300  0.14749900  0.72784500  1
  O  O47  1  0.24689300  0.14945200  0.23883600  1
  O  O48  1  0.24928800  0.10338300  0.50959700  1
  O  O49  1  0.24964400  0.11537800  0.02123900  1
  O  O50  1  0.77484100  0.09524900  0.83935600  1
  O  O51  1  0.74864600  0.08865300  0.33498500  1
