# generated using pymatgen
data_Li4MnFe3(BO3)4
_symmetry_space_group_name_H-M   'P 1'
_cell_length_a   5.25080400
_cell_length_b   5.98771362
_cell_length_c   16.14557315
_cell_angle_alpha   81.42210757
_cell_angle_beta   89.43783092
_cell_angle_gamma   88.81590898
_symmetry_Int_Tables_number   1
_chemical_formula_structural   Li4MnFe3(BO3)4
_chemical_formula_sum   'Li8 Mn2 Fe6 B8 O24'
_cell_volume   501.82476874
_cell_formula_units_Z   2
loop_
 _symmetry_equiv_pos_site_id
 _symmetry_equiv_pos_as_xyz
  1  'x, y, z'
loop_
 _atom_site_type_symbol
 _atom_site_label
 _atom_site_symmetry_multiplicity
 _atom_site_fract_x
 _atom_site_fract_y
 _atom_site_fract_z
 _atom_site_occupancy
  Li  Li0  1  0.59558400  0.69162100  0.01386200  1
  Li  Li1  1  0.90507700  0.05483600  0.73871400  1
  Li  Li2  1  0.40601600  0.80856500  0.48617900  1
  Li  Li3  1  0.09492300  0.94516400  0.26128600  1
  Li  Li4  1  0.40441600  0.30837900  0.98613800  1
  Li  Li5  1  0.09603800  0.43903900  0.76685100  1
  Li  Li6  1  0.59398400  0.19143500  0.51382100  1
  Li  Li7  1  0.90396200  0.56096100  0.23314900  1
  Mn  Mn8  1  0.91935600  0.65313300  0.41385600  1
  Mn  Mn9  1  0.08064400  0.34686700  0.58614400  1
  Fe  Fe10  1  0.41464400  0.90094800  0.66629000  1
  Fe  Fe11  1  0.08793200  0.84894200  0.08273900  1
  Fe  Fe12  1  0.91206800  0.15105800  0.91726100  1
  Fe  Fe13  1  0.58535600  0.09905200  0.33371000  1
  Fe  Fe14  1  0.41253400  0.40356800  0.16698900  1
  Fe  Fe15  1  0.58746600  0.59643200  0.83301100  1
  B  B16  1  0.08039100  0.66339000  0.92180100  1
  B  B17  1  0.57893500  0.91569800  0.17064700  1
  B  B18  1  0.42106500  0.08430200  0.82935300  1
  B  B19  1  0.92246200  0.83786400  0.57965800  1
  B  B20  1  0.58090300  0.40956300  0.67326000  1
  B  B21  1  0.07753800  0.16213600  0.42034200  1
  B  B22  1  0.91960900  0.33661000  0.07819900  1
  B  B23  1  0.41909700  0.59043700  0.32674000  1
  O  O24  1  0.33921400  0.63730300  0.93261500  1
  O  O25  1  0.93353500  0.79350800  0.97102400  1
  O  O26  1  0.45506000  0.80330200  0.11307100  1
  O  O27  1  0.04577200  0.94926500  0.63783200  1
  O  O28  1  0.53499500  0.70213900  0.38567700  1
  O  O29  1  0.56718100  0.95444800  0.77989400  1
  O  O30  1  0.06993500  0.70821400  0.53084200  1
  O  O31  1  0.83776700  0.88942100  0.18145300  1
  O  O32  1  0.16223300  0.11057900  0.81854700  1
  O  O33  1  0.66387000  0.86330500  0.56824300  1
  O  O34  1  0.43281900  0.04555200  0.22010600  1
  O  O35  1  0.95422800  0.05073500  0.36216800  1
  O  O36  1  0.54494000  0.19669800  0.88692900  1
  O  O37  1  0.06646500  0.20649200  0.02897600  1
  O  O38  1  0.83987300  0.38692700  0.68696000  1
  O  O39  1  0.33613000  0.13669500  0.43175700  1
  O  O40  1  0.66078600  0.36269700  0.06738500  1
  O  O41  1  0.43091000  0.54073500  0.72123900  1
  O  O42  1  0.93006500  0.29178600  0.46915800  1
  O  O43  1  0.95518400  0.55192200  0.86430300  1
  O  O44  1  0.46500500  0.29786100  0.61432300  1
  O  O45  1  0.04481600  0.44807800  0.13569700  1
  O  O46  1  0.56909000  0.45926500  0.27876100  1
  O  O47  1  0.16012700  0.61307300  0.31304000  1
