# generated using pymatgen
data_Na2Li3Ti3Al(PO4)6
_symmetry_space_group_name_H-M   'P 1'
_cell_length_a   8.79231416
_cell_length_b   8.79231416
_cell_length_c   8.79231428
_cell_angle_alpha   59.49032682
_cell_angle_beta   59.49032682
_cell_angle_gamma   59.49032677
_symmetry_Int_Tables_number   1
_chemical_formula_structural   Na2Li3Ti3Al(PO4)6
_chemical_formula_sum   'Na2 Li3 Ti3 Al1 P6 O24'
_cell_volume   475.04072855
_cell_formula_units_Z   1
loop_
 _symmetry_equiv_pos_site_id
 _symmetry_equiv_pos_as_xyz
  1  'x, y, z'
loop_
 _atom_site_type_symbol
 _atom_site_label
 _atom_site_symmetry_multiplicity
 _atom_site_fract_x
 _atom_site_fract_y
 _atom_site_fract_z
 _atom_site_occupancy
  Na  Na0  1  0.00465100  0.00465100  0.00465100  1
  Na  Na1  1  0.49629300  0.49629300  0.49629300  1
  Li  Li2  1  0.65606500  0.24116600  0.84767700  1
  Li  Li3  1  0.24116600  0.84767700  0.65606500  1
  Li  Li4  1  0.84767700  0.65606500  0.24116600  1
  Ti  Ti5  1  0.64928300  0.64928300  0.64928300  1
  Ti  Ti6  1  0.14286300  0.14286300  0.14286300  1
  Ti  Ti7  1  0.35808300  0.35808300  0.35808300  1
  Al  Al8  1  0.84978200  0.84978200  0.84978200  1
  P  P9  1  0.24126600  0.54201000  0.96493300  1
  P  P10  1  0.96493300  0.24126600  0.54201000  1
  P  P11  1  0.54201000  0.96493300  0.24126600  1
  P  P12  1  0.46155400  0.04325800  0.75016600  1
  P  P13  1  0.04325800  0.75016600  0.46155400  1
  P  P14  1  0.75016600  0.46155400  0.04325800  1
  O  O15  1  0.06984400  0.72759500  0.93626400  1
  O  O16  1  0.40771900  0.57254900  0.77583800  1
  O  O17  1  0.21070200  0.37180700  0.99393800  1
  O  O18  1  0.13301200  0.27390700  0.51629900  1
  O  O19  1  0.93626400  0.06984400  0.72759500  1
  O  O20  1  0.77583800  0.40771900  0.57254900  1
  O  O21  1  0.51629900  0.13301200  0.27390700  1
  O  O22  1  0.57254900  0.77583800  0.40771900  1
  O  O23  1  0.63043300  0.00503200  0.79365000  1
  O  O24  1  0.27861600  0.06399400  0.91860400  1
  O  O25  1  0.27390700  0.51629900  0.13301200  1
  O  O26  1  0.00503200  0.79365000  0.63043300  1
  O  O27  1  0.99393800  0.21070200  0.37180700  1
  O  O28  1  0.70615000  0.48298200  0.88120900  1
  O  O29  1  0.72759500  0.93626400  0.06984400  1
  O  O30  1  0.37180700  0.99393800  0.21070200  1
  O  O31  1  0.44505900  0.22503700  0.58072400  1
  O  O32  1  0.48298200  0.88120900  0.70615000  1
  O  O33  1  0.22503700  0.58072400  0.44505900  1
  O  O34  1  0.06399400  0.91860400  0.27861600  1
  O  O35  1  0.88120900  0.70615000  0.48298200  1
  O  O36  1  0.79365000  0.63043300  0.00503200  1
  O  O37  1  0.58072400  0.44505900  0.22503700  1
  O  O38  1  0.91860400  0.27861600  0.06399400  1
