# generated using pymatgen
data_Li2VP2O7
_symmetry_space_group_name_H-M   'P 1'
_cell_length_a   7.27707141
_cell_length_b   8.51708500
_cell_length_c   10.06037709
_cell_angle_alpha   89.99923651
_cell_angle_beta   70.01481736
_cell_angle_gamma   89.99903806
_symmetry_Int_Tables_number   1
_chemical_formula_structural   Li2VP2O7
_chemical_formula_sum   'Li8 V4 P8 O28'
_cell_volume   585.98777607
_cell_formula_units_Z   4
loop_
 _symmetry_equiv_pos_site_id
 _symmetry_equiv_pos_as_xyz
  1  'x, y, z'
loop_
 _atom_site_type_symbol
 _atom_site_label
 _atom_site_symmetry_multiplicity
 _atom_site_fract_x
 _atom_site_fract_y
 _atom_site_fract_z
 _atom_site_occupancy
  Li  Li0  1  0.08645000  0.84938200  0.26272400  1
  Li  Li1  1  0.58643400  0.84939200  0.76273300  1
  Li  Li2  1  0.91354800  0.34937600  0.73727600  1
  Li  Li3  1  0.41357100  0.34939700  0.23725900  1
  Li  Li4  1  0.31503800  0.16426600  0.58871900  1
  Li  Li5  1  0.81503400  0.16426200  0.08869700  1
  Li  Li6  1  0.68497100  0.66427400  0.41128400  1
  Li  Li7  1  0.18496200  0.66426100  0.91130200  1
  V  V8  1  0.53518800  0.49744900  0.74327800  1
  V  V9  1  0.46482300  0.99746600  0.25671500  1
  V  V10  1  0.03514800  0.49743300  0.24333200  1
  V  V11  1  0.96485200  0.99743900  0.75667100  1
  P  P12  1  0.04478000  0.18271900  0.43373900  1
  P  P13  1  0.54477500  0.18271900  0.93373600  1
  P  P14  1  0.95521700  0.68272800  0.56626400  1
  P  P15  1  0.45522600  0.68271900  0.06626300  1
  P  P16  1  0.35248600  0.79093200  0.56134600  1
  P  P17  1  0.85248700  0.79093300  0.06135000  1
  P  P18  1  0.64751900  0.29093600  0.43864800  1
  P  P19  1  0.14750000  0.29093100  0.93865000  1
  O  O20  1  0.02720400  0.31541200  0.09494000  1
  O  O21  1  0.52721300  0.31541300  0.59493800  1
  O  O22  1  0.97278900  0.81541300  0.90506000  1
  O  O23  1  0.47278500  0.81541200  0.40505900  1
  O  O24  1  0.98005100  0.69926200  0.12909200  1
  O  O25  1  0.48008000  0.69927100  0.62909200  1
  O  O26  1  0.01990800  0.19927900  0.87090500  1
  O  O27  1  0.51992600  0.19927100  0.37090500  1
  O  O28  1  0.14803000  0.03610300  0.35595800  1
  O  O29  1  0.64802400  0.03610500  0.85595300  1
  O  O30  1  0.85197500  0.53610900  0.64403200  1
  O  O31  1  0.35197700  0.53611100  0.14404100  1
  O  O32  1  0.13678900  0.33466400  0.36067100  1
  O  O33  1  0.63678800  0.33467400  0.86061700  1
  O  O34  1  0.86322300  0.83467300  0.63936000  1
  O  O35  1  0.36321900  0.83468400  0.13937100  1
  O  O36  1  0.96893700  0.68451300  0.40918700  1
  O  O37  1  0.46893900  0.68451100  0.90918700  1
  O  O38  1  0.03106800  0.18449900  0.59081800  1
  O  O39  1  0.53106400  0.18451000  0.09081500  1
  O  O40  1  0.72875400  0.44210400  0.35763500  1
  O  O41  1  0.22876400  0.44210300  0.85764300  1
  O  O42  1  0.27124600  0.94210300  0.64236000  1
  O  O43  1  0.77124500  0.94210600  0.14236300  1
  O  O44  1  0.82530900  0.17102100  0.42770600  1
  O  O45  1  0.32528900  0.17101200  0.92770800  1
  O  O46  1  0.17469900  0.67101300  0.57230000  1
  O  O47  1  0.67470300  0.67100900  0.07230100  1
