# generated using pymatgen
data_Li3VF5
_symmetry_space_group_name_H-M   'P 1'
_cell_length_a   5.09513400
_cell_length_b   8.05783800
_cell_length_c   10.43294400
_cell_angle_alpha   90.00000000
_cell_angle_beta   90.00000000
_cell_angle_gamma   90.00000000
_symmetry_Int_Tables_number   1
_chemical_formula_structural   Li3VF5
_chemical_formula_sum   'Li12 V4 F20'
_cell_volume   428.33249045
_cell_formula_units_Z   4
loop_
 _symmetry_equiv_pos_site_id
 _symmetry_equiv_pos_as_xyz
  1  'x, y, z'
loop_
 _atom_site_type_symbol
 _atom_site_label
 _atom_site_symmetry_multiplicity
 _atom_site_fract_x
 _atom_site_fract_y
 _atom_site_fract_z
 _atom_site_occupancy
  Li  Li0  1  0.18370200  0.10930700  0.75000000  1
  Li  Li1  1  0.82829700  0.13665500  0.99325100  1
  Li  Li2  1  0.82829700  0.13665500  0.50674900  1
  Li  Li3  1  0.32829700  0.36334500  0.00674900  1
  Li  Li4  1  0.32829700  0.36334500  0.49325100  1
  Li  Li5  1  0.68370200  0.39069300  0.25000000  1
  Li  Li6  1  0.31629800  0.60930700  0.75000000  1
  Li  Li7  1  0.67170300  0.63665500  0.99325100  1
  Li  Li8  1  0.67170300  0.63665500  0.50674900  1
  Li  Li9  1  0.17170300  0.86334500  0.49325100  1
  Li  Li10  1  0.17170300  0.86334500  0.00674900  1
  Li  Li11  1  0.81629800  0.89069300  0.25000000  1
  V  V12  1  0.28303900  0.12514400  0.25000000  1
  V  V13  1  0.78303900  0.37485600  0.75000000  1
  V  V14  1  0.21696100  0.62514400  0.25000000  1
  V  V15  1  0.71696100  0.87485600  0.75000000  1
  F  F16  1  0.01628100  0.03024600  0.12190900  1
  F  F17  1  0.01628100  0.03024600  0.37809100  1
  F  F18  1  0.53687500  0.20389700  0.10039900  1
  F  F19  1  0.53687500  0.20389700  0.39960100  1
  F  F20  1  0.56504700  0.12966500  0.75000000  1
  F  F21  1  0.06504700  0.37033500  0.25000000  1
  F  F22  1  0.03687500  0.29610300  0.60039900  1
  F  F23  1  0.03687500  0.29610300  0.89960100  1
  F  F24  1  0.51628100  0.46975400  0.62190900  1
  F  F25  1  0.51628100  0.46975400  0.87809100  1
  F  F26  1  0.48371900  0.53024600  0.12190900  1
  F  F27  1  0.48371900  0.53024600  0.37809100  1
  F  F28  1  0.96312500  0.70389700  0.10039900  1
  F  F29  1  0.96312500  0.70389700  0.39960100  1
  F  F30  1  0.93495300  0.62966500  0.75000000  1
  F  F31  1  0.43495300  0.87033500  0.25000000  1
  F  F32  1  0.46312500  0.79610300  0.60039900  1
  F  F33  1  0.46312500  0.79610300  0.89960100  1
  F  F34  1  0.98371900  0.96975400  0.62190900  1
  F  F35  1  0.98371900  0.96975400  0.87809100  1
