# generated using pymatgen
data_Li4Ti3Mn2Sn3O16
_symmetry_space_group_name_H-M   'P 1'
_cell_length_a   6.16257442
_cell_length_b   6.13727180
_cell_length_c   10.04155058
_cell_angle_alpha   90.00029114
_cell_angle_beta   89.89490117
_cell_angle_gamma   119.86407918
_symmetry_Int_Tables_number   1
_chemical_formula_structural   Li4Ti3Mn2Sn3O16
_chemical_formula_sum   'Li4 Ti3 Mn2 Sn3 O16'
_cell_volume   329.35265672
_cell_formula_units_Z   1
loop_
 _symmetry_equiv_pos_site_id
 _symmetry_equiv_pos_as_xyz
  1  'x, y, z'
loop_
 _atom_site_type_symbol
 _atom_site_label
 _atom_site_symmetry_multiplicity
 _atom_site_fract_x
 _atom_site_fract_y
 _atom_site_fract_z
 _atom_site_occupancy
  Li  Li0  1  0.34045500  0.67024800  0.88595300  1
  Li  Li1  1  0.97671500  0.98835300  0.99651800  1
  Li  Li2  1  0.98467900  0.99235200  0.50148400  1
  Li  Li3  1  0.67258100  0.33629500  0.39141700  1
  Ti  Ti4  1  0.66128400  0.83065200  0.21891400  1
  Ti  Ti5  1  0.83200300  0.16984900  0.71605600  1
  Ti  Ti6  1  0.83192000  0.66225400  0.71602800  1
  Mn  Mn7  1  0.33886300  0.66944600  0.50120000  1
  Mn  Mn8  1  0.67159600  0.33581600  0.99666800  1
  Sn  Sn9  1  0.16847700  0.83143100  0.21447800  1
  Sn  Sn10  1  0.16848300  0.33706600  0.21448000  1
  Sn  Sn11  1  0.33839800  0.16919500  0.71454300  1
  O  O12  1  0.14541600  0.83786800  0.60529200  1
  O  O13  1  0.03338400  0.51670800  0.33488300  1
  O  O14  1  0.34645500  0.67323100  0.09991300  1
  O  O15  1  0.98920900  0.99461400  0.31991900  1
  O  O16  1  0.98801500  0.99402300  0.81542600  1
  O  O17  1  0.14541000  0.30754700  0.60529500  1
  O  O18  1  0.49784200  0.97139100  0.32805100  1
  O  O19  1  0.49783800  0.52647500  0.32805500  1
  O  O20  1  0.30518600  0.15259600  0.09780900  1
  O  O21  1  0.68976300  0.84485400  0.61241500  1
  O  O22  1  0.52928900  0.49497300  0.82787600  1
  O  O23  1  0.52929400  0.03432800  0.82787400  1
  O  O24  1  0.68429300  0.34215600  0.60433100  1
  O  O25  1  0.83306400  0.68732200  0.10638900  1
  O  O26  1  0.96702200  0.48351000  0.82019100  1
  O  O27  1  0.83306300  0.14574500  0.10638400  1
