# generated using pymatgen
data_Li9V3(WO4)7
_symmetry_space_group_name_H-M   'P 1'
_cell_length_a   8.55141267
_cell_length_b   8.55141267
_cell_length_c   8.55141226
_cell_angle_alpha   89.87868543
_cell_angle_beta   89.87868543
_cell_angle_gamma   89.87868581
_symmetry_Int_Tables_number   1
_chemical_formula_structural   Li9V3(WO4)7
_chemical_formula_sum   'Li9 V3 W7 O28'
_cell_volume   625.33200597
_cell_formula_units_Z   1
loop_
 _symmetry_equiv_pos_site_id
 _symmetry_equiv_pos_as_xyz
  1  'x, y, z'
loop_
 _atom_site_type_symbol
 _atom_site_label
 _atom_site_symmetry_multiplicity
 _atom_site_fract_x
 _atom_site_fract_y
 _atom_site_fract_z
 _atom_site_occupancy
  Li  Li0  1  0.90654700  0.35756800  0.64536400  1
  Li  Li1  1  0.90654700  0.64536400  0.35756800  1
  Li  Li2  1  0.64536400  0.35756800  0.90654700  1
  Li  Li3  1  0.64536400  0.90654700  0.35756800  1
  Li  Li4  1  0.35163600  0.09033900  0.35163600  1
  Li  Li5  1  0.35163600  0.35163600  0.09033900  1
  Li  Li6  1  0.35756800  0.64536400  0.90654700  1
  Li  Li7  1  0.35756800  0.90654700  0.64536400  1
  Li  Li8  1  0.09033900  0.35163600  0.35163600  1
  V  V9  1  0.63288800  0.11518400  0.63288800  1
  V  V10  1  0.63288800  0.63288800  0.11518400  1
  V  V11  1  0.11518400  0.63288800  0.63288800  1
  W  W12  1  0.64294800  0.35841600  0.35841600  1
  W  W13  1  0.65234200  0.65234200  0.65234200  1
  W  W14  1  0.35841600  0.35841600  0.64294800  1
  W  W15  1  0.35841600  0.64294800  0.35841600  1
  W  W16  1  0.99976400  0.99976400  0.49799400  1
  W  W17  1  0.99976400  0.49799400  0.99976400  1
  W  W18  1  0.49799400  0.99976400  0.99976400  1
  O  O19  1  0.85218700  0.38280100  0.38280100  1
  O  O20  1  0.86655000  0.61568000  0.61568000  1
  O  O21  1  0.87714900  0.12468100  0.62159400  1
  O  O22  1  0.87714900  0.62159400  0.12468100  1
  O  O23  1  0.87844100  0.37633900  0.87844100  1
  O  O24  1  0.87844100  0.87844100  0.37633900  1
  O  O25  1  0.62159400  0.12468100  0.87714900  1
  O  O26  1  0.62159400  0.87714900  0.12468100  1
  O  O27  1  0.60988000  0.38059100  0.60988000  1
  O  O28  1  0.60988000  0.60988000  0.38059100  1
  O  O29  1  0.61586100  0.14470700  0.38049400  1
  O  O30  1  0.61586100  0.38049400  0.14470700  1
  O  O31  1  0.61568000  0.61568000  0.86655000  1
  O  O32  1  0.61568000  0.86655000  0.61568000  1
  O  O33  1  0.38049400  0.14470700  0.61586100  1
  O  O34  1  0.38049400  0.61586100  0.14470700  1
  O  O35  1  0.38280100  0.38280100  0.85218700  1
  O  O36  1  0.38280100  0.85218700  0.38280100  1
  O  O37  1  0.39435400  0.39435400  0.39435400  1
  O  O38  1  0.38059100  0.60988000  0.60988000  1
  O  O39  1  0.37838000  0.12292700  0.12292700  1
  O  O40  1  0.37633900  0.87844100  0.87844100  1
  O  O41  1  0.12292700  0.12292700  0.37838000  1
  O  O42  1  0.12292700  0.37838000  0.12292700  1
  O  O43  1  0.12468100  0.62159400  0.87714900  1
  O  O44  1  0.12468100  0.87714900  0.62159400  1
  O  O45  1  0.14470700  0.38049400  0.61586100  1
  O  O46  1  0.14470700  0.61586100  0.38049400  1
