# generated using pymatgen
data_Li3Fe(PO4)2
_symmetry_space_group_name_H-M   'P 1'
_cell_length_a   5.02956000
_cell_length_b   12.38184800
_cell_length_c   18.11121100
_cell_angle_alpha   90.00000000
_cell_angle_beta   90.00000000
_cell_angle_gamma   90.00000000
_symmetry_Int_Tables_number   1
_chemical_formula_structural   Li3Fe(PO4)2
_chemical_formula_sum   'Li24 Fe8 P16 O64'
_cell_volume   1127.88014623
_cell_formula_units_Z   8
loop_
 _symmetry_equiv_pos_site_id
 _symmetry_equiv_pos_as_xyz
  1  'x, y, z'
loop_
 _atom_site_type_symbol
 _atom_site_label
 _atom_site_symmetry_multiplicity
 _atom_site_fract_x
 _atom_site_fract_y
 _atom_site_fract_z
 _atom_site_occupancy
  Li  Li0  1  0.06788700  0.35943500  0.75620500  1
  Li  Li1  1  0.06788700  0.14056500  0.25620500  1
  Li  Li2  1  0.06859400  0.46415900  0.94633200  1
  Li  Li3  1  0.06859400  0.03584100  0.44633200  1
  Li  Li4  1  0.03835800  0.70962700  0.58065000  1
  Li  Li5  1  0.03835800  0.79037300  0.08065000  1
  Li  Li6  1  0.46535400  0.03913300  0.17983100  1
  Li  Li7  1  0.46535400  0.46086700  0.67983100  1
  Li  Li8  1  0.40988600  0.71057700  0.32192600  1
  Li  Li9  1  0.40988600  0.78942300  0.82192600  1
  Li  Li10  1  0.45231200  0.61425700  0.50764500  1
  Li  Li11  1  0.45231200  0.88574300  0.00764500  1
  Li  Li12  1  0.54768800  0.11425700  0.50764500  1
  Li  Li13  1  0.54768800  0.38574300  0.00764500  1
  Li  Li14  1  0.59011400  0.28942300  0.82192600  1
  Li  Li15  1  0.59011400  0.21057700  0.32192600  1
  Li  Li16  1  0.53464600  0.53913300  0.17983100  1
  Li  Li17  1  0.53464600  0.96086700  0.67983100  1
  Li  Li18  1  0.96164200  0.29037300  0.08065000  1
  Li  Li19  1  0.96164200  0.20962700  0.58065000  1
  Li  Li20  1  0.93140600  0.96415900  0.94633200  1
  Li  Li21  1  0.93140600  0.53584100  0.44633200  1
  Li  Li22  1  0.93211300  0.85943500  0.75620500  1
  Li  Li23  1  0.93211300  0.64056500  0.25620500  1
  Fe  Fe24  1  0.07352300  0.10300100  0.76287800  1
  Fe  Fe25  1  0.07352300  0.39699900  0.26287800  1
  Fe  Fe26  1  0.44485900  0.14757600  0.00800400  1
  Fe  Fe27  1  0.44485900  0.35242400  0.50800400  1
  Fe  Fe28  1  0.55514100  0.64757600  0.00800400  1
  Fe  Fe29  1  0.55514100  0.85242400  0.50800400  1
  Fe  Fe30  1  0.92647700  0.60300100  0.76287800  1
  Fe  Fe31  1  0.92647700  0.89699900  0.26287800  1
  P  P32  1  0.00191900  0.72343600  0.92012100  1
  P  P33  1  0.00191900  0.77656400  0.42012100  1
  P  P34  1  0.03029500  0.96126600  0.59724600  1
  P  P35  1  0.03029500  0.53873400  0.09724600  1
  P  P36  1  0.45347000  0.71455700  0.67360000  1
  P  P37  1  0.45347000  0.78544300  0.17360000  1
  P  P38  1  0.47833900  0.53019700  0.85080500  1
  P  P39  1  0.47833900  0.96980300  0.35080500  1
  P  P40  1  0.52166100  0.03019700  0.85080500  1
  P  P41  1  0.52166100  0.46980300  0.35080500  1
  P  P42  1  0.54653000  0.21455700  0.67360000  1
  P  P43  1  0.54653000  0.28544300  0.17360000  1
  P  P44  1  0.96970500  0.03873400  0.09724600  1
  P  P45  1  0.96970500  0.46126600  0.59724600  1
  P  P46  1  0.99808100  0.22343600  0.92012100  1
  P  P47  1  0.99808100  0.27656400  0.42012100  1
  O  O48  1  0.01542600  0.47710800  0.68188900  1
  O  O49  1  0.01542600  0.02289200  0.18188900  1
  O  O50  1  0.03553600  0.73658800  0.83437400  1
  O  O51  1  0.03553600  0.76341200  0.33437400  1
  O  O52  1  0.09788300  0.10983900  0.94059400  1
  O  O53  1  0.09788300  0.39016100  0.44059400  1
  O  O54  1  0.08104100  0.55612400  0.55169100  1
  O  O55  1  0.08104100  0.94387600  0.05169100  1
  O  O56  1  0.12648000  0.35587800  0.57906500  1
  O  O57  1  0.12648000  0.14412200  0.07906500  1
  O  O58  1  0.15134800  0.70019600  0.69450600  1
  O  O59  1  0.15134800  0.79980400  0.19450600  1
  O  O60  1  0.19787400  0.30513300  0.95274900  1
  O  O61  1  0.19787400  0.19486700  0.45274900  1
  O  O62  1  0.19934300  0.50700100  0.81542000  1
  O  O63  1  0.19934300  0.99299900  0.31542000  1
  O  O64  1  0.28237800  0.74511100  0.95513200  1
  O  O65  1  0.28237800  0.75488900  0.45513200  1
  O  O66  1  0.31741700  0.55139800  0.32148400  1
  O  O67  1  0.31741700  0.94860200  0.82148400  1
  O  O68  1  0.33430400  0.55394500  0.08062800  1
  O  O69  1  0.33430400  0.94605500  0.58062800  1
  O  O70  1  0.38528400  0.11015000  0.68993100  1
  O  O71  1  0.38528400  0.38985000  0.18993100  1
  O  O72  1  0.43129000  0.18953400  0.21657500  1
  O  O73  1  0.43129000  0.31046600  0.71657500  1
  O  O74  1  0.44051400  0.98093300  0.43711000  1
  O  O75  1  0.44051400  0.51906700  0.93711000  1
  O  O76  1  0.45507900  0.72809900  0.58786300  1
  O  O77  1  0.45507900  0.77190100  0.08786300  1
  O  O78  1  0.42417400  0.14367800  0.82900600  1
  O  O79  1  0.42417400  0.35632200  0.32900600  1
  O  O80  1  0.57582600  0.64367800  0.82900600  1
  O  O81  1  0.57582600  0.85632200  0.32900600  1
  O  O82  1  0.54492100  0.27190100  0.08786300  1
  O  O83  1  0.54492100  0.22809900  0.58786300  1
  O  O84  1  0.55948600  0.48093300  0.43711000  1
  O  O85  1  0.55948600  0.01906700  0.93711000  1
  O  O86  1  0.56871000  0.68953400  0.21657500  1
  O  O87  1  0.56871000  0.81046600  0.71657500  1
  O  O88  1  0.61471600  0.61015000  0.68993100  1
  O  O89  1  0.61471600  0.88985000  0.18993100  1
  O  O90  1  0.66569600  0.05394500  0.08062800  1
  O  O91  1  0.66569600  0.44605500  0.58062800  1
  O  O92  1  0.68258300  0.44860200  0.82148400  1
  O  O93  1  0.68258300  0.05139800  0.32148400  1
  O  O94  1  0.71762200  0.25488900  0.45513200  1
  O  O95  1  0.71762200  0.24511100  0.95513200  1
  O  O96  1  0.80065700  0.49299900  0.31542000  1
  O  O97  1  0.80065700  0.00700100  0.81542000  1
  O  O98  1  0.80212600  0.80513300  0.95274900  1
  O  O99  1  0.80212600  0.69486700  0.45274900  1
  O  O100  1  0.84865200  0.20019600  0.69450600  1
  O  O101  1  0.84865200  0.29980400  0.19450600  1
  O  O102  1  0.87352000  0.64412200  0.07906500  1
  O  O103  1  0.87352000  0.85587800  0.57906500  1
  O  O104  1  0.91895900  0.44387600  0.05169100  1
  O  O105  1  0.91895900  0.05612400  0.55169100  1
  O  O106  1  0.90211700  0.60983900  0.94059400  1
  O  O107  1  0.90211700  0.89016100  0.44059400  1
  O  O108  1  0.96446400  0.23658800  0.83437400  1
  O  O109  1  0.96446400  0.26341200  0.33437400  1
  O  O110  1  0.98457400  0.52289200  0.18188900  1
  O  O111  1  0.98457400  0.97710800  0.68188900  1
