# generated using pymatgen
data_Li24Mn5Cr7O36
_symmetry_space_group_name_H-M   'P 1'
_cell_length_a   5.01709600
_cell_length_b   9.73421781
_cell_length_c   13.29553213
_cell_angle_alpha   97.15711923
_cell_angle_beta   100.60249860
_cell_angle_gamma   94.75210780
_symmetry_Int_Tables_number   1
_chemical_formula_structural   Li24Mn5Cr7O36
_chemical_formula_sum   'Li24 Mn5 Cr7 O36'
_cell_volume   629.52688982
_cell_formula_units_Z   1
loop_
 _symmetry_equiv_pos_site_id
 _symmetry_equiv_pos_as_xyz
  1  'x, y, z'
loop_
 _atom_site_type_symbol
 _atom_site_label
 _atom_site_symmetry_multiplicity
 _atom_site_fract_x
 _atom_site_fract_y
 _atom_site_fract_z
 _atom_site_occupancy
  Li  Li0  1  0.16752600  0.99831700  0.83372900  1
  Li  Li1  1  0.04496600  0.99945500  0.61396600  1
  Li  Li2  1  0.00082900  0.74999800  0.25077200  1
  Li  Li3  1  0.33203500  0.75048200  0.91634000  1
  Li  Li4  1  0.04510900  0.49945500  0.11239500  1
  Li  Li5  1  0.38259600  0.49835300  0.77882900  1
  Li  Li6  1  0.16576300  0.50079900  0.33298400  1
  Li  Li7  1  0.49988000  0.49906600  0.99970400  1
  Li  Li8  1  0.28622700  0.50063200  0.55497200  1
  Li  Li9  1  0.33776100  0.25001000  0.41602500  1
  Li  Li10  1  0.49795300  0.00066200  0.49970600  1
  Li  Li11  1  0.28563300  0.00033800  0.05177100  1
  Li  Li12  1  0.61984800  0.00106800  0.72096400  1
  Li  Li13  1  0.38395800  0.00188600  0.28196000  1
  Li  Li14  1  0.71507900  0.99897100  0.94606100  1
  Li  Li15  1  0.67031500  0.74973100  0.58367600  1
  Li  Li16  1  0.71453500  0.50035500  0.44657200  1
  Li  Li17  1  0.83402300  0.50023200  0.66628100  1
  Li  Li18  1  0.61973900  0.49931000  0.22135900  1
  Li  Li19  1  0.94985100  0.50147200  0.88755700  1
  Li  Li20  1  0.66718700  0.24970300  0.08263400  1
  Li  Li21  1  0.83431000  0.00183900  0.16685700  1
  Li  Li22  1  0.00022500  0.25060200  0.74861500  1
  Li  Li23  1  0.94878300  0.99925500  0.38548600  1
  Mn  Mn24  1  0.10928200  0.74941500  0.47278200  1
  Mn  Mn25  1  0.44616500  0.25131100  0.63966600  1
  Mn  Mn26  1  0.55464100  0.24925100  0.86014600  1
  Mn  Mn27  1  0.78148400  0.75322300  0.80610500  1
  Mn  Mn28  1  0.77617100  0.24939200  0.30611100  1
  Cr  Cr29  1  0.10474700  0.24886800  0.96898200  1
  Cr  Cr30  1  0.23003500  0.74924800  0.69384700  1
  Cr  Cr31  1  0.22540700  0.25097300  0.19335400  1
  Cr  Cr32  1  0.44052000  0.74781300  0.14142500  1
  Cr  Cr33  1  0.56093800  0.75089600  0.36381800  1
  Cr  Cr34  1  0.89594900  0.24968200  0.52700100  1
  Cr  Cr35  1  0.88387500  0.74946500  0.02555800  1
  O  O36  1  0.00371000  0.86380700  0.92659200  1
  O  O37  1  0.06873500  0.63656700  0.78377500  1
  O  O38  1  0.99652800  0.36118800  0.42964200  1
  O  O39  1  0.15040600  0.36402300  0.64527500  1
  O  O40  1  0.26431300  0.36360700  0.88242100  1
  O  O41  1  0.32866500  0.86159300  0.59628200  1
  O  O42  1  0.06867300  0.13560200  0.28582600  1
  O  O43  1  0.18803900  0.13842600  0.52574500  1
  O  O44  1  0.40799900  0.13502500  0.95055400  1
  O  O45  1  0.14635500  0.86157200  0.14106100  1
  O  O46  1  0.25899500  0.86429600  0.38195700  1
  O  O47  1  0.48119100  0.86294600  0.81106300  1
  O  O48  1  0.33153800  0.13813700  0.73773000  1
  O  O49  1  0.18490700  0.63640900  0.02176700  1
  O  O50  1  0.40189800  0.63625800  0.45145200  1
  O  O51  1  0.52331900  0.63876500  0.69135600  1
  O  O52  1  0.33445200  0.63697200  0.23811000  1
  O  O53  1  0.66825400  0.63908100  0.90508600  1
  O  O54  1  0.32677000  0.36161300  0.09511800  1
  O  O55  1  0.67034500  0.36181700  0.76238100  1
  O  O56  1  0.48044300  0.36308000  0.31155900  1
  O  O57  1  0.59754500  0.36369800  0.54912800  1
  O  O58  1  0.80271800  0.36229000  0.97521500  1
  O  O59  1  0.66298600  0.86203000  0.26380900  1
  O  O60  1  0.52181000  0.13844600  0.19127600  1
  O  O61  1  0.73522500  0.13582300  0.61793800  1
  O  O62  1  0.85587300  0.13810800  0.85710500  1
  O  O63  1  0.60305700  0.86417900  0.04845900  1
  O  O64  1  0.81162800  0.86236600  0.47704700  1
  O  O65  1  0.92836100  0.86456200  0.71473800  1
  O  O66  1  0.66296300  0.13617900  0.40253000  1
  O  O67  1  0.72846500  0.63426800  0.11821000  1
  O  O68  1  0.86004600  0.63813800  0.35712000  1
  O  O69  1  0.99586300  0.63634300  0.56915000  1
  O  O70  1  0.93123100  0.36387200  0.21603900  1
  O  O71  1  0.00334800  0.13739300  0.06947500  1
