# generated using pymatgen
data_Li4VCr3O8
_symmetry_space_group_name_H-M   'P 1'
_cell_length_a   5.13407100
_cell_length_b   7.86984700
_cell_length_c   7.87012571
_cell_angle_alpha   82.08115685
_cell_angle_beta   83.68504940
_cell_angle_gamma   70.98362581
_symmetry_Int_Tables_number   1
_chemical_formula_structural   Li4VCr3O8
_chemical_formula_sum   'Li8 V2 Cr6 O16'
_cell_volume   297.04605218
_cell_formula_units_Z   2
loop_
 _symmetry_equiv_pos_site_id
 _symmetry_equiv_pos_as_xyz
  1  'x, y, z'
loop_
 _atom_site_type_symbol
 _atom_site_label
 _atom_site_symmetry_multiplicity
 _atom_site_fract_x
 _atom_site_fract_y
 _atom_site_fract_z
 _atom_site_occupancy
  Li  Li0  1  0.50114700  0.56176000  0.81291200  1
  Li  Li1  1  0.50089600  0.31198900  0.56235500  1
  Li  Li2  1  0.49885300  0.43824000  0.18708800  1
  Li  Li3  1  0.50092700  0.93807800  0.68617000  1
  Li  Li4  1  0.49907300  0.06192200  0.31383000  1
  Li  Li5  1  0.49773700  0.19060100  0.93497000  1
  Li  Li6  1  0.49910400  0.68801100  0.43764500  1
  Li  Li7  1  0.50226300  0.80939900  0.06503000  1
  V  V8  1  0.00000400  0.12347400  0.12351100  1
  V  V9  1  0.99999600  0.87652600  0.87648900  1
  Cr  Cr10  1  0.99998700  0.25182500  0.74809200  1
  Cr  Cr11  1  0.99998000  0.37454500  0.37445900  1
  Cr  Cr12  1  0.00000000  0.50000000  0.00000000  1
  Cr  Cr13  1  0.00000000  0.00000000  0.50000000  1
  Cr  Cr14  1  0.00002000  0.62545500  0.62554100  1
  Cr  Cr15  1  0.00001300  0.74817500  0.25190800  1
  O  O16  1  0.22491600  0.41330500  0.78152600  1
  O  O17  1  0.77536700  0.46417400  0.59194200  1
  O  O18  1  0.22463300  0.53582600  0.40805800  1
  O  O19  1  0.77291700  0.09211800  0.71622600  1
  O  O20  1  0.22539200  0.16210100  0.53035300  1
  O  O21  1  0.22542900  0.28652000  0.15586800  1
  O  O22  1  0.77465200  0.21225900  0.34266800  1
  O  O23  1  0.22534800  0.78774100  0.65733200  1
  O  O24  1  0.22708300  0.90788200  0.28377400  1
  O  O25  1  0.77276600  0.34028500  0.96474500  1
  O  O26  1  0.77460800  0.83789900  0.46964700  1
  O  O27  1  0.23108800  0.03798900  0.90419800  1
  O  O28  1  0.76891200  0.96201100  0.09580200  1
  O  O29  1  0.22723400  0.65971500  0.03525500  1
  O  O30  1  0.77508400  0.58669500  0.21847400  1
  O  O31  1  0.77457100  0.71348000  0.84413200  1
