# generated using pymatgen
data_Li4Fe2Si4O13
_symmetry_space_group_name_H-M   'P 1'
_cell_length_a   5.03408100
_cell_length_b   13.88048400
_cell_length_c   14.08061900
_cell_angle_alpha   90.00000000
_cell_angle_beta   90.00000000
_cell_angle_gamma   90.00000000
_symmetry_Int_Tables_number   1
_chemical_formula_structural   Li4Fe2Si4O13
_chemical_formula_sum   'Li16 Fe8 Si16 O52'
_cell_volume   983.89002224
_cell_formula_units_Z   4
loop_
 _symmetry_equiv_pos_site_id
 _symmetry_equiv_pos_as_xyz
  1  'x, y, z'
loop_
 _atom_site_type_symbol
 _atom_site_label
 _atom_site_symmetry_multiplicity
 _atom_site_fract_x
 _atom_site_fract_y
 _atom_site_fract_z
 _atom_site_occupancy
  Li  Li0  1  0.18122700  0.03937100  0.21748900  1
  Li  Li1  1  0.65551100  0.11027200  0.92152800  1
  Li  Li2  1  0.64245900  0.13338400  0.10888600  1
  Li  Li3  1  0.25157900  0.21282900  0.84049600  1
  Li  Li4  1  0.75157900  0.28717100  0.34049600  1
  Li  Li5  1  0.14245900  0.36661600  0.60888600  1
  Li  Li6  1  0.15551100  0.38972800  0.42152800  1
  Li  Li7  1  0.68122700  0.46062900  0.71748900  1
  Li  Li8  1  0.31877300  0.53937100  0.21748900  1
  Li  Li9  1  0.84448900  0.61027200  0.92152800  1
  Li  Li10  1  0.85754100  0.63338400  0.10888600  1
  Li  Li11  1  0.24842100  0.71282900  0.84049600  1
  Li  Li12  1  0.74842100  0.78717100  0.34049600  1
  Li  Li13  1  0.35754100  0.86661600  0.60888600  1
  Li  Li14  1  0.34448900  0.88972800  0.42152800  1
  Li  Li15  1  0.81877300  0.96062900  0.71748900  1
  Fe  Fe16  1  0.35695200  0.08098800  0.62870400  1
  Fe  Fe17  1  0.18538400  0.16967800  0.41904000  1
  Fe  Fe18  1  0.68538400  0.33032200  0.91904000  1
  Fe  Fe19  1  0.85695200  0.41901200  0.12870400  1
  Fe  Fe20  1  0.14304800  0.58098800  0.62870400  1
  Fe  Fe21  1  0.31461600  0.66967800  0.41904000  1
  Fe  Fe22  1  0.81461600  0.83032200  0.91904000  1
  Fe  Fe23  1  0.64304800  0.91901200  0.12870400  1
  Si  Si24  1  0.14847600  0.02107200  0.00218400  1
  Si  Si25  1  0.68920800  0.06058600  0.31685500  1
  Si  Si26  1  0.85090800  0.19048900  0.72900500  1
  Si  Si27  1  0.16897600  0.22548200  0.04495400  1
  Si  Si28  1  0.66897600  0.27451800  0.54495400  1
  Si  Si29  1  0.35090800  0.30951100  0.22900500  1
  Si  Si30  1  0.18920800  0.43941400  0.81685500  1
  Si  Si31  1  0.64847600  0.47892800  0.50218400  1
  Si  Si32  1  0.35152400  0.52107200  0.00218400  1
  Si  Si33  1  0.81079200  0.56058600  0.31685500  1
  Si  Si34  1  0.64909200  0.69048900  0.72900500  1
  Si  Si35  1  0.33102400  0.72548200  0.04495400  1
  Si  Si36  1  0.83102400  0.77451800  0.54495400  1
  Si  Si37  1  0.14909200  0.80951100  0.22900500  1
  Si  Si38  1  0.31079200  0.93941400  0.81685500  1
  Si  Si39  1  0.85152400  0.97892800  0.50218400  1
  O  O40  1  0.42085200  0.02491700  0.06274300  1
  O  O41  1  0.77412600  0.03432200  0.20696200  1
  O  O42  1  0.22205600  0.03238500  0.88739900  1
  O  O43  1  0.06340300  0.06555700  0.52094700  1
  O  O44  1  0.37120700  0.07542400  0.33405400  1
  O  O45  1  0.67744100  0.09477900  0.70719100  1
  O  O46  1  0.98396000  0.12494900  0.02574300  1
  O  O47  1  0.85964200  0.15457200  0.34681500  1
  O  O48  1  0.16682300  0.17703100  0.70668800  1
  O  O49  1  0.47177800  0.18379200  0.52471500  1
  O  O50  1  0.24892000  0.21779100  0.15940200  1
  O  O51  1  0.82397300  0.21695600  0.84259600  1
  O  O52  1  0.43965000  0.21593700  0.98246200  1
  O  O53  1  0.93965000  0.28406300  0.48246200  1
  O  O54  1  0.32397300  0.28304400  0.34259600  1
  O  O55  1  0.74892000  0.28220900  0.65940200  1
  O  O56  1  0.97177800  0.31620800  0.02471500  1
  O  O57  1  0.66682300  0.32296900  0.20668800  1
  O  O58  1  0.35964200  0.34542800  0.84681500  1
  O  O59  1  0.48396000  0.37505100  0.52574300  1
  O  O60  1  0.17744100  0.40522100  0.20719100  1
  O  O61  1  0.87120700  0.42457600  0.83405400  1
  O  O62  1  0.56340300  0.43444300  0.02094700  1
  O  O63  1  0.72205600  0.46761500  0.38739900  1
  O  O64  1  0.27412600  0.46567800  0.70696200  1
  O  O65  1  0.92085200  0.47508300  0.56274300  1
  O  O66  1  0.07914800  0.52491700  0.06274300  1
  O  O67  1  0.72587400  0.53432200  0.20696200  1
  O  O68  1  0.27794400  0.53238500  0.88739900  1
  O  O69  1  0.43659700  0.56555700  0.52094700  1
  O  O70  1  0.12879300  0.57542400  0.33405400  1
  O  O71  1  0.82255900  0.59477900  0.70719100  1
  O  O72  1  0.51604000  0.62494900  0.02574300  1
  O  O73  1  0.64035800  0.65457200  0.34681500  1
  O  O74  1  0.33317700  0.67703100  0.70668800  1
  O  O75  1  0.02822200  0.68379200  0.52471500  1
  O  O76  1  0.25108000  0.71779100  0.15940200  1
  O  O77  1  0.67602700  0.71695600  0.84259600  1
  O  O78  1  0.06035000  0.71593700  0.98246200  1
  O  O79  1  0.56035000  0.78406300  0.48246200  1
  O  O80  1  0.17602700  0.78304400  0.34259600  1
  O  O81  1  0.75108000  0.78220900  0.65940200  1
  O  O82  1  0.52822200  0.81620800  0.02471500  1
  O  O83  1  0.83317700  0.82296900  0.20668800  1
  O  O84  1  0.14035800  0.84542800  0.84681500  1
  O  O85  1  0.01604000  0.87505100  0.52574300  1
  O  O86  1  0.32255900  0.90522100  0.20719100  1
  O  O87  1  0.62879300  0.92457600  0.83405400  1
  O  O88  1  0.93659700  0.93444300  0.02094700  1
  O  O89  1  0.77794400  0.96761500  0.38739900  1
  O  O90  1  0.22587400  0.96567800  0.70696200  1
  O  O91  1  0.57914800  0.97508300  0.56274300  1
