# generated using pymatgen
data_Li4Cr3Co3(NiO8)2
_symmetry_space_group_name_H-M   'P 1'
_cell_length_a   5.75382597
_cell_length_b   5.75382597
_cell_length_c   9.56453612
_cell_angle_alpha   89.99218291
_cell_angle_beta   89.99218291
_cell_angle_gamma   60.15768234
_symmetry_Int_Tables_number   1
_chemical_formula_structural   Li4Cr3Co3(NiO8)2
_chemical_formula_sum   'Li4 Cr3 Co3 Ni2 O16'
_cell_volume   274.66027270
_cell_formula_units_Z   1
loop_
 _symmetry_equiv_pos_site_id
 _symmetry_equiv_pos_as_xyz
  1  'x, y, z'
loop_
 _atom_site_type_symbol
 _atom_site_label
 _atom_site_symmetry_multiplicity
 _atom_site_fract_x
 _atom_site_fract_y
 _atom_site_fract_z
 _atom_site_occupancy
  Li  Li0  1  0.66991700  0.66991700  0.89153800  1
  Li  Li1  1  0.99474300  0.99474300  0.99643900  1
  Li  Li2  1  0.99531800  0.99531800  0.49887200  1
  Li  Li3  1  0.33682300  0.33682300  0.39622600  1
  Cr  Cr4  1  0.83150500  0.33623900  0.21443100  1
  Cr  Cr5  1  0.33623900  0.83150500  0.21443100  1
  Cr  Cr6  1  0.16865700  0.16865700  0.71444900  1
  Co  Co7  1  0.83064100  0.83064100  0.21418000  1
  Co  Co8  1  0.66301000  0.16875500  0.71347400  1
  Co  Co9  1  0.16875500  0.66301000  0.71347400  1
  Ni  Ni10  1  0.66660900  0.66660900  0.49150100  1
  Ni  Ni11  1  0.33312900  0.33312900  0.98932800  1
  O  O12  1  0.83981100  0.31672400  0.60879400  1
  O  O13  1  0.51841200  0.51841200  0.32878100  1
  O  O14  1  0.66930500  0.66930500  0.10407100  1
  O  O15  1  0.99503500  0.99503500  0.31458800  1
  O  O16  1  0.99500700  0.99500700  0.81166000  1
  O  O17  1  0.31672400  0.83981100  0.60879400  1
  O  O18  1  0.96438200  0.52144100  0.32893600  1
  O  O19  1  0.52144100  0.96438200  0.32893600  1
  O  O20  1  0.15942700  0.15942700  0.10789500  1
  O  O21  1  0.84089000  0.84089000  0.61285200  1
  O  O22  1  0.48511100  0.03696000  0.82668600  1
  O  O23  1  0.03696000  0.48511100  0.82668600  1
  O  O24  1  0.33728500  0.33728500  0.60735100  1
  O  O25  1  0.68184200  0.15647100  0.10943500  1
  O  O26  1  0.48167100  0.48167100  0.82460100  1
  O  O27  1  0.15647100  0.68184200  0.10943500  1
