# generated using pymatgen
data_Li2NiBO4
_symmetry_space_group_name_H-M   'P 1'
_cell_length_a   5.11604400
_cell_length_b   6.40343400
_cell_length_c   10.54040495
_cell_angle_alpha   84.26025859
_cell_angle_beta   90.00000000
_cell_angle_gamma   90.00000000
_symmetry_Int_Tables_number   1
_chemical_formula_structural   Li2NiBO4
_chemical_formula_sum   'Li8 Ni4 B4 O16'
_cell_volume   343.57508849
_cell_formula_units_Z   4
loop_
 _symmetry_equiv_pos_site_id
 _symmetry_equiv_pos_as_xyz
  1  'x, y, z'
loop_
 _atom_site_type_symbol
 _atom_site_label
 _atom_site_symmetry_multiplicity
 _atom_site_fract_x
 _atom_site_fract_y
 _atom_site_fract_z
 _atom_site_occupancy
  Li  Li0  1  0.65083600  0.90130500  0.79327100  1
  Li  Li1  1  0.84916400  0.90130500  0.29327100  1
  Li  Li2  1  0.82899800  0.78000100  0.56952500  1
  Li  Li3  1  0.67100200  0.78000100  0.06952500  1
  Li  Li4  1  0.32899800  0.21999900  0.93047500  1
  Li  Li5  1  0.17100200  0.21999900  0.43047500  1
  Li  Li6  1  0.15083600  0.09869500  0.70672900  1
  Li  Li7  1  0.34916400  0.09869500  0.20672900  1
  Ni  Ni8  1  0.85539800  0.49882100  0.84580600  1
  Ni  Ni9  1  0.35539800  0.50117900  0.65419400  1
  Ni  Ni10  1  0.64460200  0.49882100  0.34580600  1
  Ni  Ni11  1  0.14460200  0.50117900  0.15419400  1
  B  B12  1  0.17773200  0.80542900  0.93940600  1
  B  B13  1  0.32226800  0.80542900  0.43940600  1
  B  B14  1  0.67773200  0.19457100  0.56059400  1
  B  B15  1  0.82226800  0.19457100  0.06059400  1
  O  O16  1  0.30277000  0.94813200  0.85876300  1
  O  O17  1  0.19723000  0.94813200  0.35876300  1
  O  O18  1  0.91219900  0.75294800  0.92131400  1
  O  O19  1  0.58780100  0.75294800  0.42131400  1
  O  O20  1  0.19283300  0.70836100  0.54569100  1
  O  O21  1  0.64754600  0.61809200  0.71480200  1
  O  O22  1  0.30716700  0.70836100  0.04569100  1
  O  O23  1  0.85245400  0.61809200  0.21480200  1
  O  O24  1  0.14754600  0.38190800  0.78519800  1
  O  O25  1  0.69283300  0.29163900  0.95430900  1
  O  O26  1  0.35245400  0.38190800  0.28519800  1
  O  O27  1  0.80716700  0.29163900  0.45430900  1
  O  O28  1  0.41219900  0.24705200  0.57868600  1
  O  O29  1  0.08780100  0.24705200  0.07868600  1
  O  O30  1  0.80277000  0.05186800  0.64123700  1
  O  O31  1  0.69723000  0.05186800  0.14123700  1
