# generated using pymatgen
data_Li2AgF5
_symmetry_space_group_name_H-M   'P 1'
_cell_length_a   5.22068100
_cell_length_b   8.23162700
_cell_length_c   10.17110770
_cell_angle_alpha   68.50655957
_cell_angle_beta   90.00000000
_cell_angle_gamma   90.00000000
_symmetry_Int_Tables_number   1
_chemical_formula_structural   Li2AgF5
_chemical_formula_sum   'Li8 Ag4 F20'
_cell_volume   406.70412525
_cell_formula_units_Z   4
loop_
 _symmetry_equiv_pos_site_id
 _symmetry_equiv_pos_as_xyz
  1  'x, y, z'
loop_
 _atom_site_type_symbol
 _atom_site_label
 _atom_site_symmetry_multiplicity
 _atom_site_fract_x
 _atom_site_fract_y
 _atom_site_fract_z
 _atom_site_occupancy
  Li  Li0  1  0.46931400  0.86333100  0.87215100  1
  Li  Li1  1  0.03068600  0.86333100  0.37215100  1
  Li  Li2  1  0.00790500  0.64782000  0.66922900  1
  Li  Li3  1  0.50790500  0.35218000  0.83077100  1
  Li  Li4  1  0.49209500  0.64782000  0.16922900  1
  Li  Li5  1  0.99209500  0.35218000  0.33077100  1
  Li  Li6  1  0.96931400  0.13666900  0.62784900  1
  Li  Li7  1  0.53068600  0.13666900  0.12784900  1
  Ag  Ag8  1  0.50000000  0.00000000  0.50000000  1
  Ag  Ag9  1  0.00000000  0.00000000  0.00000000  1
  Ag  Ag10  1  0.50000000  0.50000000  0.50000000  1
  Ag  Ag11  1  0.00000000  0.50000000  0.00000000  1
  F  F12  1  0.65450100  0.95891600  0.69020200  1
  F  F13  1  0.17963300  0.87633500  0.57706900  1
  F  F14  1  0.22595400  0.67092400  0.86440300  1
  F  F15  1  0.84549900  0.95891600  0.19020200  1
  F  F16  1  0.79018100  0.73231900  0.51079200  1
  F  F17  1  0.32036700  0.87633500  0.07706900  1
  F  F18  1  0.79342700  0.51001100  0.83031900  1
  F  F19  1  0.27404600  0.67092400  0.36440300  1
  F  F20  1  0.29342700  0.48998900  0.66968100  1
  F  F21  1  0.70981900  0.73231900  0.01079200  1
  F  F22  1  0.29018100  0.26768100  0.98920800  1
  F  F23  1  0.70657300  0.51001100  0.33031900  1
  F  F24  1  0.72595400  0.32907600  0.63559700  1
  F  F25  1  0.20657300  0.48998900  0.16968100  1
  F  F26  1  0.67963300  0.12366500  0.92293100  1
  F  F27  1  0.20981900  0.26768100  0.48920800  1
  F  F28  1  0.15450100  0.04108400  0.80979800  1
  F  F29  1  0.77404600  0.32907600  0.13559700  1
  F  F30  1  0.82036700  0.12366500  0.42293100  1
  F  F31  1  0.34549900  0.04108400  0.30979800  1
