# generated using pymatgen
data_Li5TiMn3O8
_symmetry_space_group_name_H-M   'P 1'
_cell_length_a   8.54998000
_cell_length_b   8.67323472
_cell_length_c   8.81588192
_cell_angle_alpha   89.91506859
_cell_angle_beta   89.87403328
_cell_angle_gamma   89.85779152
_symmetry_Int_Tables_number   1
_chemical_formula_structural   Li5TiMn3O8
_chemical_formula_sum   'Li20 Ti4 Mn12 O32'
_cell_volume   653.74608631
_cell_formula_units_Z   4
loop_
 _symmetry_equiv_pos_site_id
 _symmetry_equiv_pos_as_xyz
  1  'x, y, z'
loop_
 _atom_site_type_symbol
 _atom_site_label
 _atom_site_symmetry_multiplicity
 _atom_site_fract_x
 _atom_site_fract_y
 _atom_site_fract_z
 _atom_site_occupancy
  Li  Li0  1  0.99298400  0.00378900  0.00836600  1
  Li  Li1  1  0.63612600  0.15285800  0.36392800  1
  Li  Li2  1  0.13706200  0.14316500  0.86303000  1
  Li  Li3  1  0.34116600  0.16594700  0.66468100  1
  Li  Li4  1  0.84637100  0.17520500  0.16614800  1
  Li  Li5  1  0.13162600  0.36267600  0.67067200  1
  Li  Li6  1  0.84065800  0.36548600  0.37549800  1
  Li  Li7  1  0.36207400  0.36068000  0.86916600  1
  Li  Li8  1  0.63590300  0.37102500  0.15651000  1
  Li  Li9  1  0.01109700  0.49682400  0.49157800  1
  Li  Li10  1  0.50702300  0.51885700  0.00212100  1
  Li  Li11  1  0.34706100  0.64272400  0.15047200  1
  Li  Li12  1  0.64535200  0.65163000  0.83680500  1
  Li  Li13  1  0.15995400  0.68096000  0.37827100  1
  Li  Li14  1  0.85463600  0.66123500  0.63578900  1
  Li  Li15  1  0.36360700  0.87113200  0.32929400  1
  Li  Li16  1  0.63899100  0.87110300  0.64958200  1
  Li  Li17  1  0.84492300  0.86077400  0.85263000  1
  Li  Li18  1  0.13627200  0.84608400  0.14173200  1
  Li  Li19  1  0.48420600  0.99939100  0.50578200  1
  Ti  Ti20  1  0.87176000  0.13176900  0.63248100  1
  Ti  Ti21  1  0.12858100  0.38295900  0.11963800  1
  Ti  Ti22  1  0.62123500  0.63484500  0.38161900  1
  Ti  Ti23  1  0.37326000  0.87012900  0.88708100  1
  Mn  Mn24  1  0.37383800  0.13129800  0.12421800  1
  Mn  Mn25  1  0.62397400  0.13473100  0.88066100  1
  Mn  Mn26  1  0.36800600  0.38413900  0.38304100  1
  Mn  Mn27  1  0.86300700  0.38913000  0.87564900  1
  Mn  Mn28  1  0.61872700  0.37963000  0.63212600  1
  Mn  Mn29  1  0.11407300  0.63651400  0.87006800  1
  Mn  Mn30  1  0.12441400  0.88903500  0.62978000  1
  Mn  Mn31  1  0.87157500  0.88161700  0.37766400  1
  Mn  Mn32  1  0.12126800  0.13018200  0.37330400  1
  Mn  Mn33  1  0.87375000  0.62578600  0.12937700  1
  Mn  Mn34  1  0.36982500  0.63071900  0.62693700  1
  Mn  Mn35  1  0.62846400  0.88250800  0.12623200  1
  O  O36  1  0.60968700  0.13619300  0.13408700  1
  O  O37  1  0.37071100  0.12063300  0.89648200  1
  O  O38  1  0.11333000  0.13639300  0.62486400  1
  O  O39  1  0.87843700  0.12408300  0.85362600  1
  O  O40  1  0.63948200  0.12607100  0.61585900  1
  O  O41  1  0.36593400  0.12685800  0.35107400  1
  O  O42  1  0.87973300  0.13307900  0.38708900  1
  O  O43  1  0.12955300  0.15164500  0.12174600  1
  O  O44  1  0.12055700  0.35630200  0.35440100  1
  O  O45  1  0.88116500  0.35854300  0.62227400  1
  O  O46  1  0.61452200  0.38333800  0.87710400  1
  O  O47  1  0.12108800  0.38308700  0.90076600  1
  O  O48  1  0.35238500  0.39827100  0.12167700  1
  O  O49  1  0.61541000  0.39979700  0.38129600  1
  O  O50  1  0.88349800  0.39653400  0.13173100  1
  O  O51  1  0.36292900  0.39693700  0.63361900  1
  O  O52  1  0.10618800  0.61442400  0.14219600  1
  O  O53  1  0.84865600  0.62707000  0.40044900  1
  O  O54  1  0.86999900  0.63539600  0.86631900  1
  O  O55  1  0.38578400  0.63744100  0.37370200  1
  O  O56  1  0.14123000  0.63290700  0.61470600  1
  O  O57  1  0.60240600  0.63517700  0.61324500  1
  O  O58  1  0.37335300  0.64962500  0.88604800  1
  O  O59  1  0.63969000  0.62299500  0.15182600  1
  O  O60  1  0.87998400  0.85414800  0.12815200  1
  O  O61  1  0.37608400  0.87162000  0.65437900  1
  O  O62  1  0.61178300  0.86155500  0.37808100  1
  O  O63  1  0.37099400  0.87561000  0.10984400  1
  O  O64  1  0.60568800  0.88113100  0.87877300  1
  O  O65  1  0.14249100  0.88684400  0.88660500  1
  O  O66  1  0.87313600  0.89982500  0.62619900  1
  O  O67  1  0.12878300  0.90425300  0.37209100  1
