# generated using pymatgen
data_LiCrPO4F
_symmetry_space_group_name_H-M   'P 1'
_cell_length_a   6.20612200
_cell_length_b   10.76743544
_cell_length_c   11.01661428
_cell_angle_alpha   90.18747774
_cell_angle_beta   90.23547443
_cell_angle_gamma   90.10313574
_symmetry_Int_Tables_number   1
_chemical_formula_structural   LiCrPO4F
_chemical_formula_sum   'Li8 Cr8 P8 O32 F8'
_cell_volume   736.16306226
_cell_formula_units_Z   8
loop_
 _symmetry_equiv_pos_site_id
 _symmetry_equiv_pos_as_xyz
  1  'x, y, z'
loop_
 _atom_site_type_symbol
 _atom_site_label
 _atom_site_symmetry_multiplicity
 _atom_site_fract_x
 _atom_site_fract_y
 _atom_site_fract_z
 _atom_site_occupancy
  Li  Li0  1  0.24625600  0.22626600  0.90646600  1
  Li  Li1  1  0.51606600  0.23846300  0.66841400  1
  Li  Li2  1  0.24901300  0.43188400  0.22825600  1
  Li  Li3  1  0.25495500  0.72440500  0.59499700  1
  Li  Li4  1  0.99087800  0.72801300  0.81640600  1
  Li  Li5  1  0.50555300  0.76660900  0.32742600  1
  Li  Li6  1  0.75492800  0.77698700  0.09447600  1
  Li  Li7  1  0.24148200  0.96268100  0.26676400  1
  Cr  Cr8  1  0.99776200  0.00107800  0.99736200  1
  Cr  Cr9  1  0.50454000  0.99985900  0.99674500  1
  Cr  Cr10  1  0.99350900  0.00508200  0.50283600  1
  Cr  Cr11  1  0.50090400  0.00061700  0.50200900  1
  Cr  Cr12  1  0.99695300  0.49513500  0.50172200  1
  Cr  Cr13  1  0.50370600  0.49586100  0.50263600  1
  Cr  Cr14  1  0.99969800  0.49944800  0.99972600  1
  Cr  Cr15  1  0.50657300  0.50112600  0.99665800  1
  P  P16  1  0.74546900  0.04064800  0.25907900  1
  P  P17  1  0.74717700  0.24160100  0.91719900  1
  P  P18  1  0.25023500  0.26214300  0.42948100  1
  P  P19  1  0.25893300  0.46526700  0.76261100  1
  P  P20  1  0.74415400  0.53946000  0.24108100  1
  P  P21  1  0.75341600  0.74116000  0.57846500  1
  P  P22  1  0.25623400  0.76090600  0.07691600  1
  P  P23  1  0.24057100  0.96491800  0.73744200  1
  O  O24  1  0.24849600  0.01549800  0.87583900  1
  O  O25  1  0.04025000  0.02363200  0.67834500  1
  O  O26  1  0.44729600  0.01980900  0.67823100  1
  O  O27  1  0.25061500  0.11777800  0.46747500  1
  O  O28  1  0.72795000  0.17639600  0.25189100  1
  O  O29  1  0.54327700  0.17974100  0.97534500  1
  O  O30  1  0.95516500  0.17991900  0.97124700  1
  O  O31  1  0.74041100  0.24387000  0.78253500  1
  O  O32  1  0.26364700  0.27470900  0.29505700  1
  O  O33  1  0.04447800  0.31796000  0.48716500  1
  O  O34  1  0.45073900  0.31594000  0.50121100  1
  O  O35  1  0.26697700  0.32492200  0.76141700  1
  O  O36  1  0.75277400  0.37995300  0.97307300  1
  O  O37  1  0.54538700  0.48094600  0.17605300  1
  O  O38  1  0.95524600  0.49378100  0.17949000  1
  O  O39  1  0.74713100  0.48982100  0.37638400  1
  O  O40  1  0.25299900  0.51766800  0.62573600  1
  O  O41  1  0.05414800  0.52271700  0.82382800  1
  O  O42  1  0.45988000  0.52410000  0.82314000  1
  O  O43  1  0.25359400  0.61991500  0.03508600  1
  O  O44  1  0.72623800  0.68048300  0.24058200  1
  O  O45  1  0.54544300  0.68332400  0.51489600  1
  O  O46  1  0.95882400  0.67946800  0.52305300  1
  O  O47  1  0.74808100  0.73849100  0.71346800  1
  O  O48  1  0.25719100  0.77836400  0.21309300  1
  O  O49  1  0.04751100  0.81603600  0.01560500  1
  O  O50  1  0.46089200  0.81801600  0.01806300  1
  O  O51  1  0.22946600  0.82394900  0.74054100  1
  O  O52  1  0.75031000  0.87965400  0.52642200  1
  O  O53  1  0.54748300  0.96938100  0.32119100  1
  O  O54  1  0.95099300  0.98572900  0.32244200  1
  O  O55  1  0.75211000  0.97777000  0.12224500  1
  F  F56  1  0.25127700  0.03263000  0.10531500  1
  F  F57  1  0.74220200  0.11466000  0.51361600  1
  F  F58  1  0.25156800  0.38669500  0.01466100  1
  F  F59  1  0.75001200  0.46645800  0.60794700  1
  F  F60  1  0.25227800  0.52972300  0.39356200  1
  F  F61  1  0.75694900  0.61766900  0.98727600  1
  F  F62  1  0.24793800  0.88554500  0.48635200  1
  F  F63  1  0.75201100  0.96246600  0.89294600  1
