# generated using pymatgen
data_Li2VF4
_symmetry_space_group_name_H-M   'P 1'
_cell_length_a   6.01107300
_cell_length_b   9.03566400
_cell_length_c   12.24803000
_cell_angle_alpha   90.00000000
_cell_angle_beta   90.00000000
_cell_angle_gamma   90.00000000
_symmetry_Int_Tables_number   1
_chemical_formula_structural   Li2VF4
_chemical_formula_sum   'Li16 V8 F32'
_cell_volume   665.23994122
_cell_formula_units_Z   8
loop_
 _symmetry_equiv_pos_site_id
 _symmetry_equiv_pos_as_xyz
  1  'x, y, z'
loop_
 _atom_site_type_symbol
 _atom_site_label
 _atom_site_symmetry_multiplicity
 _atom_site_fract_x
 _atom_site_fract_y
 _atom_site_fract_z
 _atom_site_occupancy
  Li  Li0  1  0.62371300  0.75511800  0.54494700  1
  Li  Li1  1  0.22244100  0.95250500  0.61068100  1
  Li  Li2  1  0.78478500  0.47082200  0.63362000  1
  Li  Li3  1  0.25605300  0.69285700  0.72480400  1
  Li  Li4  1  0.75605300  0.19285700  0.77519600  1
  Li  Li5  1  0.28478500  0.97082200  0.86638000  1
  Li  Li6  1  0.72244100  0.45250500  0.88931900  1
  Li  Li7  1  0.12371300  0.25511800  0.95505300  1
  Li  Li8  1  0.87628700  0.75511800  0.04494700  1
  Li  Li9  1  0.27755900  0.95250500  0.11068100  1
  Li  Li10  1  0.71521500  0.47082200  0.13362000  1
  Li  Li11  1  0.24394700  0.69285700  0.22480400  1
  Li  Li12  1  0.74394700  0.19285700  0.27519600  1
  Li  Li13  1  0.21521500  0.97082200  0.36638000  1
  Li  Li14  1  0.77755900  0.45250500  0.38931900  1
  Li  Li15  1  0.37628700  0.25511800  0.45505300  1
  V  V16  1  0.74831000  0.09624100  0.55210800  1
  V  V17  1  0.28806200  0.31637300  0.69336200  1
  V  V18  1  0.78806200  0.81637300  0.80663800  1
  V  V19  1  0.24831000  0.59624100  0.94789200  1
  V  V20  1  0.75169000  0.09624100  0.05210800  1
  V  V21  1  0.21193800  0.31637300  0.19336200  1
  V  V22  1  0.71193800  0.81637300  0.30663800  1
  V  V23  1  0.25169000  0.59624100  0.44789200  1
  F  F24  1  0.95751900  0.50356400  0.50467800  1
  F  F25  1  0.40149800  0.43149600  0.54623600  1
  F  F26  1  0.30998400  0.74481100  0.57969600  1
  F  F27  1  0.40220600  0.14248500  0.59096200  1
  F  F28  1  0.94386600  0.25161700  0.64982500  1
  F  F29  1  0.75286900  0.67896200  0.67009000  1
  F  F30  1  0.69078100  0.00026500  0.71241000  1
  F  F31  1  0.10870400  0.88168700  0.74978300  1
  F  F32  1  0.60870400  0.38168700  0.75021700  1
  F  F33  1  0.19078100  0.50026500  0.78759000  1
  F  F34  1  0.25286900  0.17896200  0.82991000  1
  F  F35  1  0.44386600  0.75161700  0.85017500  1
  F  F36  1  0.90220600  0.64248500  0.90903800  1
  F  F37  1  0.80998400  0.24481100  0.92030400  1
  F  F38  1  0.90149800  0.93149600  0.95376400  1
  F  F39  1  0.45751900  0.00356400  0.99532200  1
  F  F40  1  0.54248100  0.50356400  0.00467800  1
  F  F41  1  0.09850200  0.43149600  0.04623600  1
  F  F42  1  0.19001600  0.74481100  0.07969600  1
  F  F43  1  0.09779400  0.14248500  0.09096200  1
  F  F44  1  0.55613400  0.25161700  0.14982500  1
  F  F45  1  0.74713100  0.67896200  0.17009000  1
  F  F46  1  0.80921900  0.00026500  0.21241000  1
  F  F47  1  0.39129600  0.88168700  0.24978300  1
  F  F48  1  0.89129600  0.38168700  0.25021700  1
  F  F49  1  0.30921900  0.50026500  0.28759000  1
  F  F50  1  0.24713100  0.17896200  0.32991000  1
  F  F51  1  0.05613400  0.75161700  0.35017500  1
  F  F52  1  0.59779400  0.64248500  0.40903800  1
  F  F53  1  0.69001600  0.24481100  0.42030400  1
  F  F54  1  0.59850200  0.93149600  0.45376400  1
  F  F55  1  0.04248100  0.00356400  0.49532200  1
