# generated using pymatgen
data_Li8Mn7Fe(BO3)8
_symmetry_space_group_name_H-M   'P 1'
_cell_length_a   5.25051400
_cell_length_b   9.13094237
_cell_length_c   11.60981130
_cell_angle_alpha   111.48800269
_cell_angle_beta   102.28805155
_cell_angle_gamma   89.82138459
_symmetry_Int_Tables_number   1
_chemical_formula_structural   Li8Mn7Fe(BO3)8
_chemical_formula_sum   'Li8 Mn7 Fe1 B8 O24'
_cell_volume   504.32950133
_cell_formula_units_Z   1
loop_
 _symmetry_equiv_pos_site_id
 _symmetry_equiv_pos_as_xyz
  1  'x, y, z'
loop_
 _atom_site_type_symbol
 _atom_site_label
 _atom_site_symmetry_multiplicity
 _atom_site_fract_x
 _atom_site_fract_y
 _atom_site_fract_z
 _atom_site_occupancy
  Li  Li0  1  0.02889500  0.03988300  0.41723100  1
  Li  Li1  1  0.29468200  0.28446300  0.91760700  1
  Li  Li2  1  0.48045800  0.50832700  0.66771400  1
  Li  Li3  1  0.27255800  0.24388800  0.16801200  1
  Li  Li4  1  0.52912300  0.53953800  0.41790100  1
  Li  Li5  1  0.79372000  0.78505900  0.91694000  1
  Li  Li6  1  0.98115600  0.00849700  0.66832600  1
  Li  Li7  1  0.77149300  0.74553700  0.16817800  1
  Mn  Mn8  1  0.02073200  0.35371700  0.38133800  1
  Mn  Mn9  1  0.27518800  0.94070000  0.88531100  1
  Mn  Mn10  1  0.47539600  0.15479300  0.63291900  1
  Mn  Mn11  1  0.24463600  0.56497700  0.13327000  1
  Mn  Mn12  1  0.52318600  0.85625500  0.38354700  1
  Mn  Mn13  1  0.77211500  0.43921300  0.88276900  1
  Mn  Mn14  1  0.97595100  0.65483900  0.63290100  1
  Fe  Fe15  1  0.75164100  0.06467200  0.13235700  1
  B  B16  1  0.02441000  0.68502900  0.37546700  1
  B  B17  1  0.26610500  0.60548500  0.87614200  1
  B  B18  1  0.23811900  0.89532600  0.12718600  1
  B  B19  1  0.47000600  0.81426800  0.62592700  1
  B  B20  1  0.52418500  0.18482000  0.37461000  1
  B  B21  1  0.76761700  0.10548000  0.87654700  1
  B  B22  1  0.73369200  0.39070400  0.12489500  1
  B  B23  1  0.97017300  0.31437700  0.62587200  1
  O  O24  1  0.02144700  0.10980500  0.86145500  1
  O  O25  1  0.09711800  0.71234900  0.84621100  1
  O  O26  1  0.17611500  0.49420700  0.91779500  1
  O  O27  1  0.07075200  0.16971400  0.61118000  1
  O  O28  1  0.10069300  0.42448900  0.59582200  1
  O  O29  1  0.23806600  0.84983800  0.66709200  1
  O  O30  1  0.26927100  0.65405100  0.34520900  1
  O  O31  1  0.52045100  0.60998000  0.86152200  1
  O  O32  1  0.59736400  0.21139300  0.84560100  1
  O  O33  1  0.40315600  0.08515800  0.41757200  1
  O  O34  1  0.40446000  0.31466300  0.36087100  1
  O  O35  1  0.67834800  0.99525000  0.91920300  1
  O  O36  1  0.34356900  0.01451200  0.09816900  1
  O  O37  1  0.57129300  0.66993300  0.61150600  1
  O  O38  1  0.60072400  0.92449100  0.59577200  1
  O  O39  1  0.40143200  0.79350700  0.16631500  1
  O  O40  1  0.46623100  0.37029100  0.11081600  1
  O  O41  1  0.73788200  0.34981300  0.66704000  1
  O  O42  1  0.76778300  0.15281700  0.34347700  1
  O  O43  1  0.90327400  0.58433500  0.41719900  1
  O  O44  1  0.90438100  0.81444100  0.36079500  1
  O  O45  1  0.83637000  0.51191000  0.09657300  1
  O  O46  1  0.89972500  0.28981300  0.16439700  1
  O  O47  1  0.96805800  0.87659500  0.11304200  1
