# generated using pymatgen
data_Li32Ti3Cr13O48
_symmetry_space_group_name_H-M   'P 1'
_cell_length_a   5.05093700
_cell_length_b   8.73635415
_cell_length_c   19.53713293
_cell_angle_alpha   98.52491672
_cell_angle_beta   94.85465294
_cell_angle_gamma   90.11996482
_symmetry_Int_Tables_number   1
_chemical_formula_structural   Li32Ti3Cr13O48
_chemical_formula_sum   'Li32 Ti3 Cr13 O48'
_cell_volume   849.43329457
_cell_formula_units_Z   1
loop_
 _symmetry_equiv_pos_site_id
 _symmetry_equiv_pos_as_xyz
  1  'x, y, z'
loop_
 _atom_site_type_symbol
 _atom_site_label
 _atom_site_symmetry_multiplicity
 _atom_site_fract_x
 _atom_site_fract_y
 _atom_site_fract_z
 _atom_site_occupancy
  Li  Li0  1  0.99388000  0.17193900  0.24996900  1
  Li  Li1  1  0.87542900  0.37623800  0.37511200  1
  Li  Li2  1  0.74891200  0.24944700  0.00018900  1
  Li  Li3  1  0.74196800  0.91872200  0.00106000  1
  Li  Li4  1  0.99380900  0.16967900  0.75039500  1
  Li  Li5  1  0.75939600  0.58057800  0.50017500  1
  Li  Li6  1  0.87729200  0.37482800  0.87436500  1
  Li  Li7  1  0.74294700  0.25242000  0.49995800  1
  Li  Li8  1  0.74482500  0.91951600  0.49989300  1
  Li  Li9  1  0.62454500  0.12534600  0.12501900  1
  Li  Li10  1  0.75793900  0.58197500  0.00060900  1
  Li  Li11  1  0.50819300  0.33238000  0.24924700  1
  Li  Li12  1  0.62553300  0.12566600  0.62514900  1
  Li  Li13  1  0.50146600  0.99882100  0.25025600  1
  Li  Li14  1  0.49210000  0.66700500  0.24965500  1
  Li  Li15  1  0.51025100  0.33159200  0.75049900  1
  Li  Li16  1  0.37721700  0.87487800  0.37453200  1
  Li  Li17  1  0.49352700  0.00237200  0.74995800  1
  Li  Li18  1  0.24645200  0.75218700  0.00025800  1
  Li  Li19  1  0.49341200  0.66853500  0.74945700  1
  Li  Li20  1  0.24123700  0.41847900  0.99982100  1
  Li  Li21  1  0.37582500  0.87586400  0.87515500  1
  Li  Li22  1  0.25644700  0.07954500  0.49987700  1
  Li  Li23  1  0.25053400  0.74771100  0.50036800  1
  Li  Li24  1  0.12520100  0.62464900  0.12499300  1
  Li  Li25  1  0.24488700  0.42120600  0.50064000  1
  Li  Li26  1  0.00700600  0.83021400  0.25086000  1
  Li  Li27  1  0.26304200  0.07948000  0.99987700  1
  Li  Li28  1  0.12718100  0.62503700  0.62445500  1
  Li  Li29  1  0.99609200  0.49999300  0.24968000  1
  Li  Li30  1  0.00733300  0.83087200  0.75029600  1
  Li  Li31  1  0.00071200  0.49805700  0.75033300  1
  Ti  Ti32  1  0.87794500  0.03903200  0.87688300  1
  Ti  Ti33  1  0.37700700  0.53892200  0.37602200  1
  Ti  Ti34  1  0.12779800  0.28903100  0.62634900  1
  Cr  Cr35  1  0.87794400  0.71181400  0.37494400  1
  Cr  Cr36  1  0.87212600  0.04710400  0.37404700  1
  Cr  Cr37  1  0.87147200  0.70319000  0.87477600  1
  Cr  Cr38  1  0.61571600  0.78852000  0.12369400  1
  Cr  Cr39  1  0.63419800  0.46100600  0.12613500  1
  Cr  Cr40  1  0.62160100  0.79663800  0.62410100  1
  Cr  Cr41  1  0.62895500  0.46171100  0.62510800  1
  Cr  Cr42  1  0.37245400  0.20316300  0.37452400  1
  Cr  Cr43  1  0.37095500  0.54698200  0.87419900  1
  Cr  Cr44  1  0.37879700  0.21187500  0.87524500  1
  Cr  Cr45  1  0.11526600  0.96026000  0.12398800  1
  Cr  Cr46  1  0.13518500  0.28991800  0.12621100  1
  Cr  Cr47  1  0.12204100  0.95295100  0.62467300  1
  O  O48  1  0.96689300  0.10185600  0.06857500  1
  O  O49  1  0.92114300  0.78211800  0.06889700  1
  O  O50  1  0.92228600  0.42477100  0.06839600  1
  O  O51  1  0.96472500  0.10274500  0.56845600  1
  O  O52  1  0.82827000  0.96169200  0.18050400  1
  O  O53  1  0.82805700  0.32011400  0.18207000  1
  O  O54  1  0.93502000  0.78758600  0.56867800  1
  O  O55  1  0.92062400  0.42848100  0.56765300  1
  O  O56  1  0.78437800  0.63896500  0.18117100  1
  O  O57  1  0.71319000  0.86097200  0.31863500  1
  O  O58  1  0.81549800  0.95981700  0.68150000  1
  O  O59  1  0.82540700  0.32157500  0.68354600  1
  O  O60  1  0.68113600  0.53675000  0.31853000  1
  O  O61  1  0.68357600  0.17443500  0.31724900  1
  O  O62  1  0.78354600  0.64205300  0.67975500  1
  O  O63  1  0.71473800  0.85310400  0.81871000  1
  O  O64  1  0.46431200  0.61009700  0.06831700  1
  O  O65  1  0.57611800  0.71687100  0.43110300  1
  O  O66  1  0.56454100  0.07546300  0.43197700  1
  O  O67  1  0.68447300  0.53762500  0.81869000  1
  O  O68  1  0.67030200  0.17841500  0.81788200  1
  O  O69  1  0.42208000  0.92965700  0.06799800  1
  O  O70  1  0.42342300  0.28842000  0.06965400  1
  O  O71  1  0.53662000  0.39024300  0.43124400  1
  O  O72  1  0.46350400  0.61084400  0.56877300  1
  O  O73  1  0.56520500  0.70961500  0.93134500  1
  O  O74  1  0.57489200  0.07178400  0.93392200  1
  O  O75  1  0.32839500  0.82496100  0.18128100  1
  O  O76  1  0.32783000  0.46795600  0.18115400  1
  O  O77  1  0.43317900  0.92462000  0.56738600  1
  O  O78  1  0.43111100  0.28685800  0.56867800  1
  O  O79  1  0.53230600  0.39209600  0.93010500  1
  O  O80  1  0.28476700  0.14843700  0.18149300  1
  O  O81  1  0.21476400  0.35319200  0.31860600  1
  O  O82  1  0.31452900  0.82536900  0.68207400  1
  O  O83  1  0.32577200  0.46716500  0.68118100  1
  O  O84  1  0.17046600  0.67854500  0.31725200  1
  O  O85  1  0.18516800  0.03754800  0.31834800  1
  O  O86  1  0.28656400  0.14017200  0.68135300  1
  O  O87  1  0.21368500  0.36082700  0.81884600  1
  O  O88  1  0.07513900  0.57178500  0.43339300  1
  O  O89  1  0.06572600  0.21014800  0.43135900  1
  O  O90  1  0.18271800  0.67495300  0.81744200  1
  O  O91  1  0.18065300  0.03689300  0.81889800  1
  O  O92  1  0.03352200  0.89236700  0.42960000  1
  O  O93  1  0.06404900  0.57533200  0.93210200  1
  O  O94  1  0.07505400  0.21716600  0.93159900  1
  O  O95  1  0.03658000  0.89019100  0.93161300  1
