# generated using pymatgen
data_Li3MnV(PO4)3
_symmetry_space_group_name_H-M   'P 1'
_cell_length_a   8.57017900
_cell_length_b   8.73288299
_cell_length_c   12.11376287
_cell_angle_alpha   89.82269431
_cell_angle_beta   88.24107212
_cell_angle_gamma   89.25916577
_symmetry_Int_Tables_number   1
_chemical_formula_structural   Li3MnV(PO4)3
_chemical_formula_sum   'Li12 Mn4 V4 P12 O48'
_cell_volume   906.11649472
_cell_formula_units_Z   4
loop_
 _symmetry_equiv_pos_site_id
 _symmetry_equiv_pos_as_xyz
  1  'x, y, z'
loop_
 _atom_site_type_symbol
 _atom_site_label
 _atom_site_symmetry_multiplicity
 _atom_site_fract_x
 _atom_site_fract_y
 _atom_site_fract_z
 _atom_site_occupancy
  Li  Li0  1  0.93602400  0.51294400  0.34522800  1
  Li  Li1  1  0.91842200  0.08751700  0.69062200  1
  Li  Li2  1  0.82055900  0.77986700  0.17692400  1
  Li  Li3  1  0.68100000  0.27984500  0.32191200  1
  Li  Li4  1  0.57872100  0.58588800  0.80983600  1
  Li  Li5  1  0.56483600  0.01329900  0.15360800  1
  Li  Li6  1  0.43485800  0.98638800  0.84644600  1
  Li  Li7  1  0.42104500  0.41509200  0.19077100  1
  Li  Li8  1  0.31947200  0.71940700  0.67787800  1
  Li  Li9  1  0.17938600  0.22045800  0.82295300  1
  Li  Li10  1  0.08148200  0.91598300  0.30853900  1
  Li  Li11  1  0.06346000  0.48430500  0.65407200  1
  Mn  Mn12  1  0.75407500  0.46392500  0.10821100  1
  Mn  Mn13  1  0.25338200  0.47091900  0.39407200  1
  Mn  Mn14  1  0.24575700  0.53585500  0.89102600  1
  Mn  Mn15  1  0.24757000  0.96964200  0.10489900  1
  V  V16  1  0.75589800  0.02632800  0.89528400  1
  V  V17  1  0.74291500  0.52717300  0.60481000  1
  V  V18  1  0.74567300  0.96511700  0.39097200  1
  V  V19  1  0.25486700  0.03513700  0.61003600  1
  P  P20  1  0.95887700  0.24737000  0.49029200  1
  P  P21  1  0.88330800  0.38224400  0.84801400  1
  P  P22  1  0.88608700  0.11090700  0.14594900  1
  P  P23  1  0.61352800  0.88341500  0.65204000  1
  P  P24  1  0.61580800  0.61131200  0.35230700  1
  P  P25  1  0.54363200  0.74742000  0.00985600  1
  P  P26  1  0.45376700  0.24911000  0.99012500  1
  P  P27  1  0.38283500  0.38981400  0.64992700  1
  P  P28  1  0.38577000  0.11924100  0.35083100  1
  P  P29  1  0.11599200  0.88944400  0.85175200  1
  P  P30  1  0.11745800  0.62034300  0.14855900  1
  P  P31  1  0.04304300  0.74950200  0.51030900  1
  O  O32  1  0.94851400  0.89279700  0.89871700  1
  O  O33  1  0.95118500  0.86884300  0.44372100  1
  O  O34  1  0.94550300  0.66402700  0.59920400  1
  O  O35  1  0.94734600  0.58635400  0.19075300  1
  O  O36  1  0.90014100  0.35907200  0.58249300  1
  O  O37  1  0.87034500  0.20466200  0.83117900  1
  O  O38  1  0.86092100  0.41908600  0.97138000  1
  O  O39  1  0.87372400  0.99600800  0.24677200  1
  O  O40  1  0.82708600  0.27180400  0.18677500  1
  O  O41  1  0.81377300  0.17658100  0.43553600  1
  O  O42  1  0.76731500  0.47222900  0.77674400  1
  O  O43  1  0.76465300  0.04958700  0.06419200  1
  O  O44  1  0.73579300  0.54884900  0.43688000  1
  O  O45  1  0.72865500  0.97194700  0.72226100  1
  O  O46  1  0.69010100  0.67637100  0.06597800  1
  O  O47  1  0.67477300  0.77003800  0.31182200  1
  O  O48  1  0.63864200  0.92020600  0.52939200  1
  O  O49  1  0.63055300  0.49354800  0.25259800  1
  O  O50  1  0.62330400  0.70585700  0.67007700  1
  O  O51  1  0.60243800  0.86108600  0.91896600  1
  O  O52  1  0.55347100  0.16407600  0.90062800  1
  O  O53  1  0.55855500  0.08106400  0.31089500  1
  O  O54  1  0.55099900  0.39209300  0.60533300  1
  O  O55  1  0.54230300  0.36621700  0.05674800  1
  O  O56  1  0.45535700  0.62792300  0.94630500  1
  O  O57  1  0.44815200  0.61256600  0.39702800  1
  O  O58  1  0.44028900  0.92197500  0.68971900  1
  O  O59  1  0.44726700  0.83239900  0.10202400  1
  O  O60  1  0.39434000  0.13425200  0.08203800  1
  O  O61  1  0.37850400  0.29886700  0.33370800  1
  O  O62  1  0.37188600  0.50653100  0.75066000  1
  O  O63  1  0.36396500  0.08193600  0.47308300  1
  O  O64  1  0.32837600  0.22961600  0.68975400  1
  O  O65  1  0.30923500  0.32081900  0.93404200  1
  O  O66  1  0.27002100  0.03132500  0.28194200  1
  O  O67  1  0.26238100  0.45294500  0.56754800  1
  O  O68  1  0.23794600  0.95029800  0.93190800  1
  O  O69  1  0.23474000  0.53061200  0.21785500  1
  O  O70  1  0.18593400  0.82128000  0.56509400  1
  O  O71  1  0.17038700  0.72798700  0.81095500  1
  O  O72  1  0.12407500  0.00532400  0.75136200  1
  O  O73  1  0.13589500  0.58415800  0.02531700  1
  O  O74  1  0.12628900  0.80001000  0.16521400  1
  O  O75  1  0.10348500  0.63711100  0.41642000  1
  O  O76  1  0.05429400  0.41668200  0.80859600  1
  O  O77  1  0.05349800  0.33153700  0.39818100  1
  O  O78  1  0.05032100  0.12494800  0.55334000  1
  O  O79  1  0.05376300  0.11128300  0.10079800  1
