# generated using pymatgen
data_Li7V3P8O29
_symmetry_space_group_name_H-M   'P 1'
_cell_length_a   9.86702976
_cell_length_b   9.89288139
_cell_length_c   13.88665381
_cell_angle_alpha   89.69372393
_cell_angle_beta   89.70914222
_cell_angle_gamma   59.86274043
_symmetry_Int_Tables_number   1
_chemical_formula_structural   Li7V3P8O29
_chemical_formula_sum   'Li14 V6 P16 O58'
_cell_volume   1172.26897167
_cell_formula_units_Z   2
loop_
 _symmetry_equiv_pos_site_id
 _symmetry_equiv_pos_as_xyz
  1  'x, y, z'
loop_
 _atom_site_type_symbol
 _atom_site_label
 _atom_site_symmetry_multiplicity
 _atom_site_fract_x
 _atom_site_fract_y
 _atom_site_fract_z
 _atom_site_occupancy
  Li  Li0  1  0.91380000  0.77313600  0.06285200  1
  Li  Li1  1  0.76511000  0.90732700  0.56203600  1
  Li  Li2  1  0.90755500  0.32744100  0.56233500  1
  Li  Li3  1  0.66283500  0.66161700  0.38097400  1
  Li  Li4  1  0.66877900  0.66552200  0.88383900  1
  Li  Li5  1  0.77174300  0.31735900  0.06664600  1
  Li  Li6  1  0.31253900  0.91250700  0.06288400  1
  Li  Li7  1  0.32559400  0.76617800  0.56110100  1
  Li  Li8  1  0.67548000  0.09749500  0.94160500  1
  Li  Li9  1  0.22351300  0.68437700  0.94120800  1
  Li  Li10  1  0.09839700  0.66697300  0.43945400  1
  Li  Li11  1  0.23396400  0.10344400  0.43999600  1
  Li  Li12  1  0.09412000  0.22624800  0.93812900  1
  Li  Li13  1  0.94822600  0.03138700  0.49221800  1
  V  V14  1  0.56611300  0.43096200  0.25269000  1
  V  V15  1  0.43759800  0.56142200  0.74738100  1
  V  V16  1  0.56586100  0.00164300  0.74807400  1
  V  V17  1  0.43370600  0.00215100  0.25133700  1
  V  V18  1  0.00445700  0.56194900  0.24929900  1
  V  V19  1  0.99881200  0.43399000  0.74821100  1
  P  P20  1  0.90767700  0.76921100  0.84210200  1
  P  P21  1  0.77615200  0.90797500  0.34449000  1
  P  P22  1  0.91019500  0.31564600  0.34218800  1
  P  P23  1  0.66842600  0.66666400  0.12747400  1
  P  P24  1  0.66474100  0.66789800  0.62426400  1
  P  P25  1  0.76886700  0.31935800  0.84600900  1
  P  P26  1  0.69416600  0.22401600  0.65861500  1
  P  P27  1  0.32257700  0.90731800  0.84254600  1
  P  P28  1  0.68326100  0.08547900  0.15865700  1
  P  P29  1  0.31588700  0.77476200  0.34284200  1
  P  P30  1  0.23365100  0.68009600  0.15722700  1
  P  P31  1  0.33143200  0.33106700  0.37282400  1
  P  P32  1  0.33540200  0.33242500  0.87193300  1
  P  P33  1  0.08676400  0.68480800  0.65665400  1
  P  P34  1  0.22998100  0.08439900  0.65685200  1
  P  P35  1  0.08930300  0.23129200  0.15677400  1
  O  O36  1  0.99821700  0.77849500  0.56816700  1
  O  O37  1  0.92108000  0.74217800  0.34242400  1
  O  O38  1  0.75854200  0.99314800  0.06834900  1
  O  O39  1  0.74458800  0.92170400  0.84176000  1
  O  O40  1  0.87940300  0.63136200  0.82698800  1
  O  O41  1  0.81764200  0.66881900  0.16830700  1
  O  O42  1  0.89687900  0.47892300  0.33069400  1
  O  O43  1  0.99956700  0.24066900  0.06719500  1
  O  O44  1  0.91924900  0.32831500  0.84491900  1
  O  O45  1  0.67374800  0.81329400  0.66299900  1
  O  O46  1  0.62671700  0.89431600  0.33203400  1
  O  O47  1  0.80842500  0.51362400  0.65949000  1
  O  O48  1  0.66684400  0.67623900  0.01895900  1
  O  O49  1  0.65441400  0.67515900  0.51607300  1
  O  O50  1  0.67396600  0.51562200  0.16356100  1
  O  O51  1  0.48925900  0.88378000  0.82435600  1
  O  O52  1  0.51760100  0.81498600  0.16930300  1
  O  O53  1  0.74776600  0.33655500  0.34179700  1
  O  O54  1  0.78337500  0.20614800  0.75936700  1
  O  O55  1  0.80367600  0.20688600  0.57803300  1
  O  O56  1  0.74605700  0.25096200  0.93739400  1
  O  O57  1  0.62776600  0.48693000  0.82488600  1
  O  O58  1  0.51060900  0.67690000  0.66730300  1
  O  O59  1  0.67022900  0.24491100  0.15803700  1
  O  O60  1  0.48022300  0.63214800  0.33429600  1
  O  O61  1  0.33063600  0.92395200  0.34283400  1
  O  O62  1  0.79228800  0.99396500  0.25040200  1
  O  O63  1  0.78012800  0.99051600  0.43418000  1
  O  O64  1  0.23716600  0.99439500  0.56751500  1
  O  O65  1  0.66509000  0.08346200  0.65857500  1
  O  O66  1  0.54020100  0.38226500  0.66290100  1
  O  O67  1  0.33634500  0.74502500  0.84427000  1
  O  O68  1  0.47544200  0.32893700  0.33179000  1
  O  O69  1  0.37954100  0.52291500  0.17234500  1
  O  O70  1  0.23992900  0.76407500  0.06734000  1
  O  O71  1  0.22525000  0.77274300  0.43113500  1
  O  O72  1  0.21260500  0.79178400  0.24934600  1
  O  O73  1  0.25153600  0.66809400  0.65866800  1
  O  O74  1  0.48640800  0.18247100  0.83092900  1
  O  O75  1  0.52370700  0.09548000  0.17711900  1
  O  O76  1  0.33913400  0.48001300  0.82355800  1
  O  O77  1  0.34272000  0.34225100  0.97848500  1
  O  O78  1  0.31087700  0.33552200  0.47960000  1
  O  O79  1  0.17988600  0.48451900  0.32937300  1
  O  O80  1  0.38353800  0.08891200  0.67243300  1
  O  O81  1  0.32360700  0.18452700  0.33149800  1
  O  O82  1  0.08344500  0.66787600  0.15847800  1
  O  O83  1  0.99796800  0.78975000  0.75104800  1
  O  O84  1  0.00032700  0.75416300  0.93133200  1
  O  O85  1  0.09443500  0.52888100  0.66704900  1
  O  O86  1  0.18846700  0.33115800  0.83482800  1
  O  O87  1  0.10090500  0.37877200  0.17155400  1
  O  O88  1  0.25257300  0.08237700  0.15816000  1
  O  O89  1  0.24682600  0.00143800  0.93163500  1
  O  O90  1  0.21441700  0.99572300  0.75093300  1
  O  O91  1  0.08539900  0.24678500  0.65690600  1
  O  O92  1  0.00198200  0.22744800  0.43135500  1
  O  O93  1  0.00151500  0.21090800  0.24958900  1
