# generated using pymatgen
data_Li4Ti2V7O18
_symmetry_space_group_name_H-M   'P 1'
_cell_length_a   2.96809100
_cell_length_b   9.11047800
_cell_length_c   25.12551800
_cell_angle_alpha   90.00000000
_cell_angle_beta   90.00000000
_cell_angle_gamma   90.00000000
_symmetry_Int_Tables_number   1
_chemical_formula_structural   Li4Ti2V7O18
_chemical_formula_sum   'Li8 Ti4 V14 O36'
_cell_volume   679.41229200
_cell_formula_units_Z   2
loop_
 _symmetry_equiv_pos_site_id
 _symmetry_equiv_pos_as_xyz
  1  'x, y, z'
loop_
 _atom_site_type_symbol
 _atom_site_label
 _atom_site_symmetry_multiplicity
 _atom_site_fract_x
 _atom_site_fract_y
 _atom_site_fract_z
 _atom_site_occupancy
  Li  Li0  1  0.50000000  0.94254400  0.98901000  1
  Li  Li1  1  0.50000000  0.93422600  0.19522800  1
  Li  Li2  1  0.50000000  0.06577400  0.69522800  1
  Li  Li3  1  0.50000000  0.05745600  0.48901000  1
  Li  Li4  1  0.50000000  0.44406000  0.51059300  1
  Li  Li5  1  0.50000000  0.43982100  0.30791000  1
  Li  Li6  1  0.50000000  0.56017900  0.80791000  1
  Li  Li7  1  0.50000000  0.55594000  0.01059300  1
  Ti  Ti8  1  0.50000000  0.73948300  0.10189300  1
  Ti  Ti9  1  0.50000000  0.26051700  0.60189300  1
  Ti  Ti10  1  0.50000000  0.24567600  0.39873900  1
  Ti  Ti11  1  0.50000000  0.75432400  0.89873900  1
  V  V12  1  0.50000000  0.75050800  0.50027600  1
  V  V13  1  0.50000000  0.76250700  0.30854000  1
  V  V14  1  0.00000000  0.90539900  0.58552500  1
  V  V15  1  0.00000000  0.90057900  0.80480800  1
  V  V16  1  0.00000000  0.09942100  0.30480800  1
  V  V17  1  0.00000000  0.09460100  0.08552500  1
  V  V18  1  0.50000000  0.23749300  0.80854000  1
  V  V19  1  0.50000000  0.24949200  0.00027600  1
  V  V20  1  0.50000000  0.26372000  0.18994000  1
  V  V21  1  0.00000000  0.40259500  0.91434700  1
  V  V22  1  0.00000000  0.40058000  0.69512600  1
  V  V23  1  0.00000000  0.59942000  0.19512600  1
  V  V24  1  0.00000000  0.59740500  0.41434700  1
  V  V25  1  0.50000000  0.73628000  0.68994000  1
  O  O26  1  0.50000000  0.74717800  0.42440900  1
  O  O27  1  0.50000000  0.75575800  0.57553900  1
  O  O28  1  0.00000000  0.81477800  0.94192700  1
  O  O29  1  0.00000000  0.79141200  0.15914500  1
  O  O30  1  0.00000000  0.86594700  0.66323700  1
  O  O31  1  0.50000000  0.85151700  0.75606400  1
  O  O32  1  0.00000000  0.89959800  0.50378300  1
  O  O33  1  0.00000000  0.89367500  0.28505400  1
  O  O34  1  0.50000000  0.94070100  0.85428700  1
  O  O35  1  0.50000000  0.94550600  0.08387700  1
  O  O36  1  0.50000000  0.05449400  0.58387700  1
  O  O37  1  0.50000000  0.05929900  0.35428700  1
  O  O38  1  0.00000000  0.10632500  0.78505400  1
  O  O39  1  0.00000000  0.10040200  0.00378300  1
  O  O40  1  0.50000000  0.14848300  0.25606400  1
  O  O41  1  0.00000000  0.13405300  0.16323700  1
  O  O42  1  0.00000000  0.20858800  0.65914500  1
  O  O43  1  0.00000000  0.18522200  0.44192700  1
  O  O44  1  0.50000000  0.24424200  0.07553900  1
  O  O45  1  0.50000000  0.25282200  0.92440900  1
  O  O46  1  0.00000000  0.31535200  0.55819700  1
  O  O47  1  0.00000000  0.29439400  0.34235600  1
  O  O48  1  0.00000000  0.36860600  0.83615500  1
  O  O49  1  0.50000000  0.34977900  0.74151200  1
  O  O50  1  0.00000000  0.39864400  0.99632000  1
  O  O51  1  0.00000000  0.39641300  0.21430000  1
  O  O52  1  0.50000000  0.44170100  0.64394500  1
  O  O53  1  0.50000000  0.44737200  0.41703700  1
  O  O54  1  0.50000000  0.55262800  0.91703700  1
  O  O55  1  0.50000000  0.55829900  0.14394500  1
  O  O56  1  0.00000000  0.60358700  0.71430000  1
  O  O57  1  0.00000000  0.60135600  0.49632000  1
  O  O58  1  0.50000000  0.65022100  0.24151200  1
  O  O59  1  0.00000000  0.63139400  0.33615500  1
  O  O60  1  0.00000000  0.70560600  0.84235600  1
  O  O61  1  0.00000000  0.68464800  0.05819700  1
