# generated using pymatgen
data_Li8TiMn3(PO4)6
_symmetry_space_group_name_H-M   'P 1'
_cell_length_a   9.34681376
_cell_length_b   8.43767068
_cell_length_c   8.48973422
_cell_angle_alpha   60.68862144
_cell_angle_beta   63.18558168
_cell_angle_gamma   90.30084115
_symmetry_Int_Tables_number   1
_chemical_formula_structural   Li8TiMn3(PO4)6
_chemical_formula_sum   'Li8 Ti1 Mn3 P6 O24'
_cell_volume   498.57357588
_cell_formula_units_Z   1
loop_
 _symmetry_equiv_pos_site_id
 _symmetry_equiv_pos_as_xyz
  1  'x, y, z'
loop_
 _atom_site_type_symbol
 _atom_site_label
 _atom_site_symmetry_multiplicity
 _atom_site_fract_x
 _atom_site_fract_y
 _atom_site_fract_z
 _atom_site_occupancy
  Li  Li0  1  0.86348466  0.26401630  0.80930134  1
  Li  Li1  1  0.90102780  0.93842863  0.36881271  1
  Li  Li2  1  0.85416012  0.66256778  0.06891026  1
  Li  Li3  1  0.59377938  0.79888419  0.66725252  1
  Li  Li4  1  0.41447963  0.19901624  0.33025385  1
  Li  Li5  1  0.14684972  0.34471463  0.92197322  1
  Li  Li6  1  0.09510503  0.05672166  0.63739598  1
  Li  Li7  1  0.13681794  0.73576293  0.20030072  1
  Ti  Ti8  1  0.03431407  0.35346757  0.30672776  1
  Mn  Mn9  1  0.96865298  0.64956110  0.68899172  1
  Mn  Mn10  1  0.43891006  0.15008836  0.71093728  1
  Mn  Mn11  1  0.56234704  0.84984799  0.28576953  1
  P  P12  1  0.75215085  0.95541847  0.77957087  1
  P  P13  1  0.75080251  0.53956769  0.50987518  1
  P  P14  1  0.75961685  0.25243090  0.19849202  1
  P  P15  1  0.23871929  0.74868588  0.81358559  1
  P  P16  1  0.24735472  0.44577455  0.49510827  1
  P  P17  1  0.24796850  0.05881899  0.20523667  1
  O  O18  1  0.89354866  0.15865029  0.62745103  1
  O  O19  1  0.81155407  0.49153400  0.66455842  1
  O  O20  1  0.81004968  0.84300451  0.67240430  1
  O  O21  1  0.89919483  0.53810493  0.31176045  1
  O  O22  1  0.89961860  0.21092411  0.26422989  1
  O  O23  1  0.73909586  0.74790978  0.41602232  1
  O  O24  1  0.58392407  0.97543779  0.80301547  1
  O  O25  1  0.59024899  0.40249962  0.60150493  1
  O  O26  1  0.81615342  0.46624360  0.02976771  1
  O  O27  1  0.75934084  0.13005697  0.11051521  1
  O  O28  1  0.58887835  0.19180679  0.39349819  1
  O  O29  1  0.75153505  0.86273415  0.98816514  1
  O  O30  1  0.26798804  0.16599581  0.98600008  1
  O  O31  1  0.40621411  0.77864547  0.63131937  1
  O  O32  1  0.25422011  0.86296560  0.90362728  1
  O  O33  1  0.16790401  0.52733167  0.99909873  1
  O  O34  1  0.40398322  0.60519185  0.37416956  1
  O  O35  1  0.40870895  0.04046002  0.21075073  1
  O  O36  1  0.27631131  0.24697650  0.56071977  1
  O  O37  1  0.10248868  0.79720510  0.75383768  1
  O  O38  1  0.10406198  0.42841819  0.69721263  1
  O  O39  1  0.17517426  0.17574505  0.31188196  1
  O  O40  1  0.17185354  0.48430224  0.34797030  1
  O  O41  1  0.11140721  0.86408008  0.34202135  1
