# generated using pymatgen
data_Li4Ti2Cu3Sb3O16
_symmetry_space_group_name_H-M   'P 1'
_cell_length_a   6.18106425
_cell_length_b   6.18106425
_cell_length_c   9.83768158
_cell_angle_alpha   86.79235739
_cell_angle_beta   86.79235739
_cell_angle_gamma   58.66679803
_symmetry_Int_Tables_number   1
_chemical_formula_structural   Li4Ti2Cu3Sb3O16
_chemical_formula_sum   'Li4 Ti2 Cu3 Sb3 O16'
_cell_volume   320.37667942
_cell_formula_units_Z   1
loop_
 _symmetry_equiv_pos_site_id
 _symmetry_equiv_pos_as_xyz
  1  'x, y, z'
loop_
 _atom_site_type_symbol
 _atom_site_label
 _atom_site_symmetry_multiplicity
 _atom_site_fract_x
 _atom_site_fract_y
 _atom_site_fract_z
 _atom_site_occupancy
  Li  Li0  1  0.67583300  0.67583300  0.90514600  1
  Li  Li1  1  0.00849600  0.00849600  0.00135700  1
  Li  Li2  1  0.01825100  0.01825100  0.47829500  1
  Li  Li3  1  0.33147600  0.33147600  0.39248200  1
  Ti  Ti4  1  0.63793900  0.63793900  0.46597700  1
  Ti  Ti5  1  0.32108300  0.32108300  0.00486400  1
  Cu  Cu6  1  0.82243700  0.33499900  0.20708600  1
  Cu  Cu7  1  0.33499900  0.82243700  0.20708600  1
  Cu  Cu8  1  0.17075600  0.17075600  0.71172700  1
  Sb  Sb9  1  0.82527800  0.82527800  0.21833900  1
  Sb  Sb10  1  0.66518800  0.16940600  0.71628300  1
  Sb  Sb11  1  0.16940600  0.66518800  0.71628300  1
  O  O12  1  0.81325800  0.32930200  0.59038900  1
  O  O13  1  0.51430400  0.51430400  0.35347800  1
  O  O14  1  0.66904900  0.66904900  0.11509500  1
  O  O15  1  0.99453000  0.99453000  0.29255300  1
  O  O16  1  0.00170400  0.00170400  0.81261200  1
  O  O17  1  0.32930200  0.81325800  0.59038900  1
  O  O18  1  0.96230100  0.53683500  0.35841400  1
  O  O19  1  0.53683500  0.96230100  0.35841400  1
  O  O20  1  0.16917000  0.16917000  0.08258200  1
  O  O21  1  0.84990000  0.84990000  0.60802800  1
  O  O22  1  0.50315300  0.04433000  0.84885400  1
  O  O23  1  0.04433000  0.50315300  0.84885400  1
  O  O24  1  0.33977900  0.33977900  0.60778500  1
  O  O25  1  0.65321300  0.14474000  0.09184300  1
  O  O26  1  0.48904600  0.48904600  0.83183800  1
  O  O27  1  0.14474000  0.65321300  0.09184300  1
