# generated using pymatgen
data_Li4V2Cr3Sb3O16
_symmetry_space_group_name_H-M   'P 1'
_cell_length_a   6.07805000
_cell_length_b   6.17155639
_cell_length_c   9.73412577
_cell_angle_alpha   90.47524007
_cell_angle_beta   90.31451214
_cell_angle_gamma   118.93959958
_symmetry_Int_Tables_number   1
_chemical_formula_structural   Li4V2Cr3Sb3O16
_chemical_formula_sum   'Li4 V2 Cr3 Sb3 O16'
_cell_volume   319.51267939
_cell_formula_units_Z   1
loop_
 _symmetry_equiv_pos_site_id
 _symmetry_equiv_pos_as_xyz
  1  'x, y, z'
loop_
 _atom_site_type_symbol
 _atom_site_label
 _atom_site_symmetry_multiplicity
 _atom_site_fract_x
 _atom_site_fract_y
 _atom_site_fract_z
 _atom_site_occupancy
  Li  Li0  1  0.32154500  0.65004000  0.90156100  1
  Li  Li1  1  0.99300700  0.01919500  0.00140500  1
  Li  Li2  1  0.99133100  0.02005900  0.49172400  1
  Li  Li3  1  0.66375100  0.33165000  0.38064500  1
  V  V4  1  0.35401500  0.67756800  0.48184900  1
  V  V5  1  0.67439100  0.31733300  0.99096900  1
  Cr  Cr6  1  0.17071200  0.33883100  0.21602800  1
  Cr  Cr7  1  0.66306500  0.82961800  0.21302300  1
  Cr  Cr8  1  0.82867300  0.16802100  0.71276900  1
  Sb  Sb9  1  0.16857300  0.83015200  0.21202800  1
  Sb  Sb10  1  0.34149800  0.17148700  0.71508900  1
  Sb  Sb11  1  0.83296800  0.66379800  0.71373800  1
  O  O12  1  0.17117400  0.32988400  0.60383000  1
  O  O13  1  0.48544300  0.52769300  0.33515500  1
  O  O14  1  0.33085700  0.66207600  0.10653300  1
  O  O15  1  0.00324500  0.00264100  0.30927600  1
  O  O16  1  0.01520300  0.02620600  0.81602500  1
  O  O17  1  0.67456400  0.85931600  0.58855500  1
  O  O18  1  0.04594800  0.52976000  0.33875100  1
  O  O19  1  0.47850200  0.95913300  0.33521800  1
  O  O20  1  0.83292600  0.16251600  0.10814100  1
  O  O21  1  0.18049000  0.86108700  0.59364200  1
  O  O22  1  0.51583200  0.02761300  0.83396300  1
  O  O23  1  0.95207100  0.45087400  0.85075600  1
  O  O24  1  0.64929000  0.30227700  0.59576800  1
  O  O25  1  0.32001600  0.15021500  0.10402000  1
  O  O26  1  0.49257900  0.44720400  0.85858700  1
  O  O27  1  0.84803100  0.68345600  0.09879000  1
