# generated using pymatgen
data_Li4Ni3(SnO5)2
_symmetry_space_group_name_H-M   'P 1'
_cell_length_a   6.65236200
_cell_length_b   8.00240309
_cell_length_c   8.06080855
_cell_angle_alpha   94.94727294
_cell_angle_beta   113.83484389
_cell_angle_gamma   90.71843534
_symmetry_Int_Tables_number   1
_chemical_formula_structural   Li4Ni3(SnO5)2
_chemical_formula_sum   'Li8 Ni6 Sn4 O20'
_cell_volume   390.52722359
_cell_formula_units_Z   2
loop_
 _symmetry_equiv_pos_site_id
 _symmetry_equiv_pos_as_xyz
  1  'x, y, z'
loop_
 _atom_site_type_symbol
 _atom_site_label
 _atom_site_symmetry_multiplicity
 _atom_site_fract_x
 _atom_site_fract_y
 _atom_site_fract_z
 _atom_site_occupancy
  Li  Li0  1  0.12077300  0.69293600  0.81283800  1
  Li  Li1  1  0.81141800  0.60473300  0.39555600  1
  Li  Li2  1  0.24995400  0.75815800  0.47863600  1
  Li  Li3  1  0.75004600  0.24184200  0.52136400  1
  Li  Li4  1  0.18858200  0.39526700  0.60444400  1
  Li  Li5  1  0.87922700  0.30706400  0.18716200  1
  Li  Li6  1  0.33050400  0.09608500  0.41172400  1
  Li  Li7  1  0.66949600  0.90391500  0.58827600  1
  Ni  Ni8  1  0.94663700  0.65793100  0.09801500  1
  Ni  Ni9  1  0.05336300  0.34206900  0.90198500  1
  Ni  Ni10  1  0.50000000  0.50000000  0.00000000  1
  Ni  Ni11  1  0.00000000  0.00000000  0.00000000  1
  Ni  Ni12  1  0.45390700  0.15225200  0.09805600  1
  Ni  Ni13  1  0.54609300  0.84774800  0.90194400  1
  Sn  Sn14  1  0.34599300  0.45788200  0.29712100  1
  Sn  Sn15  1  0.65400700  0.54211800  0.70287900  1
  Sn  Sn16  1  0.82936200  0.94952100  0.30168800  1
  Sn  Sn17  1  0.17063800  0.05047900  0.69831200  1
  O  O18  1  0.78454900  0.45418200  0.96570200  1
  O  O19  1  0.93262400  0.45502000  0.67941100  1
  O  O20  1  0.06737600  0.54498000  0.32058900  1
  O  O21  1  0.39591400  0.61019800  0.77761000  1
  O  O22  1  0.54139700  0.66177100  0.46792700  1
  O  O23  1  0.21545100  0.54581800  0.03429800  1
  O  O24  1  0.91371800  0.13135400  0.77748400  1
  O  O25  1  0.67448500  0.72676000  0.13772200  1
  O  O26  1  0.32551500  0.27324000  0.86227800  1
  O  O27  1  0.03926200  0.16195900  0.45552700  1
  O  O28  1  0.45860300  0.33822900  0.53207300  1
  O  O29  1  0.17057000  0.23581400  0.12937400  1
  O  O30  1  0.82943000  0.76418600  0.87062600  1
  O  O31  1  0.60408600  0.38980200  0.22239000  1
  O  O32  1  0.26799100  0.93514500  0.94045200  1
  O  O33  1  0.96073800  0.83804100  0.54447300  1
  O  O34  1  0.08628200  0.86864600  0.22251600  1
  O  O35  1  0.42436500  0.94603100  0.65715200  1
  O  O36  1  0.57563500  0.05396900  0.34284800  1
  O  O37  1  0.73200900  0.06485500  0.05954800  1
