# generated using pymatgen
data_LiMnF3
_symmetry_space_group_name_H-M   'P 1'
_cell_length_a   8.98355855
_cell_length_b   8.98355855
_cell_length_c   8.98355846
_cell_angle_alpha   112.27347105
_cell_angle_beta   112.27347105
_cell_angle_gamma   112.27347193
_symmetry_Int_Tables_number   1
_chemical_formula_structural   LiMnF3
_chemical_formula_sum   'Li6 Mn6 F18'
_cell_volume   491.78593982
_cell_formula_units_Z   6
loop_
 _symmetry_equiv_pos_site_id
 _symmetry_equiv_pos_as_xyz
  1  'x, y, z'
loop_
 _atom_site_type_symbol
 _atom_site_label
 _atom_site_symmetry_multiplicity
 _atom_site_fract_x
 _atom_site_fract_y
 _atom_site_fract_z
 _atom_site_occupancy
  Li  Li0  1  0.91564400  0.06452900  0.71769100  1
  Li  Li1  1  0.93547100  0.28230900  0.08435600  1
  Li  Li2  1  0.28230900  0.08435600  0.93547100  1
  Li  Li3  1  0.71769100  0.91564400  0.06452900  1
  Li  Li4  1  0.06452900  0.71769100  0.91564400  1
  Li  Li5  1  0.08435600  0.93547100  0.28230900  1
  Mn  Mn6  1  0.00614200  0.31456900  0.48322700  1
  Mn  Mn7  1  0.51677300  0.99385800  0.68543100  1
  Mn  Mn8  1  0.68543100  0.51677300  0.99385800  1
  Mn  Mn9  1  0.31456900  0.48322700  0.00614200  1
  Mn  Mn10  1  0.48322700  0.00614200  0.31456900  1
  Mn  Mn11  1  0.99385800  0.68543100  0.51677300  1
  F  F12  1  0.98890700  0.89521000  0.70963400  1
  F  F13  1  0.69136400  0.08466700  0.26010500  1
  F  F14  1  0.10479000  0.29036600  0.01109300  1
  F  F15  1  0.64102500  0.96525200  0.52762900  1
  F  F16  1  0.03474800  0.47237100  0.35897500  1
  F  F17  1  0.73989500  0.30863600  0.91533300  1
  F  F18  1  0.91533300  0.73989500  0.30863600  1
  F  F19  1  0.29036600  0.01109300  0.10479000  1
  F  F20  1  0.47237100  0.35897500  0.03474800  1
  F  F21  1  0.52762900  0.64102500  0.96525200  1
  F  F22  1  0.70963400  0.98890700  0.89521000  1
  F  F23  1  0.08466700  0.26010500  0.69136400  1
  F  F24  1  0.26010500  0.69136400  0.08466700  1
  F  F25  1  0.96525200  0.52762900  0.64102500  1
  F  F26  1  0.35897500  0.03474800  0.47237100  1
  F  F27  1  0.89521000  0.70963400  0.98890700  1
  F  F28  1  0.30863600  0.91533300  0.73989500  1
  F  F29  1  0.01109300  0.10479000  0.29036600  1
