# generated using pymatgen
data_Li4CoO4
_symmetry_space_group_name_H-M   'P 1'
_cell_length_a   5.25848500
_cell_length_b   9.21117100
_cell_length_c   15.98984335
_cell_angle_alpha   88.02669158
_cell_angle_beta   90.00000000
_cell_angle_gamma   90.00000000
_symmetry_Int_Tables_number   1
_chemical_formula_structural   Li4CoO4
_chemical_formula_sum   'Li32 Co8 O32'
_cell_volume   774.03762217
_cell_formula_units_Z   8
loop_
 _symmetry_equiv_pos_site_id
 _symmetry_equiv_pos_as_xyz
  1  'x, y, z'
loop_
 _atom_site_type_symbol
 _atom_site_label
 _atom_site_symmetry_multiplicity
 _atom_site_fract_x
 _atom_site_fract_y
 _atom_site_fract_z
 _atom_site_occupancy
  Li  Li0  1  0.90459200  0.84795800  0.35143600  1
  Li  Li1  1  0.09540800  0.84795800  0.85143600  1
  Li  Li2  1  0.64177700  0.80634000  0.16162300  1
  Li  Li3  1  0.35822300  0.80634000  0.66162300  1
  Li  Li4  1  0.30011300  0.75128400  0.28469800  1
  Li  Li5  1  0.69988700  0.75128400  0.78469800  1
  Li  Li6  1  0.19616200  0.72026200  0.48349700  1
  Li  Li7  1  0.80383800  0.72026200  0.98349700  1
  Li  Li8  1  0.88455900  0.61272700  0.24285300  1
  Li  Li9  1  0.11544100  0.61272700  0.74285300  1
  Li  Li10  1  0.62294300  0.64009600  0.41299300  1
  Li  Li11  1  0.37705700  0.64009600  0.91299300  1
  Li  Li12  1  0.18346300  0.45292900  0.05468300  1
  Li  Li13  1  0.81653700  0.45292900  0.55468300  1
  Li  Li14  1  0.64534700  0.41793100  0.74601300  1
  Li  Li15  1  0.35465300  0.41793100  0.24601300  1
  Li  Li16  1  0.63751000  0.32345200  0.00248300  1
  Li  Li17  1  0.36249000  0.32345200  0.50248300  1
  Li  Li18  1  0.86692600  0.31763000  0.17535600  1
  Li  Li19  1  0.13307400  0.31763000  0.67535600  1
  Li  Li20  1  0.69151300  0.29879900  0.35987600  1
  Li  Li21  1  0.30848700  0.29879900  0.85987600  1
  Li  Li22  1  0.16342200  0.19393500  0.35131500  1
  Li  Li23  1  0.83657800  0.19393500  0.85131500  1
  Li  Li24  1  0.35234600  0.16088900  0.17096800  1
  Li  Li25  1  0.64765400  0.16088900  0.67096800  1
  Li  Li26  1  0.14052700  0.14274200  0.99452800  1
  Li  Li27  1  0.85947300  0.14274200  0.49452800  1
  Li  Li28  1  0.20216800  0.05469100  0.74171200  1
  Li  Li29  1  0.79783200  0.05469100  0.24171200  1
  Li  Li30  1  0.33300800  0.01897900  0.55192800  1
  Li  Li31  1  0.66699200  0.01897900  0.05192800  1
  Co  Co32  1  0.08967900  0.93497000  0.13591900  1
  Co  Co33  1  0.91032100  0.93497000  0.63591900  1
  Co  Co34  1  0.59871800  0.53546900  0.12075900  1
  Co  Co35  1  0.40128200  0.53546900  0.62075900  1
  Co  Co36  1  0.09980300  0.46368900  0.38350300  1
  Co  Co37  1  0.90019700  0.46368900  0.88350300  1
  Co  Co38  1  0.44301800  0.03116900  0.87671300  1
  Co  Co39  1  0.55698200  0.03116900  0.37671300  1
  O  O40  1  0.42701700  0.96197000  0.13487100  1
  O  O41  1  0.57298300  0.96197000  0.63487100  1
  O  O42  1  0.03569700  0.84026600  0.72955200  1
  O  O43  1  0.96430300  0.84026600  0.22955200  1
  O  O44  1  0.50522800  0.84081900  0.37010100  1
  O  O45  1  0.49477200  0.84081900  0.87010100  1
  O  O46  1  0.92251300  0.87020200  0.04926600  1
  O  O47  1  0.07748700  0.87020200  0.54926600  1
  O  O48  1  0.50544700  0.61398000  0.52497800  1
  O  O49  1  0.49455300  0.61398000  0.02497800  1
  O  O50  1  0.99805600  0.65118500  0.88102700  1
  O  O51  1  0.00194400  0.65118500  0.38102700  1
  O  O52  1  0.50505300  0.62481600  0.21569900  1
  O  O53  1  0.49494700  0.62481600  0.71569900  1
  O  O54  1  0.93686200  0.51870800  0.13039800  1
  O  O55  1  0.06313800  0.51870800  0.63039800  1
  O  O56  1  0.43846600  0.44522500  0.37952500  1
  O  O57  1  0.56153400  0.44522500  0.87952500  1
  O  O58  1  0.00766500  0.37262100  0.79002400  1
  O  O59  1  0.99233500  0.37262100  0.29002400  1
  O  O60  1  0.47351200  0.34871400  0.12625200  1
  O  O61  1  0.52648800  0.34871400  0.62625200  1
  O  O62  1  0.01715300  0.34359900  0.96673000  1
  O  O63  1  0.98284700  0.34359900  0.46673000  1
  O  O64  1  0.46828200  0.13693800  0.46466700  1
  O  O65  1  0.53171800  0.13693800  0.96466700  1
  O  O66  1  0.02480600  0.12618600  0.64067000  1
  O  O67  1  0.97519400  0.12618600  0.14067000  1
  O  O68  1  0.52591400  0.15191600  0.78733300  1
  O  O69  1  0.47408600  0.15191600  0.28733300  1
  O  O70  1  0.09818300  0.05548900  0.87322800  1
  O  O71  1  0.90181700  0.05548900  0.37322800  1
