# generated using pymatgen
data_Li4CuSi2O7
_symmetry_space_group_name_H-M   'P 1'
_cell_length_a   7.13640048
_cell_length_b   7.13640048
_cell_length_c   8.15404591
_cell_angle_alpha   86.66615672
_cell_angle_beta   86.66615672
_cell_angle_gamma   44.88313795
_symmetry_Int_Tables_number   1
_chemical_formula_structural   Li4CuSi2O7
_chemical_formula_sum   'Li8 Cu2 Si4 O14'
_cell_volume   292.46078157
_cell_formula_units_Z   2
loop_
 _symmetry_equiv_pos_site_id
 _symmetry_equiv_pos_as_xyz
  1  'x, y, z'
loop_
 _atom_site_type_symbol
 _atom_site_label
 _atom_site_symmetry_multiplicity
 _atom_site_fract_x
 _atom_site_fract_y
 _atom_site_fract_z
 _atom_site_occupancy
  Li  Li0  1  0.41354100  0.73522700  0.12321500  1
  Li  Li1  1  0.73522700  0.41354100  0.62321500  1
  Li  Li2  1  0.53637900  0.87983100  0.40640200  1
  Li  Li3  1  0.87983100  0.53637900  0.90640200  1
  Li  Li4  1  0.42866300  0.12796200  0.05383400  1
  Li  Li5  1  0.12796200  0.42866300  0.55383400  1
  Li  Li6  1  0.81487400  0.18173500  0.98056500  1
  Li  Li7  1  0.18173400  0.81487400  0.48056500  1
  Cu  Cu8  1  0.01720400  0.68303100  0.20347100  1
  Cu  Cu9  1  0.68303100  0.01720400  0.70347100  1
  Si  Si10  1  0.96704800  0.30940700  0.25991000  1
  Si  Si11  1  0.30940700  0.96704800  0.75991000  1
  Si  Si12  1  0.59997900  0.24976400  0.33042800  1
  Si  Si13  1  0.24976400  0.59997900  0.83042800  1
  O  O14  1  0.84331100  0.21901800  0.39342500  1
  O  O15  1  0.21901800  0.84331100  0.89342500  1
  O  O16  1  0.79212600  0.42818000  0.09479600  1
  O  O17  1  0.42818000  0.79212600  0.59479600  1
  O  O18  1  0.28100000  0.04901200  0.22677300  1
  O  O19  1  0.04901200  0.28100000  0.72677300  1
  O  O20  1  0.91420100  0.54076200  0.35777200  1
  O  O21  1  0.54076200  0.91420100  0.85777200  1
  O  O22  1  0.53225700  0.14349900  0.48134300  1
  O  O23  1  0.14349900  0.53225700  0.98134300  1
  O  O24  1  0.70584400  0.07123200  0.16590700  1
  O  O25  1  0.07123200  0.70584400  0.66590700  1
  O  O26  1  0.33656600  0.56736400  0.29247800  1
  O  O27  1  0.56736400  0.33656600  0.79247800  1
