# generated using pymatgen
data_Li3Mn3(PO4)4
_symmetry_space_group_name_H-M   'P 1'
_cell_length_a   8.71138000
_cell_length_b   8.97390516
_cell_length_c   9.93496780
_cell_angle_alpha   104.76444421
_cell_angle_beta   107.35837833
_cell_angle_gamma   110.64349870
_symmetry_Int_Tables_number   1
_chemical_formula_structural   Li3Mn3(PO4)4
_chemical_formula_sum   'Li6 Mn6 P8 O32'
_cell_volume   634.84562045
_cell_formula_units_Z   2
loop_
 _symmetry_equiv_pos_site_id
 _symmetry_equiv_pos_as_xyz
  1  'x, y, z'
loop_
 _atom_site_type_symbol
 _atom_site_label
 _atom_site_symmetry_multiplicity
 _atom_site_fract_x
 _atom_site_fract_y
 _atom_site_fract_z
 _atom_site_occupancy
  Li  Li0  1  0.95748500  0.52020900  0.21506200  1
  Li  Li1  1  0.64792100  0.62022100  0.16452600  1
  Li  Li2  1  0.72482700  0.66339600  0.71210300  1
  Li  Li3  1  0.27517300  0.33660400  0.28789700  1
  Li  Li4  1  0.35207900  0.37977900  0.83547400  1
  Li  Li5  1  0.04251500  0.47979100  0.78493800  1
  Mn  Mn6  1  0.19397900  0.92923800  0.42130700  1
  Mn  Mn7  1  0.16477100  0.91494100  0.85184400  1
  Mn  Mn8  1  0.51669700  0.95663000  0.73795800  1
  Mn  Mn9  1  0.48330300  0.04337000  0.26204200  1
  Mn  Mn10  1  0.83522900  0.08505900  0.14815600  1
  Mn  Mn11  1  0.80602100  0.07076200  0.57869300  1
  P  P12  1  0.41062300  0.73208200  0.39611500  1
  P  P13  1  0.99028300  0.81057300  0.08246800  1
  P  P14  1  0.44687400  0.77042800  0.95574100  1
  P  P15  1  0.92812400  0.75229800  0.51666600  1
  P  P16  1  0.07187600  0.24770200  0.48333400  1
  P  P17  1  0.55312600  0.22957200  0.04425900  1
  P  P18  1  0.00971700  0.18942700  0.91753200  1
  P  P19  1  0.58937700  0.26791800  0.60388500  1
  O  O20  1  0.18971100  0.93404100  0.21616200  1
  O  O21  1  0.56595000  0.93785300  0.11573800  1
  O  O22  1  0.14223200  0.87481300  0.58744300  1
  O  O23  1  0.52379000  0.90338500  0.37793700  1
  O  O24  1  0.21701100  0.71686500  0.35703200  1
  O  O25  1  0.86624200  0.88075700  0.13586900  1
  O  O26  1  0.50379200  0.77654700  0.57228400  1
  O  O27  1  0.24904100  0.74697800  0.89022000  1
  O  O28  1  0.83320900  0.86912200  0.52373900  1
  O  O29  1  0.54434600  0.81564200  0.85195400  1
  O  O30  1  0.41051100  0.57121000  0.30396600  1
  O  O31  1  0.92317500  0.62497900  0.06379700  1
  O  O32  1  0.86089600  0.63876800  0.34743700  1
  O  O33  1  0.08856100  0.32939400  0.36674000  1
  O  O34  1  0.98437300  0.83315000  0.93122700  1
  O  O35  1  0.55013000  0.38465200  0.01731100  1
  O  O36  1  0.44987000  0.61534800  0.98268900  1
  O  O37  1  0.01562700  0.16685000  0.06877300  1
  O  O38  1  0.91143900  0.67060600  0.63326000  1
  O  O39  1  0.13910400  0.36123200  0.65256300  1
  O  O40  1  0.07682500  0.37502100  0.93620300  1
  O  O41  1  0.58948900  0.42879000  0.69603400  1
  O  O42  1  0.45565400  0.18435800  0.14804600  1
  O  O43  1  0.16679100  0.13087800  0.47626100  1
  O  O44  1  0.75095900  0.25302200  0.10978000  1
  O  O45  1  0.49620800  0.22345300  0.42771600  1
  O  O46  1  0.13375800  0.11924300  0.86413100  1
  O  O47  1  0.78299000  0.28313500  0.64296800  1
  O  O48  1  0.47621000  0.09661500  0.62206300  1
  O  O49  1  0.85776800  0.12518700  0.41255700  1
  O  O50  1  0.43405000  0.06214700  0.88426200  1
  O  O51  1  0.81028900  0.06595900  0.78383800  1
