# generated using pymatgen
data_Li3V3P8O29
_symmetry_space_group_name_H-M   'P 1'
_cell_length_a   9.73966100
_cell_length_b   9.75071855
_cell_length_c   14.40838449
_cell_angle_alpha   89.56407724
_cell_angle_beta   91.01957971
_cell_angle_gamma   119.59382930
_symmetry_Int_Tables_number   1
_chemical_formula_structural   Li3V3P8O29
_chemical_formula_sum   'Li6 V6 P16 O58'
_cell_volume   1189.65273363
_cell_formula_units_Z   2
loop_
 _symmetry_equiv_pos_site_id
 _symmetry_equiv_pos_as_xyz
  1  'x, y, z'
loop_
 _atom_site_type_symbol
 _atom_site_label
 _atom_site_symmetry_multiplicity
 _atom_site_fract_x
 _atom_site_fract_y
 _atom_site_fract_z
 _atom_site_occupancy
  Li  Li0  1  0.30035200  0.08088400  0.55665900  1
  Li  Li1  1  0.91288000  0.67893500  0.06095300  1
  Li  Li2  1  0.77749800  0.69341800  0.54997300  1
  Li  Li3  1  0.67960700  0.77560300  0.94824800  1
  Li  Li4  1  0.69647400  0.92129700  0.43577100  1
  Li  Li5  1  0.07661500  0.08502000  0.01398400  1
  V  V6  1  0.42961300  0.42702300  0.24844700  1
  V  V7  1  0.56010100  0.56109700  0.75158600  1
  V  V8  1  0.99979800  0.43147700  0.75001200  1
  V  V9  1  0.00140400  0.56181700  0.25395700  1
  V  V10  1  0.56680700  0.00780600  0.24076400  1
  V  V11  1  0.43229900  0.99296200  0.75500500  1
  P  P12  1  0.78135800  0.08256200  0.83339900  1
  P  P13  1  0.91358500  0.22310900  0.34243000  1
  P  P14  1  0.31831400  0.08712900  0.34168500  1
  P  P15  1  0.66824800  0.34125400  0.13127400  1
  P  P16  1  0.66252600  0.33051500  0.63488300  1
  P  P17  1  0.30804500  0.22266500  0.84025500  1
  P  P18  1  0.22340600  0.31301200  0.65968500  1
  P  P19  1  0.91207000  0.68231700  0.84503600  1
  P  P20  1  0.07877900  0.30329800  0.16093000  1
  P  P21  1  0.77139900  0.67890400  0.33809800  1
  P  P22  1  0.68144700  0.76959400  0.15995300  1
  P  P23  1  0.34448200  0.67157300  0.36442900  1
  P  P24  1  0.33431200  0.66421600  0.86757600  1
  P  P25  1  0.67587800  0.90608700  0.65459400  1
  P  P26  1  0.08322800  0.77355000  0.66610200  1
  P  P27  1  0.21412300  0.91332800  0.16230500  1
  O  O28  1  0.73701900  0.97383400  0.56227200  1
  O  O29  1  0.74058600  0.08154000  0.33225800  1
  O  O30  1  0.00381800  0.20707000  0.07696100  1
  O  O31  1  0.91676600  0.25536300  0.83145400  1
  O  O32  1  0.61925000  0.08046800  0.82555100  1
  O  O33  1  0.67249100  0.19108300  0.17332200  1
  O  O34  1  0.47804100  0.09705000  0.31624200  1
  O  O35  1  0.18847200  0.99494300  0.08250100  1
  O  O36  1  0.34936100  0.08849100  0.82795700  1
  O  O37  1  0.81464400  0.33737100  0.67928100  1
  O  O38  1  0.90666000  0.37906700  0.32152400  1
  O  O39  1  0.51773200  0.17738800  0.67180000  1
  O  O40  1  0.66868000  0.34580600  0.02846500  1
  O  O41  1  0.66643200  0.34962300  0.53260600  1
  O  O42  1  0.51763600  0.33167400  0.17623300  1
  O  O43  1  0.91171200  0.52583400  0.82612700  1
  O  O44  1  0.81479900  0.49191000  0.17367200  1
  O  O45  1  0.34007500  0.25512700  0.32947500  1
  O  O46  1  0.20170600  0.20556100  0.75016500  1
  O  O47  1  0.23447900  0.23266100  0.57638200  1
  O  O48  1  0.21991900  0.20788400  0.92482500  1
  O  O49  1  0.46389500  0.38312200  0.82855000  1
  O  O50  1  0.65736200  0.47563300  0.68241100  1
  O  O51  1  0.25539400  0.34524200  0.17041300  1
  O  O52  1  0.62051700  0.51986000  0.32172700  1
  O  O53  1  0.91822500  0.65703800  0.33349500  1
  O  O54  1  0.99863500  0.20214500  0.25278000  1
  O  O55  1  0.99191000  0.22340600  0.43039800  1
  O  O56  1  0.98796800  0.77090100  0.58406900  1
  O  O57  1  0.08202400  0.34328800  0.66578500  1
  O  O58  1  0.37674000  0.47513400  0.68034000  1
  O  O59  1  0.74065900  0.65734300  0.83451500  1
  O  O60  1  0.34811400  0.52641800  0.32075200  1
  O  O61  1  0.52639900  0.61385000  0.17179800  1
  O  O62  1  0.76802200  0.77293800  0.07375300  1
  O  O63  1  0.76597100  0.76009100  0.42483000  1
  O  O64  1  0.79110700  0.79163300  0.25033000  1
  O  O65  1  0.65801300  0.73815400  0.66504200  1
  O  O66  1  0.18832600  0.51699600  0.82437400  1
  O  O67  1  0.07285200  0.45873200  0.17168800  1
  O  O68  1  0.48876900  0.67426900  0.82542700  1
  O  O69  1  0.34785700  0.67335100  0.97020000  1
  O  O70  1  0.34834600  0.67445900  0.46711400  1
  O  O71  1  0.48516100  0.82282600  0.32094500  1
  O  O72  1  0.09118100  0.61941700  0.68030300  1
  O  O73  1  0.18758100  0.65864600  0.31930900  1
  O  O74  1  0.65225700  0.91214000  0.16447300  1
  O  O75  1  0.79778100  0.01016100  0.73601200  1
  O  O76  1  0.79191100  0.99035600  0.91296000  1
  O  O77  1  0.51778100  0.89865100  0.67975700  1
  O  O78  1  0.32824600  0.81202100  0.82349100  1
  O  O79  1  0.37930400  0.92229800  0.16874400  1
  O  O80  1  0.08201300  0.73688700  0.16494500  1
  O  O81  1  0.97906900  0.75519100  0.93689500  1
  O  O82  1  0.00948500  0.79794000  0.76115600  1
  O  O83  1  0.25359000  0.91749200  0.66479300  1
  O  O84  1  0.25803400  0.01579200  0.43326700  1
  O  O85  1  0.19695600  0.98390700  0.25998800  1
