# generated using pymatgen
data_Li3La7(FeO8)2
_symmetry_space_group_name_H-M   'P 1'
_cell_length_a   7.60216509
_cell_length_b   7.60216509
_cell_length_c   6.93413646
_cell_angle_alpha   74.13704988
_cell_angle_beta   74.13704988
_cell_angle_gamma   90.26606032
_symmetry_Int_Tables_number   1
_chemical_formula_structural   Li3La7(FeO8)2
_chemical_formula_sum   'Li3 La7 Fe2 O16'
_cell_volume   369.43681572
_cell_formula_units_Z   1
loop_
 _symmetry_equiv_pos_site_id
 _symmetry_equiv_pos_as_xyz
  1  'x, y, z'
loop_
 _atom_site_type_symbol
 _atom_site_label
 _atom_site_symmetry_multiplicity
 _atom_site_fract_x
 _atom_site_fract_y
 _atom_site_fract_z
 _atom_site_occupancy
  Li  Li0  1  0.99282500  0.49772500  0.01878400  1
  Li  Li1  1  0.67672200  0.67672200  0.29407400  1
  Li  Li2  1  0.49772500  0.99282500  0.01878400  1
  La  La3  1  0.81559000  0.81559000  0.73077500  1
  La  La4  1  0.82030700  0.32362200  0.71239600  1
  La  La5  1  0.68109400  0.17928700  0.27823000  1
  La  La6  1  0.32366600  0.32366600  0.71723800  1
  La  La7  1  0.32362200  0.82030700  0.71239600  1
  La  La8  1  0.17928700  0.68109400  0.27823000  1
  La  La9  1  0.17839200  0.17839200  0.28344500  1
  Fe  Fe10  1  0.99646800  0.99646800  0.00444000  1
  Fe  Fe11  1  0.50102800  0.50102800  0.00551500  1
  O  O12  1  0.92558500  0.92558500  0.35006100  1
  O  O13  1  0.00334600  0.75789400  0.99487700  1
  O  O14  1  0.00177600  0.24392000  0.99368700  1
  O  O15  1  0.92994200  0.39205200  0.35589500  1
  O  O16  1  0.58953800  0.09158100  0.63806900  1
  O  O17  1  0.74399200  0.49916100  0.99620500  1
  O  O18  1  0.75789400  0.00334600  0.99487700  1
  O  O19  1  0.58796800  0.58796800  0.64517400  1
  O  O20  1  0.40007900  0.40007900  0.34756300  1
  O  O21  1  0.50111200  0.25922600  0.99469300  1
  O  O22  1  0.49916100  0.74399200  0.99620500  1
  O  O23  1  0.39205200  0.92994200  0.35589500  1
  O  O24  1  0.09158100  0.58953800  0.63806900  1
  O  O25  1  0.24392000  0.00177600  0.99368700  1
  O  O26  1  0.08609800  0.08609800  0.65604200  1
  O  O27  1  0.25922600  0.50111200  0.99469300  1
