# generated using pymatgen
data_Li3VSiO5
_symmetry_space_group_name_H-M   'P 1'
_cell_length_a   4.94606700
_cell_length_b   5.52986300
_cell_length_c   15.98894400
_cell_angle_alpha   90.00000000
_cell_angle_beta   90.00000000
_cell_angle_gamma   90.00000000
_symmetry_Int_Tables_number   1
_chemical_formula_structural   Li3VSiO5
_chemical_formula_sum   'Li12 V4 Si4 O20'
_cell_volume   437.31477292
_cell_formula_units_Z   4
loop_
 _symmetry_equiv_pos_site_id
 _symmetry_equiv_pos_as_xyz
  1  'x, y, z'
loop_
 _atom_site_type_symbol
 _atom_site_label
 _atom_site_symmetry_multiplicity
 _atom_site_fract_x
 _atom_site_fract_y
 _atom_site_fract_z
 _atom_site_occupancy
  Li  Li0  1  0.00072300  0.66635100  0.59093800  1
  Li  Li1  1  0.00072300  0.16635100  0.90906200  1
  Li  Li2  1  0.50424500  0.33600400  0.99365200  1
  Li  Li3  1  0.50424500  0.83600400  0.50634800  1
  Li  Li4  1  0.50508000  0.32669600  0.80510100  1
  Li  Li5  1  0.50508000  0.82669600  0.69489900  1
  Li  Li6  1  0.50072300  0.33364900  0.40906200  1
  Li  Li7  1  0.50072300  0.83364900  0.09093800  1
  Li  Li8  1  0.00424500  0.66399600  0.00634800  1
  Li  Li9  1  0.00424500  0.16399600  0.49365200  1
  Li  Li10  1  0.00508000  0.17330400  0.30510100  1
  Li  Li11  1  0.00508000  0.67330400  0.19489900  1
  V  V12  1  0.00413600  0.17572700  0.69757000  1
  V  V13  1  0.00413600  0.67572700  0.80243000  1
  V  V14  1  0.50413600  0.32427300  0.19757000  1
  V  V15  1  0.50413600  0.82427300  0.30243000  1
  Si  Si16  1  0.00524900  0.16254800  0.09682300  1
  Si  Si17  1  0.00524900  0.66254800  0.40317700  1
  Si  Si18  1  0.50524900  0.33745200  0.59682300  1
  Si  Si19  1  0.50524900  0.83745200  0.90317700  1
  O  O20  1  0.09598000  0.34043700  0.79822000  1
  O  O21  1  0.09598000  0.84043700  0.70178000  1
  O  O22  1  0.10426700  0.38142300  0.39829600  1
  O  O23  1  0.10426700  0.88142300  0.10170400  1
  O  O24  1  0.10686000  0.31387200  0.01563500  1
  O  O25  1  0.10686000  0.81387200  0.48436500  1
  O  O26  1  0.10339600  0.30817400  0.18550300  1
  O  O27  1  0.10339600  0.80817400  0.31449700  1
  O  O28  1  0.16506500  0.32711700  0.60071400  1
  O  O29  1  0.16506500  0.82711700  0.89928600  1
  O  O30  1  0.59598000  0.65956300  0.20178000  1
  O  O31  1  0.59598000  0.15956300  0.29822000  1
  O  O32  1  0.60426700  0.61857700  0.60170400  1
  O  O33  1  0.60426700  0.11857700  0.89829600  1
  O  O34  1  0.60686100  0.18612800  0.51563500  1
  O  O35  1  0.60686100  0.68612800  0.98436500  1
  O  O36  1  0.60339600  0.19182600  0.68550300  1
  O  O37  1  0.60339600  0.69182600  0.81449700  1
  O  O38  1  0.66506500  0.17288300  0.10071400  1
  O  O39  1  0.66506500  0.67288300  0.39928600  1
