# generated using pymatgen
data_LiVCrP2(HO5)2
_symmetry_space_group_name_H-M   'P 1'
_cell_length_a   5.19899100
_cell_length_b   7.36452726
_cell_length_c   10.19724665
_cell_angle_alpha   103.09396795
_cell_angle_beta   99.73817237
_cell_angle_gamma   105.49023678
_symmetry_Int_Tables_number   1
_chemical_formula_structural   LiVCrP2(HO5)2
_chemical_formula_sum   'Li2 V2 Cr2 P4 H4 O20'
_cell_volume   355.33039073
_cell_formula_units_Z   2
loop_
 _symmetry_equiv_pos_site_id
 _symmetry_equiv_pos_as_xyz
  1  'x, y, z'
loop_
 _atom_site_type_symbol
 _atom_site_label
 _atom_site_symmetry_multiplicity
 _atom_site_fract_x
 _atom_site_fract_y
 _atom_site_fract_z
 _atom_site_occupancy
  Li  Li0  1  0.35193700  0.12890300  0.27926600  1
  Li  Li1  1  0.64806300  0.87109700  0.72073400  1
  V  V2  1  0.74457800  0.74320100  0.24884800  1
  V  V3  1  0.25542200  0.25679900  0.75115200  1
  Cr  Cr4  1  0.00000000  0.00000000  0.00000000  1
  Cr  Cr5  1  0.50000000  0.50000000  0.50000000  1
  P  P6  1  0.61376400  0.28604700  0.06302900  1
  P  P7  1  0.88885800  0.20751300  0.43738400  1
  P  P8  1  0.11114200  0.79248700  0.56261600  1
  P  P9  1  0.38623600  0.71395300  0.93697100  1
  H  H10  1  0.14875400  0.79499200  0.14230400  1
  H  H11  1  0.32999100  0.68273800  0.34550800  1
  H  H12  1  0.67000900  0.31726200  0.65449200  1
  H  H13  1  0.85124600  0.20500800  0.85769600  1
  O  O14  1  0.79066900  0.15742900  0.08801800  1
  O  O15  1  0.34477100  0.21916400  0.10840800  1
  O  O16  1  0.43946800  0.71596200  0.09343400  1
  O  O17  1  0.77736900  0.50243200  0.15298400  1
  O  O18  1  0.70953600  0.99893900  0.34205200  1
  O  O19  1  0.03484200  0.88129600  0.16252000  1
  O  O20  1  0.16383200  0.26930600  0.39692000  1
  O  O21  1  0.48101000  0.62518900  0.34377700  1
  O  O22  1  0.71199700  0.33954700  0.41172800  1
  O  O23  1  0.06305200  0.78935900  0.40614300  1
  O  O24  1  0.93694800  0.21064100  0.59385700  1
  O  O25  1  0.28800300  0.66045300  0.58827200  1
  O  O26  1  0.51899000  0.37481100  0.65622300  1
  O  O27  1  0.83616800  0.73069400  0.60308000  1
  O  O28  1  0.96515800  0.11870400  0.83748000  1
  O  O29  1  0.29046400  0.00106100  0.65794800  1
  O  O30  1  0.22263100  0.49756800  0.84701600  1
  O  O31  1  0.56053200  0.28403800  0.90656600  1
  O  O32  1  0.65522900  0.78083600  0.89159200  1
  O  O33  1  0.20933100  0.84257100  0.91198200  1
