# generated using pymatgen
data_Li24Ti5Cr7O36
_symmetry_space_group_name_H-M   'P 1'
_cell_length_a   5.06972700
_cell_length_b   9.78922348
_cell_length_c   13.35764940
_cell_angle_alpha   97.19702559
_cell_angle_beta   100.87935400
_cell_angle_gamma   94.98820225
_symmetry_Int_Tables_number   1
_chemical_formula_structural   Li24Ti5Cr7O36
_chemical_formula_sum   'Li24 Ti5 Cr7 O36'
_cell_volume   641.70386584
_cell_formula_units_Z   1
loop_
 _symmetry_equiv_pos_site_id
 _symmetry_equiv_pos_as_xyz
  1  'x, y, z'
loop_
 _atom_site_type_symbol
 _atom_site_label
 _atom_site_symmetry_multiplicity
 _atom_site_fract_x
 _atom_site_fract_y
 _atom_site_fract_z
 _atom_site_occupancy
  Li  Li0  1  0.17080500  0.00015300  0.83164400  1
  Li  Li1  1  0.04545600  0.99977600  0.61390200  1
  Li  Li2  1  0.99783000  0.75128200  0.24977600  1
  Li  Li3  1  0.33424600  0.75033700  0.91766500  1
  Li  Li4  1  0.04893100  0.49902600  0.11247000  1
  Li  Li5  1  0.37984800  0.50023100  0.77899800  1
  Li  Li6  1  0.17077700  0.49935800  0.33368000  1
  Li  Li7  1  0.50029600  0.50063900  0.99973500  1
  Li  Li8  1  0.28396300  0.50082100  0.55466700  1
  Li  Li9  1  0.33317200  0.25002400  0.41747800  1
  Li  Li10  1  0.50814600  0.99971700  0.49823600  1
  Li  Li11  1  0.28065300  0.99901600  0.05262100  1
  Li  Li12  1  0.61436300  0.99839500  0.71903500  1
  Li  Li13  1  0.38269800  0.99843800  0.28021200  1
  Li  Li14  1  0.71991400  0.00175300  0.94825400  1
  Li  Li15  1  0.66551700  0.74956300  0.58293000  1
  Li  Li16  1  0.70955200  0.49929700  0.44587300  1
  Li  Li17  1  0.83898400  0.50019200  0.66468600  1
  Li  Li18  1  0.62303700  0.50203400  0.22236100  1
  Li  Li19  1  0.94911700  0.49906500  0.88715100  1
  Li  Li20  1  0.66610600  0.25027500  0.08235200  1
  Li  Li21  1  0.82842500  0.99962900  0.16764400  1
  Li  Li22  1  0.00033500  0.25006500  0.75016500  1
  Li  Li23  1  0.94974000  0.00076200  0.38773300  1
  Ti  Ti24  1  0.10775700  0.74672000  0.47259000  1
  Ti  Ti25  1  0.22168400  0.24843000  0.19184600  1
  Ti  Ti26  1  0.44422100  0.24891500  0.64058400  1
  Ti  Ti27  1  0.77826800  0.74958000  0.80621200  1
  Ti  Ti28  1  0.77733600  0.25132700  0.30641000  1
  Cr  Cr29  1  0.11002000  0.25031400  0.96827400  1
  Cr  Cr30  1  0.22567600  0.75085300  0.69532500  1
  Cr  Cr31  1  0.55941700  0.25091600  0.86424800  1
  Cr  Cr32  1  0.44615300  0.75157500  0.13495000  1
  Cr  Cr33  1  0.55025200  0.74949800  0.35846500  1
  Cr  Cr34  1  0.88943400  0.24992700  0.52749500  1
  Cr  Cr35  1  0.89387200  0.75082600  0.03086400  1
  O  O36  1  0.00093000  0.86258000  0.93116600  1
  O  O37  1  0.07396100  0.63508300  0.78486300  1
  O  O38  1  0.00408500  0.36318000  0.43011400  1
  O  O39  1  0.14183000  0.36232900  0.64395800  1
  O  O40  1  0.25812100  0.36487600  0.88336900  1
  O  O41  1  0.33296800  0.86302800  0.59765400  1
  O  O42  1  0.06898700  0.13360000  0.28463600  1
  O  O43  1  0.18306300  0.13744200  0.52279300  1
  O  O44  1  0.40907700  0.13606900  0.94908100  1
  O  O45  1  0.13560500  0.86212900  0.14121300  1
  O  O46  1  0.27024800  0.86451100  0.38078700  1
  O  O47  1  0.47279100  0.86260100  0.81042400  1
  O  O48  1  0.33509400  0.13731100  0.73960300  1
  O  O49  1  0.19751300  0.63719000  0.02663700  1
  O  O50  1  0.39938700  0.63325900  0.45196000  1
  O  O51  1  0.52102600  0.63683700  0.69010000  1
  O  O52  1  0.33714400  0.64023400  0.23857500  1
  O  O53  1  0.66782600  0.63716200  0.90638400  1
  O  O54  1  0.33283300  0.36223800  0.09328600  1
  O  O55  1  0.66683600  0.36311700  0.76412100  1
  O  O56  1  0.47669400  0.36386600  0.31011000  1
  O  O57  1  0.60307000  0.36394200  0.54771700  1
  O  O58  1  0.80297000  0.36262300  0.97459000  1
  O  O59  1  0.66485000  0.86210700  0.25867700  1
  O  O60  1  0.52277400  0.13576300  0.18935400  1
  O  O61  1  0.73792000  0.13422400  0.61924800  1
  O  O62  1  0.86491300  0.13803700  0.85923700  1
  O  O63  1  0.59228300  0.86537000  0.04966000  1
  O  O64  1  0.80625500  0.86179500  0.47455800  1
  O  O65  1  0.92997500  0.86573000  0.71514300  1
  O  O66  1  0.66373700  0.13762200  0.40612800  1
  O  O67  1  0.74288700  0.63602100  0.11606400  1
  O  O68  1  0.85210500  0.63756700  0.35544100  1
  O  O69  1  0.99747800  0.63764300  0.57298300  1
  O  O70  1  0.92988100  0.36680200  0.21502100  1
  O  O71  1  0.99688800  0.13738500  0.06881100  1
