# generated using pymatgen
data_Li5V3P8O29
_symmetry_space_group_name_H-M   'P 1'
_cell_length_a   9.78982200
_cell_length_b   9.79896951
_cell_length_c   14.03799470
_cell_angle_alpha   89.85935176
_cell_angle_beta   89.76492248
_cell_angle_gamma   60.05961802
_symmetry_Int_Tables_number   1
_chemical_formula_structural   Li5V3P8O29
_chemical_formula_sum   'Li10 V6 P16 O58'
_cell_volume   1166.93803122
_cell_formula_units_Z   2
loop_
 _symmetry_equiv_pos_site_id
 _symmetry_equiv_pos_as_xyz
  1  'x, y, z'
loop_
 _atom_site_type_symbol
 _atom_site_label
 _atom_site_symmetry_multiplicity
 _atom_site_fract_x
 _atom_site_fract_y
 _atom_site_fract_z
 _atom_site_occupancy
  Li  Li0  1  0.22905800  0.09578300  0.56083000  1
  Li  Li1  1  0.09561900  0.67291900  0.56324000  1
  Li  Li2  1  0.23421500  0.66647700  0.05564100  1
  Li  Li3  1  0.67023800  0.09547500  0.05761800  1
  Li  Li4  1  0.31722700  0.77453000  0.43989900  1
  Li  Li5  1  0.67715100  0.22771600  0.56499700  1
  Li  Li6  1  0.32825800  0.90809000  0.93907800  1
  Li  Li7  1  0.90576500  0.32305500  0.43996600  1
  Li  Li8  1  0.77384900  0.90544800  0.44142900  1
  Li  Li9  1  0.96762000  0.05073600  0.99358700  1
  V  V10  1  0.43355800  0.56546000  0.25028800  1
  V  V11  1  0.57106100  0.43200900  0.75144000  1
  V  V12  1  0.43364000  0.00065100  0.74977600  1
  V  V13  1  0.56781300  0.99923500  0.24907700  1
  V  V14  1  0.00326800  0.43154400  0.24117000  1
  V  V15  1  0.99645800  0.56665000  0.75949000  1
  P  P16  1  0.08283900  0.22160700  0.84271300  1
  P  P17  1  0.22946100  0.08962200  0.33902900  1
  P  P18  1  0.08593700  0.67874800  0.34469400  1
  P  P19  1  0.33557200  0.33468400  0.12736700  1
  P  P20  1  0.33045900  0.33627100  0.63075000  1
  P  P21  1  0.22866500  0.68549000  0.84016800  1
  P  P22  1  0.32073100  0.76783000  0.65748000  1
  P  P23  1  0.68562000  0.08721800  0.84197200  1
  P  P24  1  0.31669200  0.91110900  0.15659100  1
  P  P25  1  0.67949600  0.23217200  0.34480200  1
  P  P26  1  0.77560300  0.30787100  0.16053900  1
  P  P27  1  0.67066100  0.66371900  0.36850000  1
  P  P28  1  0.66243900  0.66726100  0.87127900  1
  P  P29  1  0.91511700  0.31937800  0.65713600  1
  P  P30  1  0.77213600  0.90800300  0.66053300  1
  P  P31  1  0.91733000  0.77605400  0.15965200  1
  O  O32  1  0.00263500  0.24677300  0.56581100  1
  O  O33  1  0.08085900  0.25589700  0.33805500  1
  O  O34  1  0.23216100  0.98411000  0.06597300  1
  O  O35  1  0.25618400  0.08465100  0.83854400  1
  O  O36  1  0.07960000  0.38267900  0.83221300  1
  O  O37  1  0.18845400  0.32827500  0.17516300  1
  O  O38  1  0.09461900  0.52088500  0.32145100  1
  O  O39  1  0.01108900  0.78193000  0.07791000  1
  O  O40  1  0.08374700  0.66046000  0.83556600  1
  O  O41  1  0.32717900  0.18598300  0.66926600  1
  O  O42  1  0.38013600  0.09916900  0.32096500  1
  O  O43  1  0.18401100  0.48461000  0.67802500  1
  O  O44  1  0.32470300  0.33915500  0.02165500  1
  O  O45  1  0.31741800  0.34446800  0.52435400  1
  O  O46  1  0.32242800  0.48903600  0.16815100  1
  O  O47  1  0.53068400  0.08632400  0.83040600  1
  O  O48  1  0.48858400  0.18904000  0.16631100  1
  O  O49  1  0.25069000  0.66377300  0.34256700  1
  O  O50  1  0.20741100  0.79381700  0.74796300  1
  O  O51  1  0.24179200  0.75691300  0.56799200  1
  O  O52  1  0.22149000  0.77625500  0.92863800  1
  O  O53  1  0.38065500  0.52988900  0.82897900  1
  O  O54  1  0.48522700  0.32912300  0.66609100  1
  O  O55  1  0.34180100  0.74101700  0.16503000  1
  O  O56  1  0.51948800  0.38047600  0.32327700  1
  O  O57  1  0.66310000  0.08316100  0.34241800  1
  O  O58  1  0.20746000  0.00069000  0.24889900  1
  O  O59  1  0.23986200  0.00264500  0.42969600  1
  O  O60  1  0.76172000  0.99674800  0.57045200  1
  O  O61  1  0.33872700  0.91592400  0.65660600  1
  O  O62  1  0.47839500  0.61782500  0.67567000  1
  O  O63  1  0.65606800  0.25664000  0.82957800  1
  O  O64  1  0.51614700  0.67029000  0.33070000  1
  O  O65  1  0.61951800  0.46169500  0.16811100  1
  O  O66  1  0.79345900  0.20057100  0.08000000  1
  O  O67  1  0.75081000  0.24678800  0.43626400  1
  O  O68  1  0.79717300  0.21074300  0.25895700  1
  O  O69  1  0.75027100  0.33585300  0.65757100  1
  O  O70  1  0.51005100  0.81365700  0.83105000  1
  O  O71  1  0.47283100  0.90856000  0.17126200  1
  O  O72  1  0.67355300  0.51849500  0.82634900  1
  O  O73  1  0.66782100  0.67073100  0.97693200  1
  O  O74  1  0.67827400  0.65680900  0.47478000  1
  O  O75  1  0.81728000  0.51381100  0.32301100  1
  O  O76  1  0.62193300  0.89825600  0.67778000  1
  O  O77  1  0.67454400  0.81320700  0.32983800  1
  O  O78  1  0.91616200  0.34067800  0.16416900  1
  O  O79  1  0.00886200  0.20276400  0.74374300  1
  O  O80  1  0.99756100  0.20671900  0.92535700  1
  O  O81  1  0.90624800  0.47782300  0.67899700  1
  O  O82  1  0.81179400  0.67277000  0.82480400  1
  O  O83  1  0.91608500  0.61760100  0.17022700  1
  O  O84  1  0.74568300  0.91586100  0.15953700  1
  O  O85  1  0.77272000  0.01698500  0.93275600  1
  O  O86  1  0.79573200  0.99501900  0.75081100  1
  O  O87  1  0.92011800  0.74145300  0.66123700  1
  O  O88  1  0.99987300  0.75045000  0.43630800  1
  O  O89  1  0.98845200  0.79744300  0.25894900  1
