# generated using pymatgen
data_Li3FeNi3O8
_symmetry_space_group_name_H-M   'P 1'
_cell_length_a   5.77578291
_cell_length_b   5.78132240
_cell_length_c   9.42853461
_cell_angle_alpha   89.73996507
_cell_angle_beta   89.92309481
_cell_angle_gamma   60.05036372
_symmetry_Int_Tables_number   1
_chemical_formula_structural   Li3FeNi3O8
_chemical_formula_sum   'Li6 Fe2 Ni6 O16'
_cell_volume   272.78993474
_cell_formula_units_Z   2
loop_
 _symmetry_equiv_pos_site_id
 _symmetry_equiv_pos_as_xyz
  1  'x, y, z'
loop_
 _atom_site_type_symbol
 _atom_site_label
 _atom_site_symmetry_multiplicity
 _atom_site_fract_x
 _atom_site_fract_y
 _atom_site_fract_z
 _atom_site_occupancy
  Li  Li0  1  0.16879700  0.16838500  0.44832300  1
  Li  Li1  1  0.16788300  0.66488000  0.44889200  1
  Li  Li2  1  0.66519900  0.16704300  0.44845700  1
  Li  Li3  1  0.33663100  0.83183400  0.94807100  1
  Li  Li4  1  0.83367400  0.33313600  0.94823800  1
  Li  Li5  1  0.83198000  0.83243500  0.94828200  1
  Fe  Fe6  1  0.33383800  0.33203500  0.98611900  1
  Fe  Fe7  1  0.66646300  0.66844300  0.48512200  1
  Ni  Ni8  1  0.16859400  0.16981200  0.71331400  1
  Ni  Ni9  1  0.16910900  0.66192300  0.71397900  1
  Ni  Ni10  1  0.66190400  0.16906600  0.71320800  1
  Ni  Ni11  1  0.33700800  0.83091000  0.21424900  1
  Ni  Ni12  1  0.83002600  0.33812300  0.21411100  1
  Ni  Ni13  1  0.83002500  0.83132400  0.21388700  1
  O  O14  1  0.99639500  0.99561800  0.31239900  1
  O  O15  1  0.99759900  0.00304200  0.81080800  1
  O  O16  1  0.16653400  0.16379400  0.08875500  1
  O  O17  1  0.03275500  0.48340400  0.85306900  1
  O  O18  1  0.16662800  0.66815000  0.08833200  1
  O  O19  1  0.33533200  0.33073900  0.60633400  1
  O  O20  1  0.48181600  0.03418300  0.85077800  1
  O  O21  1  0.48420800  0.48152200  0.85292300  1
  O  O22  1  0.33073300  0.83538200  0.58772900  1
  O  O23  1  0.67124000  0.16144600  0.08845300  1
  O  O24  1  0.51564600  0.51752000  0.35286800  1
  O  O25  1  0.66817000  0.67236000  0.10749100  1
  O  O26  1  0.51577600  0.96799100  0.35174800  1
  O  O27  1  0.83672400  0.32980300  0.58803100  1
  O  O28  1  0.96504800  0.52099200  0.35125900  1
  O  O29  1  0.83387200  0.83509500  0.58910400  1
