# generated using pymatgen
data_Li9V3P8O29
_symmetry_space_group_name_H-M   'P 1'
_cell_length_a   9.91484100
_cell_length_b   9.91623455
_cell_length_c   13.75402797
_cell_angle_alpha   90.19707205
_cell_angle_beta   90.02389055
_cell_angle_gamma   119.91021584
_symmetry_Int_Tables_number   1
_chemical_formula_structural   Li9V3P8O29
_chemical_formula_sum   'Li18 V6 P16 O58'
_cell_volume   1172.14517231
_cell_formula_units_Z   2
loop_
 _symmetry_equiv_pos_site_id
 _symmetry_equiv_pos_as_xyz
  1  'x, y, z'
loop_
 _atom_site_type_symbol
 _atom_site_label
 _atom_site_symmetry_multiplicity
 _atom_site_fract_x
 _atom_site_fract_y
 _atom_site_fract_z
 _atom_site_occupancy
  Li  Li0  1  0.76030600  0.09818100  0.07356300  1
  Li  Li1  1  0.90580900  0.24282300  0.56316400  1
  Li  Li2  1  0.33622200  0.10022100  0.56218700  1
  Li  Li3  1  0.65685300  0.31659100  0.37676700  1
  Li  Li4  1  0.66654800  0.33493500  0.88050300  1
  Li  Li5  1  0.33309100  0.22872600  0.06645100  1
  Li  Li6  1  0.89861800  0.66619400  0.06526200  1
  Li  Li7  1  0.23657400  0.32969000  0.43315000  1
  Li  Li8  1  0.77009500  0.65961100  0.56784400  1
  Li  Li9  1  0.09833700  0.33182700  0.93791800  1
  Li  Li10  1  0.66834200  0.76529800  0.93794900  1
  Li  Li11  1  0.32523400  0.66058700  0.62545700  1
  Li  Li12  1  0.34422300  0.68361400  0.12090100  1
  Li  Li13  1  0.10419400  0.77387400  0.43336900  1
  Li  Li14  1  0.55995500  0.01149600  0.23396400  1
  Li  Li15  1  0.23375500  0.90251800  0.93999800  1
  Li  Li16  1  0.00385500  0.99828200  0.00737100  1
  Li  Li17  1  0.04689500  0.01703400  0.49820700  1
  V  V18  1  0.43449700  0.43142400  0.24626400  1
  V  V19  1  0.56478300  0.56363500  0.75039600  1
  V  V20  1  0.99987500  0.43521600  0.75091000  1
  V  V21  1  0.99826300  0.56519100  0.24853100  1
  V  V22  1  0.65545800  0.89516700  0.43073600  1
  V  V23  1  0.43238600  0.00007500  0.75174700  1
  P  P24  1  0.77417700  0.09029800  0.84380600  1
  P  P25  1  0.91621200  0.22911000  0.34624000  1
  P  P26  1  0.32005300  0.09164100  0.34472300  1
  P  P27  1  0.67158300  0.33805400  0.12230500  1
  P  P28  1  0.66655000  0.33183700  0.62304500  1
  P  P29  1  0.31549600  0.22665200  0.84557500  1
  P  P30  1  0.22590700  0.31470800  0.65585300  1
  P  P31  1  0.91058800  0.68451000  0.84443300  1
  P  P32  1  0.08814800  0.31486700  0.15511000  1
  P  P33  1  0.77256500  0.68057200  0.33988300  1
  P  P34  1  0.68185500  0.77399200  0.15268100  1
  P  P35  1  0.32965100  0.65875700  0.38093100  1
  P  P36  1  0.33367000  0.66684700  0.87599900  1
  P  P37  1  0.67675800  0.90645200  0.65634700  1
  P  P38  1  0.08969600  0.77470100  0.65477500  1
  P  P39  1  0.22609100  0.90725000  0.15511400  1
  O  O40  1  0.75334800  0.99847700  0.56093200  1
  O  O41  1  0.75622700  0.07812100  0.34964600  1
  O  O42  1  0.99349600  0.22355500  0.06670200  1
  O  O43  1  0.92241800  0.24951400  0.84467200  1
  O  O44  1  0.62983300  0.10940700  0.83324400  1
  O  O45  1  0.68488000  0.20078400  0.15832200  1
  O  O46  1  0.47960100  0.10800800  0.34330700  1
  O  O47  1  0.22162200  0.00089200  0.06741200  1
  O  O48  1  0.32591700  0.07741700  0.84581800  1
  O  O49  1  0.81082600  0.32413900  0.66260500  1
  O  O50  1  0.89154000  0.36912600  0.33586000  1
  O  O51  1  0.51422100  0.18793300  0.66153000  1
  O  O52  1  0.67050200  0.35083300  0.01257200  1
  O  O53  1  0.66897200  0.33435200  0.51336000  1
  O  O54  1  0.51502100  0.32652900  0.16175500  1
  O  O55  1  0.89045100  0.52050200  0.83309100  1
  O  O56  1  0.81135300  0.49490500  0.16448400  1
  O  O57  1  0.32616800  0.25060000  0.34147900  1
  O  O58  1  0.21390700  0.21379700  0.75008700  1
  O  O59  1  0.22723200  0.22272400  0.56682500  1
  O  O60  1  0.22571300  0.23054300  0.93402100  1
  O  O61  1  0.47917700  0.36955800  0.83418500  1
  O  O62  1  0.67439900  0.48427500  0.66313800  1
  O  O63  1  0.24744900  0.32570400  0.15325800  1
  O  O64  1  0.62919500  0.51920700  0.33536100  1
  O  O65  1  0.92296600  0.67503800  0.34811600  1
  O  O66  1  0.00064300  0.21318600  0.25094700  1
  O  O67  1  0.01042800  0.23363700  0.43552400  1
  O  O68  1  0.99746200  0.77413900  0.56548500  1
  O  O69  1  0.07805200  0.32765400  0.65549700  1
  O  O70  1  0.37026800  0.47787500  0.66509200  1
  O  O71  1  0.75060200  0.67319300  0.84364700  1
  O  O72  1  0.32199800  0.50954100  0.33969500  1
  O  O73  1  0.51961700  0.62747700  0.16742800  1
  O  O74  1  0.77047200  0.76272300  0.06523100  1
  O  O75  1  0.76396000  0.77358300  0.43100700  1
  O  O76  1  0.78616000  0.78510000  0.24938400  1
  O  O77  1  0.67318000  0.75077800  0.65246000  1
  O  O78  1  0.18919000  0.51485000  0.83581400  1
  O  O79  1  0.10732100  0.47847400  0.16691100  1
  O  O80  1  0.48556000  0.67519700  0.83528600  1
  O  O81  1  0.33399400  0.66452800  0.98543900  1
  O  O82  1  0.34590300  0.66848700  0.49106700  1
  O  O83  1  0.48440300  0.80584400  0.34315400  1
  O  O84  1  0.10827700  0.63007000  0.66379300  1
  O  O85  1  0.18818500  0.67144200  0.34475100  1
  O  O86  1  0.67132600  0.91966300  0.15327000  1
  O  O87  1  0.78797000  0.00635400  0.74350200  1
  O  O88  1  0.77057300  0.99285700  0.92942800  1
  O  O89  1  0.51376500  0.88467200  0.66777700  1
  O  O90  1  0.32478000  0.81130900  0.83779000  1
  O  O91  1  0.36459000  0.88325000  0.16050500  1
  O  O92  1  0.07101400  0.75121800  0.15806000  1
  O  O93  1  0.00396200  0.77422000  0.93309800  1
  O  O94  1  0.99951100  0.78568800  0.74919100  1
  O  O95  1  0.24959000  0.92331700  0.65471100  1
  O  O96  1  0.21896500  0.00179400  0.43319400  1
  O  O97  1  0.21867200  0.99978300  0.25064400  1
