# generated using pymatgen
data_Li6Ni11(OF12)2
_symmetry_space_group_name_H-M   'P 1'
_cell_length_a   7.96501500
_cell_length_b   7.97203150
_cell_length_c   8.61896893
_cell_angle_alpha   106.25872969
_cell_angle_beta   106.56191300
_cell_angle_gamma   86.48577798
_symmetry_Int_Tables_number   1
_chemical_formula_structural   Li6Ni11(OF12)2
_chemical_formula_sum   'Li6 Ni11 O2 F24'
_cell_volume   503.49503995
_cell_formula_units_Z   1
loop_
 _symmetry_equiv_pos_site_id
 _symmetry_equiv_pos_as_xyz
  1  'x, y, z'
loop_
 _atom_site_type_symbol
 _atom_site_label
 _atom_site_symmetry_multiplicity
 _atom_site_fract_x
 _atom_site_fract_y
 _atom_site_fract_z
 _atom_site_occupancy
  Li  Li0  1  0.88839900  0.58025600  0.75233800  1
  Li  Li1  1  0.79593100  0.93989300  0.54649100  1
  Li  Li2  1  0.28720100  0.66193300  0.10209700  1
  Li  Li3  1  0.71681200  0.33770400  0.89111500  1
  Li  Li4  1  0.19919200  0.04269300  0.44166800  1
  Li  Li5  1  0.11016200  0.43680700  0.26357100  1
  Ni  Ni6  1  0.86637600  0.74227000  0.14575300  1
  Ni  Ni7  1  0.77814500  0.15849400  0.25247400  1
  Ni  Ni8  1  0.99576000  0.99061100  0.00182200  1
  Ni  Ni9  1  0.69061400  0.52380000  0.29555900  1
  Ni  Ni10  1  0.54803300  0.29941500  0.47045700  1
  Ni  Ni11  1  0.63004800  0.90907000  0.88142300  1
  Ni  Ni12  1  0.39376900  0.10087300  0.12706600  1
  Ni  Ni13  1  0.45908100  0.70009500  0.52308800  1
  Ni  Ni14  1  0.29908000  0.45869400  0.69129100  1
  Ni  Ni15  1  0.21607800  0.84765000  0.75493300  1
  Ni  Ni16  1  0.13360300  0.24812500  0.84105500  1
  O  O17  1  0.84734000  0.78260700  0.92654100  1
  O  O18  1  0.56343000  0.29551500  0.24421700  1
  F  F19  1  0.99329300  0.00101600  0.24596200  1
  F  F20  1  0.91620000  0.38060300  0.32187900  1
  F  F21  1  0.91518700  0.37415300  0.82580000  1
  F  F22  1  0.83948700  0.74951500  0.37477200  1
  F  F23  1  0.76030000  0.14278200  0.47741600  1
  F  F24  1  0.70533300  0.53287900  0.06874600  1
  F  F25  1  0.61007600  0.93584800  0.11878100  1
  F  F26  1  0.67842100  0.54541200  0.55040200  1
  F  F27  1  0.77337900  0.14029600  0.99285200  1
  F  F28  1  0.61880100  0.90777100  0.64675900  1
  F  F29  1  0.52173000  0.32821300  0.70118300  1
  F  F30  1  0.47698100  0.67824000  0.29570300  1
  F  F31  1  0.37388800  0.09383300  0.35261600  1
  F  F32  1  0.23218500  0.86947100  0.00800400  1
  F  F33  1  0.44177600  0.70542700  0.76786700  1
  F  F34  1  0.31959500  0.46794900  0.45862600  1
  F  F35  1  0.36505600  0.07433500  0.87273700  1
  F  F36  1  0.15120300  0.22210200  0.07992600  1
  F  F37  1  0.29066600  0.45938400  0.92119900  1
  F  F38  1  0.24585400  0.84837700  0.53288400  1
  F  F39  1  0.15671700  0.23683500  0.61351000  1
  F  F40  1  0.09665400  0.62674600  0.17676900  1
  F  F41  1  0.09297600  0.62007600  0.68258800  1
  F  F42  1  0.00518600  0.00223100  0.76005900  1
