# generated using pymatgen
data_LiV2F7
_symmetry_space_group_name_H-M   'P 1'
_cell_length_a   9.15595298
_cell_length_b   9.15595298
_cell_length_c   5.63681158
_cell_angle_alpha   87.17527598
_cell_angle_beta   87.17527598
_cell_angle_gamma   31.45962542
_symmetry_Int_Tables_number   1
_chemical_formula_structural   LiV2F7
_chemical_formula_sum   'Li2 V4 F14'
_cell_volume   246.29522180
_cell_formula_units_Z   2
loop_
 _symmetry_equiv_pos_site_id
 _symmetry_equiv_pos_as_xyz
  1  'x, y, z'
loop_
 _atom_site_type_symbol
 _atom_site_label
 _atom_site_symmetry_multiplicity
 _atom_site_fract_x
 _atom_site_fract_y
 _atom_site_fract_z
 _atom_site_occupancy
  Li  Li0  1  0.50000000  0.00000000  0.00000000  1
  Li  Li1  1  0.00000000  0.50000000  0.50000000  1
  V  V2  1  0.14790400  0.63920700  0.77982900  1
  V  V3  1  0.63920700  0.14790400  0.27982900  1
  V  V4  1  0.36079300  0.85209600  0.72017100  1
  V  V5  1  0.85209600  0.36079300  0.22017100  1
  F  F6  1  0.37493000  0.47449400  0.06954500  1
  F  F7  1  0.47449400  0.37493000  0.56954500  1
  F  F8  1  0.80749600  0.91244100  0.98591000  1
  F  F9  1  0.91244100  0.80749600  0.48591000  1
  F  F10  1  0.39014900  0.19649800  0.29302800  1
  F  F11  1  0.19649800  0.39014900  0.79302800  1
  F  F12  1  0.80350200  0.60985100  0.20697200  1
  F  F13  1  0.60985100  0.80350200  0.70697200  1
  F  F14  1  0.08755900  0.19250400  0.51409000  1
  F  F15  1  0.19250400  0.08755900  0.01409000  1
  F  F16  1  0.52550600  0.62507000  0.43045500  1
  F  F17  1  0.62507000  0.52550600  0.93045500  1
  F  F18  1  0.11271100  0.88728900  0.75000000  1
  F  F19  1  0.88728900  0.11271100  0.25000000  1
