# generated using pymatgen
data_Li7Mn(OF)3
_symmetry_space_group_name_H-M   'P 1'
_cell_length_a   5.51956400
_cell_length_b   6.07508242
_cell_length_c   9.77562563
_cell_angle_alpha   104.73081363
_cell_angle_beta   87.02534680
_cell_angle_gamma   116.97177655
_symmetry_Int_Tables_number   1
_chemical_formula_structural   Li7Mn(OF)3
_chemical_formula_sum   'Li14 Mn2 O6 F6'
_cell_volume   281.77171058
_cell_formula_units_Z   2
loop_
 _symmetry_equiv_pos_site_id
 _symmetry_equiv_pos_as_xyz
  1  'x, y, z'
loop_
 _atom_site_type_symbol
 _atom_site_label
 _atom_site_symmetry_multiplicity
 _atom_site_fract_x
 _atom_site_fract_y
 _atom_site_fract_z
 _atom_site_occupancy
  Li  Li0  1  0.52908900  0.36680400  0.74663600  1
  Li  Li1  1  0.53250500  0.34868800  0.05804300  1
  Li  Li2  1  0.56281100  0.09069000  0.20708500  1
  Li  Li3  1  0.91362800  0.94068800  0.31622200  1
  Li  Li4  1  0.94742100  0.60323800  0.44357600  1
  Li  Li5  1  0.00337500  0.63217500  0.75372700  1
  Li  Li6  1  0.00384400  0.63152900  0.09958100  1
  Li  Li7  1  0.98845800  0.35733900  0.88513300  1
  Li  Li8  1  0.05190500  0.36724600  0.23897700  1
  Li  Li9  1  0.02871200  0.35459900  0.55159100  1
  Li  Li10  1  0.01811600  0.03444900  0.67361700  1
  Li  Li11  1  0.45421800  0.99928600  0.82036200  1
  Li  Li12  1  0.45133100  0.65269000  0.95139200  1
  Li  Li13  1  0.49681200  0.64418000  0.60265200  1
  Mn  Mn14  1  0.01763100  0.01652400  0.99141600  1
  Mn  Mn15  1  0.52166300  0.02684700  0.50988200  1
  O  O16  1  0.29991600  0.26839100  0.88509400  1
  O  O17  1  0.80580700  0.22066200  0.37798500  1
  O  O18  1  0.79172500  0.24460900  0.70229200  1
  O  O19  1  0.81807800  0.24774300  0.05940800  1
  O  O20  1  0.17252000  0.74839400  0.93984800  1
  O  O21  1  0.22009700  0.75230800  0.60469600  1
  F  F22  1  0.28313800  0.20631300  0.19876200  1
  F  F23  1  0.31750900  0.28213300  0.57414700  1
  F  F24  1  0.14310200  0.73793900  0.28931400  1
  F  F25  1  0.75967000  0.79345800  0.48263600  1
  F  F26  1  0.69834700  0.73626700  0.78207000  1
  F  F27  1  0.69790900  0.72445400  0.12122600  1
