# generated using pymatgen
data_LiMn2OF3
_symmetry_space_group_name_H-M   'P 1'
_cell_length_a   5.26219000
_cell_length_b   10.70937500
_cell_length_c   6.35659500
_cell_angle_alpha   90.00030303
_cell_angle_beta   89.99978295
_cell_angle_gamma   89.99995682
_symmetry_Int_Tables_number   1
_chemical_formula_structural   LiMn2OF3
_chemical_formula_sum   'Li4 Mn8 O4 F12'
_cell_volume   358.22442398
_cell_formula_units_Z   4
loop_
 _symmetry_equiv_pos_site_id
 _symmetry_equiv_pos_as_xyz
  1  'x, y, z'
loop_
 _atom_site_type_symbol
 _atom_site_label
 _atom_site_symmetry_multiplicity
 _atom_site_fract_x
 _atom_site_fract_y
 _atom_site_fract_z
 _atom_site_occupancy
  Li  Li0  1  0.47678300  0.08787100  0.25000600  1
  Li  Li1  1  0.97677000  0.41213600  0.75000600  1
  Li  Li2  1  0.02324200  0.58786900  0.25000900  1
  Li  Li3  1  0.52326100  0.91213800  0.75000700  1
  Mn  Mn4  1  0.48916000  0.24046100  0.75000100  1
  Mn  Mn5  1  0.98916100  0.25952500  0.24998600  1
  Mn  Mn6  1  0.01087300  0.74046700  0.75000500  1
  Mn  Mn7  1  0.51085300  0.75953400  0.25001100  1
  Mn  Mn8  1  0.99982800  0.99997800  0.99997500  1
  Mn  Mn9  1  0.99989300  0.99998700  0.50005400  1
  Mn  Mn10  1  0.50017900  0.49998700  0.99995700  1
  Mn  Mn11  1  0.49987100  0.50001400  0.49996800  1
  O  O12  1  0.83286400  0.08440000  0.25000600  1
  O  O13  1  0.33286400  0.41559800  0.74998700  1
  O  O14  1  0.66714500  0.58440400  0.24998600  1
  O  O15  1  0.16715800  0.91560400  0.75000600  1
  F  F16  1  0.71146600  0.07249700  0.75000500  1
  F  F17  1  0.21146100  0.42750500  0.25000500  1
  F  F18  1  0.78854900  0.57249500  0.75000100  1
  F  F19  1  0.28854600  0.92751400  0.25000200  1
  F  F20  1  0.28274300  0.16698700  0.47997700  1
  F  F21  1  0.28274100  0.16698300  0.02002600  1
  F  F22  1  0.78273600  0.33301700  0.97998400  1
  F  F23  1  0.78274200  0.33301700  0.52001300  1
  F  F24  1  0.21727400  0.66698700  0.02002400  1
  F  F25  1  0.21728000  0.66698800  0.47997900  1
  F  F26  1  0.71727600  0.83302000  0.52001900  1
  F  F27  1  0.71728100  0.83301800  0.97999300  1
