# generated using pymatgen
data_Li2Bi2P2O9
_symmetry_space_group_name_H-M   'P 1'
_cell_length_a   9.31070100
_cell_length_b   5.69485400
_cell_length_c   7.89641359
_cell_angle_alpha   86.97420840
_cell_angle_beta   90.00000000
_cell_angle_gamma   90.00000000
_symmetry_Int_Tables_number   1
_chemical_formula_structural   Li2Bi2P2O9
_chemical_formula_sum   'Li4 Bi4 P4 O18'
_cell_volume   418.10848248
_cell_formula_units_Z   2
loop_
 _symmetry_equiv_pos_site_id
 _symmetry_equiv_pos_as_xyz
  1  'x, y, z'
loop_
 _atom_site_type_symbol
 _atom_site_label
 _atom_site_symmetry_multiplicity
 _atom_site_fract_x
 _atom_site_fract_y
 _atom_site_fract_z
 _atom_site_occupancy
  Li  Li0  1  0.58000800  0.60336900  0.81929400  1
  Li  Li1  1  0.08000800  0.39663100  0.18070600  1
  Li  Li2  1  0.61983500  0.52842600  0.39459500  1
  Li  Li3  1  0.11983500  0.47157400  0.60540500  1
  Bi  Bi4  1  0.20953200  0.97164400  0.87859500  1
  Bi  Bi5  1  0.70953200  0.02835600  0.12140500  1
  Bi  Bi6  1  0.28076700  0.89138700  0.42435900  1
  Bi  Bi7  1  0.78076700  0.10861300  0.57564100  1
  P  P8  1  0.44926900  0.18334300  0.65947200  1
  P  P9  1  0.87024500  0.47680800  0.85840900  1
  P  P10  1  0.37024500  0.52319200  0.14159100  1
  P  P11  1  0.94926900  0.81665700  0.34052800  1
  O  O12  1  0.92197300  0.40454600  0.67638600  1
  O  O13  1  0.77973700  0.70509400  0.84303700  1
  O  O14  1  0.76481000  0.26486600  0.91044200  1
  O  O15  1  0.49891000  0.51634800  0.02571700  1
  O  O16  1  0.44277600  0.06818200  0.84451400  1
  O  O17  1  0.94277600  0.93181800  0.15548600  1
  O  O18  1  0.99891000  0.48365200  0.97428300  1
  O  O19  1  0.26481000  0.73513400  0.08955800  1
  O  O20  1  0.27973700  0.29490600  0.15696300  1
  O  O21  1  0.42197300  0.59545400  0.32361400  1
  O  O22  1  0.79117700  0.75548200  0.39002400  1
  O  O23  1  0.73057600  0.26023000  0.32424300  1
  O  O24  1  0.05963100  0.61498100  0.36092500  1
  O  O25  1  0.00075000  0.01301200  0.46136500  1
  O  O26  1  0.50075000  0.98698800  0.53863500  1
  O  O27  1  0.55963100  0.38501900  0.63907500  1
  O  O28  1  0.23057600  0.73977000  0.67575700  1
  O  O29  1  0.29117700  0.24451800  0.60997600  1
