# generated using pymatgen
data_Li3Ti2(PO4)3
_symmetry_space_group_name_H-M   'P 1'
_cell_length_a   8.46860827
_cell_length_b   8.46860827
_cell_length_c   8.69363824
_cell_angle_alpha   62.52043623
_cell_angle_beta   62.52043623
_cell_angle_gamma   63.65983835
_symmetry_Int_Tables_number   1
_chemical_formula_structural   Li3Ti2(PO4)3
_chemical_formula_sum   'Li6 Ti4 P6 O24'
_cell_volume   469.16373568
_cell_formula_units_Z   2
loop_
 _symmetry_equiv_pos_site_id
 _symmetry_equiv_pos_as_xyz
  1  'x, y, z'
loop_
 _atom_site_type_symbol
 _atom_site_label
 _atom_site_symmetry_multiplicity
 _atom_site_fract_x
 _atom_site_fract_y
 _atom_site_fract_z
 _atom_site_occupancy
  Li  Li0  1  0.86887000  0.74193600  0.66087500  1
  Li  Li1  1  0.74193600  0.86887000  0.16087500  1
  Li  Li2  1  0.50000000  0.00000000  0.50000000  1
  Li  Li3  1  0.25806400  0.13113000  0.83912500  1
  Li  Li4  1  0.00000000  0.50000000  0.00000000  1
  Li  Li5  1  0.13113000  0.25806400  0.33912500  1
  Ti  Ti6  1  0.85475100  0.35984000  0.85408500  1
  Ti  Ti7  1  0.35984000  0.85475100  0.35408500  1
  Ti  Ti8  1  0.64016000  0.14524900  0.64591500  1
  Ti  Ti9  1  0.14524900  0.64016000  0.14591500  1
  P  P10  1  0.55251200  0.74910100  0.96101000  1
  P  P11  1  0.94900500  0.05099500  0.25000000  1
  P  P12  1  0.74910100  0.55251200  0.46101000  1
  P  P13  1  0.25089900  0.44748800  0.53899000  1
  P  P14  1  0.05099500  0.94900500  0.75000000  1
  P  P15  1  0.44748800  0.25089900  0.03899000  1
  O  O16  1  0.97982800  0.88638700  0.19491000  1
  O  O17  1  0.88638700  0.97982800  0.69491000  1
  O  O18  1  0.54743500  0.91094000  0.77414500  1
  O  O19  1  0.74791100  0.60503300  0.91933900  1
  O  O20  1  0.53625600  0.81301600  0.10840600  1
  O  O21  1  0.38960500  0.67698500  0.02139300  1
  O  O22  1  0.94130700  0.23518900  0.08517400  1
  O  O23  1  0.91094000  0.54743500  0.27414500  1
  O  O24  1  0.60503300  0.74791100  0.41933900  1
  O  O25  1  0.81301600  0.53625600  0.60840600  1
  O  O26  1  0.76481100  0.05869300  0.41482600  1
  O  O27  1  0.67698500  0.38960500  0.52139300  1
  O  O28  1  0.32301500  0.61039500  0.47860700  1
  O  O29  1  0.23518900  0.94130700  0.58517400  1
  O  O30  1  0.18698400  0.46374400  0.39159400  1
  O  O31  1  0.39496700  0.25208900  0.58066100  1
  O  O32  1  0.08906000  0.45256500  0.72585500  1
  O  O33  1  0.05869300  0.76481100  0.91482600  1
  O  O34  1  0.61039500  0.32301500  0.97860700  1
  O  O35  1  0.46374400  0.18698400  0.89159400  1
  O  O36  1  0.25208900  0.39496700  0.08066100  1
  O  O37  1  0.45256500  0.08906000  0.22585500  1
  O  O38  1  0.11361300  0.02017200  0.30509000  1
  O  O39  1  0.02017200  0.11361300  0.80509000  1
