# generated using pymatgen
data_Li2Cr3CoO8
_symmetry_space_group_name_H-M   'P 1'
_cell_length_a   5.16447600
_cell_length_b   5.85287998
_cell_length_c   10.56595132
_cell_angle_alpha   74.00872498
_cell_angle_beta   77.13960526
_cell_angle_gamma   74.12741386
_symmetry_Int_Tables_number   1
_chemical_formula_structural   Li2Cr3CoO8
_chemical_formula_sum   'Li4 Cr6 Co2 O16'
_cell_volume   291.54533108
_cell_formula_units_Z   2
loop_
 _symmetry_equiv_pos_site_id
 _symmetry_equiv_pos_as_xyz
  1  'x, y, z'
loop_
 _atom_site_type_symbol
 _atom_site_label
 _atom_site_symmetry_multiplicity
 _atom_site_fract_x
 _atom_site_fract_y
 _atom_site_fract_z
 _atom_site_occupancy
  Li  Li0  1  0.00344600  0.23745500  0.49561600  1
  Li  Li1  1  0.00133900  0.62288300  0.25111400  1
  Li  Li2  1  0.99966200  0.99586300  0.00536600  1
  Li  Li3  1  0.99228100  0.39748500  0.75144600  1
  Cr  Cr4  1  0.50008600  0.31275400  0.12641000  1
  Cr  Cr5  1  0.50916000  0.05867600  0.62367800  1
  Cr  Cr6  1  0.50460500  0.93794400  0.37229600  1
  Cr  Cr7  1  0.49256500  0.56474000  0.62235100  1
  Cr  Cr8  1  0.50354500  0.18573400  0.87484000  1
  Cr  Cr9  1  0.49368000  0.68822200  0.87735300  1
  Co  Co10  1  0.49642900  0.43977000  0.37473900  1
  Co  Co11  1  0.50004600  0.81226100  0.12631400  1
  O  O12  1  0.29836600  0.13352300  0.05693000  1
  O  O13  1  0.29007100  0.28333000  0.31294700  1
  O  O14  1  0.28877900  0.65732400  0.06572700  1
  O  O15  1  0.28817900  0.03319900  0.80930500  1
  O  O16  1  0.28899200  0.38693200  0.55407000  1
  O  O17  1  0.29835600  0.76382400  0.30231000  1
  O  O18  1  0.30229800  0.90775300  0.55576700  1
  O  O19  1  0.29426900  0.50495000  0.80879400  1
  O  O20  1  0.69688300  0.49037900  0.19982200  1
  O  O21  1  0.70549500  0.11612700  0.44306200  1
  O  O22  1  0.70782400  0.59168800  0.43481900  1
  O  O23  1  0.71320400  0.96705700  0.18517900  1
  O  O24  1  0.71664600  0.22829300  0.68958100  1
  O  O25  1  0.69893600  0.72840200  0.69340500  1
  O  O26  1  0.71122000  0.34428400  0.93899800  1
  O  O27  1  0.70207200  0.85895400  0.94872200  1
