# generated using pymatgen
data_LiMnPO4
_symmetry_space_group_name_H-M   'P 1'
_cell_length_a   5.28762900
_cell_length_b   7.10460900
_cell_length_c   8.24660300
_cell_angle_alpha   90.00134330
_cell_angle_beta   89.99973797
_cell_angle_gamma   89.99883422
_symmetry_Int_Tables_number   1
_chemical_formula_structural   LiMnPO4
_chemical_formula_sum   'Li4 Mn4 P4 O16'
_cell_volume   309.79631320
_cell_formula_units_Z   4
loop_
 _symmetry_equiv_pos_site_id
 _symmetry_equiv_pos_as_xyz
  1  'x, y, z'
loop_
 _atom_site_type_symbol
 _atom_site_label
 _atom_site_symmetry_multiplicity
 _atom_site_fract_x
 _atom_site_fract_y
 _atom_site_fract_z
 _atom_site_occupancy
  Li  Li0  1  0.21758600  0.24726700  0.55395000  1
  Li  Li1  1  0.71758700  0.25273100  0.05395600  1
  Li  Li2  1  0.21758000  0.74727600  0.94604200  1
  Li  Li3  1  0.71758700  0.75274200  0.44604800  1
  Mn  Mn4  1  0.23635500  0.52333500  0.25664600  1
  Mn  Mn5  1  0.73637200  0.47664200  0.74333800  1
  Mn  Mn6  1  0.73620900  0.97668400  0.75664300  1
  Mn  Mn7  1  0.23634000  0.02328300  0.24339700  1
  P  P8  1  0.72312600  0.21369300  0.40674300  1
  P  P9  1  0.22312100  0.28628900  0.90675300  1
  P  P10  1  0.72312600  0.71371300  0.09324400  1
  P  P11  1  0.22310900  0.78630700  0.59325500  1
  O  O12  1  0.68738200  0.02979200  0.50289900  1
  O  O13  1  0.18737800  0.47021600  0.00288900  1
  O  O14  1  0.68737400  0.52979500  0.99710200  1
  O  O15  1  0.18738300  0.97021600  0.49710800  1
  O  O16  1  0.45176500  0.27744400  0.34718800  1
  O  O17  1  0.95176500  0.22253100  0.84718900  1
  O  O18  1  0.45176700  0.77747400  0.15280900  1
  O  O19  1  0.95175500  0.72256400  0.65281400  1
  O  O20  1  0.89040000  0.18498300  0.25291300  1
  O  O21  1  0.39039900  0.31497800  0.75291400  1
  O  O22  1  0.89039800  0.68502800  0.24708300  1
  O  O23  1  0.39037500  0.81500700  0.74708800  1
  O  O24  1  0.85445200  0.36361800  0.51410500  1
  O  O25  1  0.35443400  0.13638000  0.01413100  1
  O  O26  1  0.85442700  0.86362400  0.98586700  1
  O  O27  1  0.35444600  0.63638900  0.48588700  1
