# generated using pymatgen
data_Li4Mn2(PO4)3
_symmetry_space_group_name_H-M   'P 1'
_cell_length_a   8.58316500
_cell_length_b   8.70315323
_cell_length_c   8.87286197
_cell_angle_alpha   89.69156438
_cell_angle_beta   118.31968449
_cell_angle_gamma   118.85029360
_symmetry_Int_Tables_number   1
_chemical_formula_structural   Li4Mn2(PO4)3
_chemical_formula_sum   'Li8 Mn4 P6 O24'
_cell_volume   489.11503510
_cell_formula_units_Z   2
loop_
 _symmetry_equiv_pos_site_id
 _symmetry_equiv_pos_as_xyz
  1  'x, y, z'
loop_
 _atom_site_type_symbol
 _atom_site_label
 _atom_site_symmetry_multiplicity
 _atom_site_fract_x
 _atom_site_fract_y
 _atom_site_fract_z
 _atom_site_occupancy
  Li  Li0  1  0.93161100  0.10500000  0.64387000  1
  Li  Li1  1  0.55914100  0.27093800  0.17156100  1
  Li  Li2  1  0.43557300  0.77778900  0.44374500  1
  Li  Li3  1  0.35326900  0.58005000  0.13325100  1
  Li  Li4  1  0.64673100  0.41995000  0.86674900  1
  Li  Li5  1  0.56442700  0.22221100  0.55625500  1
  Li  Li6  1  0.44085900  0.72906200  0.82843900  1
  Li  Li7  1  0.06838900  0.89500000  0.35613000  1
  Mn  Mn8  1  0.79573900  0.64375700  0.45676800  1
  Mn  Mn9  1  0.20426100  0.35624300  0.54323200  1
  Mn  Mn10  1  0.77950000  0.13749200  0.93487900  1
  Mn  Mn11  1  0.22050000  0.86250800  0.06512100  1
  P  P12  1  0.29204200  0.24747100  0.25562800  1
  P  P13  1  0.30222700  0.06793300  0.75112500  1
  P  P14  1  0.00211200  0.45976600  0.74315900  1
  P  P15  1  0.99788800  0.54023400  0.25684100  1
  P  P16  1  0.69777300  0.93206700  0.24887500  1
  P  P17  1  0.70795800  0.75252900  0.74437200  1
  O  O18  1  0.37608600  0.11988600  0.26887600  1
  O  O19  1  0.87935800  0.25849900  0.74324000  1
  O  O20  1  0.35838400  0.06216700  0.94266700  1
  O  O21  1  0.45037000  0.42920600  0.24357600  1
  O  O22  1  0.86711600  0.11911500  0.39242000  1
  O  O23  1  0.81988700  0.48682200  0.61379300  1
  O  O24  1  0.22664700  0.20597200  0.71306200  1
  O  O25  1  0.50572800  0.15528300  0.74483100  1
  O  O26  1  0.93135600  0.82742400  0.89577600  1
  O  O27  1  0.14609500  0.59987900  0.92880300  1
  O  O28  1  0.68833800  0.73403800  0.55782400  1
  O  O29  1  0.15229500  0.48840500  0.67913400  1
  O  O30  1  0.84770500  0.51159500  0.32086600  1
  O  O31  1  0.31166200  0.26596200  0.44217600  1
  O  O32  1  0.85390500  0.40012100  0.07119700  1
  O  O33  1  0.06864400  0.17257600  0.10422400  1
  O  O34  1  0.49427200  0.84471700  0.25516900  1
  O  O35  1  0.77335300  0.79402800  0.28693800  1
  O  O36  1  0.18011300  0.51317800  0.38620700  1
  O  O37  1  0.13288400  0.88088500  0.60758000  1
  O  O38  1  0.54963000  0.57079400  0.75642400  1
  O  O39  1  0.64161600  0.93783300  0.05733300  1
  O  O40  1  0.12064200  0.74150100  0.25676000  1
  O  O41  1  0.62391400  0.88011400  0.73112400  1
