# generated using pymatgen
data_Li2Sn3(P2O7)2
_symmetry_space_group_name_H-M   'P 1'
_cell_length_a   6.00348700
_cell_length_b   7.29777867
_cell_length_c   16.32414190
_cell_angle_alpha   82.83037746
_cell_angle_beta   84.66598180
_cell_angle_gamma   68.56868690
_symmetry_Int_Tables_number   1
_chemical_formula_structural   Li2Sn3(P2O7)2
_chemical_formula_sum   'Li4 Sn6 P8 O28'
_cell_volume   659.66955421
_cell_formula_units_Z   2
loop_
 _symmetry_equiv_pos_site_id
 _symmetry_equiv_pos_as_xyz
  1  'x, y, z'
loop_
 _atom_site_type_symbol
 _atom_site_label
 _atom_site_symmetry_multiplicity
 _atom_site_fract_x
 _atom_site_fract_y
 _atom_site_fract_z
 _atom_site_occupancy
  Li  Li0  1  0.12002400  0.15745700  0.99325800  1
  Li  Li1  1  0.30185300  0.67526500  0.10039100  1
  Li  Li2  1  0.69814700  0.32473500  0.89960900  1
  Li  Li3  1  0.87997600  0.84254300  0.00674200  1
  Sn  Sn4  1  0.14021400  0.27961000  0.58119300  1
  Sn  Sn5  1  0.09690000  0.61212600  0.82267100  1
  Sn  Sn6  1  0.27040100  0.97271100  0.32628500  1
  Sn  Sn7  1  0.72959900  0.02728900  0.67371500  1
  Sn  Sn8  1  0.90310000  0.38787400  0.17732900  1
  Sn  Sn9  1  0.85978600  0.72039000  0.41880700  1
  P  P10  1  0.16884300  0.08137000  0.80969400  1
  P  P11  1  0.38596400  0.44733300  0.32376400  1
  P  P12  1  0.54590900  0.23321400  0.06736900  1
  P  P13  1  0.26385000  0.80085600  0.54309100  1
  P  P14  1  0.73615000  0.19914400  0.45690900  1
  P  P15  1  0.45409100  0.76678600  0.93263100  1
  P  P16  1  0.61403600  0.55266700  0.67623600  1
  P  P17  1  0.83115700  0.91863000  0.19030600  1
  O  O18  1  0.98812100  0.04390700  0.19822900  1
  O  O19  1  0.28455200  0.28876000  0.04892000  1
  O  O20  1  0.24772000  0.32919100  0.29638100  1
  O  O21  1  0.04357300  0.23967800  0.87002500  1
  O  O22  1  0.21451100  0.65588400  0.34620000  1
  O  O23  1  0.11321200  0.67711800  0.53196500  1
  O  O24  1  0.25867000  0.16084100  0.72772100  1
  O  O25  1  0.58648400  0.06847200  0.14771700  1
  O  O26  1  0.12579700  0.96605600  0.60086200  1
  O  O27  1  0.72915400  0.13561000  0.99865100  1
  O  O28  1  0.49359500  0.33800500  0.41225200  1
  O  O29  1  0.40120100  0.58926000  0.90655300  1
  O  O30  1  0.63964200  0.11367100  0.53669300  1
  O  O31  1  0.58617700  0.47329700  0.26517500  1
  O  O32  1  0.41382300  0.52670300  0.73482500  1
  O  O33  1  0.36035800  0.88632900  0.46330700  1
  O  O34  1  0.59879900  0.41074000  0.09344700  1
  O  O35  1  0.50640500  0.66199500  0.58774800  1
  O  O36  1  0.27084600  0.86439000  0.00134900  1
  O  O37  1  0.87420300  0.03394400  0.39913800  1
  O  O38  1  0.41351600  0.93152800  0.85228300  1
  O  O39  1  0.74133000  0.83915900  0.27227900  1
  O  O40  1  0.88678800  0.32288200  0.46803500  1
  O  O41  1  0.78548900  0.34411600  0.65380000  1
  O  O42  1  0.95642700  0.76032200  0.12997500  1
  O  O43  1  0.75228000  0.67080900  0.70361900  1
  O  O44  1  0.71544800  0.71124000  0.95108000  1
  O  O45  1  0.01187900  0.95609300  0.80177100  1
