# generated using pymatgen
data_LiVF5
_symmetry_space_group_name_H-M   'P 1'
_cell_length_a   6.84388300
_cell_length_b   7.35387100
_cell_length_c   7.65578300
_cell_angle_alpha   90.00000000
_cell_angle_beta   90.00000000
_cell_angle_gamma   90.00000000
_symmetry_Int_Tables_number   1
_chemical_formula_structural   LiVF5
_chemical_formula_sum   'Li4 V4 F20'
_cell_volume   385.30815311
_cell_formula_units_Z   4
loop_
 _symmetry_equiv_pos_site_id
 _symmetry_equiv_pos_as_xyz
  1  'x, y, z'
loop_
 _atom_site_type_symbol
 _atom_site_label
 _atom_site_symmetry_multiplicity
 _atom_site_fract_x
 _atom_site_fract_y
 _atom_site_fract_z
 _atom_site_occupancy
  Li  Li0  1  0.82252900  0.25000000  0.12189700  1
  Li  Li1  1  0.32252900  0.75000000  0.37810300  1
  Li  Li2  1  0.67747100  0.25000000  0.62189700  1
  Li  Li3  1  0.17747100  0.75000000  0.87810300  1
  V  V4  1  0.74514600  0.75000000  0.12443700  1
  V  V5  1  0.24514600  0.25000000  0.37556300  1
  V  V6  1  0.75485400  0.75000000  0.62443700  1
  V  V7  1  0.25485400  0.25000000  0.87556300  1
  F  F8  1  0.01383800  0.75000000  0.08966200  1
  F  F9  1  0.74200800  0.00117500  0.12410100  1
  F  F10  1  0.74200800  0.49882500  0.12410100  1
  F  F11  1  0.28859500  0.25000000  0.12614500  1
  F  F12  1  0.47727600  0.75000000  0.16033900  1
  F  F13  1  0.97727600  0.25000000  0.33966100  1
  F  F14  1  0.78859500  0.75000000  0.37385500  1
  F  F15  1  0.24200800  0.50117500  0.37589900  1
  F  F16  1  0.24200800  0.99882500  0.37589900  1
  F  F17  1  0.51383800  0.25000000  0.41033800  1
  F  F18  1  0.48616200  0.75000000  0.58966200  1
  F  F19  1  0.75799200  0.00117500  0.62410100  1
  F  F20  1  0.75799200  0.49882500  0.62410100  1
  F  F21  1  0.21140500  0.25000000  0.62614500  1
  F  F22  1  0.02272400  0.75000000  0.66033900  1
  F  F23  1  0.52272400  0.25000000  0.83966100  1
  F  F24  1  0.71140500  0.75000000  0.87385500  1
  F  F25  1  0.25799200  0.50117500  0.87589900  1
  F  F26  1  0.25799200  0.99882500  0.87589900  1
  F  F27  1  0.98616200  0.25000000  0.91033800  1
