# generated using pymatgen
data_Li32Mn13Cr3O48
_symmetry_space_group_name_H-M   'P 1'
_cell_length_a   5.00420400
_cell_length_b   8.68648345
_cell_length_c   19.42083081
_cell_angle_alpha   98.42216656
_cell_angle_beta   94.75466503
_cell_angle_gamma   89.95699428
_symmetry_Int_Tables_number   1
_chemical_formula_structural   Li32Mn13Cr3O48
_chemical_formula_sum   'Li32 Mn13 Cr3 O48'
_cell_volume   832.16940901
_cell_formula_units_Z   1
loop_
 _symmetry_equiv_pos_site_id
 _symmetry_equiv_pos_as_xyz
  1  'x, y, z'
loop_
 _atom_site_type_symbol
 _atom_site_label
 _atom_site_symmetry_multiplicity
 _atom_site_fract_x
 _atom_site_fract_y
 _atom_site_fract_z
 _atom_site_occupancy
  Li  Li0  1  0.99032300  0.16692600  0.24959600  1
  Li  Li1  1  0.87250700  0.37563300  0.37525100  1
  Li  Li2  1  0.75020600  0.24989700  0.00006300  1
  Li  Li3  1  0.74151200  0.91982200  0.00059300  1
  Li  Li4  1  0.99256100  0.16805900  0.75017600  1
  Li  Li5  1  0.75612400  0.57857900  0.49980900  1
  Li  Li6  1  0.87576600  0.37468000  0.87525600  1
  Li  Li7  1  0.74896400  0.25153600  0.49993700  1
  Li  Li8  1  0.74403100  0.92023200  0.50004700  1
  Li  Li9  1  0.62485000  0.12502600  0.12499900  1
  Li  Li10  1  0.75689800  0.58044400  0.99978600  1
  Li  Li11  1  0.50985900  0.33102700  0.24966900  1
  Li  Li12  1  0.62373100  0.12452300  0.62511700  1
  Li  Li13  1  0.49922000  0.00000300  0.24994900  1
  Li  Li14  1  0.49149400  0.66850700  0.24971000  1
  Li  Li15  1  0.50745400  0.33271400  0.75023800  1
  Li  Li16  1  0.37447900  0.87515500  0.37473200  1
  Li  Li17  1  0.50042100  0.99966900  0.75020000  1
  Li  Li18  1  0.25206700  0.74911300  0.00014300  1
  Li  Li19  1  0.49109200  0.66778000  0.74946600  1
  Li  Li20  1  0.24282700  0.42027800  0.00018600  1
  Li  Li21  1  0.37760500  0.87515600  0.87470400  1
  Li  Li22  1  0.25865200  0.07889600  0.49956200  1
  Li  Li23  1  0.24978700  0.74985400  0.50002300  1
  Li  Li24  1  0.12488600  0.62505500  0.12500000  1
  Li  Li25  1  0.24312200  0.42123100  0.50045900  1
  Li  Li26  1  0.00910900  0.83251300  0.25044000  1
  Li  Li27  1  0.25635600  0.08052500  0.99984700  1
  Li  Li28  1  0.12459100  0.62414100  0.62485800  1
  Li  Li29  1  0.00052000  0.50038900  0.24981900  1
  Li  Li30  1  0.00684800  0.83188500  0.75021400  1
  Li  Li31  1  0.00174300  0.50031100  0.74990400  1
  Mn  Mn32  1  0.87493600  0.70843800  0.37483800  1
  Mn  Mn33  1  0.87337700  0.03977000  0.37418500  1
  Mn  Mn34  1  0.87361500  0.04193000  0.87442100  1
  Mn  Mn35  1  0.62575400  0.79132500  0.12493800  1
  Mn  Mn36  1  0.62470400  0.45850300  0.12500800  1
  Mn  Mn37  1  0.62608600  0.79136400  0.62500000  1
  Mn  Mn38  1  0.62418300  0.45984200  0.62469000  1
  Mn  Mn39  1  0.37740200  0.54308400  0.37556500  1
  Mn  Mn40  1  0.37745600  0.54063000  0.87585600  1
  Mn  Mn41  1  0.37375100  0.20851500  0.87514700  1
  Mn  Mn42  1  0.12464900  0.95837500  0.12493600  1
  Mn  Mn43  1  0.12565400  0.29140000  0.12499900  1
  Mn  Mn44  1  0.12561600  0.95685400  0.62535600  1
  Cr  Cr45  1  0.87993800  0.70897600  0.87500300  1
  Cr  Cr46  1  0.36810500  0.21025600  0.37500300  1
  Cr  Cr47  1  0.12274000  0.28908600  0.62509100  1
  O  O48  1  0.96396500  0.10645800  0.06914300  1
  O  O49  1  0.92836400  0.78515800  0.06901900  1
  O  O50  1  0.92786200  0.42742300  0.06831200  1
  O  O51  1  0.96660900  0.10600400  0.56934500  1
  O  O52  1  0.82170800  0.96459100  0.18062000  1
  O  O53  1  0.82238100  0.32247200  0.18184700  1
  O  O54  1  0.92799000  0.78487000  0.56914000  1
  O  O55  1  0.92402700  0.42939900  0.56758000  1
  O  O56  1  0.78607200  0.64342200  0.18076800  1
  O  O57  1  0.71194000  0.85556000  0.31902300  1
  O  O58  1  0.82213900  0.96501800  0.68068400  1
  O  O59  1  0.82592600  0.32446900  0.68178800  1
  O  O60  1  0.67898400  0.53500400  0.31904000  1
  O  O61  1  0.67774800  0.17685200  0.31813700  1
  O  O62  1  0.78678800  0.64387900  0.68082200  1
  O  O63  1  0.71213500  0.85972600  0.81840900  1
  O  O64  1  0.46423900  0.60628100  0.06928500  1
  O  O65  1  0.57210500  0.71592000  0.43079100  1
  O  O66  1  0.57260300  0.07383800  0.43176700  1
  O  O67  1  0.67815900  0.53748000  0.81938300  1
  O  O68  1  0.67788700  0.17866600  0.81834300  1
  O  O69  1  0.42785800  0.92753800  0.06814100  1
  O  O70  1  0.42816500  0.28517200  0.06916200  1
  O  O71  1  0.53791300  0.39788600  0.43149100  1
  O  O72  1  0.46289500  0.60746500  0.56935500  1
  O  O73  1  0.56920500  0.71452600  0.93117200  1
  O  O74  1  0.57120900  0.07230900  0.93180900  1
  O  O75  1  0.32243700  0.82237000  0.18158900  1
  O  O76  1  0.32197700  0.46470400  0.18092100  1
  O  O77  1  0.42854700  0.92751200  0.56824100  1
  O  O78  1  0.42624600  0.28697200  0.56922000  1
  O  O79  1  0.53795200  0.39278500  0.93099000  1
  O  O80  1  0.28598700  0.14346400  0.18082800  1
  O  O81  1  0.21889000  0.35591700  0.31925000  1
  O  O82  1  0.32221200  0.82157200  0.68172600  1
  O  O83  1  0.32376100  0.46554800  0.68124500  1
  O  O84  1  0.17757700  0.67763600  0.31813000  1
  O  O85  1  0.17287900  0.03222900  0.31833000  1
  O  O86  1  0.28729200  0.14048500  0.68127300  1
  O  O87  1  0.21376500  0.35628500  0.81935900  1
  O  O88  1  0.07245500  0.57232200  0.43151600  1
  O  O89  1  0.07474700  0.21277500  0.43066600  1
  O  O90  1  0.17722100  0.67609300  0.81845100  1
  O  O91  1  0.17771300  0.03497600  0.81934800  1
  O  O92  1  0.03596100  0.89307400  0.43064600  1
  O  O93  1  0.07602700  0.57081500  0.93245100  1
  O  O94  1  0.07194200  0.21483400  0.93092800  1
  O  O95  1  0.02996800  0.89233600  0.93072700  1
