# generated using pymatgen
data_LiVCO3F2
_symmetry_space_group_name_H-M   'P 1'
_cell_length_a   5.71465100
_cell_length_b   6.66772200
_cell_length_c   9.00548000
_cell_angle_alpha   90.00000000
_cell_angle_beta   90.00000000
_cell_angle_gamma   90.00000000
_symmetry_Int_Tables_number   1
_chemical_formula_structural   LiVCO3F2
_chemical_formula_sum   'Li4 V4 C4 O12 F8'
_cell_volume   343.14214605
_cell_formula_units_Z   4
loop_
 _symmetry_equiv_pos_site_id
 _symmetry_equiv_pos_as_xyz
  1  'x, y, z'
loop_
 _atom_site_type_symbol
 _atom_site_label
 _atom_site_symmetry_multiplicity
 _atom_site_fract_x
 _atom_site_fract_y
 _atom_site_fract_z
 _atom_site_occupancy
  Li  Li0  1  0.71836000  0.25000000  0.27308400  1
  Li  Li1  1  0.21836000  0.25000000  0.22691600  1
  Li  Li2  1  0.28164000  0.75000000  0.72691600  1
  Li  Li3  1  0.78164000  0.75000000  0.77308400  1
  V  V4  1  0.02440300  0.25000000  0.61063700  1
  V  V5  1  0.52440300  0.25000000  0.88936300  1
  V  V6  1  0.47559700  0.75000000  0.11063700  1
  V  V7  1  0.97559700  0.75000000  0.38936300  1
  C  C8  1  0.46223400  0.25000000  0.54951500  1
  C  C9  1  0.96223400  0.25000000  0.95048500  1
  C  C10  1  0.03776600  0.75000000  0.04951500  1
  C  C11  1  0.53776600  0.75000000  0.45048500  1
  O  O12  1  0.80362200  0.25000000  0.05220100  1
  O  O13  1  0.30362200  0.25000000  0.44779900  1
  O  O14  1  0.68009100  0.25000000  0.52101500  1
  O  O15  1  0.18009100  0.25000000  0.97898500  1
  O  O16  1  0.87030500  0.25000000  0.81627500  1
  O  O17  1  0.37030500  0.25000000  0.68372500  1
  O  O18  1  0.81990900  0.75000000  0.02101500  1
  O  O19  1  0.12969500  0.75000000  0.18372500  1
  O  O20  1  0.62969500  0.75000000  0.31627500  1
  O  O21  1  0.31990900  0.75000000  0.47898500  1
  O  O22  1  0.69637800  0.75000000  0.55220100  1
  O  O23  1  0.19637800  0.75000000  0.94779900  1
  F  F24  1  0.45512000  0.03618200  0.15657100  1
  F  F25  1  0.95512000  0.03618200  0.34342900  1
  F  F26  1  0.45512000  0.46381800  0.15657100  1
  F  F27  1  0.95512000  0.46381800  0.34342900  1
  F  F28  1  0.54488000  0.53618200  0.84342900  1
  F  F29  1  0.04488000  0.53618200  0.65657100  1
  F  F30  1  0.04488000  0.96381800  0.65657100  1
  F  F31  1  0.54488000  0.96381800  0.84342900  1
