# generated using pymatgen
data_Li3Mn3(PO4)4
_symmetry_space_group_name_H-M   'P 1'
_cell_length_a   9.93831404
_cell_length_b   9.93831404
_cell_length_c   10.49105612
_cell_angle_alpha   89.56859020
_cell_angle_beta   89.56859020
_cell_angle_gamma   39.68611579
_symmetry_Int_Tables_number   1
_chemical_formula_structural   Li3Mn3(PO4)4
_chemical_formula_sum   'Li6 Mn6 P8 O32'
_cell_volume   661.67840521
_cell_formula_units_Z   2
loop_
 _symmetry_equiv_pos_site_id
 _symmetry_equiv_pos_as_xyz
  1  'x, y, z'
loop_
 _atom_site_type_symbol
 _atom_site_label
 _atom_site_symmetry_multiplicity
 _atom_site_fract_x
 _atom_site_fract_y
 _atom_site_fract_z
 _atom_site_occupancy
  Li  Li0  1  0.95532300  0.18412700  0.19957000  1
  Li  Li1  1  0.44373400  0.55626600  0.00000000  1
  Li  Li2  1  0.81587300  0.04467700  0.80043000  1
  Li  Li3  1  0.21040800  0.93551000  0.69940200  1
  Li  Li4  1  0.06449000  0.78959200  0.30059800  1
  Li  Li5  1  0.55421200  0.44578800  0.50000000  1
  Mn  Mn6  1  0.63401400  0.67939300  0.50274600  1
  Mn  Mn7  1  0.67889800  0.63436000  0.00332900  1
  Mn  Mn8  1  0.49898500  0.00059300  0.24979100  1
  Mn  Mn9  1  0.32060700  0.36598600  0.49725400  1
  Mn  Mn10  1  0.36564000  0.32110200  0.99667100  1
  Mn  Mn11  1  0.99940700  0.50101500  0.75020900  1
  P  P12  1  0.41644100  0.74531700  0.24743200  1
  P  P13  1  0.74310800  0.41846100  0.74806900  1
  P  P14  1  0.82657800  0.77971800  0.00033000  1
  P  P15  1  0.17223000  0.22056500  0.49985600  1
  P  P16  1  0.77943500  0.82777000  0.50014400  1
  P  P17  1  0.25468300  0.58355900  0.75256800  1
  P  P18  1  0.22028200  0.17342200  0.99967000  1
  P  P19  1  0.58153900  0.25689200  0.25193100  1
  O  O20  1  0.58410200  0.58691600  0.64037100  1
  O  O21  1  0.23251700  0.27784100  0.89165700  1
  O  O22  1  0.35787900  0.94913400  0.96453200  1
  O  O23  1  0.81558900  0.22058700  0.72376100  1
  O  O24  1  0.76682100  0.72254100  0.60735800  1
  O  O25  1  0.68170500  0.80290100  0.39243700  1
  O  O26  1  0.58269400  0.58761600  0.13985200  1
  O  O27  1  0.05086600  0.64212100  0.03546800  1
  O  O28  1  0.21548100  0.82191100  0.22233000  1
  O  O29  1  0.94762400  0.35950400  0.46580500  1
  O  O30  1  0.36760000  0.47794900  0.62087700  1
  O  O31  1  0.47622000  0.36956000  0.12074500  1
  O  O32  1  0.99842200  0.30314500  0.04124200  1
  O  O33  1  0.41308400  0.41589800  0.35962900  1
  O  O34  1  0.17808900  0.78451900  0.77767000  1
  O  O35  1  0.52205100  0.63240000  0.37912300  1
  O  O36  1  0.27745900  0.23317900  0.39264200  1
  O  O37  1  0.19709900  0.31829500  0.60756300  1
  O  O38  1  0.72215900  0.76748300  0.10834300  1
  O  O39  1  0.80229400  0.68212000  0.89288000  1
  O  O40  1  0.00089500  0.69657700  0.45747300  1
  O  O41  1  0.64261800  0.05728800  0.25345500  1
  O  O42  1  0.64049600  0.05237600  0.53419500  1
  O  O43  1  0.05429100  0.64547600  0.75306600  1
  O  O44  1  0.77941300  0.18441100  0.27623900  1
  O  O45  1  0.31788000  0.19770600  0.10712000  1
  O  O46  1  0.63044000  0.52378000  0.87925500  1
  O  O47  1  0.35452400  0.94570900  0.24693400  1
  O  O48  1  0.94271200  0.35738200  0.74654500  1
  O  O49  1  0.41238400  0.41730600  0.86014800  1
  O  O50  1  0.69685500  0.00157800  0.95875800  1
  O  O51  1  0.30342300  0.99910500  0.54252700  1
