# generated using pymatgen
data_Li2MnSiO4
_symmetry_space_group_name_H-M   'P 1'
_cell_length_a   5.09301182
_cell_length_b   6.37467076
_cell_length_c   10.89745515
_cell_angle_alpha   89.99835559
_cell_angle_beta   90.01870689
_cell_angle_gamma   90.01896624
_symmetry_Int_Tables_number   1
_chemical_formula_structural   Li2MnSiO4
_chemical_formula_sum   'Li8 Mn4 Si4 O16'
_cell_volume   353.79972123
_cell_formula_units_Z   4
loop_
 _symmetry_equiv_pos_site_id
 _symmetry_equiv_pos_as_xyz
  1  'x, y, z'
loop_
 _atom_site_type_symbol
 _atom_site_label
 _atom_site_symmetry_multiplicity
 _atom_site_fract_x
 _atom_site_fract_y
 _atom_site_fract_z
 _atom_site_occupancy
  Li  Li0  1  0.18137500  0.00046000  0.58760600  1
  Li  Li1  1  0.31842000  0.49951800  0.08767400  1
  Li  Li2  1  0.18138400  0.49809000  0.58759300  1
  Li  Li3  1  0.68153600  0.50043200  0.91307100  1
  Li  Li4  1  0.81863200  0.50182800  0.41324500  1
  Li  Li5  1  0.68150200  0.99823600  0.91318300  1
  Li  Li6  1  0.81861400  0.99939500  0.41314100  1
  Li  Li7  1  0.31843100  0.00180700  0.08763900  1
  Mn  Mn8  1  0.18103000  0.74908000  0.83338600  1
  Mn  Mn9  1  0.81890800  0.25112000  0.16747100  1
  Mn  Mn10  1  0.31893800  0.75098700  0.33384800  1
  Mn  Mn11  1  0.68108800  0.24879700  0.66694000  1
  Si  Si12  1  0.82543700  0.75084400  0.16145500  1
  Si  Si13  1  0.67437700  0.74903300  0.66129600  1
  Si  Si14  1  0.32558800  0.25082000  0.33949200  1
  Si  Si15  1  0.17456000  0.24933400  0.83930600  1
  O  O16  1  0.15013300  0.75067300  0.15748700  1
  O  O17  1  0.34968800  0.74950000  0.65718500  1
  O  O18  1  0.65030600  0.25068600  0.34362000  1
  O  O19  1  0.84992600  0.24919000  0.84326400  1
  O  O20  1  0.77001600  0.74959600  0.80761900  1
  O  O21  1  0.72998300  0.75059700  0.30757400  1
  O  O22  1  0.27010500  0.24915900  0.69319900  1
  O  O23  1  0.22998400  0.25070000  0.19314800  1
  O  O24  1  0.71209400  0.96320200  0.09215200  1
  O  O25  1  0.78799100  0.96101700  0.59176300  1
  O  O26  1  0.71188400  0.53867400  0.09191100  1
  O  O27  1  0.78756700  0.53680600  0.59213600  1
  O  O28  1  0.21223200  0.46296900  0.40870700  1
  O  O29  1  0.28802400  0.46161300  0.90879700  1
  O  O30  1  0.21216400  0.03873500  0.40891100  1
  O  O31  1  0.28806700  0.03709600  0.90866100  1
