# generated using pymatgen
data_Li6Cr3Co(PO4)6
_symmetry_space_group_name_H-M   'P 1'
_cell_length_a   8.48080800
_cell_length_b   8.51326264
_cell_length_c   8.51518991
_cell_angle_alpha   61.42202530
_cell_angle_beta   61.45099825
_cell_angle_gamma   61.44284534
_symmetry_Int_Tables_number   1
_chemical_formula_structural   Li6Cr3Co(PO4)6
_chemical_formula_sum   'Li6 Cr3 Co1 P6 O24'
_cell_volume   448.76763511
_cell_formula_units_Z   1
loop_
 _symmetry_equiv_pos_site_id
 _symmetry_equiv_pos_as_xyz
  1  'x, y, z'
loop_
 _atom_site_type_symbol
 _atom_site_label
 _atom_site_symmetry_multiplicity
 _atom_site_fract_x
 _atom_site_fract_y
 _atom_site_fract_z
 _atom_site_occupancy
  Li  Li0  1  0.97679300  0.00762800  0.99811700  1
  Li  Li1  1  0.24981300  0.65075800  0.84934900  1
  Li  Li2  1  0.52427600  0.50262300  0.49455400  1
  Li  Li3  1  0.76419200  0.34462600  0.15000500  1
  Li  Li4  1  0.34328100  0.15271900  0.76551100  1
  Li  Li5  1  0.15197900  0.76746700  0.34184200  1
  Cr  Cr6  1  0.85991900  0.86198400  0.85652200  1
  Cr  Cr7  1  0.64033200  0.64376500  0.63775100  1
  Cr  Cr8  1  0.35760200  0.35608700  0.35526700  1
  Co  Co9  1  0.14206100  0.14427000  0.14361500  1
  P  P10  1  0.95510000  0.54176500  0.24950800  1
  P  P11  1  0.54216700  0.24973800  0.95509800  1
  P  P12  1  0.24963800  0.95847000  0.53801500  1
  P  P13  1  0.75252600  0.04018700  0.45942300  1
  P  P14  1  0.45731800  0.75258600  0.03628900  1
  P  P15  1  0.04190900  0.46269300  0.75296000  1
  O  O16  1  0.87032100  0.50001500  0.71164800  1
  O  O17  1  0.70135600  0.87935600  0.48618800  1
  O  O18  1  0.95645400  0.72748000  0.07731200  1
  O  O19  1  0.46733400  0.70577100  0.87807000  1
  O  O20  1  0.76290100  0.56465300  0.40866800  1
  O  O21  1  0.97911500  0.37750300  0.19826600  1
  O  O22  1  0.73479900  0.09092100  0.93432000  1
  O  O23  1  0.54232600  0.42257200  0.76982700  1
  O  O24  1  0.40726000  0.76168800  0.56296700  1
  O  O25  1  0.79825500  0.01317200  0.62328100  1
  O  O26  1  0.92067300  0.05692900  0.26420100  1
  O  O27  1  0.63209300  0.78790700  0.99876700  1
  O  O28  1  0.37730500  0.19586800  0.98332700  1
  O  O29  1  0.09232200  0.93616700  0.73509300  1
  O  O30  1  0.19567000  0.98305500  0.37652700  1
  O  O31  1  0.59331800  0.23752900  0.43015400  1
  O  O32  1  0.43065800  0.59353300  0.23293300  1
  O  O33  1  0.26596000  0.92330500  0.05634500  1
  O  O34  1  0.03214400  0.62406200  0.79395500  1
  O  O35  1  0.23546000  0.42912400  0.59157700  1
  O  O36  1  0.51570100  0.30372600  0.11665200  1
  O  O37  1  0.05594000  0.26864000  0.92129600  1
  O  O38  1  0.30620100  0.11752200  0.51035700  1
  O  O39  1  0.11753000  0.51113100  0.30544100  1
