# generated using pymatgen
data_Li3Bi3(PO4)4
_symmetry_space_group_name_H-M   'P 1'
_cell_length_a   5.42159200
_cell_length_b   9.18062200
_cell_length_c   17.12134180
_cell_angle_alpha   60.03328756
_cell_angle_beta   90.00000000
_cell_angle_gamma   90.00000000
_symmetry_Int_Tables_number   1
_chemical_formula_structural   Li3Bi3(PO4)4
_chemical_formula_sum   'Li6 Bi6 P8 O32'
_cell_volume   738.26612878
_cell_formula_units_Z   2
loop_
 _symmetry_equiv_pos_site_id
 _symmetry_equiv_pos_as_xyz
  1  'x, y, z'
loop_
 _atom_site_type_symbol
 _atom_site_label
 _atom_site_symmetry_multiplicity
 _atom_site_fract_x
 _atom_site_fract_y
 _atom_site_fract_z
 _atom_site_occupancy
  Li  Li0  1  0.50000000  0.50000000  0.00000000  1
  Li  Li1  1  0.42419000  0.38280900  0.28598400  1
  Li  Li2  1  0.92419000  0.61719100  0.21401600  1
  Li  Li3  1  0.07581000  0.38280900  0.78598400  1
  Li  Li4  1  0.00000000  0.50000000  0.50000000  1
  Li  Li5  1  0.57581000  0.61719100  0.71401600  1
  Bi  Bi6  1  0.53885800  0.09654500  0.13313300  1
  Bi  Bi7  1  0.00000000  0.00000000  0.00000000  1
  Bi  Bi8  1  0.03885800  0.90345500  0.36686700  1
  Bi  Bi9  1  0.50000000  0.00000000  0.50000000  1
  Bi  Bi10  1  0.96114200  0.09654500  0.63313300  1
  Bi  Bi11  1  0.46114200  0.90345500  0.86686700  1
  P  P12  1  0.03349100  0.23484800  0.13551400  1
  P  P13  1  0.53349100  0.76515200  0.36448600  1
  P  P14  1  0.46114900  0.72975100  0.10939300  1
  P  P15  1  0.96114900  0.27024900  0.39060700  1
  P  P16  1  0.03885100  0.72975100  0.60939300  1
  P  P17  1  0.53885100  0.27024900  0.89060700  1
  P  P18  1  0.46650900  0.23484800  0.63551400  1
  P  P19  1  0.96650900  0.76515200  0.86448600  1
  O  O20  1  0.96692000  0.10702700  0.09968200  1
  O  O21  1  0.67392400  0.87764100  0.27263500  1
  O  O22  1  0.21142400  0.36938400  0.07444900  1
  O  O23  1  0.77094900  0.28682800  0.14947600  1
  O  O24  1  0.45618900  0.70830400  0.02524600  1
  O  O25  1  0.27094900  0.71317200  0.35052400  1
  O  O26  1  0.71142400  0.63061600  0.42555100  1
  O  O27  1  0.17392400  0.12235900  0.22736500  1
  O  O28  1  0.19436400  0.77225700  0.12841800  1
  O  O29  1  0.46692000  0.89297300  0.40031800  1
  O  O30  1  0.62842300  0.89110400  0.08503300  1
  O  O31  1  0.57348000  0.58151400  0.19248700  1
  O  O32  1  0.04381100  0.70830400  0.52524600  1
  O  O33  1  0.07348000  0.41848600  0.30751300  1
  O  O34  1  0.12842300  0.10889600  0.41496700  1
  O  O35  1  0.69436400  0.22774300  0.37158200  1
  O  O36  1  0.30563600  0.77225700  0.62841800  1
  O  O37  1  0.87157700  0.89110400  0.58503300  1
  O  O38  1  0.92652000  0.58151400  0.69248700  1
  O  O39  1  0.95618900  0.29169600  0.47475400  1
  O  O40  1  0.42652000  0.41848600  0.80751300  1
  O  O41  1  0.37157700  0.10889600  0.91496700  1
  O  O42  1  0.53308000  0.10702700  0.59968200  1
  O  O43  1  0.80563600  0.22774300  0.87158200  1
  O  O44  1  0.82607600  0.87764100  0.77263500  1
  O  O45  1  0.28857600  0.36938400  0.57444900  1
  O  O46  1  0.72905100  0.28682800  0.64947600  1
  O  O47  1  0.54381100  0.29169600  0.97475400  1
  O  O48  1  0.22905100  0.71317200  0.85052400  1
  O  O49  1  0.78857600  0.63061600  0.92555100  1
  O  O50  1  0.32607600  0.12235900  0.72736500  1
  O  O51  1  0.03308000  0.89297300  0.90031800  1
