# generated using pymatgen
data_Li5V3P8O29
_symmetry_space_group_name_H-M   'P 1'
_cell_length_a   9.79147800
_cell_length_b   9.80292483
_cell_length_c   13.96020361
_cell_angle_alpha   89.91445736
_cell_angle_beta   89.83986535
_cell_angle_gamma   60.03987436
_symmetry_Int_Tables_number   1
_chemical_formula_structural   Li5V3P8O29
_chemical_formula_sum   'Li10 V6 P16 O58'
_cell_volume   1160.91111673
_cell_formula_units_Z   2
loop_
 _symmetry_equiv_pos_site_id
 _symmetry_equiv_pos_as_xyz
  1  'x, y, z'
loop_
 _atom_site_type_symbol
 _atom_site_label
 _atom_site_symmetry_multiplicity
 _atom_site_fract_x
 _atom_site_fract_y
 _atom_site_fract_z
 _atom_site_occupancy
  Li  Li0  1  0.32541800  0.90683800  0.06198200  1
  Li  Li1  1  0.77042900  0.90601100  0.55956600  1
  Li  Li2  1  0.66126500  0.66899900  0.88522900  1
  Li  Li3  1  0.90732200  0.76741100  0.06328300  1
  Li  Li4  1  0.76701200  0.32584100  0.06284700  1
  Li  Li5  1  0.09584100  0.67972400  0.43976400  1
  Li  Li6  1  0.90675500  0.32374900  0.55823100  1
  Li  Li7  1  0.22686400  0.08762400  0.43812100  1
  Li  Li8  1  0.67785500  0.22767500  0.43761800  1
  Li  Li9  1  0.00267500  0.99974300  0.99909200  1
  V  V10  1  0.00107700  0.56569500  0.24846000  1
  V  V11  1  0.00693400  0.42668300  0.75442400  1
  V  V12  1  0.42494500  0.57224600  0.74726700  1
  V  V13  1  0.56411200  0.43515000  0.24938800  1
  V  V14  1  0.43348900  0.99961900  0.24902700  1
  V  V15  1  0.56778700  0.00248100  0.75035100  1
  P  P16  1  0.31488100  0.90994900  0.84217900  1
  P  P17  1  0.31669800  0.76847700  0.34283800  1
  P  P18  1  0.76791000  0.91210000  0.34270900  1
  P  P19  1  0.66792100  0.66644100  0.12575600  1
  P  P20  1  0.67141900  0.66236200  0.62899800  1
  P  P21  1  0.90916500  0.77387600  0.84339800  1
  P  P22  1  0.08517100  0.68285600  0.65934200  1
  P  P23  1  0.77190200  0.31672100  0.84368400  1
  P  P24  1  0.22687800  0.68987900  0.15621500  1
  P  P25  1  0.91186200  0.32046700  0.34215000  1
  P  P26  1  0.08505800  0.22594700  0.15772900  1
  P  P27  1  0.33233300  0.33257000  0.37159300  1
  P  P28  1  0.33780700  0.33484700  0.87196200  1
  P  P29  1  0.23130600  0.08615600  0.65774900  1
  P  P30  1  0.68250400  0.23257300  0.65855300  1
  P  P31  1  0.68894500  0.08550700  0.15840700  1
  O  O32  1  0.23390900  0.00997300  0.56585100  1
  O  O33  1  0.33971800  0.91377200  0.34045300  1
  O  O34  1  0.21330500  0.78993800  0.07165000  1
  O  O35  1  0.33911200  0.74048600  0.83216200  1
  O  O36  1  0.47935600  0.89357300  0.83035300  1
  O  O37  1  0.51191100  0.81128700  0.16361000  1
  O  O38  1  0.61832000  0.90162100  0.32229200  1
  O  O39  1  0.79192500  0.99594800  0.07556600  1
  O  O40  1  0.73957100  0.91476400  0.83399300  1
  O  O41  1  0.52534100  0.65967300  0.67752300  1
  O  O42  1  0.47796900  0.61674400  0.32206600  1
  O  O43  1  0.67153400  0.81315400  0.66610800  1
  O  O44  1  0.67033600  0.66694400  0.01736300  1
  O  O45  1  0.67313600  0.65155100  0.52276800  1
  O  O46  1  0.81186700  0.67776700  0.16485100  1
  O  O47  1  0.62204400  0.47953900  0.83182300  1
  O  O48  1  0.67740800  0.51135600  0.16340300  1
  O  O49  1  0.91574400  0.74654900  0.34182400  1
  O  O50  1  0.99844200  0.79245900  0.75085800  1
  O  O51  1  0.99802700  0.75910600  0.56904900  1
  O  O52  1  0.98734900  0.77827300  0.93357400  1
  O  O53  1  0.89677200  0.62226600  0.82926700  1
  O  O54  1  0.82116600  0.51299300  0.67285300  1
  O  O55  1  0.08271400  0.66272300  0.16149800  1
  O  O56  1  0.89890400  0.48140400  0.32056100  1
  O  O57  1  0.74757800  0.33489100  0.34077300  1
  O  O58  1  0.20819500  0.79293200  0.25059800  1
  O  O59  1  0.23630900  0.75753200  0.43009600  1
  O  O60  1  0.75875100  0.24569800  0.56820300  1
  O  O61  1  0.25360400  0.65978400  0.66228600  1
  O  O62  1  0.09245700  0.52471500  0.67876700  1
  O  O63  1  0.91686400  0.34283300  0.83428800  1
  O  O64  1  0.18551100  0.48535400  0.32963400  1
  O  O65  1  0.08543300  0.38109100  0.16769600  1
  O  O66  1  0.99544700  0.21123500  0.07560000  1
  O  O67  1  0.99976400  0.24861600  0.43348500  1
  O  O68  1  0.00797900  0.20416700  0.25592300  1
  O  O69  1  0.08366500  0.25625700  0.66361500  1
  O  O70  1  0.33773800  0.48230800  0.82443300  1
  O  O71  1  0.37986200  0.53286000  0.16841200  1
  O  O72  1  0.18443000  0.33985600  0.82555300  1
  O  O73  1  0.32337100  0.34560400  0.97719800  1
  O  O74  1  0.32955700  0.33436400  0.47866600  1
  O  O75  1  0.32695200  0.18481100  0.33097900  1
  O  O76  1  0.52397200  0.38285300  0.67819800  1
  O  O77  1  0.48642700  0.32678600  0.33167400  1
  O  O78  1  0.25661700  0.08348500  0.16059700  1
  O  O79  1  0.20830000  0.00014500  0.74999800  1
  O  O80  1  0.22881000  0.98571400  0.93242900  1
  O  O81  1  0.38284500  0.09222300  0.67888300  1
  O  O82  1  0.48011400  0.18929500  0.82808800  1
  O  O83  1  0.53249700  0.08777200  0.16983300  1
  O  O84  1  0.66041700  0.25669900  0.16160500  1
  O  O85  1  0.78363100  0.22992300  0.93380800  1
  O  O86  1  0.79117700  0.20990500  0.75087100  1
  O  O87  1  0.66467600  0.08468000  0.65806100  1
  O  O88  1  0.75361800  0.99977600  0.43418300  1
  O  O89  1  0.78911600  0.00681300  0.25596500  1
