# generated using pymatgen
data_LiVSiO4
_symmetry_space_group_name_H-M   'P 1'
_cell_length_a   4.97352403
_cell_length_b   9.24351671
_cell_length_c   6.24156100
_cell_angle_alpha   89.99882645
_cell_angle_beta   90.00073469
_cell_angle_gamma   97.01219666
_symmetry_Int_Tables_number   1
_chemical_formula_structural   LiVSiO4
_chemical_formula_sum   'Li4 V4 Si4 O16'
_cell_volume   284.79608755
_cell_formula_units_Z   4
loop_
 _symmetry_equiv_pos_site_id
 _symmetry_equiv_pos_as_xyz
  1  'x, y, z'
loop_
 _atom_site_type_symbol
 _atom_site_label
 _atom_site_symmetry_multiplicity
 _atom_site_fract_x
 _atom_site_fract_y
 _atom_site_fract_z
 _atom_site_occupancy
  Li  Li0  1  0.49367000  0.16455300  0.25000400  1
  Li  Li1  1  0.99367000  0.66455200  0.24999600  1
  Li  Li2  1  0.00633000  0.33544900  0.75000300  1
  Li  Li3  1  0.50633000  0.83544800  0.74999600  1
  V  V4  1  0.50000600  0.50000000  0.99999900  1
  V  V5  1  0.00000300  0.00000500  0.50000600  1
  V  V6  1  0.00000500  0.99999600  0.99999700  1
  V  V7  1  0.49999400  0.49999600  0.50000500  1
  Si  Si8  1  0.52263900  0.17424100  0.75001100  1
  Si  Si9  1  0.02263900  0.67424000  0.74999000  1
  Si  Si10  1  0.97736100  0.32575900  0.25001000  1
  Si  Si11  1  0.47736000  0.82575900  0.24998800  1
  O  O12  1  0.67064200  0.38374900  0.25005200  1
  O  O13  1  0.17064000  0.88374900  0.24994200  1
  O  O14  1  0.58908400  0.35655700  0.75003300  1
  O  O15  1  0.08908600  0.85655600  0.74996200  1
  O  O16  1  0.82936000  0.11625100  0.75005800  1
  O  O17  1  0.32935800  0.61625200  0.74994700  1
  O  O18  1  0.91091400  0.14344400  0.25003700  1
  O  O19  1  0.41091500  0.64344400  0.24996800  1
  O  O20  1  0.14461500  0.38152000  0.03556600  1
  O  O21  1  0.64461800  0.88152200  0.03556400  1
  O  O22  1  0.35538400  0.11848000  0.53556600  1
  O  O23  1  0.85538300  0.61847700  0.53556300  1
  O  O24  1  0.14461700  0.38152300  0.46443500  1
  O  O25  1  0.64461400  0.88152000  0.46443300  1
  O  O26  1  0.35538100  0.11847800  0.96443700  1
  O  O27  1  0.85538400  0.61848000  0.96443400  1
