# generated using pymatgen
data_Li2Cr4P4O15
_symmetry_space_group_name_H-M   'P 1'
_cell_length_a   8.93959768
_cell_length_b   8.93959768
_cell_length_c   18.30889750
_cell_angle_alpha   82.83979830
_cell_angle_beta   82.83979830
_cell_angle_gamma   103.77606095
_symmetry_Int_Tables_number   1
_chemical_formula_structural   Li2Cr4P4O15
_chemical_formula_sum   'Li8 Cr16 P16 O60'
_cell_volume   1391.81059121
_cell_formula_units_Z   4
loop_
 _symmetry_equiv_pos_site_id
 _symmetry_equiv_pos_as_xyz
  1  'x, y, z'
loop_
 _atom_site_type_symbol
 _atom_site_label
 _atom_site_symmetry_multiplicity
 _atom_site_fract_x
 _atom_site_fract_y
 _atom_site_fract_z
 _atom_site_occupancy
  Li  Li0  1  0.46968800  0.01121400  0.25160600  1
  Li  Li1  1  0.31008500  0.45472600  0.44612000  1
  Li  Li2  1  0.54527400  0.68991500  0.05388000  1
  Li  Li3  1  0.01121400  0.46968800  0.75160600  1
  Li  Li4  1  0.98878600  0.53031200  0.24839400  1
  Li  Li5  1  0.45472600  0.31008500  0.94612000  1
  Li  Li6  1  0.68991500  0.54527400  0.55388000  1
  Li  Li7  1  0.53031200  0.98878600  0.74839400  1
  Cr  Cr8  1  0.95109400  0.84268300  0.06756700  1
  Cr  Cr9  1  0.90832700  0.28631100  0.43504700  1
  Cr  Cr10  1  0.00000000  0.50000000  0.00000000  1
  Cr  Cr11  1  0.84268300  0.95109400  0.56756700  1
  Cr  Cr12  1  0.81599100  0.18400900  0.25000000  1
  Cr  Cr13  1  0.54062000  0.45938000  0.25000000  1
  Cr  Cr14  1  0.05007400  0.94992600  0.25000000  1
  Cr  Cr15  1  0.28631100  0.90832700  0.93504700  1
  Cr  Cr16  1  0.71368900  0.09167300  0.06495300  1
  Cr  Cr17  1  0.94992600  0.05007400  0.75000000  1
  Cr  Cr18  1  0.18400900  0.81599100  0.75000000  1
  Cr  Cr19  1  0.45938000  0.54062000  0.75000000  1
  Cr  Cr20  1  0.15731700  0.04890600  0.43243300  1
  Cr  Cr21  1  0.09167300  0.71368900  0.56495300  1
  Cr  Cr22  1  0.04890600  0.15731700  0.93243300  1
  Cr  Cr23  1  0.50000000  0.00000000  0.50000000  1
  P  P24  1  0.77799300  0.91207000  0.39928700  1
  P  P25  1  0.97392900  0.69049200  0.39583200  1
  P  P26  1  0.69389200  0.83869900  0.17900300  1
  P  P27  1  0.91207000  0.77799300  0.89928700  1
  P  P28  1  0.69049200  0.97392900  0.89583200  1
  P  P29  1  0.75839000  0.44761800  0.12015800  1
  P  P30  1  0.83869900  0.69389200  0.67900300  1
  P  P31  1  0.55238200  0.24161000  0.37984200  1
  P  P32  1  0.44761800  0.75839000  0.62015800  1
  P  P33  1  0.16130100  0.30610800  0.32099700  1
  P  P34  1  0.24161000  0.55238200  0.87984200  1
  P  P35  1  0.30950800  0.02607100  0.10416800  1
  P  P36  1  0.08793000  0.22200700  0.10071300  1
  P  P37  1  0.30610800  0.16130100  0.82099700  1
  P  P38  1  0.02607100  0.30950800  0.60416800  1
  P  P39  1  0.22200700  0.08793000  0.60071300  1
  O  O40  1  0.84370900  0.97621200  0.31712500  1
  O  O41  1  0.86749200  0.83043900  0.17821100  1
  O  O42  1  0.80685100  0.74044400  0.41549100  1
  O  O43  1  0.60498000  0.89105100  0.42065000  1
  O  O44  1  0.92528600  0.52140200  0.43155400  1
  O  O45  1  0.97621200  0.84370900  0.81712500  1
  O  O46  1  0.67808400  0.84613000  0.09201300  1
  O  O47  1  0.88203100  0.59738100  0.07757100  1
  O  O48  1  0.00251200  0.33278400  0.30440000  1
  O  O49  1  0.83043900  0.86749200  0.67821100  1
  O  O50  1  0.57750400  0.70526500  0.23059000  1
  O  O51  1  0.74044400  0.80685100  0.91549100  1
  O  O52  1  0.89105100  0.60498000  0.92065000  1
  O  O53  1  0.52140200  0.92528600  0.93155400  1
  O  O54  1  0.81074400  0.40530200  0.19666100  1
  O  O55  1  0.27925500  0.97884800  0.18964300  1
  O  O56  1  0.87800500  0.01449600  0.44964700  1
  O  O57  1  0.09147000  0.79378100  0.43467300  1
  O  O58  1  0.67573700  0.23616000  0.43136900  1
  O  O59  1  0.84613000  0.67808400  0.59201300  1
  O  O60  1  0.52357400  0.40629200  0.36610900  1
  O  O61  1  0.59738100  0.88203100  0.57757100  1
  O  O62  1  0.59370800  0.47642600  0.13389100  1
  O  O63  1  0.76384000  0.32426300  0.06863100  1
  O  O64  1  0.20621900  0.90853000  0.06532700  1
  O  O65  1  0.98550400  0.12199500  0.05035300  1
  O  O66  1  0.33278400  0.00251200  0.80440000  1
  O  O67  1  0.70526500  0.57750400  0.73059000  1
  O  O68  1  0.02115200  0.72074500  0.31035700  1
  O  O69  1  0.59469800  0.18925600  0.30333900  1
  O  O70  1  0.40530200  0.81074400  0.69666100  1
  O  O71  1  0.97884800  0.27925500  0.68964300  1
  O  O72  1  0.29473500  0.42249600  0.26941000  1
  O  O73  1  0.66721600  0.99748800  0.19560000  1
  O  O74  1  0.01449600  0.87800500  0.94964700  1
  O  O75  1  0.79378100  0.09147000  0.93467300  1
  O  O76  1  0.23616000  0.67573700  0.93136900  1
  O  O77  1  0.40629200  0.52357400  0.86610900  1
  O  O78  1  0.40261900  0.11796900  0.42242900  1
  O  O79  1  0.47642600  0.59370800  0.63389100  1
  O  O80  1  0.15387000  0.32191600  0.40798700  1
  O  O81  1  0.32426300  0.76384000  0.56863100  1
  O  O82  1  0.90853000  0.20621900  0.56532700  1
  O  O83  1  0.12199500  0.98550400  0.55035300  1
  O  O84  1  0.72074500  0.02115200  0.81035700  1
  O  O85  1  0.18925600  0.59469800  0.80333900  1
  O  O86  1  0.47859800  0.07471400  0.06844600  1
  O  O87  1  0.10894900  0.39502000  0.07935000  1
  O  O88  1  0.25955600  0.19314900  0.08450900  1
  O  O89  1  0.42249600  0.29473500  0.76941000  1
  O  O90  1  0.16956100  0.13250800  0.32178900  1
  O  O91  1  0.99748800  0.66721600  0.69560000  1
  O  O92  1  0.11796900  0.40261900  0.92242900  1
  O  O93  1  0.32191600  0.15387000  0.90798700  1
  O  O94  1  0.02378800  0.15629100  0.18287500  1
  O  O95  1  0.07471400  0.47859800  0.56844600  1
  O  O96  1  0.39502000  0.10894900  0.57935000  1
  O  O97  1  0.19314900  0.25955600  0.58450900  1
  O  O98  1  0.13250800  0.16956100  0.82178900  1
  O  O99  1  0.15629100  0.02378800  0.68287500  1
