# generated using pymatgen
data_Li3Mn3SiO8
_symmetry_space_group_name_H-M   'P 1'
_cell_length_a   5.32458592
_cell_length_b   7.72516098
_cell_length_c   7.72515734
_cell_angle_alpha   86.10979605
_cell_angle_beta   104.79400824
_cell_angle_gamma   75.20602277
_symmetry_Int_Tables_number   1
_chemical_formula_structural   Li3Mn3SiO8
_chemical_formula_sum   'Li6 Mn6 Si2 O16'
_cell_volume   294.01891390
_cell_formula_units_Z   2
loop_
 _symmetry_equiv_pos_site_id
 _symmetry_equiv_pos_as_xyz
  1  'x, y, z'
loop_
 _atom_site_type_symbol
 _atom_site_label
 _atom_site_symmetry_multiplicity
 _atom_site_fract_x
 _atom_site_fract_y
 _atom_site_fract_z
 _atom_site_occupancy
  Li  Li0  1  0.00000100  0.25000100  0.25000000  1
  Li  Li1  1  0.00000100  0.74999700  0.75000300  1
  Li  Li2  1  0.50000100  0.62073800  0.62073900  1
  Li  Li3  1  0.49999900  0.12073900  0.12074000  1
  Li  Li4  1  0.49999900  0.37926000  0.37926100  1
  Li  Li5  1  0.50000100  0.87926100  0.87926200  1
  Mn  Mn6  1  0.50006900  0.49993900  0.00004200  1
  Mn  Mn7  1  0.00003400  0.87406000  0.37408900  1
  Mn  Mn8  1  0.00001100  0.12594800  0.62591400  1
  Mn  Mn9  1  0.49989500  0.00005100  0.49995900  1
  Mn  Mn10  1  0.99997100  0.37398900  0.87394500  1
  Mn  Mn11  1  0.00000100  0.62603100  0.12603000  1
  Si  Si12  1  0.49999600  0.25000200  0.74999900  1
  Si  Si13  1  0.49999800  0.74999900  0.24999800  1
  O  O14  1  0.26567600  0.65515500  0.34485300  1
  O  O15  1  0.26567700  0.15514700  0.84484700  1
  O  O16  1  0.73432400  0.34484500  0.65514900  1
  O  O17  1  0.73432500  0.84485100  0.15515600  1
  O  O18  1  0.21169100  0.38205500  0.11794400  1
  O  O19  1  0.21170600  0.88205100  0.61795100  1
  O  O20  1  0.78831200  0.61794200  0.88205700  1
  O  O21  1  0.78829300  0.11795100  0.38205200  1
  O  O22  1  0.29978900  0.47630600  0.75787000  1
  O  O23  1  0.29980400  0.97630500  0.25788300  1
  O  O24  1  0.70020300  0.25787700  0.97630400  1
  O  O25  1  0.70021400  0.75786600  0.47631000  1
  O  O26  1  0.29978800  0.74213100  0.02369400  1
  O  O27  1  0.29980400  0.24211400  0.52369500  1
  O  O28  1  0.70020400  0.52369500  0.24212500  1
  O  O29  1  0.70021400  0.02369100  0.74213200  1
