# generated using pymatgen
data_Li3Mn4(BO3)4
_symmetry_space_group_name_H-M   'P 1'
_cell_length_a   5.23887800
_cell_length_b   7.92029310
_cell_length_c   12.36296438
_cell_angle_alpha   80.25904382
_cell_angle_beta   87.21795189
_cell_angle_gamma   88.17645166
_symmetry_Int_Tables_number   1
_chemical_formula_structural   Li3Mn4(BO3)4
_chemical_formula_sum   'Li6 Mn8 B8 O24'
_cell_volume   504.84511993
_cell_formula_units_Z   2
loop_
 _symmetry_equiv_pos_site_id
 _symmetry_equiv_pos_as_xyz
  1  'x, y, z'
loop_
 _atom_site_type_symbol
 _atom_site_label
 _atom_site_symmetry_multiplicity
 _atom_site_fract_x
 _atom_site_fract_y
 _atom_site_fract_z
 _atom_site_occupancy
  Li  Li0  1  0.08781800  0.84758700  0.48406500  1
  Li  Li1  1  0.08944700  0.84593700  0.98206700  1
  Li  Li2  1  0.91218200  0.15241300  0.51593500  1
  Li  Li3  1  0.57365000  0.36672400  0.23894700  1
  Li  Li4  1  0.42635000  0.63327600  0.76105300  1
  Li  Li5  1  0.91055300  0.15406300  0.01793300  1
  Mn  Mn6  1  0.60109500  0.00550600  0.37036600  1
  Mn  Mn7  1  0.09755200  0.48984400  0.62434800  1
  Mn  Mn8  1  0.90244800  0.51015600  0.37565200  1
  Mn  Mn9  1  0.39890500  0.99449400  0.62963400  1
  Mn  Mn10  1  0.59598500  0.00713400  0.87029400  1
  Mn  Mn11  1  0.10361500  0.50535500  0.12329800  1
  Mn  Mn12  1  0.89638500  0.49464500  0.87670200  1
  Mn  Mn13  1  0.40401500  0.99286600  0.12970600  1
  B  B14  1  0.90327400  0.82746100  0.70475300  1
  B  B15  1  0.59726000  0.67284600  0.54402000  1
  B  B16  1  0.90013000  0.83422600  0.19826300  1
  B  B17  1  0.40274000  0.32715400  0.45598000  1
  B  B18  1  0.59924900  0.66306100  0.04093000  1
  B  B19  1  0.09672600  0.17253900  0.29524700  1
  B  B20  1  0.40075100  0.33693900  0.95907000  1
  B  B21  1  0.09987000  0.16577400  0.80173700  1
  O  O22  1  0.00912600  0.95065300  0.62346500  1
  O  O23  1  0.04287200  0.68141700  0.74827900  1
  O  O24  1  0.64783100  0.84589000  0.74084200  1
  O  O25  1  0.46769400  0.82999100  0.50447400  1
  O  O26  1  0.48107100  0.55298000  0.61910600  1
  O  O27  1  0.01570600  0.95353100  0.11835600  1
  O  O28  1  0.85527600  0.65470900  0.50849300  1
  O  O29  1  0.01153400  0.67310100  0.23105500  1
  O  O30  1  0.66056200  0.87159200  0.24365500  1
  O  O31  1  0.14472400  0.34529100  0.49150700  1
  O  O32  1  0.51892900  0.44702000  0.38089400  1
  O  O33  1  0.46856800  0.81769200  0.00527500  1
  O  O34  1  0.53230600  0.17000900  0.49552600  1
  O  O35  1  0.49162100  0.53287400  0.11329400  1
  O  O36  1  0.85885600  0.64588700  0.00370400  1
  O  O37  1  0.35216900  0.15411000  0.25915800  1
  O  O38  1  0.95712800  0.31858300  0.25172100  1
  O  O39  1  0.14114400  0.35411300  0.99629600  1
  O  O40  1  0.99087400  0.04934700  0.37653500  1
  O  O41  1  0.50837900  0.46712600  0.88670600  1
  O  O42  1  0.53143200  0.18230800  0.99472500  1
  O  O43  1  0.33943800  0.12840800  0.75634500  1
  O  O44  1  0.98846600  0.32689900  0.76894500  1
  O  O45  1  0.98429400  0.04646900  0.88164400  1
