# generated using pymatgen
data_LiFeSiO4
_symmetry_space_group_name_H-M   'P 1'
_cell_length_a   8.08128100
_cell_length_b   8.74980300
_cell_length_c   17.48976488
_cell_angle_alpha   60.34100044
_cell_angle_beta   90.00000000
_cell_angle_gamma   90.00000000
_symmetry_Int_Tables_number   1
_chemical_formula_structural   LiFeSiO4
_chemical_formula_sum   'Li12 Fe12 Si12 O48'
_cell_volume   1074.67006922
_cell_formula_units_Z   12
loop_
 _symmetry_equiv_pos_site_id
 _symmetry_equiv_pos_as_xyz
  1  'x, y, z'
loop_
 _atom_site_type_symbol
 _atom_site_label
 _atom_site_symmetry_multiplicity
 _atom_site_fract_x
 _atom_site_fract_y
 _atom_site_fract_z
 _atom_site_occupancy
  Li  Li0  1  0.47525200  0.22104300  0.05942600  1
  Li  Li1  1  0.53800900  0.86863300  0.40805400  1
  Li  Li2  1  0.34475500  0.50106700  0.74996000  1
  Li  Li3  1  0.84475500  0.49893300  0.75004000  1
  Li  Li4  1  0.03800900  0.13136700  0.09194600  1
  Li  Li5  1  0.97525200  0.77895700  0.44057400  1
  Li  Li6  1  0.02474800  0.22104300  0.55942600  1
  Li  Li7  1  0.96199100  0.86863300  0.90805400  1
  Li  Li8  1  0.15524500  0.50106700  0.24996000  1
  Li  Li9  1  0.65524500  0.49893300  0.25004000  1
  Li  Li10  1  0.46199100  0.13136700  0.59194600  1
  Li  Li11  1  0.52474800  0.77895700  0.94057400  1
  Fe  Fe12  1  0.77563900  0.85979100  0.59409600  1
  Fe  Fe13  1  0.70986800  0.18327000  0.22991800  1
  Fe  Fe14  1  0.78053500  0.46043300  0.92784600  1
  Fe  Fe15  1  0.28053500  0.53956700  0.57215400  1
  Fe  Fe16  1  0.20986800  0.81673000  0.27008200  1
  Fe  Fe17  1  0.27563900  0.14020900  0.90590400  1
  Fe  Fe18  1  0.72436100  0.85979100  0.09409600  1
  Fe  Fe19  1  0.79013200  0.18327000  0.72991800  1
  Fe  Fe20  1  0.71946500  0.46043300  0.42784600  1
  Fe  Fe21  1  0.21946500  0.53956700  0.07215400  1
  Fe  Fe22  1  0.29013200  0.81673000  0.77008200  1
  Fe  Fe23  1  0.22436100  0.14020900  0.40590400  1
  Si  Si24  1  0.17152000  0.85393800  0.59169900  1
  Si  Si25  1  0.32420800  0.18661000  0.22699900  1
  Si  Si26  1  0.17343100  0.46433600  0.92475500  1
  Si  Si27  1  0.67343100  0.53566400  0.57524500  1
  Si  Si28  1  0.82420800  0.81339000  0.27300100  1
  Si  Si29  1  0.67152000  0.14606200  0.90830100  1
  Si  Si30  1  0.32848000  0.85393800  0.09169900  1
  Si  Si31  1  0.17579200  0.18661000  0.72699900  1
  Si  Si32  1  0.32656900  0.46433600  0.42475500  1
  Si  Si33  1  0.82656900  0.53566400  0.07524500  1
  Si  Si34  1  0.67579200  0.81339000  0.77300100  1
  Si  Si35  1  0.82848000  0.14606200  0.40830100  1
  O  O36  1  0.00715500  0.07578500  0.39188400  1
  O  O37  1  0.85372100  0.32162600  0.13575000  1
  O  O38  1  0.71688500  0.97045600  0.47331800  1
  O  O39  1  0.77388100  0.62667600  0.80432600  1
  O  O40  1  0.28637400  0.41766900  0.01252400  1
  O  O41  1  0.50121700  0.23344300  0.17322300  1
  O  O42  1  0.35984200  0.08161200  0.33444600  1
  O  O43  1  0.27069300  0.73697600  0.68561200  1
  O  O44  1  0.99505800  0.36174000  0.96119500  1
  O  O45  1  0.13934100  0.73399500  0.54373900  1
  O  O46  1  0.26846600  0.38659000  0.86740000  1
  O  O47  1  0.21470500  0.06415800  0.19852300  1
  O  O48  1  0.76846600  0.61341000  0.63260000  1
  O  O49  1  0.71470500  0.93584200  0.30147700  1
  O  O50  1  0.63934100  0.26600500  0.95626100  1
  O  O51  1  0.49505800  0.63826000  0.53880500  1
  O  O52  1  0.77069300  0.26302400  0.81438800  1
  O  O53  1  0.85984200  0.91838800  0.16555400  1
  O  O54  1  0.00121700  0.76655700  0.32677700  1
  O  O55  1  0.27388100  0.37332400  0.69567400  1
  O  O56  1  0.78637400  0.58233100  0.48747600  1
  O  O57  1  0.21688500  0.02954400  0.02668200  1
  O  O58  1  0.35372100  0.67837400  0.36425000  1
  O  O59  1  0.50715500  0.92421500  0.10811600  1
  O  O60  1  0.49284500  0.07578500  0.89188400  1
  O  O61  1  0.64627900  0.32162600  0.63575000  1
  O  O62  1  0.78311500  0.97045600  0.97331800  1
  O  O63  1  0.21362600  0.41766900  0.51252400  1
  O  O64  1  0.72611900  0.62667600  0.30432600  1
  O  O65  1  0.99878300  0.23344300  0.67322300  1
  O  O66  1  0.14015800  0.08161200  0.83444600  1
  O  O67  1  0.22930700  0.73697600  0.18561200  1
  O  O68  1  0.50494200  0.36174000  0.46119500  1
  O  O69  1  0.36065900  0.73399500  0.04373900  1
  O  O70  1  0.28529500  0.06415800  0.69852300  1
  O  O71  1  0.23153400  0.38659000  0.36740000  1
  O  O72  1  0.78529500  0.93584200  0.80147700  1
  O  O73  1  0.73153400  0.61341000  0.13260000  1
  O  O74  1  0.86065900  0.26600500  0.45626100  1
  O  O75  1  0.00494200  0.63826000  0.03880500  1
  O  O76  1  0.72930700  0.26302400  0.31438800  1
  O  O77  1  0.64015800  0.91838800  0.66555400  1
  O  O78  1  0.49878300  0.76655700  0.82677700  1
  O  O79  1  0.71362600  0.58233100  0.98747600  1
  O  O80  1  0.22611900  0.37332400  0.19567400  1
  O  O81  1  0.28311500  0.02954400  0.52668200  1
  O  O82  1  0.14627900  0.67837400  0.86425000  1
  O  O83  1  0.99284500  0.92421500  0.60811600  1
