# generated using pymatgen
data_Li2FeSiO4
_symmetry_space_group_name_H-M   'P 1'
_cell_length_a   5.26358200
_cell_length_b   6.91652900
_cell_length_c   10.26347860
_cell_angle_alpha   89.31215357
_cell_angle_beta   90.00000000
_cell_angle_gamma   90.00000000
_symmetry_Int_Tables_number   1
_chemical_formula_structural   Li2FeSiO4
_chemical_formula_sum   'Li8 Fe4 Si4 O16'
_cell_volume   373.62237729
_cell_formula_units_Z   4
loop_
 _symmetry_equiv_pos_site_id
 _symmetry_equiv_pos_as_xyz
  1  'x, y, z'
loop_
 _atom_site_type_symbol
 _atom_site_label
 _atom_site_symmetry_multiplicity
 _atom_site_fract_x
 _atom_site_fract_y
 _atom_site_fract_z
 _atom_site_occupancy
  Li  Li0  1  0.23727900  0.00396500  0.84462700  1
  Li  Li1  1  0.26272100  0.00396500  0.34462700  1
  Li  Li2  1  0.37060400  0.22536900  0.65073200  1
  Li  Li3  1  0.12939600  0.22536900  0.15073200  1
  Li  Li4  1  0.87060400  0.77463100  0.84926800  1
  Li  Li5  1  0.62939600  0.77463100  0.34926800  1
  Li  Li6  1  0.73727900  0.99603500  0.65537300  1
  Li  Li7  1  0.76272100  0.99603500  0.15537300  1
  Fe  Fe8  1  0.25336100  0.49747000  0.85937300  1
  Fe  Fe9  1  0.75336100  0.50253000  0.64062700  1
  Fe  Fe10  1  0.24663900  0.49747000  0.35937300  1
  Fe  Fe11  1  0.74663900  0.50253000  0.14062700  1
  Si  Si12  1  0.74025000  0.24045500  0.89803300  1
  Si  Si13  1  0.75975000  0.24045500  0.39803300  1
  Si  Si14  1  0.24025000  0.75954500  0.60196700  1
  Si  Si15  1  0.25975000  0.75954500  0.10196700  1
  O  O16  1  0.86375600  0.05028500  0.83410200  1
  O  O17  1  0.63624400  0.05028500  0.33410200  1
  O  O18  1  0.43018800  0.24683000  0.86573600  1
  O  O19  1  0.70884400  0.24806700  0.55753100  1
  O  O20  1  0.06981200  0.24683000  0.36573600  1
  O  O21  1  0.86061400  0.44754800  0.83629600  1
  O  O22  1  0.79115600  0.24806700  0.05753100  1
  O  O23  1  0.63938600  0.44754800  0.33629600  1
  O  O24  1  0.36061400  0.55245200  0.66370400  1
  O  O25  1  0.20884400  0.75193300  0.94246900  1
  O  O26  1  0.13938600  0.55245200  0.16370400  1
  O  O27  1  0.93018800  0.75317000  0.63426400  1
  O  O28  1  0.29115600  0.75193300  0.44246900  1
  O  O29  1  0.56981200  0.75317000  0.13426400  1
  O  O30  1  0.36375600  0.94971500  0.66589800  1
  O  O31  1  0.13624400  0.94971500  0.16589800  1
