# generated using pymatgen
data_Li3Mn2(PO4)3
_symmetry_space_group_name_H-M   'P 1'
_cell_length_a   8.56196743
_cell_length_b   8.56196743
_cell_length_c   8.71180552
_cell_angle_alpha   61.79418417
_cell_angle_beta   61.79418417
_cell_angle_gamma   61.53144895
_symmetry_Int_Tables_number   1
_chemical_formula_structural   Li3Mn2(PO4)3
_chemical_formula_sum   'Li6 Mn4 P6 O24'
_cell_volume   468.85416423
_cell_formula_units_Z   2
loop_
 _symmetry_equiv_pos_site_id
 _symmetry_equiv_pos_as_xyz
  1  'x, y, z'
loop_
 _atom_site_type_symbol
 _atom_site_label
 _atom_site_symmetry_multiplicity
 _atom_site_fract_x
 _atom_site_fract_y
 _atom_site_fract_z
 _atom_site_occupancy
  Li  Li0  1  0.98839100  0.51406000  0.72319900  1
  Li  Li1  1  0.84535800  0.15464200  0.00000000  1
  Li  Li2  1  0.48594000  0.01160900  0.27680100  1
  Li  Li3  1  0.16725100  0.83274900  0.50000000  1
  Li  Li4  1  0.73925900  0.65720000  0.10308800  1
  Li  Li5  1  0.34280000  0.26074100  0.89691200  1
  Mn  Mn6  1  0.85660300  0.35669500  0.60740700  1
  Mn  Mn7  1  0.64330500  0.14339700  0.39259300  1
  Mn  Mn8  1  0.34954000  0.85705000  0.10174500  1
  Mn  Mn9  1  0.14295000  0.65046000  0.89825500  1
  P  P10  1  0.24619800  0.05109100  0.69533600  1
  P  P11  1  0.94890900  0.75380200  0.30466400  1
  P  P12  1  0.54492200  0.45507800  0.00000000  1
  P  P13  1  0.46632400  0.53367600  0.50000000  1
  P  P14  1  0.04290400  0.25136400  0.20476500  1
  P  P15  1  0.74863600  0.95709600  0.79523500  1
  O  O16  1  0.71428200  0.99503600  0.62319300  1
  O  O17  1  0.50167400  0.37310300  0.44173500  1
  O  O18  1  0.06980300  0.23480400  0.69529500  1
  O  O19  1  0.88687900  0.20800500  0.20908200  1
  O  O20  1  0.39969600  0.06965900  0.50829900  1
  O  O21  1  0.19339800  0.88281400  0.72931100  1
  O  O22  1  0.93034100  0.60030400  0.49170100  1
  O  O23  1  0.76519600  0.93019700  0.30470500  1
  O  O24  1  0.56611800  0.26156500  0.15311200  1
  O  O25  1  0.62689700  0.49832600  0.55826500  1
  O  O26  1  0.27360600  0.55139700  0.65607500  1
  O  O27  1  0.00496400  0.28571800  0.37680700  1
  O  O28  1  0.97181100  0.70289900  0.14673000  1
  O  O29  1  0.73843500  0.43388200  0.84688800  1
  O  O30  1  0.38436300  0.48884200  0.94036800  1
  O  O31  1  0.44860300  0.72639400  0.34392500  1
  O  O32  1  0.23896700  0.08989700  0.17859500  1
  O  O33  1  0.06879500  0.41966000  0.01973300  1
  O  O34  1  0.79199500  0.11312100  0.79091800  1
  O  O35  1  0.58034000  0.93120500  0.98026700  1
  O  O36  1  0.11718600  0.80660200  0.27068900  1
  O  O37  1  0.91010300  0.76103300  0.82140500  1
  O  O38  1  0.51115800  0.61563700  0.05963200  1
  O  O39  1  0.29710100  0.02818900  0.85327000  1
