# generated using pymatgen
data_Li5Ni3(SnO5)2
_symmetry_space_group_name_H-M   'P 1'
_cell_length_a   5.22947132
_cell_length_b   10.38816832
_cell_length_c   8.11575092
_cell_angle_alpha   69.81162483
_cell_angle_beta   77.55645324
_cell_angle_gamma   98.48912828
_symmetry_Int_Tables_number   1
_chemical_formula_structural   Li5Ni3(SnO5)2
_chemical_formula_sum   'Li10 Ni6 Sn4 O20'
_cell_volume   392.04648877
_cell_formula_units_Z   2
loop_
 _symmetry_equiv_pos_site_id
 _symmetry_equiv_pos_as_xyz
  1  'x, y, z'
loop_
 _atom_site_type_symbol
 _atom_site_label
 _atom_site_symmetry_multiplicity
 _atom_site_fract_x
 _atom_site_fract_y
 _atom_site_fract_z
 _atom_site_occupancy
  Li  Li0  1  0.99992800  0.00004500  0.50002600  1
  Li  Li1  1  0.49992700  0.50004200  0.99999200  1
  Li  Li2  1  0.59907500  0.08821900  0.31284600  1
  Li  Li3  1  0.09900300  0.58819500  0.81290800  1
  Li  Li4  1  0.40098300  0.91190100  0.68702300  1
  Li  Li5  1  0.90094000  0.41188000  0.18706100  1
  Li  Li6  1  0.69053300  0.18968700  0.60670900  1
  Li  Li7  1  0.19057500  0.68969100  0.10667700  1
  Li  Li8  1  0.30943200  0.81040000  0.39330000  1
  Li  Li9  1  0.80946500  0.31040500  0.89326300  1
  Ni  Ni10  1  0.00044600  0.50003500  0.50010200  1
  Ni  Ni11  1  0.09624700  0.09974300  0.80015800  1
  Ni  Ni12  1  0.90337200  0.89977600  0.20018500  1
  Ni  Ni13  1  0.50008200  0.00001100  0.99996200  1
  Ni  Ni14  1  0.59635200  0.59990700  0.30003100  1
  Ni  Ni15  1  0.40378900  0.40008600  0.69976200  1
  Sn  Sn16  1  0.30622000  0.29713800  0.40178100  1
  Sn  Sn17  1  0.80622600  0.79715100  0.90180000  1
  Sn  Sn18  1  0.69368700  0.70275900  0.59823300  1
  Sn  Sn19  1  0.19371000  0.20277600  0.09819200  1
  O  O20  1  0.63774600  0.40244200  0.45413000  1
  O  O21  1  0.13766400  0.90242200  0.95427500  1
  O  O22  1  0.36236300  0.59756800  0.54573800  1
  O  O23  1  0.86231300  0.09752700  0.04588200  1
  O  O24  1  0.06121900  0.30552900  0.64099100  1
  O  O25  1  0.56118600  0.80552200  0.14101400  1
  O  O26  1  0.93884200  0.69444700  0.35905000  1
  O  O27  1  0.43884200  0.19443400  0.85905000  1
  O  O28  1  0.96823100  0.20212800  0.34344000  1
  O  O29  1  0.46824000  0.70212700  0.84344500  1
  O  O30  1  0.03170000  0.79792900  0.65648100  1
  O  O31  1  0.53173000  0.29792100  0.15648200  1
  O  O32  1  0.25979400  0.00210200  0.22565500  1
  O  O33  1  0.75984600  0.50208700  0.72558900  1
  O  O34  1  0.74015200  0.99795100  0.77447500  1
  O  O35  1  0.24021800  0.49793900  0.27440800  1
  O  O36  1  0.33716700  0.10296100  0.56045700  1
  O  O37  1  0.83725000  0.60298900  0.06035200  1
  O  O38  1  0.66269600  0.89705200  0.43960800  1
  O  O39  1  0.16281000  0.39707900  0.93946900  1
