# generated using pymatgen
data_Li4Mn3Cr2Sb3O16
_symmetry_space_group_name_H-M   'P 1'
_cell_length_a   6.24800276
_cell_length_b   6.24800276
_cell_length_c   9.74434751
_cell_angle_alpha   87.38431060
_cell_angle_beta   87.38431060
_cell_angle_gamma   58.71892491
_symmetry_Int_Tables_number   1
_chemical_formula_structural   Li4Mn3Cr2Sb3O16
_chemical_formula_sum   'Li4 Mn3 Cr2 Sb3 O16'
_cell_volume   324.65144002
_cell_formula_units_Z   1
loop_
 _symmetry_equiv_pos_site_id
 _symmetry_equiv_pos_as_xyz
  1  'x, y, z'
loop_
 _atom_site_type_symbol
 _atom_site_label
 _atom_site_symmetry_multiplicity
 _atom_site_fract_x
 _atom_site_fract_y
 _atom_site_fract_z
 _atom_site_occupancy
  Li  Li0  1  0.66037800  0.66037800  0.11707300  1
  Li  Li1  1  0.98726100  0.98726100  0.01628100  1
  Li  Li2  1  0.99440600  0.99440600  0.49593500  1
  Li  Li3  1  0.32233100  0.32233100  0.59674000  1
  Mn  Mn4  1  0.83183300  0.83183300  0.78731800  1
  Mn  Mn5  1  0.17348200  0.66133400  0.29008000  1
  Mn  Mn6  1  0.66133400  0.17348200  0.29008000  1
  Cr  Cr7  1  0.67658700  0.67658700  0.50553600  1
  Cr  Cr8  1  0.34696100  0.34696100  0.02465200  1
  Sb  Sb9  1  0.33709600  0.83135200  0.78499100  1
  Sb  Sb10  1  0.83135200  0.33709600  0.78499100  1
  Sb  Sb11  1  0.17227300  0.17227300  0.28457000  1
  O  O12  1  0.33850300  0.85139300  0.40187800  1
  O  O13  1  0.51753600  0.51753600  0.66357800  1
  O  O14  1  0.65434400  0.65434400  0.89883000  1
  O  O15  1  0.00999500  0.00999500  0.68259200  1
  O  O16  1  0.00806800  0.00806800  0.19845100  1
  O  O17  1  0.85139300  0.33850300  0.40187800  1
  O  O18  1  0.50394000  0.95820200  0.65685800  1
  O  O19  1  0.95820200  0.50394000  0.65685800  1
  O  O20  1  0.15588000  0.15588000  0.89374500  1
  O  O21  1  0.83836900  0.83836900  0.40447500  1
  O  O22  1  0.03962900  0.46851400  0.14888100  1
  O  O23  1  0.46851400  0.03962900  0.14888100  1
  O  O24  1  0.32511900  0.32511900  0.39511300  1
  O  O25  1  0.17835600  0.68091600  0.90318200  1
  O  O26  1  0.47644100  0.47644100  0.15552300  1
  O  O27  1  0.68091600  0.17835600  0.90318200  1
