# generated using pymatgen
data_LiCoH8(CO5)2
_symmetry_space_group_name_H-M   'P 1'
_cell_length_a   5.39143211
_cell_length_b   5.39143211
_cell_length_c   15.28126709
_cell_angle_alpha   81.55459418
_cell_angle_beta   81.55459418
_cell_angle_gamma   77.73296281
_symmetry_Int_Tables_number   1
_chemical_formula_structural   LiCoH8(CO5)2
_chemical_formula_sum   'Li2 Co2 H16 C4 O20'
_cell_volume   426.25544537
_cell_formula_units_Z   2
loop_
 _symmetry_equiv_pos_site_id
 _symmetry_equiv_pos_as_xyz
  1  'x, y, z'
loop_
 _atom_site_type_symbol
 _atom_site_label
 _atom_site_symmetry_multiplicity
 _atom_site_fract_x
 _atom_site_fract_y
 _atom_site_fract_z
 _atom_site_occupancy
  Li  Li0  1  0.73632500  0.42943900  0.53516500  1
  Li  Li1  1  0.42943900  0.73632500  0.03516500  1
  Co  Co2  1  0.93915000  0.06238000  0.75008500  1
  Co  Co3  1  0.06238000  0.93915000  0.25008500  1
  H  H4  1  0.14467800  0.22783400  0.05588500  1
  H  H5  1  0.16968200  0.13558300  0.45863300  1
  H  H6  1  0.52726200  0.23074900  0.10876500  1
  H  H7  1  0.22783400  0.14467800  0.55588500  1
  H  H8  1  0.61851900  0.27114300  0.38420100  1
  H  H9  1  0.13558300  0.16968200  0.95863300  1
  H  H10  1  0.72698500  0.38251500  0.12435000  1
  H  H11  1  0.81288300  0.44955400  0.37326300  1
  H  H12  1  0.23074900  0.52726200  0.60876500  1
  H  H13  1  0.27114300  0.61851900  0.88420100  1
  H  H14  1  0.89572200  0.82042700  0.04211400  1
  H  H15  1  0.38251500  0.72698500  0.62435000  1
  H  H16  1  0.77409800  0.85782900  0.44585800  1
  H  H17  1  0.44955400  0.81288300  0.87326300  1
  H  H18  1  0.82042700  0.89572200  0.54211400  1
  H  H19  1  0.85782900  0.77409800  0.94585800  1
  C  C20  1  0.51558900  0.04615700  0.71102100  1
  C  C21  1  0.04615700  0.51558900  0.21102100  1
  C  C22  1  0.96126300  0.48406200  0.78685300  1
  C  C23  1  0.48406200  0.96126300  0.28685300  1
  O  O24  1  0.20623800  0.09927700  0.01476500  1
  O  O25  1  0.30368500  0.02024200  0.68626700  1
  O  O26  1  0.02024200  0.30368500  0.18626700  1
  O  O27  1  0.72175200  0.04163200  0.65435200  1
  O  O28  1  0.54278400  0.07318700  0.79158900  1
  O  O29  1  0.09927700  0.20623800  0.51476500  1
  O  O30  1  0.55408800  0.40411500  0.10796000  1
  O  O31  1  0.07318700  0.54278400  0.29158900  1
  O  O32  1  0.66492100  0.40185800  0.41316900  1
  O  O33  1  0.98380500  0.27612500  0.84260100  1
  O  O34  1  0.04163200  0.72175200  0.15435200  1
  O  O35  1  0.40411500  0.55408800  0.60796000  1
  O  O36  1  0.91035400  0.46009400  0.70878500  1
  O  O37  1  0.40185800  0.66492100  0.91316900  1
  O  O38  1  0.82312400  0.76714300  0.50298100  1
  O  O39  1  0.46009400  0.91035400  0.20878500  1
  O  O40  1  0.27612500  0.98380500  0.34260100  1
  O  O41  1  0.99140500  0.69669500  0.80992900  1
  O  O42  1  0.69669500  0.99140500  0.30992900  1
  O  O43  1  0.76714300  0.82312400  0.00298100  1
