# generated using pymatgen
data_Li2Cr2H4O9
_symmetry_space_group_name_H-M   'P 1'
_cell_length_a   7.84509147
_cell_length_b   7.84509147
_cell_length_c   8.95558674
_cell_angle_alpha   87.55490383
_cell_angle_beta   87.55490383
_cell_angle_gamma   59.32488798
_symmetry_Int_Tables_number   1
_chemical_formula_structural   Li2Cr2H4O9
_chemical_formula_sum   'Li4 Cr4 H8 O18'
_cell_volume   473.48020229
_cell_formula_units_Z   2
loop_
 _symmetry_equiv_pos_site_id
 _symmetry_equiv_pos_as_xyz
  1  'x, y, z'
loop_
 _atom_site_type_symbol
 _atom_site_label
 _atom_site_symmetry_multiplicity
 _atom_site_fract_x
 _atom_site_fract_y
 _atom_site_fract_z
 _atom_site_occupancy
  Li  Li0  1  0.67351800  0.55757600  0.01689800  1
  Li  Li1  1  0.55757600  0.67351800  0.51689800  1
  Li  Li2  1  0.53649000  0.36044200  0.26775800  1
  Li  Li3  1  0.36044200  0.53649000  0.76775800  1
  Cr  Cr4  1  0.29648200  0.96804800  0.11706800  1
  Cr  Cr5  1  0.96804800  0.29648200  0.61706800  1
  Cr  Cr6  1  0.18338900  0.68200300  0.30069200  1
  Cr  Cr7  1  0.68200300  0.18338900  0.80069200  1
  H  H8  1  0.81193300  0.39040800  0.29316700  1
  H  H9  1  0.39040800  0.81193300  0.79316700  1
  H  H10  1  0.90540700  0.27341400  0.14487000  1
  H  H11  1  0.27341400  0.90540700  0.64487000  1
  H  H12  1  0.75811600  0.83831100  0.47198000  1
  H  H13  1  0.83831100  0.75811600  0.97198000  1
  H  H14  1  0.00513500  0.55070200  0.04423600  1
  H  H15  1  0.55070200  0.00513500  0.54423600  1
  O  O16  1  0.12777400  0.91545300  0.22563200  1
  O  O17  1  0.91545300  0.12777400  0.72563200  1
  O  O18  1  0.41340600  0.79730200  0.98771100  1
  O  O19  1  0.79730200  0.41340600  0.48771100  1
  O  O20  1  0.15567400  0.18814600  0.04424400  1
  O  O21  1  0.18814600  0.15567400  0.54424400  1
  O  O22  1  0.45769800  0.96412000  0.22541000  1
  O  O23  1  0.96412000  0.45769800  0.72541000  1
  O  O24  1  0.38233600  0.59231400  0.40636400  1
  O  O25  1  0.59231400  0.38233600  0.90636400  1
  O  O26  1  0.99296300  0.70419100  0.39419800  1
  O  O27  1  0.70419100  0.99296300  0.89419800  1
  O  O28  1  0.25260400  0.52168800  0.16610800  1
  O  O29  1  0.52168800  0.25260400  0.66610800  1
  O  O30  1  0.77665900  0.35906300  0.19618600  1
  O  O31  1  0.35906300  0.77665900  0.69618600  1
  O  O32  1  0.86587400  0.63136100  0.02047700  1
  O  O33  1  0.63136100  0.86587400  0.52047700  1
