# generated using pymatgen
data_LiNi2O3
_symmetry_space_group_name_H-M   'P 1'
_cell_length_a   5.07854483
_cell_length_b   5.09102100
_cell_length_c   9.71275585
_cell_angle_alpha   95.14745431
_cell_angle_beta   100.35442735
_cell_angle_gamma   60.08328022
_symmetry_Int_Tables_number   1
_chemical_formula_structural   LiNi2O3
_chemical_formula_sum   'Li4 Ni8 O12'
_cell_volume   214.11658326
_cell_formula_units_Z   4
loop_
 _symmetry_equiv_pos_site_id
 _symmetry_equiv_pos_as_xyz
  1  'x, y, z'
loop_
 _atom_site_type_symbol
 _atom_site_label
 _atom_site_symmetry_multiplicity
 _atom_site_fract_x
 _atom_site_fract_y
 _atom_site_fract_z
 _atom_site_occupancy
  Li  Li0  1  0.91111800  0.67774600  0.75001600  1
  Li  Li1  1  0.25213800  0.99577300  0.75001600  1
  Li  Li2  1  0.42221800  0.65558100  0.24998600  1
  Li  Li3  1  0.08119000  0.33757100  0.24998600  1
  Ni  Ni4  1  0.58158100  0.33680800  0.74998900  1
  Ni  Ni5  1  0.83330100  0.33253000  0.49961000  1
  Ni  Ni6  1  0.50004400  0.00085400  0.50031700  1
  Ni  Ni7  1  0.16669700  0.66659100  0.49998700  1
  Ni  Ni8  1  0.75170900  0.99661300  0.25001500  1
  Ni  Ni9  1  0.66670800  0.66659400  0.00001300  1
  Ni  Ni10  1  0.33408600  0.33256800  0.00038300  1
  Ni  Ni11  1  0.99918600  0.00082200  0.99967500  1
  O  O12  1  0.93616300  0.35757900  0.88398200  1
  O  O13  1  0.62008900  0.01456300  0.87508900  1
  O  O14  1  0.31713400  0.66408000  0.88489400  1
  O  O15  1  0.51877300  0.66407000  0.61510200  1
  O  O16  1  0.86536200  0.01453600  0.62489300  1
  O  O17  1  0.20625800  0.35758000  0.61601700  1
  O  O18  1  0.81457000  0.66926800  0.38489300  1
  O  O19  1  0.46801000  0.31878800  0.37510600  1
  O  O20  1  0.12703300  0.97573500  0.38399200  1
  O  O21  1  0.71321600  0.31876000  0.12491400  1
  O  O22  1  0.39723200  0.97573500  0.11601100  1
  O  O23  1  0.01618600  0.66925800  0.11511500  1
