# generated using pymatgen
data_Li3TiV3O8
_symmetry_space_group_name_H-M   'P 1'
_cell_length_a   5.91525020
_cell_length_b   5.91525020
_cell_length_c   9.66869900
_cell_angle_alpha   90.00000000
_cell_angle_beta   90.00000000
_cell_angle_gamma   120.00000223
_symmetry_Int_Tables_number   1
_chemical_formula_structural   Li3TiV3O8
_chemical_formula_sum   'Li6 Ti2 V6 O16'
_cell_volume   292.98467188
_cell_formula_units_Z   2
loop_
 _symmetry_equiv_pos_site_id
 _symmetry_equiv_pos_as_xyz
  1  'x, y, z'
loop_
 _atom_site_type_symbol
 _atom_site_label
 _atom_site_symmetry_multiplicity
 _atom_site_fract_x
 _atom_site_fract_y
 _atom_site_fract_z
 _atom_site_occupancy
  Li  Li0  1  0.82746200  0.17253800  0.55769300  1
  Li  Li1  1  0.82746200  0.65492400  0.55769300  1
  Li  Li2  1  0.34507600  0.17253800  0.55769300  1
  Li  Li3  1  0.65492400  0.82746200  0.05769300  1
  Li  Li4  1  0.17253800  0.34507600  0.05769300  1
  Li  Li5  1  0.17253800  0.82746200  0.05769300  1
  Ti  Ti6  1  0.66666700  0.33333300  0.00489200  1
  Ti  Ti7  1  0.33333300  0.66666700  0.50489200  1
  V  V8  1  0.83073000  0.16927000  0.28564100  1
  V  V9  1  0.83073000  0.66145900  0.28564100  1
  V  V10  1  0.33854100  0.16927000  0.28564100  1
  V  V11  1  0.66145900  0.83073000  0.78564100  1
  V  V12  1  0.16927000  0.33854100  0.78564100  1
  V  V13  1  0.16927000  0.83073000  0.78564100  1
  O  O14  1  0.00000000  0.00000000  0.17788500  1
  O  O15  1  0.00000000  0.00000000  0.67788500  1
  O  O16  1  0.83305700  0.16694300  0.91119100  1
  O  O17  1  0.96423200  0.48211600  0.15358200  1
  O  O18  1  0.51788400  0.03576800  0.15358200  1
  O  O19  1  0.66666700  0.33333300  0.40009400  1
  O  O20  1  0.83305700  0.66611400  0.91119100  1
  O  O21  1  0.51788400  0.48211600  0.15358200  1
  O  O22  1  0.33388600  0.16694300  0.91119100  1
  O  O23  1  0.66611400  0.83305700  0.41119100  1
  O  O24  1  0.48211600  0.51788400  0.65358200  1
  O  O25  1  0.48211600  0.96423200  0.65358200  1
  O  O26  1  0.33333300  0.66666700  0.90009400  1
  O  O27  1  0.16694300  0.33388600  0.41119100  1
  O  O28  1  0.03576800  0.51788400  0.65358200  1
  O  O29  1  0.16694300  0.83305700  0.41119100  1
