# generated using pymatgen
data_Li2O
_symmetry_space_group_name_H-M   'P 1'
_cell_length_a   3.14042800
_cell_length_b   5.15179500
_cell_length_c   5.93340800
_cell_angle_alpha   90.00000000
_cell_angle_beta   90.00000000
_cell_angle_gamma   90.00000000
_symmetry_Int_Tables_number   1
_chemical_formula_structural   Li2O
_chemical_formula_sum   'Li8 O4'
_cell_volume   95.99566621
_cell_formula_units_Z   4
loop_
 _symmetry_equiv_pos_site_id
 _symmetry_equiv_pos_as_xyz
  1  'x, y, z'
loop_
 _atom_site_type_symbol
 _atom_site_label
 _atom_site_symmetry_multiplicity
 _atom_site_fract_x
 _atom_site_fract_y
 _atom_site_fract_z
 _atom_site_occupancy
  Li  Li0  1  0.25000000  0.01224500  0.15906100  1
  Li  Li1  1  0.25000000  0.14108700  0.57920800  1
  Li  Li2  1  0.75000000  0.35891300  0.07920800  1
  Li  Li3  1  0.75000000  0.48775500  0.65906100  1
  Li  Li4  1  0.25000000  0.51224500  0.34093900  1
  Li  Li5  1  0.25000000  0.64108700  0.92079200  1
  Li  Li6  1  0.75000000  0.85891300  0.42079200  1
  Li  Li7  1  0.75000000  0.98775500  0.84093900  1
  O  O8  1  0.75000000  0.24606700  0.39882400  1
  O  O9  1  0.25000000  0.25393300  0.89882400  1
  O  O10  1  0.75000000  0.74606700  0.10117600  1
  O  O11  1  0.25000000  0.75393300  0.60117600  1
