# generated using pymatgen
data_Li6FeCo9O20
_symmetry_space_group_name_H-M   'P 1'
_cell_length_a   4.98589700
_cell_length_b   7.66802271
_cell_length_c   9.81604499
_cell_angle_alpha   96.22932875
_cell_angle_beta   94.19154623
_cell_angle_gamma   108.06047194
_symmetry_Int_Tables_number   1
_chemical_formula_structural   Li6FeCo9O20
_chemical_formula_sum   'Li6 Fe1 Co9 O20'
_cell_volume   352.42070796
_cell_formula_units_Z   1
loop_
 _symmetry_equiv_pos_site_id
 _symmetry_equiv_pos_as_xyz
  1  'x, y, z'
loop_
 _atom_site_type_symbol
 _atom_site_label
 _atom_site_symmetry_multiplicity
 _atom_site_fract_x
 _atom_site_fract_y
 _atom_site_fract_z
 _atom_site_occupancy
  Li  Li0  1  0.59523200  0.94955700  0.24788500  1
  Li  Li1  1  0.40476800  0.05044300  0.75211500  1
  Li  Li2  1  0.80007700  0.34594300  0.24911700  1
  Li  Li3  1  0.60232200  0.44812900  0.75142400  1
  Li  Li4  1  0.39767800  0.55187100  0.24857600  1
  Li  Li5  1  0.19992300  0.65405700  0.75088300  1
  Fe  Fe6  1  0.00000000  0.00000000  0.50000000  1
  Co  Co7  1  0.20333000  0.90232100  0.00619900  1
  Co  Co8  1  0.59939400  0.19822000  0.49999500  1
  Co  Co9  1  0.79667000  0.09767900  0.99380100  1
  Co  Co10  1  0.40300100  0.30268500  0.00287100  1
  Co  Co11  1  0.19909400  0.39789600  0.50055300  1
  Co  Co12  1  0.80090600  0.60210400  0.49944700  1
  Co  Co13  1  0.00000000  0.50000000  0.00000000  1
  Co  Co14  1  0.40060600  0.80178000  0.50000500  1
  Co  Co15  1  0.59699900  0.69731500  0.99712900  1
  O  O16  1  0.87165800  0.91321700  0.09479500  1
  O  O17  1  0.33229700  0.98235200  0.39802200  1
  O  O18  1  0.66770300  0.01764800  0.60197800  1
  O  O19  1  0.48077000  0.86379500  0.89188800  1
  O  O20  1  0.12834200  0.08678300  0.90520500  1
  O  O21  1  0.31667900  0.21957800  0.60920700  1
  O  O22  1  0.51923000  0.13620500  0.10811200  1
  O  O23  1  0.88310000  0.17880900  0.39063500  1
  O  O24  1  0.50996300  0.37284400  0.39325900  1
  O  O25  1  0.68377500  0.27162900  0.89394100  1
  O  O26  1  0.88375700  0.41266600  0.60738700  1
  O  O27  1  0.11100200  0.33977200  0.10632800  1
  O  O28  1  0.67488400  0.51529700  0.10470700  1
  O  O29  1  0.11624300  0.58733400  0.39261300  1
  O  O30  1  0.49003700  0.62715600  0.60674100  1
  O  O31  1  0.32511600  0.48470300  0.89529300  1
  O  O32  1  0.11690000  0.82119100  0.60936500  1
  O  O33  1  0.88899800  0.66022800  0.89367200  1
  O  O34  1  0.31622500  0.72837100  0.10605900  1
  O  O35  1  0.68332100  0.78042200  0.39079300  1
