# generated using pymatgen
data_Na2Li4Ni2C4SO16
_symmetry_space_group_name_H-M   'P 1'
_cell_length_a   9.75899465
_cell_length_b   9.55987569
_cell_length_c   9.53181444
_cell_angle_alpha   61.48265009
_cell_angle_beta   59.40027482
_cell_angle_gamma   59.11707509
_symmetry_Int_Tables_number   1
_chemical_formula_structural   Na2Li4Ni2C4SO16
_chemical_formula_sum   'Na4 Li8 Ni4 C8 S2 O32'
_cell_volume   628.15918346
_cell_formula_units_Z   2
loop_
 _symmetry_equiv_pos_site_id
 _symmetry_equiv_pos_as_xyz
  1  'x, y, z'
loop_
 _atom_site_type_symbol
 _atom_site_label
 _atom_site_symmetry_multiplicity
 _atom_site_fract_x
 _atom_site_fract_y
 _atom_site_fract_z
 _atom_site_occupancy
  Na  Na0  1  0.52584200  0.52584200  0.97415800  1
  Na  Na1  1  0.27584200  0.27584200  0.72415800  1
  Na  Na2  1  0.97415800  0.97415800  0.52584200  1
  Na  Na3  1  0.72415800  0.72415800  0.27584200  1
  Li  Li4  1  0.45346100  0.81085200  0.13647500  1
  Li  Li5  1  0.65078900  0.11352500  0.43914800  1
  Li  Li6  1  0.13647500  0.59921100  0.45346100  1
  Li  Li7  1  0.43914800  0.79653900  0.65078900  1
  Li  Li8  1  0.81085200  0.45346100  0.59921100  1
  Li  Li9  1  0.11352500  0.65078900  0.79653900  1
  Li  Li10  1  0.59921100  0.13647500  0.81085200  1
  Li  Li11  1  0.79653900  0.43914800  0.11352500  1
  Ni  Ni12  1  0.12500000  0.62500000  0.12500000  1
  Ni  Ni13  1  0.12500000  0.12500000  0.62500000  1
  Ni  Ni14  1  0.62500000  0.12500000  0.12500000  1
  Ni  Ni15  1  0.12500000  0.12500000  0.12500000  1
  C  C16  1  0.28419100  0.89885400  0.90449100  1
  C  C17  1  0.33753600  0.34550900  0.35114600  1
  C  C18  1  0.89885400  0.28419100  0.91246400  1
  C  C19  1  0.90449100  0.91246400  0.28419100  1
  C  C20  1  0.34550900  0.33753600  0.96580900  1
  C  C21  1  0.35114600  0.96580900  0.33753600  1
  C  C22  1  0.91246400  0.90449100  0.89885400  1
  C  C23  1  0.96580900  0.35114600  0.34550900  1
  S  S24  1  0.50000000  0.50000000  0.50000000  1
  S  S25  1  0.75000000  0.75000000  0.75000000  1
  O  O26  1  0.28206700  0.92001500  0.02919400  1
  O  O27  1  0.48127700  0.22080600  0.32998500  1
  O  O28  1  0.31438200  0.48773300  0.23126500  1
  O  O29  1  0.28338000  0.01873500  0.76226700  1
  O  O30  1  0.29690100  0.75204600  0.91519000  1
  O  O31  1  0.56072600  0.56589500  0.56426400  1
  O  O32  1  0.48773300  0.31438200  0.96662000  1
  O  O33  1  0.21413700  0.33481000  0.49795400  1
  O  O34  1  0.94088500  0.68573600  0.68410500  1
  O  O35  1  0.01873500  0.28338000  0.93561800  1
  O  O36  1  0.91519000  0.03586300  0.29690100  1
  O  O37  1  0.49795400  0.95309900  0.21413700  1
  O  O38  1  0.02919400  0.76872300  0.28206700  1
  O  O39  1  0.32998500  0.96793300  0.48127700  1
  O  O40  1  0.56589500  0.56072600  0.30911500  1
  O  O41  1  0.56426400  0.30911500  0.56072600  1
  O  O42  1  0.68573600  0.94088500  0.68927400  1
  O  O43  1  0.68410500  0.68927400  0.94088500  1
  O  O44  1  0.92001500  0.28206700  0.76872300  1
  O  O45  1  0.22080600  0.48127700  0.96793300  1
  O  O46  1  0.75204600  0.29690100  0.03586300  1
  O  O47  1  0.33481000  0.21413700  0.95309900  1
  O  O48  1  0.23126500  0.96662000  0.31438200  1
  O  O49  1  0.30911500  0.56426400  0.56589500  1
  O  O50  1  0.03586300  0.91519000  0.75204600  1
  O  O51  1  0.76226700  0.93561800  0.28338000  1
  O  O52  1  0.68927400  0.68410500  0.68573600  1
  O  O53  1  0.95309900  0.49795400  0.33481000  1
  O  O54  1  0.96662000  0.23126500  0.48773300  1
  O  O55  1  0.93561800  0.76226700  0.01873500  1
  O  O56  1  0.76872300  0.02919400  0.92001500  1
  O  O57  1  0.96793300  0.32998500  0.22080600  1
