# generated using pymatgen
data_Li2Mn2(PO4)3
_symmetry_space_group_name_H-M   'P 1'
_cell_length_a   9.12565147
_cell_length_b   8.31778699
_cell_length_c   8.25233188
_cell_angle_alpha   60.97370828
_cell_angle_beta   61.69517077
_cell_angle_gamma   91.91344446
_symmetry_Int_Tables_number   1
_chemical_formula_structural   Li2Mn2(PO4)3
_chemical_formula_sum   'Li4 Mn4 P6 O24'
_cell_volume   453.11434261
_cell_formula_units_Z   2
loop_
 _symmetry_equiv_pos_site_id
 _symmetry_equiv_pos_as_xyz
  1  'x, y, z'
loop_
 _atom_site_type_symbol
 _atom_site_label
 _atom_site_symmetry_multiplicity
 _atom_site_fract_x
 _atom_site_fract_y
 _atom_site_fract_z
 _atom_site_occupancy
  Li  Li0  1  0.86101655  0.25658034  0.82095750  1
  Li  Li1  1  0.87216630  0.93316746  0.38951676  1
  Li  Li2  1  0.12783370  0.06683254  0.61048324  1
  Li  Li3  1  0.13898345  0.74341966  0.17904250  1
  Mn  Mn4  1  0.95686782  0.64842281  0.70036881  1
  Mn  Mn5  1  0.43311472  0.14819197  0.71211889  1
  Mn  Mn6  1  0.56688528  0.85180803  0.28788111  1
  Mn  Mn7  1  0.04313218  0.35157719  0.29963119  1
  P  P8  1  0.74710091  0.95108875  0.79204990  1
  P  P9  1  0.75750790  0.53536119  0.50457399  1
  P  P10  1  0.74812980  0.25355655  0.21541066  1
  P  P11  1  0.25187020  0.74644345  0.78458934  1
  P  P12  1  0.24249210  0.46463881  0.49542601  1
  P  P13  1  0.25289909  0.04891125  0.20795010  1
  O  O14  1  0.90615700  0.15899731  0.62773882  1
  O  O15  1  0.80274490  0.49357444  0.67995937  1
  O  O16  1  0.81379288  0.82323878  0.70238566  1
  O  O17  1  0.91422553  0.53011533  0.31052372  1
  O  O18  1  0.88896747  0.21030808  0.27643587  1
  O  O19  1  0.75319994  0.74210548  0.38923529  1
  O  O20  1  0.58216097  0.97502300  0.80073342  1
  O  O21  1  0.58231907  0.38095834  0.62689967  1
  O  O22  1  0.80681091  0.46749430  0.02253240  1
  O  O23  1  0.73778139  0.11397335  0.14395213  1
  O  O24  1  0.56866831  0.20470133  0.41578508  1
  O  O25  1  0.73505241  0.87597863  0.01089630  1
  O  O26  1  0.26494759  0.12402137  0.98910370  1
  O  O27  1  0.43133169  0.79529867  0.58421492  1
  O  O28  1  0.26221861  0.88602665  0.85604787  1
  O  O29  1  0.19318909  0.53250570  0.97746760  1
  O  O30  1  0.41768093  0.61904166  0.37310033  1
  O  O31  1  0.41783903  0.02497700  0.19926658  1
  O  O32  1  0.24680006  0.25789452  0.61076471  1
  O  O33  1  0.11103253  0.78969192  0.72356413  1
  O  O34  1  0.08577447  0.46988467  0.68947628  1
  O  O35  1  0.18620712  0.17676122  0.29761434  1
  O  O36  1  0.19725510  0.50642556  0.32004063  1
  O  O37  1  0.09384300  0.84100269  0.37226118  1
