# generated using pymatgen
data_Li2NiSnO4
_symmetry_space_group_name_H-M   'P 1'
_cell_length_a   6.11590360
_cell_length_b   8.10117367
_cell_length_c   8.10111728
_cell_angle_alpha   80.40981533
_cell_angle_beta   111.87260229
_cell_angle_gamma   68.13186109
_symmetry_Int_Tables_number   1
_chemical_formula_structural   Li2NiSnO4
_chemical_formula_sum   'Li8 Ni4 Sn4 O16'
_cell_volume   323.22381849
_cell_formula_units_Z   4
loop_
 _symmetry_equiv_pos_site_id
 _symmetry_equiv_pos_as_xyz
  1  'x, y, z'
loop_
 _atom_site_type_symbol
 _atom_site_label
 _atom_site_symmetry_multiplicity
 _atom_site_fract_x
 _atom_site_fract_y
 _atom_site_fract_z
 _atom_site_occupancy
  Li  Li0  1  0.00000000  0.00000000  0.00000000  1
  Li  Li1  1  0.00001200  0.24998000  0.25001900  1
  Li  Li2  1  0.00000000  0.50000000  0.50000000  1
  Li  Li3  1  0.99998800  0.75001900  0.74998000  1
  Li  Li4  1  0.50000000  0.37495000  0.87495000  1
  Li  Li5  1  0.50000000  0.62505000  0.12505000  1
  Li  Li6  1  0.50000000  0.87497300  0.37497300  1
  Li  Li7  1  0.50000000  0.12502700  0.62502700  1
  Ni  Ni8  1  0.00000100  0.37522500  0.87522400  1
  Ni  Ni9  1  0.99999900  0.62477400  0.12477500  1
  Ni  Ni10  1  0.99999600  0.87518600  0.37517800  1
  Ni  Ni11  1  0.00000300  0.12482000  0.62482400  1
  Sn  Sn12  1  0.50000000  0.50000000  0.50000000  1
  Sn  Sn13  1  0.49997200  0.75001100  0.74998900  1
  Sn  Sn14  1  0.50000000  0.00000000  0.00000000  1
  Sn  Sn15  1  0.50002800  0.24998900  0.25001100  1
  O  O16  1  0.24787300  0.24034300  0.75971100  1
  O  O17  1  0.24781800  0.49034600  0.00966600  1
  O  O18  1  0.24787200  0.74030200  0.25967000  1
  O  O19  1  0.24784500  0.99033000  0.50968300  1
  O  O20  1  0.75212700  0.75965700  0.24028900  1
  O  O21  1  0.75215500  0.00967000  0.49031700  1
  O  O22  1  0.75212800  0.25969800  0.74033000  1
  O  O23  1  0.75218200  0.50965300  0.99033400  1
  O  O24  1  0.73989900  0.62453700  0.62560000  1
  O  O25  1  0.73989900  0.87441600  0.87547800  1
  O  O26  1  0.73986200  0.12456100  0.12556500  1
  O  O27  1  0.73986200  0.37445100  0.37545400  1
  O  O28  1  0.26010100  0.12558400  0.12452200  1
  O  O29  1  0.26010100  0.37546200  0.37440000  1
  O  O30  1  0.26013800  0.62554900  0.62454600  1
  O  O31  1  0.26013800  0.87543900  0.87443500  1
