# generated using pymatgen
data_Li3Mn4(BO3)4
_symmetry_space_group_name_H-M   'P 1'
_cell_length_a   9.09559700
_cell_length_b   9.10433994
_cell_length_c   11.66253497
_cell_angle_alpha   67.43437010
_cell_angle_beta   68.60268184
_cell_angle_gamma   60.04614055
_symmetry_Int_Tables_number   1
_chemical_formula_structural   Li3Mn4(BO3)4
_chemical_formula_sum   'Li9 Mn12 B12 O36'
_cell_volume   754.37678699
_cell_formula_units_Z   3
loop_
 _symmetry_equiv_pos_site_id
 _symmetry_equiv_pos_as_xyz
  1  'x, y, z'
loop_
 _atom_site_type_symbol
 _atom_site_label
 _atom_site_symmetry_multiplicity
 _atom_site_fract_x
 _atom_site_fract_y
 _atom_site_fract_z
 _atom_site_occupancy
  Li  Li0  1  0.22360500  0.05801300  0.66636200  1
  Li  Li1  1  0.36905800  0.25239600  0.16669800  1
  Li  Li2  1  0.04852700  0.88484900  0.17654800  1
  Li  Li3  1  0.41674600  0.59330500  0.41795600  1
  Li  Li4  1  0.52952800  0.38959400  0.67567900  1
  Li  Li5  1  0.71991000  0.57663100  0.17036100  1
  Li  Li6  1  0.93467900  0.08314400  0.90649300  1
  Li  Li7  1  0.76153600  0.91040800  0.41220900  1
  Li  Li8  1  0.88986700  0.70001600  0.65744100  1
  Mn  Mn9  1  0.05374300  0.21847800  0.13156800  1
  Mn  Mn10  1  0.11482300  0.54805000  0.38029200  1
  Mn  Mn11  1  0.29397200  0.08407300  0.88364900  1
  Mn  Mn12  1  0.40124600  0.58872700  0.12196200  1
  Mn  Mn13  1  0.21050800  0.76524100  0.62626200  1
  Mn  Mn14  1  0.57739600  0.05844200  0.63347600  1
  Mn  Mn15  1  0.41159100  0.95742300  0.37909800  1
  Mn  Mn16  1  0.77299700  0.27438300  0.38665700  1
  Mn  Mn17  1  0.58926700  0.43027800  0.88246600  1
  Mn  Mn18  1  0.72249900  0.92262600  0.12845500  1
  Mn  Mn19  1  0.88971000  0.38758500  0.62790100  1
  Mn  Mn20  1  0.92492100  0.73959700  0.89250800  1
  B  B21  1  0.05787500  0.55556300  0.14171000  1
  B  B22  1  0.09434100  0.92202800  0.37325300  1
  B  B23  1  0.24283400  0.40263300  0.61752700  1
  B  B24  1  0.44157600  0.27685800  0.37331900  1
  B  B25  1  0.40044700  0.90846600  0.13570500  1
  B  B26  1  0.73552000  0.24595700  0.12739200  1
  B  B27  1  0.25449000  0.77119700  0.86600800  1
  B  B28  1  0.61893100  0.08546400  0.86893200  1
  B  B29  1  0.56761300  0.73311300  0.62140100  1
  B  B30  1  0.90439000  0.06535400  0.62207800  1
  B  B31  1  0.74968000  0.62519000  0.37433200  1
  B  B32  1  0.94021600  0.40343400  0.87357800  1
  O  O33  1  0.03280500  0.10423100  0.32003100  1
  O  O34  1  0.01198600  0.12507400  0.62647400  1
  O  O35  1  0.13899600  0.38614500  0.13890700  1
  O  O36  1  0.12685000  0.62555300  0.19121400  1
  O  O37  1  0.44914300  0.00647500  0.16912400  1
  O  O38  1  0.08901900  0.48382000  0.56959700  1
  O  O39  1  0.02259200  0.82783700  0.36387600  1
  O  O40  1  0.34658000  0.21384300  0.35471500  1
  O  O41  1  0.06520600  0.28705500  0.94902000  1
  O  O42  1  0.30530300  0.22267100  0.67055500  1
  O  O43  1  0.37128200  0.46330600  0.34738900  1
  O  O44  1  0.23976100  0.98803500  0.09955000  1
  O  O45  1  0.57418400  0.33418100  0.09474500  1
  O  O46  1  0.32349500  0.50164000  0.60748300  1
  O  O47  1  0.23674800  0.84130200  0.43253700  1
  O  O48  1  0.59511000  0.17222900  0.41606300  1
  O  O49  1  0.18878300  0.70970100  0.80896700  1
  O  O50  1  0.50046100  0.73702700  0.13666300  1
  O  O51  1  0.84227300  0.07508400  0.11951800  1
  O  O52  1  0.79154800  0.33629300  0.16553900  1
  O  O53  1  0.18668500  0.94746000  0.85458900  1
  O  O54  1  0.53136700  0.26235800  0.85106700  1
  O  O55  1  0.40231800  0.83964700  0.58982200  1
  O  O56  1  0.66543600  0.54232200  0.36356300  1
  O  O57  1  0.74308300  0.18245700  0.58983800  1
  O  O58  1  0.38005300  0.65005600  0.93386300  1
  O  O59  1  0.61896800  0.55420300  0.66773000  1
  O  O60  1  0.68795200  0.80630700  0.33814300  1
  O  O61  1  0.90513400  0.67003600  0.09710800  1
  O  O62  1  0.90041900  0.52245000  0.42274300  1
  O  O63  1  0.67269400  0.81287300  0.60150900  1
  O  O64  1  0.86725300  0.33071700  0.83531600  1
  O  O65  1  0.56199700  0.99375800  0.83511700  1
  O  O66  1  0.89749600  0.57706600  0.83316700  1
  O  O67  1  0.76848800  0.99144700  0.92024800  1
  O  O68  1  0.95346300  0.88492200  0.64591400  1
