# generated using pymatgen
data_Li2Mn3F8
_symmetry_space_group_name_H-M   'P 1'
_cell_length_a   9.39371449
_cell_length_b   9.39371449
_cell_length_c   9.39371449
_cell_angle_alpha   107.38977925
_cell_angle_beta   107.38977925
_cell_angle_gamma   113.71946755
_symmetry_Int_Tables_number   1
_chemical_formula_structural   Li2Mn3F8
_chemical_formula_sum   'Li8 Mn12 F32'
_cell_volume   635.45066142
_cell_formula_units_Z   4
loop_
 _symmetry_equiv_pos_site_id
 _symmetry_equiv_pos_as_xyz
  1  'x, y, z'
loop_
 _atom_site_type_symbol
 _atom_site_label
 _atom_site_symmetry_multiplicity
 _atom_site_fract_x
 _atom_site_fract_y
 _atom_site_fract_z
 _atom_site_occupancy
  Li  Li0  1  0.33907500  0.43953100  0.28746500  1
  Li  Li1  1  0.09793500  0.69839000  0.78746500  1
  Li  Li2  1  0.94839000  0.66092500  0.10045500  1
  Li  Li3  1  0.68953100  0.90206500  0.60045500  1
  Li  Li4  1  0.56046900  0.84793500  0.89954500  1
  Li  Li5  1  0.30161000  0.08907500  0.39954500  1
  Li  Li6  1  0.91092500  0.31046900  0.21253500  1
  Li  Li7  1  0.15206500  0.05161000  0.71253500  1
  Mn  Mn8  1  0.78243900  0.61119900  0.43685400  1
  Mn  Mn9  1  0.25000000  0.75000000  0.50000000  1
  Mn  Mn10  1  0.75000000  0.25000000  0.50000000  1
  Mn  Mn11  1  0.65441500  0.21756100  0.82876100  1
  Mn  Mn12  1  0.86119900  0.92434600  0.32876100  1
  Mn  Mn13  1  0.17434600  0.34558500  0.56314600  1
  Mn  Mn14  1  0.07565400  0.40441500  0.93685400  1
  Mn  Mn15  1  0.59558500  0.53243900  0.67123900  1
  Mn  Mn16  1  0.38880100  0.82565400  0.17123900  1
  Mn  Mn17  1  0.00000000  0.00000000  0.00000000  1
  Mn  Mn18  1  0.50000000  0.50000000  0.00000000  1
  Mn  Mn19  1  0.46756100  0.13880100  0.06314600  1
  F  F20  1  0.81282000  0.66257800  0.24169500  1
  F  F21  1  0.24370100  0.83596700  0.32683400  1
  F  F22  1  0.74086700  0.83313300  0.82683400  1
  F  F23  1  0.76108400  0.36031700  0.33016100  1
  F  F24  1  0.82112400  0.56282000  0.65024200  1
  F  F25  1  0.08313300  0.75629900  0.59226600  1
  F  F26  1  0.16403300  0.49086700  0.40773400  1
  F  F27  1  0.68092400  0.51108400  0.90076700  1
  F  F28  1  0.63968300  0.96984300  0.40076700  1
  F  F29  1  0.91257800  0.17088200  0.34975800  1
  F  F30  1  0.03015700  0.43092400  0.66983900  1
  F  F31  1  0.10183500  0.65904600  0.98336300  1
  F  F32  1  0.57431700  0.63152800  0.48336300  1
  F  F33  1  0.82911800  0.17887600  0.74169500  1
  F  F34  1  0.34095400  0.32431700  0.44278900  1
  F  F35  1  0.36847200  0.85183500  0.94278900  1
  F  F36  1  0.88152800  0.89816500  0.55721100  1
  F  F37  1  0.90904600  0.42568300  0.05721100  1
  F  F38  1  0.42088200  0.57112400  0.75830500  1
  F  F39  1  0.14816500  0.09095400  0.51663700  1
  F  F40  1  0.67568300  0.11847200  0.01663700  1
  F  F41  1  0.21984300  0.31907600  0.83016100  1
  F  F42  1  0.33742200  0.57911800  0.15024200  1
  F  F43  1  0.61031700  0.78015700  0.09923300  1
  F  F44  1  0.56907600  0.23891600  0.59923300  1
  F  F45  1  0.08596700  0.25913300  0.09226600  1
  F  F46  1  0.16686700  0.99370100  0.90773400  1
  F  F47  1  0.42887600  0.18718000  0.84975800  1
  F  F48  1  0.48891600  0.38968300  0.16983900  1
  F  F49  1  0.00629900  0.91403300  0.17316600  1
  F  F50  1  0.50913300  0.91686700  0.67316600  1
  F  F51  1  0.43718000  0.08742200  0.25830500  1
