# generated using pymatgen
data_Li4Ni3Sn5O16
_symmetry_space_group_name_H-M   'P 1'
_cell_length_a   6.05017600
_cell_length_b   6.11055832
_cell_length_c   9.81038816
_cell_angle_alpha   90.74140827
_cell_angle_beta   89.93357806
_cell_angle_gamma   119.43250806
_symmetry_Int_Tables_number   1
_chemical_formula_structural   Li4Ni3Sn5O16
_chemical_formula_sum   'Li4 Ni3 Sn5 O16'
_cell_volume   315.84703788
_cell_formula_units_Z   1
loop_
 _symmetry_equiv_pos_site_id
 _symmetry_equiv_pos_as_xyz
  1  'x, y, z'
loop_
 _atom_site_type_symbol
 _atom_site_label
 _atom_site_symmetry_multiplicity
 _atom_site_fract_x
 _atom_site_fract_y
 _atom_site_fract_z
 _atom_site_occupancy
  Li  Li0  1  0.66726000  0.32537500  0.89231100  1
  Li  Li1  1  0.97771200  0.01818300  0.98790500  1
  Li  Li2  1  0.98929700  0.00927500  0.49764600  1
  Li  Li3  1  0.33628100  0.67035600  0.40413500  1
  Ni  Ni4  1  0.83104600  0.17023800  0.21604500  1
  Ni  Ni5  1  0.66096800  0.82884400  0.71258200  1
  Ni  Ni6  1  0.17221300  0.33990600  0.71519800  1
  Sn  Sn7  1  0.83361300  0.66021300  0.21521100  1
  Sn  Sn8  1  0.67330900  0.33109400  0.49454300  1
  Sn  Sn9  1  0.33966600  0.16852400  0.21376000  1
  Sn  Sn10  1  0.17062800  0.83168300  0.71427100  1
  Sn  Sn11  1  0.34286700  0.65716800  0.98563200  1
  O  O12  1  0.84081400  0.68003900  0.59400000  1
  O  O13  1  0.51500700  0.48569200  0.34539500  1
  O  O14  1  0.66724900  0.33301900  0.10017300  1
  O  O15  1  0.00043700  0.00129800  0.31240600  1
  O  O16  1  0.97710700  0.98989100  0.80507000  1
  O  O17  1  0.32041700  0.16903300  0.59979000  1
  O  O18  1  0.96953000  0.48668600  0.34592600  1
  O  O19  1  0.51416400  0.03467500  0.34679000  1
  O  O20  1  0.16200000  0.83500000  0.09105300  1
  O  O21  1  0.84211800  0.16739600  0.60493900  1
  O  O22  1  0.48265100  0.96138300  0.84471900  1
  O  O23  1  0.03784800  0.50472000  0.83745200  1
  O  O24  1  0.35525900  0.67602000  0.60928700  1
  O  O25  1  0.67481100  0.83162100  0.09597400  1
  O  O26  1  0.47939200  0.50810700  0.83120500  1
  O  O27  1  0.16663100  0.32485800  0.09442200  1
