# generated using pymatgen
data_Li6MnV3(PO4)6
_symmetry_space_group_name_H-M   'P 1'
_cell_length_a   8.60654400
_cell_length_b   8.67873180
_cell_length_c   12.71367009
_cell_angle_alpha   105.85295306
_cell_angle_beta   106.15287939
_cell_angle_gamma   94.59609262
_symmetry_Int_Tables_number   1
_chemical_formula_structural   Li6MnV3(PO4)6
_chemical_formula_sum   'Li12 Mn2 V6 P12 O48'
_cell_volume   864.83523767
_cell_formula_units_Z   2
loop_
 _symmetry_equiv_pos_site_id
 _symmetry_equiv_pos_as_xyz
  1  'x, y, z'
loop_
 _atom_site_type_symbol
 _atom_site_label
 _atom_site_symmetry_multiplicity
 _atom_site_fract_x
 _atom_site_fract_y
 _atom_site_fract_z
 _atom_site_occupancy
  Li  Li0  1  0.99395600  0.99593500  0.87790100  1
  Li  Li1  1  0.99688400  0.00414000  0.37454700  1
  Li  Li2  1  0.71420500  0.29027900  0.12515900  1
  Li  Li3  1  0.50000000  0.50000000  0.00000000  1
  Li  Li4  1  0.71259100  0.29230200  0.62761600  1
  Li  Li5  1  0.49664400  0.49932200  0.24907100  1
  Li  Li6  1  0.28579500  0.70972100  0.87484100  1
  Li  Li7  1  0.50000000  0.50000000  0.50000000  1
  Li  Li8  1  0.50335600  0.50067800  0.75092900  1
  Li  Li9  1  0.28740900  0.70769800  0.37238400  1
  Li  Li10  1  0.00604400  0.00406500  0.12209900  1
  Li  Li11  1  0.00311600  0.99586000  0.62545300  1
  Mn  Mn12  1  0.94052300  0.62988700  0.93472100  1
  Mn  Mn13  1  0.05947700  0.37011300  0.06527900  1
  V  V14  1  0.94221600  0.62055900  0.42955900  1
  V  V15  1  0.62160800  0.94397200  0.18150700  1
  V  V16  1  0.37839200  0.05602800  0.81849300  1
  V  V17  1  0.62020600  0.94381500  0.68068400  1
  V  V18  1  0.37979400  0.05618500  0.31931600  1
  V  V19  1  0.05778400  0.37944100  0.57044100  1
  P  P20  1  0.71537200  0.28931200  0.87518000  1
  P  P21  1  0.85912600  0.66516300  0.18162700  1
  P  P22  1  0.66147400  0.86922200  0.93325800  1
  P  P23  1  0.71232500  0.28724500  0.37539300  1
  P  P24  1  0.86222200  0.66113500  0.68295000  1
  P  P25  1  0.66177300  0.86237000  0.43285400  1
  P  P26  1  0.33852600  0.13077800  0.06674200  1
  P  P27  1  0.14087400  0.33483700  0.81837300  1
  P  P28  1  0.28462800  0.71068800  0.12482000  1
  P  P29  1  0.33822700  0.13763000  0.56714600  1
  P  P30  1  0.13777800  0.33886500  0.31705000  1
  P  P31  1  0.28767500  0.71275500  0.62460700  1
  O  O32  1  0.98640900  0.66338700  0.79999700  1
  O  O33  1  0.94528000  0.61532300  0.08605300  1
  O  O34  1  0.74360600  0.17190000  0.76841300  1
  O  O35  1  0.98595400  0.65925900  0.29435800  1
  O  O36  1  0.82691100  0.26714200  0.98848000  1
  O  O37  1  0.84750500  0.85982400  0.94888400  1
  O  O38  1  0.73921300  0.46347700  0.86427500  1
  O  O39  1  0.83881600  0.84839600  0.20303100  1
  O  O40  1  0.95123200  0.60208400  0.58907100  1
  O  O41  1  0.73978000  0.17422500  0.26655100  1
  O  O42  1  0.82699800  0.26092100  0.48468500  1
  O  O43  1  0.84576200  0.84136200  0.44865900  1
  O  O44  1  0.70095700  0.54582300  0.14793500  1
  O  O45  1  0.59792100  0.95399900  0.83772300  1
  O  O46  1  0.65764700  0.99056300  0.04764100  1
  O  O47  1  0.53796600  0.26364600  0.88172700  1
  O  O48  1  0.73552200  0.46271900  0.36705600  1
  O  O49  1  0.54988200  0.70772100  0.89941900  1
  O  O50  1  0.84163600  0.84285100  0.69621400  1
  O  O51  1  0.70340300  0.54301300  0.64812500  1
  O  O52  1  0.60298500  0.95080600  0.33871300  1
  O  O53  1  0.45011800  0.29227900  0.10058100  1
  O  O54  1  0.66112700  0.98689200  0.54672800  1
  O  O55  1  0.53521300  0.26280000  0.38265900  1
  O  O56  1  0.46203400  0.73635400  0.11827300  1
  O  O57  1  0.34235300  0.00943700  0.95235900  1
  O  O58  1  0.54328400  0.70442600  0.39801300  1
  O  O59  1  0.40207900  0.04600100  0.16227700  1
  O  O60  1  0.29904300  0.45417700  0.85206500  1
  O  O61  1  0.16118400  0.15160400  0.79696900  1
  O  O62  1  0.45671600  0.29557400  0.60198700  1
  O  O63  1  0.26078700  0.53652300  0.13572500  1
  O  O64  1  0.46478700  0.73720000  0.61734100  1
  O  O65  1  0.33887300  0.01310800  0.45327200  1
  O  O66  1  0.39701500  0.04919400  0.66128700  1
  O  O67  1  0.29659700  0.45698700  0.35187500  1
  O  O68  1  0.15249500  0.14017600  0.05111600  1
  O  O69  1  0.17308900  0.73285800  0.01152000  1
  O  O70  1  0.25639400  0.82810000  0.23158700  1
  O  O71  1  0.05472000  0.38467700  0.91394700  1
  O  O72  1  0.15836400  0.15714900  0.30378600  1
  O  O73  1  0.26447800  0.53728100  0.63294400  1
  O  O74  1  0.15423800  0.15863800  0.55134100  1
  O  O75  1  0.17300200  0.73907900  0.51531500  1
  O  O76  1  0.01359100  0.33661300  0.20000300  1
  O  O77  1  0.26022000  0.82577500  0.73344900  1
  O  O78  1  0.04876800  0.39791600  0.41092900  1
  O  O79  1  0.01404600  0.34074100  0.70564200  1
