# generated using pymatgen
data_LiNiPO4
_symmetry_space_group_name_H-M   'P 1'
_cell_length_a   4.85518100
_cell_length_b   6.22417200
_cell_length_c   9.51371900
_cell_angle_alpha   90.00000000
_cell_angle_beta   90.00000000
_cell_angle_gamma   90.00000000
_symmetry_Int_Tables_number   1
_chemical_formula_structural   LiNiPO4
_chemical_formula_sum   'Li4 Ni4 P4 O16'
_cell_volume   287.49965660
_cell_formula_units_Z   4
loop_
 _symmetry_equiv_pos_site_id
 _symmetry_equiv_pos_as_xyz
  1  'x, y, z'
loop_
 _atom_site_type_symbol
 _atom_site_label
 _atom_site_symmetry_multiplicity
 _atom_site_fract_x
 _atom_site_fract_y
 _atom_site_fract_z
 _atom_site_occupancy
  Li  Li0  1  0.50000000  0.50000000  0.00000000  1
  Li  Li1  1  0.50000000  0.00000000  0.00000000  1
  Li  Li2  1  0.00000000  0.50000000  0.50000000  1
  Li  Li3  1  0.00000000  0.00000000  0.50000000  1
  Ni  Ni4  1  0.96388200  0.25000000  0.14735400  1
  Ni  Ni5  1  0.46388200  0.75000000  0.35264600  1
  Ni  Ni6  1  0.53611800  0.25000000  0.64735400  1
  Ni  Ni7  1  0.03611800  0.75000000  0.85264600  1
  P  P8  1  0.96414700  0.75000000  0.18304500  1
  P  P9  1  0.46414700  0.25000000  0.31695500  1
  P  P10  1  0.53585300  0.75000000  0.68304500  1
  P  P11  1  0.03585300  0.25000000  0.81695500  1
  O  O12  1  0.28063500  0.75000000  0.16286400  1
  O  O13  1  0.83981700  0.55027400  0.11072900  1
  O  O14  1  0.83981700  0.94972600  0.11072900  1
  O  O15  1  0.38258300  0.25000000  0.15752100  1
  O  O16  1  0.88258300  0.75000000  0.34247900  1
  O  O17  1  0.33981700  0.44972600  0.38927100  1
  O  O18  1  0.33981700  0.05027400  0.38927100  1
  O  O19  1  0.78063500  0.25000000  0.33713600  1
  O  O20  1  0.21936500  0.75000000  0.66286400  1
  O  O21  1  0.66018300  0.55027400  0.61072900  1
  O  O22  1  0.66018300  0.94972600  0.61072900  1
  O  O23  1  0.11741700  0.25000000  0.65752100  1
  O  O24  1  0.61741700  0.75000000  0.84247900  1
  O  O25  1  0.16018300  0.05027400  0.88927100  1
  O  O26  1  0.16018300  0.44972600  0.88927100  1
  O  O27  1  0.71936500  0.25000000  0.83713600  1
