# generated using pymatgen
data_NaLi3Fe4(SiO3)8
_symmetry_space_group_name_H-M   'P 1'
_cell_length_a   6.59407700
_cell_length_b   10.72267943
_cell_length_c   13.18638240
_cell_angle_alpha   75.42581661
_cell_angle_beta   84.01472898
_cell_angle_gamma   75.43146561
_symmetry_Int_Tables_number   1
_chemical_formula_structural   NaLi3Fe4(SiO3)8
_chemical_formula_sum   'Na2 Li6 Fe8 Si16 O48'
_cell_volume   872.50863377
_cell_formula_units_Z   2
loop_
 _symmetry_equiv_pos_site_id
 _symmetry_equiv_pos_as_xyz
  1  'x, y, z'
loop_
 _atom_site_type_symbol
 _atom_site_label
 _atom_site_symmetry_multiplicity
 _atom_site_fract_x
 _atom_site_fract_y
 _atom_site_fract_z
 _atom_site_occupancy
  Na  Na0  1  0.29148200  0.87544000  0.85473000  1
  Na  Na1  1  0.70851800  0.12456000  0.14527000  1
  Li  Li2  1  0.74883800  0.62320100  0.62856500  1
  Li  Li3  1  0.25221900  0.37422800  0.87518200  1
  Li  Li4  1  0.74548300  0.12611300  0.62663600  1
  Li  Li5  1  0.25451700  0.87388700  0.37336400  1
  Li  Li6  1  0.74778100  0.62577200  0.12481800  1
  Li  Li7  1  0.25116200  0.37679900  0.37143500  1
  Fe  Fe8  1  0.89795000  0.87422800  0.55223200  1
  Fe  Fe9  1  0.10309800  0.62477200  0.94936000  1
  Fe  Fe10  1  0.89800300  0.37577400  0.54997500  1
  Fe  Fe11  1  0.10097400  0.12532000  0.94872400  1
  Fe  Fe12  1  0.89902600  0.87468000  0.05127600  1
  Fe  Fe13  1  0.10199700  0.62422600  0.45002500  1
  Fe  Fe14  1  0.89690200  0.37522800  0.05064000  1
  Fe  Fe15  1  0.10205000  0.12577200  0.44776800  1
  Si  Si16  1  0.79327400  0.87940900  0.80824000  1
  Si  Si17  1  0.61931500  0.62673200  0.89738800  1
  Si  Si18  1  0.79669900  0.37976300  0.80633100  1
  Si  Si19  1  0.61558800  0.13067700  0.89482800  1
  Si  Si20  1  0.38383200  0.86897700  0.60212400  1
  Si  Si21  1  0.79572200  0.87739500  0.31041800  1
  Si  Si22  1  0.20704800  0.61769300  0.69282600  1
  Si  Si23  1  0.61333100  0.63052800  0.39880300  1
  Si  Si24  1  0.38666900  0.36947200  0.60119700  1
  Si  Si25  1  0.79295200  0.38230700  0.30717400  1
  Si  Si26  1  0.20427800  0.12260500  0.68958200  1
  Si  Si27  1  0.61616800  0.13102300  0.39787600  1
  Si  Si28  1  0.38441200  0.86932300  0.10517200  1
  Si  Si29  1  0.20330100  0.62023700  0.19366900  1
  Si  Si30  1  0.38068500  0.37326800  0.10261200  1
  Si  Si31  1  0.20672600  0.12059100  0.19176000  1
  O  O32  1  0.96426300  0.82165400  0.90147300  1
  O  O33  1  0.80349100  0.57405900  0.98420100  1
  O  O34  1  0.96923800  0.32461800  0.89957700  1
  O  O35  1  0.89039000  0.91218200  0.68917200  1
  O  O36  1  0.64698800  0.77140400  0.82287300  1
  O  O37  1  0.80214400  0.07169300  0.98074400  1
  O  O38  1  0.38318900  0.65239900  0.94807400  1
  O  O39  1  0.65108000  0.52395100  0.82054700  1
  O  O40  1  0.89249700  0.41216500  0.68704700  1
  O  O41  1  0.64901700  0.27332800  0.82090600  1
  O  O42  1  0.35029600  0.97800100  0.67454800  1
  O  O43  1  0.37711300  0.16412500  0.94264300  1
  O  O44  1  0.97036800  0.82297000  0.40240100  1
  O  O45  1  0.62384300  0.83590000  0.55681600  1
  O  O46  1  0.64076100  0.02207600  0.82258000  1
  O  O47  1  0.34961700  0.72749200  0.67784700  1
  O  O48  1  0.79823500  0.57436700  0.48608800  1
  O  O49  1  0.11531700  0.58423000  0.81253100  1
  O  O50  1  0.35591800  0.47618600  0.67482100  1
  O  O51  1  0.97057600  0.32514300  0.39818200  1
  O  O52  1  0.62516000  0.33756100  0.55357300  1
  O  O53  1  0.89494300  0.90257300  0.19208700  1
  O  O54  1  0.20131500  0.92580200  0.51381000  1
  O  O55  1  0.35760000  0.22553000  0.67339400  1
  O  O56  1  0.64240000  0.77447000  0.32660600  1
  O  O57  1  0.79868500  0.07419800  0.48619000  1
  O  O58  1  0.10505700  0.09742700  0.80791300  1
  O  O59  1  0.37484000  0.66243900  0.44642700  1
  O  O60  1  0.02942400  0.67485700  0.60181800  1
  O  O61  1  0.64408200  0.52381400  0.32517900  1
  O  O62  1  0.88468300  0.41577000  0.18746900  1
  O  O63  1  0.20176500  0.42563300  0.51391200  1
  O  O64  1  0.65038300  0.27250800  0.32215300  1
  O  O65  1  0.35923900  0.97792400  0.17742000  1
  O  O66  1  0.37615700  0.16410000  0.44318400  1
  O  O67  1  0.02963200  0.17703000  0.59759900  1
  O  O68  1  0.62288700  0.83587500  0.05735700  1
  O  O69  1  0.64970400  0.02199900  0.32545200  1
  O  O70  1  0.35098300  0.72667200  0.17909400  1
  O  O71  1  0.10750300  0.58783500  0.31295300  1
  O  O72  1  0.34892000  0.47604900  0.17945300  1
  O  O73  1  0.61681100  0.34760100  0.05192600  1
  O  O74  1  0.19785600  0.92830700  0.01925600  1
  O  O75  1  0.35301200  0.22859600  0.17712700  1
  O  O76  1  0.10961000  0.08781800  0.31082800  1
  O  O77  1  0.03076200  0.67538200  0.10042300  1
  O  O78  1  0.19650900  0.42594100  0.01579900  1
  O  O79  1  0.03573700  0.17834600  0.09852700  1
