# generated using pymatgen
data_Li2AlNiO4
_symmetry_space_group_name_H-M   'P 1'
_cell_length_a   5.29282935
_cell_length_b   5.29287744
_cell_length_c   12.75630413
_cell_angle_alpha   89.98770709
_cell_angle_beta   89.98959238
_cell_angle_gamma   89.64948327
_symmetry_Int_Tables_number   1
_chemical_formula_structural   Li2AlNiO4
_chemical_formula_sum   'Li8 Al4 Ni4 O16'
_cell_volume   357.35219187
_cell_formula_units_Z   4
loop_
 _symmetry_equiv_pos_site_id
 _symmetry_equiv_pos_as_xyz
  1  'x, y, z'
loop_
 _atom_site_type_symbol
 _atom_site_label
 _atom_site_symmetry_multiplicity
 _atom_site_fract_x
 _atom_site_fract_y
 _atom_site_fract_z
 _atom_site_occupancy
  Li  Li0  1  0.31358400  0.68642000  0.25000300  1
  Li  Li1  1  0.31347600  0.68651400  0.75000400  1
  Li  Li2  1  0.68651100  0.31348800  0.00004100  1
  Li  Li3  1  0.68651600  0.31348800  0.49995600  1
  Li  Li4  1  0.18272300  0.18267000  0.37494200  1
  Li  Li5  1  0.18273700  0.18270300  0.87502200  1
  Li  Li6  1  0.81732300  0.81727700  0.12505500  1
  Li  Li7  1  0.81729900  0.81726300  0.62498100  1
  Al  Al8  1  0.32342400  0.67662000  0.00001600  1
  Al  Al9  1  0.32338000  0.67658100  0.49998600  1
  Al  Al10  1  0.67646700  0.32354400  0.25000600  1
  Al  Al11  1  0.67649900  0.32348800  0.74999300  1
  Ni  Ni12  1  0.17643400  0.17666300  0.62486000  1
  Ni  Ni13  1  0.82334700  0.82355100  0.87514000  1
  Ni  Ni14  1  0.17632100  0.17653200  0.12512700  1
  Ni  Ni15  1  0.82345500  0.82368000  0.37487300  1
  O  O16  1  0.20212700  0.82392200  0.11441600  1
  O  O17  1  0.20222100  0.82392900  0.61421400  1
  O  O18  1  0.17607100  0.79787800  0.38557800  1
  O  O19  1  0.17608700  0.79778200  0.88578900  1
  O  O20  1  0.82373500  0.20200100  0.13571900  1
  O  O21  1  0.82384300  0.20202500  0.63565900  1
  O  O22  1  0.79799300  0.17626900  0.36426900  1
  O  O23  1  0.79798800  0.17615600  0.86435500  1
  O  O24  1  0.29522900  0.34002000  0.00725400  1
  O  O25  1  0.29531800  0.34012400  0.50705200  1
  O  O26  1  0.65999400  0.70477000  0.49274400  1
  O  O27  1  0.65986900  0.70468900  0.99294700  1
  O  O28  1  0.34007500  0.29507400  0.24293000  1
  O  O29  1  0.34001800  0.29497900  0.74288000  1
  O  O30  1  0.70492000  0.65991200  0.25705600  1
  O  O31  1  0.70501900  0.65998800  0.75713300  1
