# generated using pymatgen
data_LiMnP2(HO4)2
_symmetry_space_group_name_H-M   'P 1'
_cell_length_a   7.00523700
_cell_length_b   10.56205101
_cell_length_c   8.04589500
_cell_angle_alpha   89.99705212
_cell_angle_beta   90.00101583
_cell_angle_gamma   89.99691633
_symmetry_Int_Tables_number   1
_chemical_formula_structural   LiMnP2(HO4)2
_chemical_formula_sum   'Li4 Mn4 P8 H8 O32'
_cell_volume   595.31311874
_cell_formula_units_Z   4
loop_
 _symmetry_equiv_pos_site_id
 _symmetry_equiv_pos_as_xyz
  1  'x, y, z'
loop_
 _atom_site_type_symbol
 _atom_site_label
 _atom_site_symmetry_multiplicity
 _atom_site_fract_x
 _atom_site_fract_y
 _atom_site_fract_z
 _atom_site_occupancy
  Li  Li0  1  0.00006000  0.33371500  0.49999500  1
  Li  Li1  1  0.00001500  0.83367900  0.49997500  1
  Li  Li2  1  0.49998500  0.41620000  0.00003100  1
  Li  Li3  1  0.49995200  0.91616700  0.00006700  1
  Mn  Mn4  1  0.99986200  0.99209400  0.99996900  1
  Mn  Mn5  1  0.50004400  0.25785900  0.50006900  1
  Mn  Mn6  1  0.99988000  0.49207800  0.99999500  1
  Mn  Mn7  1  0.50006900  0.75791100  0.49990600  1
  P  P8  1  0.28535400  0.00948800  0.64788200  1
  P  P9  1  0.28536000  0.50950600  0.64785300  1
  P  P10  1  0.71467100  0.00950200  0.35213500  1
  P  P11  1  0.71470400  0.50949000  0.35216800  1
  P  P12  1  0.21463600  0.24052400  0.14787000  1
  P  P13  1  0.21463300  0.74052200  0.14783300  1
  P  P14  1  0.78532100  0.24055400  0.85209700  1
  P  P15  1  0.78529200  0.74052800  0.85211800  1
  H  H16  1  0.49178000  0.10115800  0.21026500  1
  H  H17  1  0.49184700  0.60113500  0.21024900  1
  H  H18  1  0.50824700  0.10107700  0.78975000  1
  H  H19  1  0.50823000  0.60116100  0.78969200  1
  H  H20  1  0.99184300  0.14882000  0.28975500  1
  H  H21  1  0.99189700  0.64875700  0.28974400  1
  H  H22  1  0.00824500  0.14884100  0.71033100  1
  H  H23  1  0.00820300  0.64881800  0.71032600  1
  O  O24  1  0.55085800  0.01130900  0.21548300  1
  O  O25  1  0.55092700  0.51130200  0.21549200  1
  O  O26  1  0.44917300  0.01126200  0.78455400  1
  O  O27  1  0.44913500  0.51131200  0.78452300  1
  O  O28  1  0.05088300  0.23866900  0.28457300  1
  O  O29  1  0.05092400  0.73862500  0.28455600  1
  O  O30  1  0.94917000  0.23869200  0.71549500  1
  O  O31  1  0.94909900  0.73866700  0.71548600  1
  O  O32  1  0.08486400  0.01268300  0.72606800  1
  O  O33  1  0.08483100  0.51268800  0.72602800  1
  O  O34  1  0.91515400  0.01264800  0.27395400  1
  O  O35  1  0.91522700  0.51265300  0.27400100  1
  O  O36  1  0.41515900  0.23732500  0.22598000  1
  O  O37  1  0.41519600  0.73736000  0.22594000  1
  O  O38  1  0.58484800  0.23739100  0.77389500  1
  O  O39  1  0.58480100  0.73729000  0.77390000  1
  O  O40  1  0.69159700  0.12847500  0.46091700  1
  O  O41  1  0.69160000  0.62848900  0.46090700  1
  O  O42  1  0.30848000  0.12847800  0.53913500  1
  O  O43  1  0.30847200  0.62847700  0.53904900  1
  O  O44  1  0.19144400  0.12159400  0.03902700  1
  O  O45  1  0.19154300  0.62157900  0.03900600  1
  O  O46  1  0.80835300  0.12160700  0.96095900  1
  O  O47  1  0.80840200  0.62159100  0.96100000  1
  O  O48  1  0.80025800  0.36533000  0.95271900  1
  O  O49  1  0.80015400  0.86530700  0.95270000  1
  O  O50  1  0.19965900  0.36531200  0.04726600  1
  O  O51  1  0.19958600  0.86529900  0.04723500  1
  O  O52  1  0.69975000  0.38476400  0.45286600  1
  O  O53  1  0.69972600  0.88473800  0.45280400  1
  O  O54  1  0.30030600  0.38475800  0.54719800  1
  O  O55  1  0.30029100  0.88474000  0.54720700  1
