# generated using pymatgen
data_Li2Sn3(P2O7)2
_symmetry_space_group_name_H-M   'P 1'
_cell_length_a   8.20058500
_cell_length_b   8.00334100
_cell_length_c   11.19986191
_cell_angle_alpha   71.01701727
_cell_angle_beta   90.00000000
_cell_angle_gamma   90.00000000
_symmetry_Int_Tables_number   1
_chemical_formula_structural   Li2Sn3(P2O7)2
_chemical_formula_sum   'Li4 Sn6 P8 O28'
_cell_volume   695.09358804
_cell_formula_units_Z   2
loop_
 _symmetry_equiv_pos_site_id
 _symmetry_equiv_pos_as_xyz
  1  'x, y, z'
loop_
 _atom_site_type_symbol
 _atom_site_label
 _atom_site_symmetry_multiplicity
 _atom_site_fract_x
 _atom_site_fract_y
 _atom_site_fract_z
 _atom_site_occupancy
  Li  Li0  1  0.43443300  0.70608900  0.82137300  1
  Li  Li1  1  0.06556700  0.70608900  0.32137300  1
  Li  Li2  1  0.93443300  0.29391100  0.67862700  1
  Li  Li3  1  0.56556700  0.29391100  0.17862700  1
  Sn  Sn4  1  0.00000000  0.00000000  0.50000000  1
  Sn  Sn5  1  0.37753200  0.78792100  0.50403400  1
  Sn  Sn6  1  0.50000000  0.00000000  0.00000000  1
  Sn  Sn7  1  0.12246800  0.78792100  0.00403400  1
  Sn  Sn8  1  0.87753200  0.21207900  0.99596600  1
  Sn  Sn9  1  0.62246800  0.21207900  0.49596600  1
  P  P10  1  0.79247000  0.86348000  0.80949600  1
  P  P11  1  0.70753000  0.86348000  0.30949600  1
  P  P12  1  0.04171300  0.60457400  0.77422900  1
  P  P13  1  0.54171300  0.39542600  0.72577100  1
  P  P14  1  0.45828700  0.60457400  0.27422900  1
  P  P15  1  0.95828700  0.39542600  0.22577100  1
  P  P16  1  0.29247000  0.13652000  0.69050400  1
  P  P17  1  0.20753000  0.13652000  0.19050400  1
  O  O18  1  0.29991200  0.00649800  0.82610400  1
  O  O19  1  0.90437500  0.92544600  0.89941800  1
  O  O20  1  0.62043200  0.82453100  0.86312000  1
  O  O21  1  0.20008800  0.00649800  0.32610400  1
  O  O22  1  0.59562500  0.92544600  0.39941800  1
  O  O23  1  0.86650000  0.67469700  0.81039400  1
  O  O24  1  0.16946100  0.63497700  0.86793500  1
  O  O25  1  0.87956800  0.82453100  0.36312000  1
  O  O26  1  0.08175700  0.70878400  0.63681200  1
  O  O27  1  0.50906000  0.59127100  0.70295800  1
  O  O28  1  0.63350000  0.67469700  0.31039400  1
  O  O29  1  0.33053900  0.63497700  0.36793500  1
  O  O30  1  0.41824300  0.70878400  0.13681200  1
  O  O31  1  0.00906000  0.40872900  0.79704200  1
  O  O32  1  0.99094000  0.59127100  0.20295800  1
  O  O33  1  0.58175700  0.29121600  0.86318800  1
  O  O34  1  0.66946100  0.36502300  0.63206500  1
  O  O35  1  0.36650000  0.32530300  0.68960600  1
  O  O36  1  0.49094000  0.40872900  0.29704200  1
  O  O37  1  0.91824300  0.29121600  0.36318800  1
  O  O38  1  0.12043200  0.17546900  0.63688000  1
  O  O39  1  0.83053900  0.36502300  0.13206500  1
  O  O40  1  0.13350000  0.32530300  0.18960600  1
  O  O41  1  0.40437500  0.07455400  0.60058200  1
  O  O42  1  0.79991200  0.99350200  0.67389600  1
  O  O43  1  0.37956800  0.17546900  0.13688000  1
  O  O44  1  0.09562500  0.07455400  0.10058200  1
  O  O45  1  0.70008800  0.99350200  0.17389600  1
