# generated using pymatgen
data_Li5Mn2Fe17O32
_symmetry_space_group_name_H-M   'P 1'
_cell_length_a   8.45437930
_cell_length_b   8.47448207
_cell_length_c   8.47731772
_cell_angle_alpha   89.86841886
_cell_angle_beta   90.00141145
_cell_angle_gamma   89.91282843
_symmetry_Int_Tables_number   1
_chemical_formula_structural   Li5Mn2Fe17O32
_chemical_formula_sum   'Li5 Mn2 Fe17 O32'
_cell_volume   607.36771891
_cell_formula_units_Z   1
loop_
 _symmetry_equiv_pos_site_id
 _symmetry_equiv_pos_as_xyz
  1  'x, y, z'
loop_
 _atom_site_type_symbol
 _atom_site_label
 _atom_site_symmetry_multiplicity
 _atom_site_fract_x
 _atom_site_fract_y
 _atom_site_fract_z
 _atom_site_occupancy
  Li  Li0  1  0.99605200  0.49774300  0.49651800  1
  Li  Li1  1  0.12478300  0.87117500  0.37577700  1
  Li  Li2  1  0.37590200  0.12485300  0.87397200  1
  Li  Li3  1  0.62730400  0.62437900  0.62523600  1
  Li  Li4  1  0.87553800  0.37658000  0.12930700  1
  Mn  Mn5  1  0.12740000  0.12497500  0.62631700  1
  Mn  Mn6  1  0.12328000  0.62564500  0.13018000  1
  Fe  Fe7  1  0.99764000  0.99675100  0.99723300  1
  Fe  Fe8  1  0.12580100  0.36988300  0.87742000  1
  Fe  Fe9  1  0.25056800  0.25509900  0.25655500  1
  Fe  Fe10  1  0.24734200  0.75243000  0.75093000  1
  Fe  Fe11  1  0.37781800  0.37512700  0.63071400  1
  Fe  Fe12  1  0.37080500  0.62969800  0.37978200  1
  Fe  Fe13  1  0.37130100  0.88174000  0.12588900  1
  Fe  Fe14  1  0.49808900  0.00041600  0.49726300  1
  Fe  Fe15  1  0.49805800  0.49902700  0.00012800  1
  Fe  Fe16  1  0.62509800  0.13059300  0.11970000  1
  Fe  Fe17  1  0.63799600  0.38197900  0.37655000  1
  Fe  Fe18  1  0.61944600  0.87547300  0.86931800  1
  Fe  Fe19  1  0.75442700  0.25113400  0.74877200  1
  Fe  Fe20  1  0.75501600  0.75002400  0.25218900  1
  Fe  Fe21  1  0.87994400  0.12986500  0.36949500  1
  Fe  Fe22  1  0.86989300  0.61901400  0.86859200  1
  Fe  Fe23  1  0.87410000  0.86244900  0.61838900  1
  O  O24  1  0.11905700  0.12899800  0.39270400  1
  O  O25  1  0.11826900  0.61680100  0.88964800  1
  O  O26  1  0.12982500  0.39181500  0.11661100  1
  O  O27  1  0.11760800  0.89417000  0.62708500  1
  O  O28  1  0.12330800  0.13046500  0.86052000  1
  O  O29  1  0.13781200  0.35112500  0.63945900  1
  O  O30  1  0.13809900  0.62855900  0.34848900  1
  O  O31  1  0.13323300  0.85883400  0.12035500  1
  O  O32  1  0.35671800  0.12987000  0.62366600  1
  O  O33  1  0.35922000  0.63432700  0.13036700  1
  O  O34  1  0.36592600  0.37468900  0.86634300  1
  O  O35  1  0.37531200  0.86603900  0.36438200  1
  O  O36  1  0.38552000  0.38471800  0.38670600  1
  O  O37  1  0.37753600  0.11659100  0.12761000  1
  O  O38  1  0.38351500  0.87382200  0.88452600  1
  O  O39  1  0.36645700  0.61671600  0.61577900  1
  O  O40  1  0.61387900  0.37033800  0.61809400  1
  O  O41  1  0.61501600  0.61772700  0.36953800  1
  O  O42  1  0.62744800  0.11659300  0.88334100  1
  O  O43  1  0.61613700  0.88366400  0.11596600  1
  O  O44  1  0.63180300  0.12999500  0.36538800  1
  O  O45  1  0.62086000  0.36460400  0.13304900  1
  O  O46  1  0.63303200  0.63510700  0.88139600  1
  O  O47  1  0.63190000  0.88072600  0.63451700  1
  O  O48  1  0.85903900  0.35530300  0.37045800  1
  O  O49  1  0.86383500  0.86691900  0.86701900  1
  O  O50  1  0.87163500  0.11954800  0.13378900  1
  O  O51  1  0.87646500  0.63906900  0.64042400  1
  O  O52  1  0.89284800  0.11775500  0.61862200  1
  O  O53  1  0.89542400  0.62757200  0.11795400  1
  O  O54  1  0.88654200  0.38275200  0.87682100  1
  O  O55  1  0.87312400  0.88873500  0.38314800  1
