# generated using pymatgen
data_Li4Ti2V3(Fe2O9)2
_symmetry_space_group_name_H-M   'P 1'
_cell_length_a   2.96500500
_cell_length_b   9.13239900
_cell_length_c   25.56661400
_cell_angle_alpha   90.00000000
_cell_angle_beta   90.00000000
_cell_angle_gamma   90.00000000
_symmetry_Int_Tables_number   1
_chemical_formula_structural   Li4Ti2V3(Fe2O9)2
_chemical_formula_sum   'Li8 Ti4 V6 Fe8 O36'
_cell_volume   692.28276960
_cell_formula_units_Z   2
loop_
 _symmetry_equiv_pos_site_id
 _symmetry_equiv_pos_as_xyz
  1  'x, y, z'
loop_
 _atom_site_type_symbol
 _atom_site_label
 _atom_site_symmetry_multiplicity
 _atom_site_fract_x
 _atom_site_fract_y
 _atom_site_fract_z
 _atom_site_occupancy
  Li  Li0  1  0.50000000  0.19620100  0.49064800  1
  Li  Li1  1  0.50000000  0.19410000  0.68517300  1
  Li  Li2  1  0.50000000  0.30590000  0.18517300  1
  Li  Li3  1  0.50000000  0.30379900  0.99064800  1
  Li  Li4  1  0.50000000  0.69620100  0.00935200  1
  Li  Li5  1  0.50000000  0.69410000  0.81482700  1
  Li  Li6  1  0.50000000  0.80590000  0.31482700  1
  Li  Li7  1  0.50000000  0.80379900  0.50935200  1
  Ti  Ti8  1  0.50000000  0.99600000  0.59972500  1
  Ti  Ti9  1  0.50000000  0.50400000  0.09972500  1
  Ti  Ti10  1  0.50000000  0.49600000  0.90027500  1
  Ti  Ti11  1  0.50000000  0.00400000  0.40027500  1
  V  V12  1  0.50000000  0.00000000  0.00000000  1
  V  V13  1  0.00000000  0.14987700  0.30913400  1
  V  V14  1  0.00000000  0.35012300  0.80913400  1
  V  V15  1  0.50000000  0.50000000  0.50000000  1
  V  V16  1  0.00000000  0.64987700  0.19086600  1
  V  V17  1  0.00000000  0.85012300  0.69086600  1
  Fe  Fe18  1  0.50000000  0.00751400  0.80459700  1
  Fe  Fe19  1  0.00000000  0.14767300  0.08753400  1
  Fe  Fe20  1  0.00000000  0.35232700  0.58753400  1
  Fe  Fe21  1  0.50000000  0.49248600  0.30459700  1
  Fe  Fe22  1  0.50000000  0.50751400  0.69540300  1
  Fe  Fe23  1  0.00000000  0.64767300  0.41246600  1
  Fe  Fe24  1  0.00000000  0.85232700  0.91246600  1
  Fe  Fe25  1  0.50000000  0.99248600  0.19540300  1
  O  O26  1  0.50000000  0.99742700  0.92579900  1
  O  O27  1  0.50000000  0.00257300  0.07420100  1
  O  O28  1  0.00000000  0.05837200  0.44354300  1
  O  O29  1  0.00000000  0.04421100  0.65677200  1
  O  O30  1  0.00000000  0.11803300  0.16620100  1
  O  O31  1  0.50000000  0.08895100  0.26281500  1
  O  O32  1  0.00000000  0.14947800  0.00466500  1
  O  O33  1  0.00000000  0.15089400  0.78972000  1
  O  O34  1  0.50000000  0.18454500  0.35867700  1
  O  O35  1  0.50000000  0.20203000  0.58585800  1
  O  O36  1  0.50000000  0.29797000  0.08585800  1
  O  O37  1  0.50000000  0.31545500  0.85867700  1
  O  O38  1  0.00000000  0.34910600  0.28972000  1
  O  O39  1  0.00000000  0.35052200  0.50466500  1
  O  O40  1  0.50000000  0.41104900  0.76281500  1
  O  O41  1  0.00000000  0.38196700  0.66620100  1
  O  O42  1  0.00000000  0.45578900  0.15677200  1
  O  O43  1  0.00000000  0.44162800  0.94354300  1
  O  O44  1  0.50000000  0.49742700  0.57420100  1
  O  O45  1  0.50000000  0.50257300  0.42579900  1
  O  O46  1  0.00000000  0.55837200  0.05645700  1
  O  O47  1  0.00000000  0.54421100  0.84322800  1
  O  O48  1  0.00000000  0.61803300  0.33379900  1
  O  O49  1  0.50000000  0.58895100  0.23718500  1
  O  O50  1  0.00000000  0.64947800  0.49533500  1
  O  O51  1  0.00000000  0.65089400  0.71028000  1
  O  O52  1  0.50000000  0.68454500  0.14132300  1
  O  O53  1  0.50000000  0.70203000  0.91414200  1
  O  O54  1  0.50000000  0.79797000  0.41414200  1
  O  O55  1  0.50000000  0.81545500  0.64132300  1
  O  O56  1  0.00000000  0.84910600  0.21028000  1
  O  O57  1  0.00000000  0.85052200  0.99533500  1
  O  O58  1  0.50000000  0.91104900  0.73718500  1
  O  O59  1  0.00000000  0.88196700  0.83379900  1
  O  O60  1  0.00000000  0.95578900  0.34322800  1
  O  O61  1  0.00000000  0.94162800  0.55645700  1
