# generated using pymatgen
data_LiSiBiO4
_symmetry_space_group_name_H-M   'P 1'
_cell_length_a   10.11593192
_cell_length_b   10.11593192
_cell_length_c   8.21303100
_cell_angle_alpha   90.00000000
_cell_angle_beta   90.00000000
_cell_angle_gamma   119.99999946
_symmetry_Int_Tables_number   1
_chemical_formula_structural   LiSiBiO4
_chemical_formula_sum   'Li8 Si8 Bi8 O32'
_cell_volume   727.85671277
_cell_formula_units_Z   8
loop_
 _symmetry_equiv_pos_site_id
 _symmetry_equiv_pos_as_xyz
  1  'x, y, z'
loop_
 _atom_site_type_symbol
 _atom_site_label
 _atom_site_symmetry_multiplicity
 _atom_site_fract_x
 _atom_site_fract_y
 _atom_site_fract_z
 _atom_site_occupancy
  Li  Li0  1  0.23437400  0.91715100  0.69561500  1
  Li  Li1  1  0.08284900  0.31722300  0.69561500  1
  Li  Li2  1  0.33333300  0.66666700  0.21391000  1
  Li  Li3  1  0.31722300  0.23437400  0.19561500  1
  Li  Li4  1  0.68277700  0.76562600  0.69561500  1
  Li  Li5  1  0.66666700  0.33333300  0.71391000  1
  Li  Li6  1  0.91715100  0.68277700  0.19561500  1
  Li  Li7  1  0.76562600  0.08284900  0.19561500  1
  Si  Si8  1  0.22128100  0.90687100  0.32366600  1
  Si  Si9  1  0.09312900  0.31441000  0.32366600  1
  Si  Si10  1  0.33333300  0.66666700  0.75502900  1
  Si  Si11  1  0.31441000  0.22128100  0.82366600  1
  Si  Si12  1  0.68559000  0.77871900  0.32366600  1
  Si  Si13  1  0.66666700  0.33333300  0.25502900  1
  Si  Si14  1  0.90687100  0.68559000  0.82366600  1
  Si  Si15  1  0.77871900  0.09312900  0.82366600  1
  Bi  Bi16  1  0.02578200  0.49078500  0.97958400  1
  Bi  Bi17  1  0.46500200  0.97421800  0.97958400  1
  Bi  Bi18  1  0.00000000  0.00000000  0.04827800  1
  Bi  Bi19  1  0.00000000  0.00000000  0.54827800  1
  Bi  Bi20  1  0.49078500  0.46500200  0.47958400  1
  Bi  Bi21  1  0.50921500  0.53499800  0.97958400  1
  Bi  Bi22  1  0.53499800  0.02578200  0.47958400  1
  Bi  Bi23  1  0.97421800  0.50921500  0.47958400  1
  O  O24  1  0.06510800  0.74888200  0.36717100  1
  O  O25  1  0.01309300  0.83027200  0.70064900  1
  O  O26  1  0.29984400  0.01645300  0.48514100  1
  O  O27  1  0.98354700  0.28339100  0.48514100  1
  O  O28  1  0.12949100  0.48505400  0.25756000  1
  O  O29  1  0.15861700  0.54076400  0.69824200  1
  O  O30  1  0.35556200  0.87050900  0.25756000  1
  O  O31  1  0.38214700  0.84138300  0.69824200  1
  O  O32  1  0.33333300  0.66666700  0.95979000  1
  O  O33  1  0.25111800  0.31622600  0.36717100  1
  O  O34  1  0.16972800  0.18282100  0.70064900  1
  O  O35  1  0.51494600  0.64443800  0.25756000  1
  O  O36  1  0.45923600  0.61785300  0.69824200  1
  O  O37  1  0.28339100  0.29984400  0.98514100  1
  O  O38  1  0.81717900  0.98690700  0.70064900  1
  O  O39  1  0.68377400  0.93489200  0.36717100  1
  O  O40  1  0.18282100  0.01309300  0.20064900  1
  O  O41  1  0.31622600  0.06510800  0.86717100  1
  O  O42  1  0.71660900  0.70015600  0.48514100  1
  O  O43  1  0.48505400  0.35556200  0.75756000  1
  O  O44  1  0.54076400  0.38214700  0.19824200  1
  O  O45  1  0.83027200  0.81717900  0.20064900  1
  O  O46  1  0.74888200  0.68377400  0.86717100  1
  O  O47  1  0.66666700  0.33333300  0.45979000  1
  O  O48  1  0.64443800  0.12949100  0.75756000  1
  O  O49  1  0.61785300  0.15861700  0.19824200  1
  O  O50  1  0.87050900  0.51494600  0.75756000  1
  O  O51  1  0.84138300  0.45923600  0.19824200  1
  O  O52  1  0.01645300  0.71660900  0.98514100  1
  O  O53  1  0.70015600  0.98354700  0.98514100  1
  O  O54  1  0.93489200  0.25111800  0.86717100  1
  O  O55  1  0.98690700  0.16972800  0.20064900  1
