# generated using pymatgen
data_Li6V3P8O29
_symmetry_space_group_name_H-M   'P 1'
_cell_length_a   9.81476200
_cell_length_b   9.83820619
_cell_length_c   13.92464792
_cell_angle_alpha   89.76280084
_cell_angle_beta   89.64779985
_cell_angle_gamma   60.17626147
_symmetry_Int_Tables_number   1
_chemical_formula_structural   Li6V3P8O29
_chemical_formula_sum   'Li12 V6 P16 O58'
_cell_volume   1166.46209362
_cell_formula_units_Z   2
loop_
 _symmetry_equiv_pos_site_id
 _symmetry_equiv_pos_as_xyz
  1  'x, y, z'
loop_
 _atom_site_type_symbol
 _atom_site_label
 _atom_site_symmetry_multiplicity
 _atom_site_fract_x
 _atom_site_fract_y
 _atom_site_fract_z
 _atom_site_occupancy
  Li  Li0  1  0.67724200  0.09433100  0.43978400  1
  Li  Li1  1  0.22939200  0.67634200  0.43806400  1
  Li  Li2  1  0.33670600  0.33304400  0.11636400  1
  Li  Li3  1  0.09220700  0.68303900  0.94021300  1
  Li  Li4  1  0.22454600  0.08776200  0.93914600  1
  Li  Li5  1  0.90542500  0.77131800  0.56073700  1
  Li  Li6  1  0.09457500  0.22868200  0.43926300  1
  Li  Li7  1  0.77545400  0.91223800  0.06085400  1
  Li  Li8  1  0.90779300  0.31696100  0.05978700  1
  Li  Li9  1  0.66329400  0.66695600  0.88363600  1
  Li  Li10  1  0.77060800  0.32365800  0.56193600  1
  Li  Li11  1  0.32275800  0.90566900  0.56021600  1
  V  V12  1  0.00041900  0.56902200  0.74821600  1
  V  V13  1  0.99958100  0.43097800  0.25178400  1
  V  V14  1  0.56794300  0.00150700  0.25064800  1
  V  V15  1  0.43205700  0.99849300  0.74935200  1
  V  V16  1  0.56487500  0.43001400  0.75541000  1
  V  V17  1  0.43512500  0.56998600  0.24459000  1
  P  P18  1  0.68322100  0.23042900  0.15817500  1
  P  P19  1  0.68273400  0.08643500  0.65939600  1
  P  P20  1  0.23569100  0.67975400  0.65609000  1
  P  P21  1  0.32923200  0.33407000  0.87412500  1
  P  P22  1  0.33160300  0.33524600  0.37341900  1
  P  P23  1  0.09162900  0.67977500  0.15857900  1
  P  P24  1  0.91187800  0.76783500  0.34198500  1
  P  P25  1  0.23062800  0.08980000  0.15487600  1
  P  P26  1  0.76937200  0.91020000  0.84512400  1
  P  P27  1  0.08812200  0.23216500  0.65801500  1
  P  P28  1  0.90837100  0.32022500  0.84142100  1
  P  P29  1  0.66839700  0.66475400  0.62658100  1
  P  P30  1  0.67076800  0.66593000  0.12587500  1
  P  P31  1  0.76430900  0.32024600  0.34391000  1
  P  P32  1  0.31726600  0.91356500  0.34060400  1
  P  P33  1  0.31677900  0.76957100  0.84182500  1
  O  O34  1  0.75433800  0.24290800  0.43559600  1
  O  O35  1  0.66521100  0.24998300  0.65930700  1
  O  O36  1  0.76242800  0.99059200  0.93433100  1
  O  O37  1  0.66397400  0.08165900  0.15957800  1
  O  O38  1  0.51500000  0.37238100  0.17376900  1
  O  O39  1  0.47838100  0.33458800  0.83002300  1
  O  O40  1  0.38270900  0.52169700  0.67381300  1
  O  O41  1  0.23067100  0.76188800  0.92693500  1
  O  O42  1  0.25660200  0.66137400  0.16111900  1
  O  O43  1  0.48559100  0.18714400  0.33379100  1
  O  O44  1  0.52288300  0.09428100  0.67849800  1
  O  O45  1  0.32701400  0.48724400  0.33305500  1
  O  O46  1  0.32974900  0.33599500  0.98184400  1
  O  O47  1  0.32767300  0.33283300  0.48049200  1
  O  O48  1  0.18376100  0.48647500  0.83524700  1
  O  O49  1  0.37300300  0.11466100  0.17536900  1
  O  O50  1  0.32793300  0.18569000  0.83562600  1
  O  O51  1  0.08457700  0.66655300  0.65815200  1
  O  O52  1  0.00067800  0.78917000  0.24958400  1
  O  O53  1  0.00125500  0.75725100  0.43181000  1
  O  O54  1  0.00036900  0.75548400  0.06919100  1
  O  O55  1  0.11274900  0.51351500  0.17402800  1
  O  O56  1  0.18256500  0.33101300  0.33096200  1
  O  O57  1  0.91978900  0.74299400  0.83848900  1
  O  O58  1  0.09636300  0.38282900  0.67691300  1
  O  O59  1  0.25102300  0.08504000  0.65791900  1
  O  O60  1  0.78971900  0.99758700  0.75113700  1
  O  O61  1  0.75794900  0.99722200  0.56855500  1
  O  O62  1  0.24205100  0.00277800  0.43144500  1
  O  O63  1  0.74897700  0.91496000  0.34208100  1
  O  O64  1  0.90363700  0.61717100  0.32308700  1
  O  O65  1  0.08021100  0.25700600  0.16151100  1
  O  O66  1  0.81743500  0.66898700  0.66903800  1
  O  O67  1  0.88725100  0.48648500  0.82597200  1
  O  O68  1  0.99963100  0.24451600  0.93080900  1
  O  O69  1  0.99874500  0.24274900  0.56819000  1
  O  O70  1  0.99932200  0.21083000  0.75041600  1
  O  O71  1  0.91542300  0.33344700  0.34184800  1
  O  O72  1  0.67206700  0.81431000  0.16437400  1
  O  O73  1  0.62699700  0.88533900  0.82463100  1
  O  O74  1  0.81623900  0.51352500  0.16475300  1
  O  O75  1  0.67025100  0.66400500  0.01815600  1
  O  O76  1  0.67232700  0.66716700  0.51950800  1
  O  O77  1  0.67298600  0.51275600  0.66694500  1
  O  O78  1  0.47711700  0.90571900  0.32150200  1
  O  O79  1  0.51440900  0.81285600  0.66620900  1
  O  O80  1  0.74339800  0.33862600  0.83888100  1
  O  O81  1  0.78417400  0.20707500  0.25480200  1
  O  O82  1  0.76932900  0.23811200  0.07306500  1
  O  O83  1  0.61729100  0.47830300  0.32618700  1
  O  O84  1  0.52161900  0.66541200  0.16997700  1
  O  O85  1  0.48500000  0.62761900  0.82623100  1
  O  O86  1  0.33602600  0.91834100  0.84042200  1
  O  O87  1  0.23757200  0.00940800  0.06566900  1
  O  O88  1  0.21028100  0.00241300  0.24886300  1
  O  O89  1  0.33478900  0.75001700  0.34069300  1
  O  O90  1  0.24566200  0.75709200  0.56440400  1
  O  O91  1  0.21582600  0.79292500  0.74519800  1
