# generated using pymatgen
data_Li7NiOF7
_symmetry_space_group_name_H-M   'P 1'
_cell_length_a   2.93214489
_cell_length_b   15.23845594
_cell_length_c   6.51074326
_cell_angle_alpha   92.25884617
_cell_angle_beta   103.01033870
_cell_angle_gamma   90.02196045
_symmetry_Int_Tables_number   1
_chemical_formula_structural   Li7NiOF7
_chemical_formula_sum   'Li14 Ni2 O2 F14'
_cell_volume   283.20803402
_cell_formula_units_Z   2
loop_
 _symmetry_equiv_pos_site_id
 _symmetry_equiv_pos_as_xyz
  1  'x, y, z'
loop_
 _atom_site_type_symbol
 _atom_site_label
 _atom_site_symmetry_multiplicity
 _atom_site_fract_x
 _atom_site_fract_y
 _atom_site_fract_z
 _atom_site_occupancy
  Li  Li0  1  0.06049400  0.18112800  0.12129300  1
  Li  Li1  1  0.56049200  0.68109800  0.12128200  1
  Li  Li2  1  0.12787900  0.36947800  0.25612300  1
  Li  Li3  1  0.62787800  0.86943400  0.25612600  1
  Li  Li4  1  0.68471600  0.07031800  0.36977900  1
  Li  Li5  1  0.18470000  0.57031200  0.36975500  1
  Li  Li6  1  0.80728900  0.43574000  0.61486400  1
  Li  Li7  1  0.30729700  0.93572200  0.61488800  1
  Li  Li8  1  0.74898300  0.24875500  0.49829000  1
  Li  Li9  1  0.24898300  0.74870600  0.49829600  1
  Li  Li10  1  0.43686600  0.30722200  0.87423800  1
  Li  Li11  1  0.93684600  0.80716500  0.87419400  1
  Li  Li12  1  0.38017700  0.12959800  0.76085100  1
  Li  Li13  1  0.88015800  0.62958000  0.76081300  1
  Ni  Ni14  1  0.50331200  0.50925300  0.00548400  1
  Ni  Ni15  1  0.00280800  0.00934400  0.00544800  1
  O  O16  1  0.53064300  0.09225400  0.06075100  1
  O  O17  1  0.03077100  0.59219400  0.06070700  1
  F  F18  1  0.65684400  0.46456200  0.31408400  1
  F  F19  1  0.15675000  0.96445800  0.31424800  1
  F  F20  1  0.59367700  0.28364800  0.18850600  1
  F  F21  1  0.09368700  0.78350500  0.18850000  1
  F  F22  1  0.28182900  0.34380200  0.56367800  1
  F  F23  1  0.78180600  0.84374700  0.56371600  1
  F  F24  1  0.22497200  0.15786200  0.44791700  1
  F  F25  1  0.72510600  0.65783000  0.44795200  1
  F  F26  1  0.96894900  0.40647000  0.93717900  1
  F  F27  1  0.46875700  0.90640800  0.93712300  1
  F  F28  1  0.90297900  0.22263400  0.80855100  1
  F  F29  1  0.40316600  0.72243300  0.80826500  1
  F  F30  1  0.84059100  0.02767100  0.67856600  1
  F  F31  1  0.34058600  0.52766700  0.67854100  1
