# generated using pymatgen
data_Li2Ni2(SO4)3
_symmetry_space_group_name_H-M   'P 1'
_cell_length_a   8.57581800
_cell_length_b   8.75513000
_cell_length_c   12.23252900
_cell_angle_alpha   90.00000000
_cell_angle_beta   90.00000000
_cell_angle_gamma   90.00000000
_symmetry_Int_Tables_number   1
_chemical_formula_structural   Li2Ni2(SO4)3
_chemical_formula_sum   'Li8 Ni8 S12 O48'
_cell_volume   918.44765308
_cell_formula_units_Z   4
loop_
 _symmetry_equiv_pos_site_id
 _symmetry_equiv_pos_as_xyz
  1  'x, y, z'
loop_
 _atom_site_type_symbol
 _atom_site_label
 _atom_site_symmetry_multiplicity
 _atom_site_fract_x
 _atom_site_fract_y
 _atom_site_fract_z
 _atom_site_occupancy
  Li  Li0  1  0.21720100  0.27709700  0.18263100  1
  Li  Li1  1  0.78279900  0.77709700  0.18263100  1
  Li  Li2  1  0.28279900  0.77709700  0.31736900  1
  Li  Li3  1  0.71720100  0.27709700  0.31736900  1
  Li  Li4  1  0.28279900  0.72290300  0.68263100  1
  Li  Li5  1  0.71720100  0.22290300  0.68263100  1
  Li  Li6  1  0.21720100  0.22290300  0.81736900  1
  Li  Li7  1  0.78279900  0.72290300  0.81736900  1
  Ni  Ni8  1  0.25223400  0.96291700  0.11019100  1
  Ni  Ni9  1  0.74776600  0.46291700  0.11019100  1
  Ni  Ni10  1  0.75223400  0.96291700  0.38980900  1
  Ni  Ni11  1  0.24776600  0.46291700  0.38980900  1
  Ni  Ni12  1  0.24776600  0.03708300  0.61019100  1
  Ni  Ni13  1  0.75223400  0.53708300  0.61019100  1
  Ni  Ni14  1  0.25223400  0.53708300  0.88980900  1
  Ni  Ni15  1  0.74776600  0.03708300  0.88980900  1
  S  S16  1  0.45839000  0.25000000  0.00000000  1
  S  S17  1  0.54161000  0.75000000  0.00000000  1
  S  S18  1  0.10219400  0.60577000  0.14534900  1
  S  S19  1  0.89780600  0.10577000  0.14534900  1
  S  S20  1  0.39780600  0.10577000  0.35465100  1
  S  S21  1  0.60219400  0.60577000  0.35465100  1
  S  S22  1  0.04161000  0.75000000  0.50000000  1
  S  S23  1  0.95839000  0.25000000  0.50000000  1
  S  S24  1  0.39780600  0.39423000  0.64534900  1
  S  S25  1  0.60219400  0.89423000  0.64534900  1
  S  S26  1  0.10219400  0.89423000  0.85465100  1
  S  S27  1  0.89780600  0.39423000  0.85465100  1
  O  O28  1  0.13730400  0.57228500  0.03127900  1
  O  O29  1  0.86269600  0.07228500  0.03127900  1
  O  O30  1  0.54972100  0.36275500  0.06056900  1
  O  O31  1  0.45027900  0.86275500  0.06056900  1
  O  O32  1  0.35473800  0.17166500  0.08112500  1
  O  O33  1  0.64526200  0.67166500  0.08112500  1
  O  O34  1  0.07068600  0.10975700  0.16092200  1
  O  O35  1  0.92931400  0.60975700  0.16092200  1
  O  O36  1  0.16595100  0.75710900  0.17951900  1
  O  O37  1  0.83404900  0.25710900  0.17951900  1
  O  O38  1  0.82999000  0.98505800  0.21749100  1
  O  O39  1  0.17001000  0.48505800  0.21749100  1
  O  O40  1  0.32999000  0.98505800  0.28250900  1
  O  O41  1  0.67001000  0.48505800  0.28250900  1
  O  O42  1  0.66595100  0.75710900  0.32048100  1
  O  O43  1  0.33404900  0.25710900  0.32048100  1
  O  O44  1  0.42931400  0.60975700  0.33907800  1
  O  O45  1  0.57068600  0.10975700  0.33907800  1
  O  O46  1  0.14526200  0.67166500  0.41887500  1
  O  O47  1  0.85473800  0.17166500  0.41887500  1
  O  O48  1  0.04972100  0.36275500  0.43943100  1
  O  O49  1  0.95027900  0.86275500  0.43943100  1
  O  O50  1  0.63730400  0.57228500  0.46872100  1
  O  O51  1  0.36269600  0.07228500  0.46872100  1
  O  O52  1  0.36269600  0.42771500  0.53127900  1
  O  O53  1  0.63730400  0.92771500  0.53127900  1
  O  O54  1  0.04972100  0.13724500  0.56056900  1
  O  O55  1  0.95027900  0.63724500  0.56056900  1
  O  O56  1  0.14526200  0.82833500  0.58112500  1
  O  O57  1  0.85473800  0.32833500  0.58112500  1
  O  O58  1  0.42931400  0.89024300  0.66092200  1
  O  O59  1  0.57068600  0.39024300  0.66092200  1
  O  O60  1  0.33404900  0.24289100  0.67951900  1
  O  O61  1  0.66595100  0.74289100  0.67951900  1
  O  O62  1  0.32999000  0.51494200  0.71749100  1
  O  O63  1  0.67001000  0.01494200  0.71749100  1
  O  O64  1  0.17001000  0.01494200  0.78250900  1
  O  O65  1  0.82999000  0.51494200  0.78250900  1
  O  O66  1  0.16595100  0.74289100  0.82048100  1
  O  O67  1  0.83404900  0.24289100  0.82048100  1
  O  O68  1  0.07068600  0.39024300  0.83907800  1
  O  O69  1  0.92931400  0.89024300  0.83907800  1
  O  O70  1  0.35473800  0.32833500  0.91887500  1
  O  O71  1  0.64526200  0.82833500  0.91887500  1
  O  O72  1  0.45027900  0.63724500  0.93943100  1
  O  O73  1  0.54972100  0.13724500  0.93943100  1
  O  O74  1  0.13730400  0.92771500  0.96872100  1
  O  O75  1  0.86269600  0.42771500  0.96872100  1
