# generated using pymatgen
data_Li4Mn5Ni3O16
_symmetry_space_group_name_H-M   'P 1'
_cell_length_a   5.80790997
_cell_length_b   5.74849032
_cell_length_c   9.36856890
_cell_angle_alpha   89.99862196
_cell_angle_beta   91.64162023
_cell_angle_gamma   119.66275649
_symmetry_Int_Tables_number   1
_chemical_formula_structural   Li4Mn5Ni3O16
_chemical_formula_sum   'Li4 Mn5 Ni3 O16'
_cell_volume   271.64859844
_cell_formula_units_Z   1
loop_
 _symmetry_equiv_pos_site_id
 _symmetry_equiv_pos_as_xyz
  1  'x, y, z'
loop_
 _atom_site_type_symbol
 _atom_site_label
 _atom_site_symmetry_multiplicity
 _atom_site_fract_x
 _atom_site_fract_y
 _atom_site_fract_z
 _atom_site_occupancy
  Li  Li0  1  0.32622200  0.66311400  0.89699900  1
  Li  Li1  1  0.98831700  0.99415000  0.99096300  1
  Li  Li2  1  0.00282600  0.00143800  0.49664800  1
  Li  Li3  1  0.66627700  0.33315200  0.39922100  1
  Mn  Mn4  1  0.17077800  0.83172400  0.21357900  1
  Mn  Mn5  1  0.34308700  0.67155900  0.48709800  1
  Mn  Mn6  1  0.17079300  0.33906200  0.21357600  1
  Mn  Mn7  1  0.34514900  0.17259000  0.71506900  1
  Mn  Mn8  1  0.67464700  0.33732200  0.98308600  1
  Ni  Ni9  1  0.65950500  0.82976300  0.21190700  1
  Ni  Ni10  1  0.83103200  0.66203800  0.71155500  1
  Ni  Ni11  1  0.83103200  0.16903800  0.71155700  1
  O  O12  1  0.18290000  0.84104600  0.59772700  1
  O  O13  1  0.03831900  0.51915200  0.33722600  1
  O  O14  1  0.31599600  0.65800900  0.10589400  1
  O  O15  1  0.01033500  0.00516700  0.30735400  1
  O  O16  1  0.00758900  0.00379300  0.80120000  1
  O  O17  1  0.18290400  0.34189500  0.59773000  1
  O  O18  1  0.46997300  0.96129900  0.34619300  1
  O  O19  1  0.46999000  0.50871700  0.34619400  1
  O  O20  1  0.32601400  0.16301100  0.10208100  1
  O  O21  1  0.67450900  0.83727600  0.59321600  1
  O  O22  1  0.50712600  0.47195600  0.84740200  1
  O  O23  1  0.50712000  0.03518300  0.84740100  1
  O  O24  1  0.66158900  0.33084600  0.61040900  1
  O  O25  1  0.84163100  0.66697100  0.09572200  1
  O  O26  1  0.95269900  0.47637500  0.84511800  1
  O  O27  1  0.84164100  0.17465100  0.09571600  1
