# generated using pymatgen
data_LiFeSiO4
_symmetry_space_group_name_H-M   'P 1'
_cell_length_a   5.08246100
_cell_length_b   6.77752000
_cell_length_c   10.38572400
_cell_angle_alpha   90.00000000
_cell_angle_beta   90.00000000
_cell_angle_gamma   90.00000000
_symmetry_Int_Tables_number   1
_chemical_formula_structural   LiFeSiO4
_chemical_formula_sum   'Li4 Fe4 Si4 O16'
_cell_volume   357.75164523
_cell_formula_units_Z   4
loop_
 _symmetry_equiv_pos_site_id
 _symmetry_equiv_pos_as_xyz
  1  'x, y, z'
loop_
 _atom_site_type_symbol
 _atom_site_label
 _atom_site_symmetry_multiplicity
 _atom_site_fract_x
 _atom_site_fract_y
 _atom_site_fract_z
 _atom_site_occupancy
  Li  Li0  1  0.24543800  0.00694100  0.15001800  1
  Li  Li1  1  0.74543800  0.50694100  0.34998200  1
  Li  Li2  1  0.24543800  0.49305900  0.65001800  1
  Li  Li3  1  0.74543800  0.99305900  0.84998200  1
  Fe  Fe4  1  0.24717700  0.50834000  0.16899100  1
  Fe  Fe5  1  0.74717700  0.00834000  0.33100900  1
  Fe  Fe6  1  0.24717700  0.99166000  0.66899100  1
  Fe  Fe7  1  0.74717700  0.49166000  0.83100900  1
  Si  Si8  1  0.74926900  0.26560700  0.09319600  1
  Si  Si9  1  0.24926900  0.76560700  0.40680400  1
  Si  Si10  1  0.74926900  0.23439300  0.59319600  1
  Si  Si11  1  0.24926900  0.73439300  0.90680400  1
  O  O12  1  0.18886500  0.73467500  0.06222600  1
  O  O13  1  0.06921300  0.27335100  0.12072400  1
  O  O14  1  0.63173700  0.06295900  0.15949400  1
  O  O15  1  0.61415400  0.45513000  0.16803200  1
  O  O16  1  0.11415400  0.95513000  0.33196800  1
  O  O17  1  0.13173700  0.56295900  0.34050600  1
  O  O18  1  0.56921300  0.77335100  0.37927600  1
  O  O19  1  0.68886500  0.23467500  0.43777400  1
  O  O20  1  0.18886500  0.76532500  0.56222600  1
  O  O21  1  0.06921300  0.22664900  0.62072400  1
  O  O22  1  0.63173700  0.43704100  0.65949400  1
  O  O23  1  0.61415400  0.04487000  0.66803200  1
  O  O24  1  0.11415400  0.54487000  0.83196800  1
  O  O25  1  0.13173700  0.93704100  0.84050600  1
  O  O26  1  0.56921300  0.72664900  0.87927600  1
  O  O27  1  0.68886500  0.26532500  0.93777400  1
