# generated using pymatgen
data_Li2Ti3CoO8
_symmetry_space_group_name_H-M   'P 1'
_cell_length_a   5.97760435
_cell_length_b   10.34266507
_cell_length_c   10.30033276
_cell_angle_alpha   99.34458283
_cell_angle_beta   90.01782052
_cell_angle_gamma   106.80712582
_symmetry_Int_Tables_number   1
_chemical_formula_structural   Li2Ti3CoO8
_chemical_formula_sum   'Li8 Ti12 Co4 O32'
_cell_volume   600.76604584
_cell_formula_units_Z   4
loop_
 _symmetry_equiv_pos_site_id
 _symmetry_equiv_pos_as_xyz
  1  'x, y, z'
loop_
 _atom_site_type_symbol
 _atom_site_label
 _atom_site_symmetry_multiplicity
 _atom_site_fract_x
 _atom_site_fract_y
 _atom_site_fract_z
 _atom_site_occupancy
  Li  Li0  1  0.27987000  0.55956800  0.60126700  1
  Li  Li1  1  0.52985100  0.05954000  0.35125900  1
  Li  Li2  1  0.77985200  0.55954000  0.10122400  1
  Li  Li3  1  0.02986700  0.05956700  0.85120100  1
  Li  Li4  1  0.37520700  0.75030600  0.12417800  1
  Li  Li5  1  0.62524200  0.25037600  0.87415000  1
  Li  Li6  1  0.87524000  0.75038100  0.62417400  1
  Li  Li7  1  0.12521700  0.25032000  0.37419500  1
  Ti  Ti8  1  0.12901600  0.74920300  0.37258200  1
  Ti  Ti9  1  0.37902300  0.24926100  0.12274200  1
  Ti  Ti10  1  0.62914900  0.74932300  0.87277200  1
  Ti  Ti11  1  0.87912500  0.24927700  0.62262500  1
  Ti  Ti12  1  0.25183400  0.50354000  0.24987000  1
  Ti  Ti13  1  0.50191900  0.00363700  0.99976100  1
  Ti  Ti14  1  0.75193000  0.50368500  0.74968400  1
  Ti  Ti15  1  0.00188000  0.00360000  0.49962800  1
  Ti  Ti16  1  0.62044700  0.74917600  0.37259500  1
  Ti  Ti17  1  0.87045700  0.24924700  0.12275800  1
  Ti  Ti18  1  0.12040100  0.74931200  0.87279800  1
  Ti  Ti19  1  0.37037500  0.24925500  0.62265600  1
  Co  Co20  1  0.72077600  0.44147600  0.39658400  1
  Co  Co21  1  0.97076700  0.94143800  0.14653300  1
  Co  Co22  1  0.47074600  0.94141200  0.64650500  1
  Co  Co23  1  0.22077100  0.44146200  0.89655500  1
  O  O24  1  0.31519900  0.62971000  0.42576500  1
  O  O25  1  0.56519200  0.12969400  0.17573300  1
  O  O26  1  0.81518400  0.62972300  0.92573900  1
  O  O27  1  0.06519100  0.12970200  0.67575000  1
  O  O28  1  0.43526500  0.87108300  0.82205200  1
  O  O29  1  0.68529000  0.37102100  0.57213000  1
  O  O30  1  0.93531600  0.87109100  0.32214000  1
  O  O31  1  0.18532400  0.37109900  0.07205400  1
  O  O32  1  0.08384100  0.62549600  0.20742200  1
  O  O33  1  0.33389300  0.12548000  0.95737600  1
  O  O34  1  0.58390000  0.62550400  0.70738900  1
  O  O35  1  0.83392900  0.12550100  0.45738800  1
  O  O36  1  0.42694000  0.85416300  0.32167100  1
  O  O37  1  0.67693600  0.35415900  0.07163300  1
  O  O38  1  0.92693200  0.85417800  0.82165900  1
  O  O39  1  0.17692900  0.35416400  0.57165800  1
  O  O40  1  0.54184900  0.62547900  0.20739800  1
  O  O41  1  0.79184200  0.12545900  0.95734500  1
  O  O42  1  0.04175800  0.62545700  0.70739800  1
  O  O43  1  0.29182900  0.12546300  0.45740700  1
  O  O44  1  0.20662600  0.87336500  0.04614300  1
  O  O45  1  0.45655100  0.37342900  0.79614600  1
  O  O46  1  0.70654600  0.87342300  0.54617100  1
  O  O47  1  0.95665700  0.37345900  0.29615700  1
  O  O48  1  0.32163500  0.64373500  0.93126700  1
  O  O49  1  0.57164800  0.14373100  0.68124900  1
  O  O50  1  0.82168800  0.64386000  0.43129800  1
  O  O51  1  0.07172400  0.14382400  0.18119800  1
  O  O52  1  0.66629100  0.87336100  0.04620600  1
  O  O53  1  0.91642000  0.37345700  0.79626900  1
  O  O54  1  0.16639800  0.87341000  0.54623700  1
  O  O55  1  0.41631200  0.37343000  0.29625300  1
