# generated using pymatgen
data_Li3Fe(PO4)2
_symmetry_space_group_name_H-M   'P 1'
_cell_length_a   10.36715100
_cell_length_b   8.21786600
_cell_length_c   8.31371751
_cell_angle_alpha   74.95900952
_cell_angle_beta   90.00000000
_cell_angle_gamma   90.00000000
_symmetry_Int_Tables_number   1
_chemical_formula_structural   Li3Fe(PO4)2
_chemical_formula_sum   'Li12 Fe4 P8 O32'
_cell_volume   684.02842568
_cell_formula_units_Z   4
loop_
 _symmetry_equiv_pos_site_id
 _symmetry_equiv_pos_as_xyz
  1  'x, y, z'
loop_
 _atom_site_type_symbol
 _atom_site_label
 _atom_site_symmetry_multiplicity
 _atom_site_fract_x
 _atom_site_fract_y
 _atom_site_fract_z
 _atom_site_occupancy
  Li  Li0  1  0.91328200  0.39052900  0.10221800  1
  Li  Li1  1  0.40837900  0.35599400  0.15581900  1
  Li  Li2  1  0.60297600  0.82982300  0.15812200  1
  Li  Li3  1  0.16906000  0.45624500  0.28242100  1
  Li  Li4  1  0.90526200  0.64161800  0.34228300  1
  Li  Li5  1  0.41406100  0.59625900  0.41431400  1
  Li  Li6  1  0.08671800  0.39052900  0.60221800  1
  Li  Li7  1  0.59162100  0.35599400  0.65581900  1
  Li  Li8  1  0.39702400  0.82982300  0.65812200  1
  Li  Li9  1  0.83094000  0.45624500  0.78242100  1
  Li  Li10  1  0.09473800  0.64161800  0.84228300  1
  Li  Li11  1  0.58593900  0.59625900  0.91431400  1
  Fe  Fe12  1  0.08530900  0.91118500  0.09111600  1
  Fe  Fe13  1  0.59449600  0.10076100  0.40530900  1
  Fe  Fe14  1  0.91469100  0.91118500  0.59111600  1
  Fe  Fe15  1  0.40550400  0.10076100  0.90530900  1
  P  P16  1  0.65469700  0.23246700  0.03674500  1
  P  P17  1  0.34045100  0.71821200  0.02943900  1
  P  P18  1  0.84088700  0.29382400  0.47026800  1
  P  P19  1  0.34530300  0.23246700  0.53674500  1
  P  P20  1  0.15860200  0.76612000  0.45694500  1
  P  P21  1  0.65954900  0.71821200  0.52943900  1
  P  P22  1  0.15911300  0.29382400  0.97026800  1
  P  P23  1  0.84139800  0.76612000  0.95694500  1
  O  O24  1  0.30804800  0.24514400  0.00573400  1
  O  O25  1  0.58090300  0.37526500  0.08191000  1
  O  O26  1  0.64484100  0.07026700  0.19266100  1
  O  O27  1  0.70037100  0.74234800  0.00431600  1
  O  O28  1  0.10426500  0.35123000  0.11640600  1
  O  O29  1  0.41151000  0.87976400  0.05966500  1
  O  O30  1  0.91956300  0.80671200  0.10665600  1
  O  O31  1  0.34748800  0.57333300  0.18978900  1
  O  O32  1  0.85622800  0.42820400  0.30659000  1
  O  O33  1  0.42109200  0.18058900  0.39027300  1
  O  O34  1  0.90496600  0.12711200  0.44944100  1
  O  O35  1  0.59805100  0.67578800  0.37932800  1
  O  O36  1  0.20727400  0.27470900  0.48352600  1
  O  O37  1  0.14029600  0.92238200  0.30260400  1
  O  O38  1  0.09353400  0.61307400  0.41364000  1
  O  O39  1  0.69195200  0.24514400  0.50573400  1
  O  O40  1  0.80657900  0.76795300  0.49272500  1
  O  O41  1  0.41909700  0.37526500  0.58191000  1
  O  O42  1  0.35515900  0.07026700  0.69266100  1
  O  O43  1  0.29962900  0.74234800  0.50431600  1
  O  O44  1  0.89573500  0.35123000  0.61640600  1
  O  O45  1  0.58849000  0.87976400  0.55966500  1
  O  O46  1  0.08043700  0.80671200  0.60665600  1
  O  O47  1  0.65251200  0.57333300  0.68978900  1
  O  O48  1  0.14377200  0.42820400  0.80659000  1
  O  O49  1  0.57890800  0.18058900  0.89027300  1
  O  O50  1  0.09503400  0.12711200  0.94944100  1
  O  O51  1  0.40194900  0.67578800  0.87932800  1
  O  O52  1  0.79272600  0.27470900  0.98352600  1
  O  O53  1  0.85970400  0.92238200  0.80260400  1
  O  O54  1  0.90646600  0.61307400  0.91364000  1
  O  O55  1  0.19342100  0.76795300  0.99272500  1
