# generated using pymatgen
data_Li7(NiO2)12
_symmetry_space_group_name_H-M   'P 1'
_cell_length_a   7.66231610
_cell_length_b   7.66231610
_cell_length_c   9.74603122
_cell_angle_alpha   57.70041965
_cell_angle_beta   57.70041965
_cell_angle_gamma   67.41917442
_symmetry_Int_Tables_number   1
_chemical_formula_structural   Li7(NiO2)12
_chemical_formula_sum   'Li7 Ni12 O24'
_cell_volume   404.92158766
_cell_formula_units_Z   1
loop_
 _symmetry_equiv_pos_site_id
 _symmetry_equiv_pos_as_xyz
  1  'x, y, z'
loop_
 _atom_site_type_symbol
 _atom_site_label
 _atom_site_symmetry_multiplicity
 _atom_site_fract_x
 _atom_site_fract_y
 _atom_site_fract_z
 _atom_site_occupancy
  Li  Li0  1  0.84082000  0.15918000  0.50000000  1
  Li  Li1  1  0.74553600  0.74671800  0.75527600  1
  Li  Li2  1  0.49851400  0.50148600  0.50000000  1
  Li  Li3  1  0.61489300  0.92595500  0.23521400  1
  Li  Li4  1  0.30311300  0.69688700  0.00000000  1
  Li  Li5  1  0.25328200  0.25446400  0.24472400  1
  Li  Li6  1  0.07404500  0.38510700  0.76478600  1
  Ni  Ni7  1  0.70222500  0.04180800  0.87662300  1
  Ni  Ni8  1  0.95819200  0.29777500  0.12337700  1
  Ni  Ni9  1  0.87814800  0.86945500  0.37944100  1
  Ni  Ni10  1  0.79381400  0.45566200  0.62116700  1
  Ni  Ni11  1  0.61988500  0.62392000  0.12853600  1
  Ni  Ni12  1  0.54433800  0.20618600  0.37883300  1
  Ni  Ni13  1  0.45884300  0.78648600  0.62416900  1
  Ni  Ni14  1  0.37608000  0.38011500  0.87146400  1
  Ni  Ni15  1  0.21351400  0.54115700  0.37583100  1
  Ni  Ni16  1  0.13054500  0.12185200  0.62055900  1
  Ni  Ni17  1  0.03797900  0.71272500  0.87278400  1
  Ni  Ni18  1  0.28727500  0.96202100  0.12721600  1
  O  O19  1  0.91583700  0.93585300  0.71166100  1
  O  O20  1  0.85597600  0.53208900  0.95423600  1
  O  O21  1  0.97799100  0.63005200  0.55042500  1
  O  O22  1  0.60822000  0.27743400  0.70163100  1
  O  O23  1  0.90084900  0.22957100  0.78302500  1
  O  O24  1  0.78194700  0.81233100  0.05663300  1
  O  O25  1  0.51606100  0.84025900  0.96529800  1
  O  O26  1  0.72256600  0.39178000  0.29836900  1
  O  O27  1  0.64880100  0.94841000  0.55976500  1
  O  O28  1  0.77042900  0.09915100  0.21697500  1
  O  O29  1  0.54215900  0.56789000  0.80112700  1
  O  O30  1  0.67626900  0.68030100  0.46196800  1
  O  O31  1  0.31969900  0.32373100  0.53803200  1
  O  O32  1  0.43211000  0.45784100  0.19887300  1
  O  O33  1  0.22347500  0.88614400  0.79100500  1
  O  O34  1  0.36994800  0.02200900  0.44957500  1
  O  O35  1  0.29127600  0.59961300  0.69571500  1
  O  O36  1  0.46791100  0.14402400  0.04576400  1
  O  O37  1  0.18766900  0.21805300  0.94336700  1
  O  O38  1  0.11385600  0.77652500  0.20899500  1
  O  O39  1  0.40038700  0.70872400  0.30428500  1
  O  O40  1  0.05159000  0.35119900  0.44023500  1
  O  O41  1  0.15974100  0.48393900  0.03470200  1
  O  O42  1  0.06414700  0.08416300  0.28833900  1
