# generated using pymatgen
data_Li2AgF4
_symmetry_space_group_name_H-M   'P 1'
_cell_length_a   5.33020200
_cell_length_b   9.98086500
_cell_length_c   18.91493000
_cell_angle_alpha   90.00000000
_cell_angle_beta   90.00000000
_cell_angle_gamma   90.00000000
_symmetry_Int_Tables_number   1
_chemical_formula_structural   Li2AgF4
_chemical_formula_sum   'Li24 Ag12 F48'
_cell_volume   1006.27477885
_cell_formula_units_Z   12
loop_
 _symmetry_equiv_pos_site_id
 _symmetry_equiv_pos_as_xyz
  1  'x, y, z'
loop_
 _atom_site_type_symbol
 _atom_site_label
 _atom_site_symmetry_multiplicity
 _atom_site_fract_x
 _atom_site_fract_y
 _atom_site_fract_z
 _atom_site_occupancy
  Li  Li0  1  0.20341200  0.42306600  0.89169200  1
  Li  Li1  1  0.20341200  0.07693400  0.39169200  1
  Li  Li2  1  0.23321900  0.72557300  0.50678600  1
  Li  Li3  1  0.23321900  0.77442700  0.00678600  1
  Li  Li4  1  0.23228500  0.44132800  0.55156000  1
  Li  Li5  1  0.23228500  0.05867200  0.05156000  1
  Li  Li6  1  0.26386000  0.75265500  0.83318100  1
  Li  Li7  1  0.26386000  0.74734500  0.33318100  1
  Li  Li8  1  0.29642600  0.77087800  0.68871700  1
  Li  Li9  1  0.29642600  0.72912200  0.18871700  1
  Li  Li10  1  0.29899500  0.09921000  0.70857500  1
  Li  Li11  1  0.29899500  0.40079000  0.20857500  1
  Li  Li12  1  0.70341200  0.92306600  0.60830800  1
  Li  Li13  1  0.70341200  0.57693400  0.10830800  1
  Li  Li14  1  0.73321900  0.22557300  0.99321400  1
  Li  Li15  1  0.73321900  0.27442700  0.49321400  1
  Li  Li16  1  0.73228500  0.94132800  0.94844000  1
  Li  Li17  1  0.73228500  0.55867200  0.44844000  1
  Li  Li18  1  0.76386000  0.25265500  0.66681900  1
  Li  Li19  1  0.76386000  0.24734500  0.16681900  1
  Li  Li20  1  0.79642600  0.27087800  0.81128300  1
  Li  Li21  1  0.79642600  0.22912200  0.31128300  1
  Li  Li22  1  0.79899500  0.59921000  0.79142500  1
  Li  Li23  1  0.79899500  0.90079000  0.29142500  1
  Ag  Ag24  1  0.19217300  0.10580700  0.55553300  1
  Ag  Ag25  1  0.19217300  0.39419300  0.05553300  1
  Ag  Ag26  1  0.28486400  0.11227800  0.89015400  1
  Ag  Ag27  1  0.28486400  0.38772200  0.39015400  1
  Ag  Ag28  1  0.32628900  0.44322300  0.73706500  1
  Ag  Ag29  1  0.32628900  0.05677700  0.23706500  1
  Ag  Ag30  1  0.69217300  0.60580700  0.94446700  1
  Ag  Ag31  1  0.69217300  0.89419300  0.44446700  1
  Ag  Ag32  1  0.78486400  0.61227800  0.60984600  1
  Ag  Ag33  1  0.78486400  0.88772200  0.10984600  1
  Ag  Ag34  1  0.82628900  0.55677700  0.26293500  1
  Ag  Ag35  1  0.82628900  0.94322300  0.76293500  1
  F  F36  1  0.00275000  0.73176700  0.74440000  1
  F  F37  1  0.00275000  0.76823300  0.24440000  1
  F  F38  1  0.00795900  0.43462200  0.80100500  1
  F  F39  1  0.00795900  0.06537800  0.30100500  1
  F  F40  1  0.02498900  0.64428000  0.88681400  1
  F  F41  1  0.02498900  0.85572000  0.38681400  1
  F  F42  1  0.02699900  0.96464500  0.65323300  1
  F  F43  1  0.02699900  0.53535500  0.15323300  1
  F  F44  1  0.06854100  0.94653800  0.98444900  1
  F  F45  1  0.06854100  0.55346200  0.48444900  1
  F  F46  1  0.13170100  0.52376100  0.64092200  1
  F  F47  1  0.13170100  0.97623900  0.14092200  1
  F  F48  1  0.14893900  0.95002800  0.82708700  1
  F  F49  1  0.14893900  0.54997200  0.32708700  1
  F  F50  1  0.38379300  0.94054900  0.50855500  1
  F  F51  1  0.38379300  0.55945100  0.00855500  1
  F  F52  1  0.40391900  0.28270500  0.94987500  1
  F  F53  1  0.40391900  0.21729500  0.44987500  1
  F  F54  1  0.44428600  0.72520700  0.59719700  1
  F  F55  1  0.44428600  0.77479300  0.09719700  1
  F  F56  1  0.48945300  0.68336900  0.76382100  1
  F  F57  1  0.48945300  0.81663100  0.26382100  1
  F  F58  1  0.49410400  0.78855300  0.92480300  1
  F  F59  1  0.49410400  0.71144700  0.42480300  1
  F  F60  1  0.50275000  0.23176700  0.75560000  1
  F  F61  1  0.50275000  0.26823300  0.25560000  1
  F  F62  1  0.50795900  0.56537800  0.19899500  1
  F  F63  1  0.50795900  0.93462200  0.69899500  1
  F  F64  1  0.52498900  0.14428000  0.61318600  1
  F  F65  1  0.52498900  0.35572000  0.11318600  1
  F  F66  1  0.52699900  0.46464500  0.84676700  1
  F  F67  1  0.52699900  0.03535500  0.34676700  1
  F  F68  1  0.56854100  0.44653800  0.51555100  1
  F  F69  1  0.56854100  0.05346200  0.01555100  1
  F  F70  1  0.63170100  0.02376100  0.85907800  1
  F  F71  1  0.63170100  0.47623900  0.35907800  1
  F  F72  1  0.64893900  0.04997200  0.17291300  1
  F  F73  1  0.64893900  0.45002800  0.67291300  1
  F  F74  1  0.88379300  0.44054900  0.99144500  1
  F  F75  1  0.88379300  0.05945100  0.49144500  1
  F  F76  1  0.90391900  0.71729500  0.05012500  1
  F  F77  1  0.90391900  0.78270500  0.55012500  1
  F  F78  1  0.94428600  0.22520700  0.90280300  1
  F  F79  1  0.94428600  0.27479300  0.40280300  1
  F  F80  1  0.98945300  0.18336900  0.73617900  1
  F  F81  1  0.98945300  0.31663100  0.23617900  1
  F  F82  1  0.99410400  0.21144700  0.07519700  1
  F  F83  1  0.99410400  0.28855300  0.57519700  1
