# generated using pymatgen
data_LiV3F10
_symmetry_space_group_name_H-M   'P 1'
_cell_length_a   6.56416100
_cell_length_b   7.45816000
_cell_length_c   7.88365000
_cell_angle_alpha   90.00000000
_cell_angle_beta   90.00000000
_cell_angle_gamma   90.00000000
_symmetry_Int_Tables_number   1
_chemical_formula_structural   LiV3F10
_chemical_formula_sum   'Li2 V6 F20'
_cell_volume   385.95640792
_cell_formula_units_Z   2
loop_
 _symmetry_equiv_pos_site_id
 _symmetry_equiv_pos_as_xyz
  1  'x, y, z'
loop_
 _atom_site_type_symbol
 _atom_site_label
 _atom_site_symmetry_multiplicity
 _atom_site_fract_x
 _atom_site_fract_y
 _atom_site_fract_z
 _atom_site_occupancy
  Li  Li0  1  0.31718500  0.00000000  0.25000000  1
  Li  Li1  1  0.68281500  0.00000000  0.75000000  1
  V  V2  1  0.50000000  0.50000000  0.50000000  1
  V  V3  1  0.50000000  0.50000000  0.00000000  1
  V  V4  1  0.00000000  0.23492800  0.50000000  1
  V  V5  1  0.00000000  0.23492800  0.00000000  1
  V  V6  1  0.00000000  0.76507200  0.50000000  1
  V  V7  1  0.00000000  0.76507200  0.00000000  1
  F  F8  1  0.46131000  0.50000000  0.75000000  1
  F  F9  1  0.53869000  0.50000000  0.25000000  1
  F  F10  1  0.00000000  0.50000000  0.00000000  1
  F  F11  1  0.30140200  0.30114600  0.02893100  1
  F  F12  1  0.69859800  0.30114600  0.97106900  1
  F  F13  1  0.30140200  0.30114600  0.47106900  1
  F  F14  1  0.69859800  0.30114600  0.52893100  1
  F  F15  1  0.95217500  0.23116700  0.25000000  1
  F  F16  1  0.04782500  0.23116700  0.75000000  1
  F  F17  1  0.16611000  0.00000000  0.44959900  1
  F  F18  1  0.83389000  0.00000000  0.55040100  1
  F  F19  1  0.16611000  0.00000000  0.05040100  1
  F  F20  1  0.83389000  0.00000000  0.94959900  1
  F  F21  1  0.04782500  0.76883300  0.75000000  1
  F  F22  1  0.95217500  0.76883300  0.25000000  1
  F  F23  1  0.30140200  0.69885400  0.02893100  1
  F  F24  1  0.69859800  0.69885400  0.97106900  1
  F  F25  1  0.30140200  0.69885400  0.47106900  1
  F  F26  1  0.69859800  0.69885400  0.52893100  1
  F  F27  1  0.00000000  0.50000000  0.50000000  1
