# generated using pymatgen
data_Li3Mn(CO3)3
_symmetry_space_group_name_H-M   'P 1'
_cell_length_a   5.97688917
_cell_length_b   5.97688917
_cell_length_c   10.14902400
_cell_angle_alpha   90.00000000
_cell_angle_beta   90.00000000
_cell_angle_gamma   105.17468317
_symmetry_Int_Tables_number   1
_chemical_formula_structural   Li3Mn(CO3)3
_chemical_formula_sum   'Li6 Mn2 C6 O18'
_cell_volume   349.91415716
_cell_formula_units_Z   2
loop_
 _symmetry_equiv_pos_site_id
 _symmetry_equiv_pos_as_xyz
  1  'x, y, z'
loop_
 _atom_site_type_symbol
 _atom_site_label
 _atom_site_symmetry_multiplicity
 _atom_site_fract_x
 _atom_site_fract_y
 _atom_site_fract_z
 _atom_site_occupancy
  Li  Li0  1  0.09060000  0.09060000  0.00000000  1
  Li  Li1  1  0.35475300  0.39210500  0.25000000  1
  Li  Li2  1  0.19391400  0.75349400  0.25000000  1
  Li  Li3  1  0.09060000  0.09060000  0.50000000  1
  Li  Li4  1  0.75349400  0.19391400  0.75000000  1
  Li  Li5  1  0.39210500  0.35475300  0.75000000  1
  Mn  Mn6  1  0.72677700  0.14909100  0.25000000  1
  Mn  Mn7  1  0.14909100  0.72677700  0.75000000  1
  C  C8  1  0.55013100  0.15714000  0.01617500  1
  C  C9  1  0.74217700  0.72537400  0.25000000  1
  C  C10  1  0.55013100  0.15714000  0.48382500  1
  C  C11  1  0.15714000  0.55013100  0.51617500  1
  C  C12  1  0.72537400  0.74217700  0.75000000  1
  C  C13  1  0.15714000  0.55013100  0.98382500  1
  O  O14  1  0.75635900  0.14187900  0.05850200  1
  O  O15  1  0.39892300  0.15372700  0.10776000  1
  O  O16  1  0.17109500  0.51526500  0.10584600  1
  O  O17  1  0.75857500  0.51721500  0.25000000  1
  O  O18  1  0.92988500  0.90419000  0.25000000  1
  O  O19  1  0.54647500  0.77805800  0.25000000  1
  O  O20  1  0.17109500  0.51526500  0.39415400  1
  O  O21  1  0.39892300  0.15372700  0.39224000  1
  O  O22  1  0.75635900  0.14187900  0.44149800  1
  O  O23  1  0.14187900  0.75635900  0.55850200  1
  O  O24  1  0.15372700  0.39892300  0.60776000  1
  O  O25  1  0.51526500  0.17109500  0.60584600  1
  O  O26  1  0.77805900  0.54647500  0.75000000  1
  O  O27  1  0.51721500  0.75857500  0.75000000  1
  O  O28  1  0.90419000  0.92988500  0.75000000  1
  O  O29  1  0.51526500  0.17109500  0.89415400  1
  O  O30  1  0.15372700  0.39892300  0.89224000  1
  O  O31  1  0.14187900  0.75635900  0.94149800  1
