# generated using pymatgen
data_Li5V3P8O29
_symmetry_space_group_name_H-M   'P 1'
_cell_length_a   9.74293300
_cell_length_b   9.77628290
_cell_length_c   14.03992479
_cell_angle_alpha   90.21956148
_cell_angle_beta   89.93610914
_cell_angle_gamma   119.68972407
_symmetry_Int_Tables_number   1
_chemical_formula_structural   Li5V3P8O29
_chemical_formula_sum   'Li10 V6 P16 O58'
_cell_volume   1161.72916575
_cell_formula_units_Z   2
loop_
 _symmetry_equiv_pos_site_id
 _symmetry_equiv_pos_as_xyz
  1  'x, y, z'
loop_
 _atom_site_type_symbol
 _atom_site_label
 _atom_site_symmetry_multiplicity
 _atom_site_fract_x
 _atom_site_fract_y
 _atom_site_fract_z
 _atom_site_occupancy
  Li  Li0  1  0.23427200  0.91206600  0.05561200  1
  Li  Li1  1  0.66692700  0.90547700  0.56363000  1
  Li  Li2  1  0.32957200  0.66083900  0.88566400  1
  Li  Li3  1  0.68206100  0.77021200  0.05846100  1
  Li  Li4  1  0.08682300  0.32416600  0.05996700  1
  Li  Li5  1  0.76587200  0.66514000  0.44430600  1
  Li  Li6  1  0.23928700  0.33971400  0.56345800  1
  Li  Li7  1  0.32597400  0.08966800  0.44209600  1
  Li  Li8  1  0.99815900  0.00358700  0.98119600  1
  Li  Li9  1  0.00065400  0.00273300  0.50892200  1
  V  V10  1  0.56487700  0.56443000  0.24414100  1
  V  V11  1  0.43722900  0.43399300  0.75482300  1
  V  V12  1  0.99973900  0.56688200  0.74595200  1
  V  V13  1  0.99628000  0.43466500  0.25316300  1
  V  V14  1  0.43535100  0.99850600  0.24995600  1
  V  V15  1  0.56711400  0.00352300  0.74766900  1
  P  P16  1  0.21949300  0.90748500  0.83976100  1
  P  P17  1  0.08159700  0.77641800  0.34312100  1
  P  P18  1  0.68672700  0.91114000  0.34505500  1
  P  P19  1  0.32899000  0.66518900  0.12780200  1
  P  P20  1  0.33475500  0.66317500  0.62970100  1
  P  P21  1  0.68525700  0.77990600  0.84269800  1
  P  P22  1  0.77386500  0.68758200  0.65972800  1
  P  P23  1  0.08743400  0.31261700  0.84717800  1
  P  P24  1  0.91873000  0.69220800  0.15504300  1
  P  P25  1  0.22851100  0.31582500  0.34307100  1
  P  P26  1  0.30737100  0.22210300  0.15911100  1
  P  P27  1  0.66512300  0.33526000  0.36907200  1
  P  P28  1  0.67387000  0.33626000  0.86958300  1
  P  P29  1  0.30717500  0.08571900  0.65672100  1
  P  P30  1  0.91966600  0.22153200  0.66080600  1
  P  P31  1  0.77971700  0.08538100  0.16203300  1
  O  O32  1  0.22055000  0.00956100  0.56640000  1
  O  O33  1  0.25413300  0.91471500  0.34127100  1
  O  O34  1  0.00938600  0.78746800  0.07099300  1
  O  O35  1  0.07740300  0.73699700  0.83128800  1
  O  O36  1  0.37120100  0.89560000  0.82962000  1
  O  O37  1  0.32260000  0.81157800  0.16697800  1
  O  O38  1  0.52909100  0.91089300  0.32852100  1
  O  O39  1  0.79599500  0.99490500  0.08090900  1
  O  O40  1  0.65710600  0.92141800  0.83156300  1
  O  O41  1  0.19100300  0.66682500  0.67960500  1
  O  O42  1  0.08018000  0.61710000  0.32993700  1
  O  O43  1  0.48904900  0.81242200  0.66476800  1
  O  O44  1  0.32147400  0.65945500  0.02043200  1
  O  O45  1  0.32304300  0.64995800  0.52400800  1
  O  O46  1  0.48626700  0.67428100  0.16287200  1
  O  O47  1  0.09528400  0.47467800  0.83265700  1
  O  O48  1  0.18527900  0.51341900  0.17068500  1
  O  O49  1  0.65794500  0.74067200  0.33180700  1
  O  O50  1  0.79400700  0.79305300  0.75268000  1
  O  O51  1  0.78564400  0.78322900  0.57239200  1
  O  O52  1  0.77404700  0.79230800  0.93190400  1
  O  O53  1  0.52077400  0.62993000  0.83337700  1
  O  O54  1  0.33218100  0.51401300  0.67386000  1
  O  O55  1  0.74622200  0.66041800  0.15563200  1
  O  O56  1  0.38229800  0.47011800  0.32848600  1
  O  O57  1  0.08588100  0.34392800  0.33229900  1
  O  O58  1  0.99934600  0.79733500  0.24926900  1
  O  O59  1  0.99171600  0.78522600  0.42720400  1
  O  O60  1  0.01331500  0.20631400  0.58082800  1
  O  O61  1  0.91642600  0.65798200  0.66298700  1
  O  O62  1  0.61823100  0.53362000  0.66730700  1
  O  O63  1  0.25734000  0.34384200  0.83920700  1
  O  O64  1  0.67309400  0.48750600  0.32885100  1
  O  O65  1  0.46511000  0.37997000  0.17045600  1
  O  O66  1  0.20628900  0.21450100  0.07761300  1
  O  O67  1  0.22064600  0.23022300  0.43413300  1
  O  O68  1  0.21088800  0.19783900  0.25748200  1
  O  O69  1  0.34004000  0.25623300  0.66223300  1
  O  O70  1  0.82059700  0.47723500  0.81747500  1
  O  O71  1  0.91959500  0.53580200  0.17143800  1
  O  O72  1  0.53025600  0.34721500  0.82491700  1
  O  O73  1  0.68184500  0.35030700  0.97419200  1
  O  O74  1  0.67550200  0.33799400  0.47455600  1
  O  O75  1  0.51189000  0.18742000  0.33018000  1
  O  O76  1  0.92634800  0.38251900  0.66901400  1
  O  O77  1  0.81106100  0.33085700  0.31921000  1
  O  O78  1  0.34250700  0.08352200  0.15911700  1
  O  O79  1  0.20135900  0.99785000  0.74908200  1
  O  O80  1  0.20562600  0.98393400  0.92915300  1
  O  O81  1  0.46156000  0.07920100  0.67069000  1
  O  O82  1  0.66416000  0.18803300  0.82457400  1
  O  O83  1  0.62143500  0.08262800  0.17103200  1
  O  O84  1  0.91836300  0.25891500  0.16243600  1
  O  O85  1  0.00933200  0.22739000  0.93695800  1
  O  O86  1  0.98863800  0.19912100  0.75991100  1
  O  O87  1  0.74648600  0.08477800  0.65780600  1
  O  O88  1  0.76406000  0.97590600  0.43886200  1
  O  O89  1  0.80372600  0.01283000  0.26090600  1
