# generated using pymatgen
data_LiMnF3
_symmetry_space_group_name_H-M   'P 1'
_cell_length_a   8.85940000
_cell_length_b   8.85940000
_cell_length_c   6.25491200
_cell_angle_alpha   90.00000000
_cell_angle_beta   90.00000000
_cell_angle_gamma   90.00000000
_symmetry_Int_Tables_number   1
_chemical_formula_structural   LiMnF3
_chemical_formula_sum   'Li8 Mn8 F24'
_cell_volume   490.94159006
_cell_formula_units_Z   8
loop_
 _symmetry_equiv_pos_site_id
 _symmetry_equiv_pos_as_xyz
  1  'x, y, z'
loop_
 _atom_site_type_symbol
 _atom_site_label
 _atom_site_symmetry_multiplicity
 _atom_site_fract_x
 _atom_site_fract_y
 _atom_site_fract_z
 _atom_site_occupancy
  Li  Li0  1  0.94834300  0.84928300  0.16133600  1
  Li  Li1  1  0.84928300  0.05165700  0.83866400  1
  Li  Li2  1  0.15071700  0.94834300  0.83866400  1
  Li  Li3  1  0.05165700  0.15071700  0.16133600  1
  Li  Li4  1  0.44834300  0.34928300  0.33866400  1
  Li  Li5  1  0.34928300  0.55165700  0.66133600  1
  Li  Li6  1  0.65071700  0.44834300  0.66133600  1
  Li  Li7  1  0.55165700  0.65071700  0.33866400  1
  Mn  Mn8  1  0.52278700  0.80709600  0.89710600  1
  Mn  Mn9  1  0.30709600  0.97721300  0.39710600  1
  Mn  Mn10  1  0.69290400  0.02278700  0.39710600  1
  Mn  Mn11  1  0.47721300  0.19290400  0.89710600  1
  Mn  Mn12  1  0.02278700  0.30709600  0.60289400  1
  Mn  Mn13  1  0.80709600  0.47721300  0.10289400  1
  Mn  Mn14  1  0.19290400  0.52278700  0.10289400  1
  Mn  Mn15  1  0.97721300  0.69290400  0.60289400  1
  F  F16  1  0.82224100  0.82758400  0.43710200  1
  F  F17  1  0.94994000  0.84548000  0.85384000  1
  F  F18  1  0.49838600  0.85897400  0.27336500  1
  F  F19  1  0.17241600  0.82224100  0.56289800  1
  F  F20  1  0.64102600  0.99838600  0.77336500  1
  F  F21  1  0.15452000  0.94994000  0.14616000  1
  F  F22  1  0.84548000  0.05006000  0.14616000  1
  F  F23  1  0.35897400  0.00161400  0.77336500  1
  F  F24  1  0.82758400  0.17775900  0.56289800  1
  F  F25  1  0.50161400  0.14102600  0.27336500  1
  F  F26  1  0.05006000  0.15452000  0.85384000  1
  F  F27  1  0.17775900  0.17241600  0.43710200  1
  F  F28  1  0.32224100  0.32758400  0.06289800  1
  F  F29  1  0.44994000  0.34548000  0.64616000  1
  F  F30  1  0.99838600  0.35897400  0.22663500  1
  F  F31  1  0.67241600  0.32224100  0.93710200  1
  F  F32  1  0.14102600  0.49838600  0.72663500  1
  F  F33  1  0.65452000  0.44994000  0.35384000  1
  F  F34  1  0.34548000  0.55006000  0.35384000  1
  F  F35  1  0.85897400  0.50161400  0.72663500  1
  F  F36  1  0.32758400  0.67775900  0.93710200  1
  F  F37  1  0.00161400  0.64102600  0.22663500  1
  F  F38  1  0.55006000  0.65452000  0.64616000  1
  F  F39  1  0.67775900  0.67241600  0.06289800  1
