# generated using pymatgen
data_LiMn2O4
_symmetry_space_group_name_H-M   'P 1'
_cell_length_a   5.82004023
_cell_length_b   5.82004023
_cell_length_c   5.90269910
_cell_angle_alpha   62.37484144
_cell_angle_beta   62.37484144
_cell_angle_gamma   91.10810872
_symmetry_Int_Tables_number   1
_chemical_formula_structural   LiMn2O4
_chemical_formula_sum   'Li2 Mn4 O8'
_cell_volume   149.79628380
_cell_formula_units_Z   2
loop_
 _symmetry_equiv_pos_site_id
 _symmetry_equiv_pos_as_xyz
  1  'x, y, z'
loop_
 _atom_site_type_symbol
 _atom_site_label
 _atom_site_symmetry_multiplicity
 _atom_site_fract_x
 _atom_site_fract_y
 _atom_site_fract_z
 _atom_site_occupancy
  Li  Li0  1  0.00000000  0.50000000  0.50000000  1
  Li  Li1  1  0.50000000  0.00000000  0.00000000  1
  Mn  Mn2  1  0.50000000  0.00000000  0.50000000  1
  Mn  Mn3  1  0.50000000  0.50000000  0.50000000  1
  Mn  Mn4  1  0.00000000  0.50000000  0.00000000  1
  Mn  Mn5  1  0.50000000  0.50000000  0.00000000  1
  O  O6  1  0.75099000  0.28949400  0.98449800  1
  O  O7  1  0.72015600  0.69833500  0.05848200  1
  O  O8  1  0.30166500  0.27984400  0.44151800  1
  O  O9  1  0.28949400  0.75099000  0.48449800  1
  O  O10  1  0.71050600  0.24901000  0.51550200  1
  O  O11  1  0.69833500  0.72015600  0.55848200  1
  O  O12  1  0.27984400  0.30166500  0.94151800  1
  O  O13  1  0.24901000  0.71050600  0.01550200  1
