# generated using pymatgen
data_Li5(NiO2)8
_symmetry_space_group_name_H-M   'P 1'
_cell_length_a   7.60254418
_cell_length_b   6.49874059
_cell_length_c   12.38059412
_cell_angle_alpha   99.84247354
_cell_angle_beta   88.24516462
_cell_angle_gamma   65.68128902
_symmetry_Int_Tables_number   1
_chemical_formula_structural   Li5(NiO2)8
_chemical_formula_sum   'Li10 Ni16 O32'
_cell_volume   545.72035654
_cell_formula_units_Z   2
loop_
 _symmetry_equiv_pos_site_id
 _symmetry_equiv_pos_as_xyz
  1  'x, y, z'
loop_
 _atom_site_type_symbol
 _atom_site_label
 _atom_site_symmetry_multiplicity
 _atom_site_fract_x
 _atom_site_fract_y
 _atom_site_fract_z
 _atom_site_occupancy
  Li  Li0  1  0.24388900  0.12713100  0.87499800  1
  Li  Li1  1  0.13537700  0.81254100  0.18241400  1
  Li  Li2  1  0.25945100  0.63080600  0.37247700  1
  Li  Li3  1  0.35990400  0.43676600  0.56053000  1
  Li  Li4  1  0.49408400  0.24449000  0.75392100  1
  Li  Li5  1  0.37424300  0.93942200  0.06100600  1
  Li  Li6  1  0.77757500  0.38480400  0.61474900  1
  Li  Li7  1  0.87411400  0.18179400  0.82140800  1
  Li  Li8  1  0.75412700  0.87815500  0.11417800  1
  Li  Li9  1  0.84349400  0.67580000  0.32397400  1
  Ni  Ni10  1  0.06682400  0.39910000  0.09356300  1
  Ni  Ni11  1  0.19012000  0.21455100  0.28219200  1
  Ni  Ni12  1  0.31033400  0.03150100  0.47001000  1
  Ni  Ni13  1  0.06286000  0.90435100  0.59343400  1
  Ni  Ni14  1  0.19536900  0.71610000  0.78158800  1
  Ni  Ni15  1  0.31351500  0.52829500  0.96775200  1
  Ni  Ni16  1  0.43605800  0.34573500  0.15724500  1
  Ni  Ni17  1  0.56178000  0.15639600  0.34244100  1
  Ni  Ni18  1  0.43223000  0.85218300  0.65917400  1
  Ni  Ni19  1  0.55783700  0.66236100  0.84529100  1
  Ni  Ni20  1  0.68581400  0.46813300  0.03166700  1
  Ni  Ni21  1  0.80896800  0.28722700  0.21973900  1
  Ni  Ni22  1  0.92922300  0.09416600  0.40419900  1
  Ni  Ni23  1  0.68919800  0.96592300  0.53016400  1
  Ni  Ni24  1  0.81663200  0.77777500  0.71797600  1
  Ni  Ni25  1  0.93851800  0.59587600  0.90452200  1
  O  O26  1  0.02441200  0.16611400  0.53332900  1
  O  O27  1  0.10107900  0.13046900  0.15226100  1
  O  O28  1  0.04081400  0.66716600  0.03981200  1
  O  O29  1  0.17988900  0.48558700  0.22698400  1
  O  O30  1  0.10465000  0.63933400  0.65056500  1
  O  O31  1  0.22398000  0.45009400  0.83629600  1
  O  O32  1  0.32772800  0.25505800  0.03066100  1
  O  O33  1  0.30308800  0.29552100  0.40679400  1
  O  O34  1  0.43848500  0.12198800  0.60075300  1
  O  O35  1  0.47388200  0.07866300  0.20913700  1
  O  O36  1  0.18164400  0.94833400  0.33538900  1
  O  O37  1  0.17020800  0.98385400  0.73613400  1
  O  O38  1  0.40430900  0.60787100  0.09976900  1
  O  O39  1  0.32680500  0.76463500  0.53108600  1
  O  O40  1  0.30037800  0.80474800  0.90982500  1
  O  O41  1  0.52646800  0.42261400  0.28902800  1
  O  O42  1  0.45770700  0.57064800  0.71893300  1
  O  O43  1  0.69731000  0.21527000  0.09259500  1
  O  O44  1  0.66646500  0.22720000  0.47436500  1
  O  O45  1  0.58294500  0.39513700  0.89260200  1
  O  O46  1  0.82129400  0.01923000  0.27463600  1
  O  O47  1  0.79605000  0.04403300  0.65996800  1
  O  O48  1  0.52769500  0.92904500  0.79106600  1
  O  O49  1  0.59060200  0.89645300  0.40019900  1
  O  O50  1  0.70294400  0.71274100  0.59215900  1
  O  O51  1  0.65004700  0.73508600  0.98001600  1
  O  O52  1  0.81151400  0.54631700  0.16340000  1
  O  O53  1  0.91032600  0.35492500  0.34879400  1
  O  O54  1  0.81549800  0.52036300  0.77709300  1
  O  O55  1  0.96196900  0.33107400  0.95454500  1
  O  O56  1  0.93327600  0.84920300  0.84302900  1
  O  O57  1  0.94445100  0.82946900  0.45151600  1
