# generated using pymatgen
data_Li3V2P4(HO8)2
_symmetry_space_group_name_H-M   'P 1'
_cell_length_a   8.08138800
_cell_length_b   7.55483800
_cell_length_c   9.74926870
_cell_angle_alpha   75.27805544
_cell_angle_beta   90.00000000
_cell_angle_gamma   90.00000000
_symmetry_Int_Tables_number   1
_chemical_formula_structural   Li3V2P4(HO8)2
_chemical_formula_sum   'Li6 V4 P8 H4 O32'
_cell_volume   575.68669498
_cell_formula_units_Z   2
loop_
 _symmetry_equiv_pos_site_id
 _symmetry_equiv_pos_as_xyz
  1  'x, y, z'
loop_
 _atom_site_type_symbol
 _atom_site_label
 _atom_site_symmetry_multiplicity
 _atom_site_fract_x
 _atom_site_fract_y
 _atom_site_fract_z
 _atom_site_occupancy
  Li  Li0  1  0.37051700  0.90374200  0.82246700  1
  Li  Li1  1  0.13643800  0.40253900  0.57495900  1
  Li  Li2  1  0.63643800  0.59746100  0.42504100  1
  Li  Li3  1  0.87051700  0.09625800  0.17753300  1
  Li  Li4  1  0.13137800  0.40250700  0.07493400  1
  Li  Li5  1  0.63137800  0.59749300  0.92506600  1
  V  V6  1  0.50462800  0.25100100  0.62565400  1
  V  V7  1  0.00462800  0.74899900  0.37434600  1
  V  V8  1  0.49696900  0.24195700  0.12734800  1
  V  V9  1  0.99696900  0.75804300  0.87265200  1
  P  P10  1  0.34690300  0.51698300  0.81199000  1
  P  P11  1  0.85036300  0.48435500  0.69259100  1
  P  P12  1  0.15194100  0.00998000  0.56256400  1
  P  P13  1  0.65194100  0.99002000  0.43743600  1
  P  P14  1  0.35036300  0.51564500  0.30740900  1
  P  P15  1  0.84690300  0.48301700  0.18801000  1
  P  P16  1  0.15577300  0.01795100  0.05812300  1
  P  P17  1  0.65577300  0.98204900  0.94187700  1
  H  H18  1  0.50970800  0.76836300  0.60295300  1
  H  H19  1  0.00970800  0.23163700  0.39704700  1
  H  H20  1  0.49411900  0.74121200  0.13322200  1
  H  H21  1  0.99411900  0.25878800  0.86677800  1
  O  O22  1  0.55231000  0.08950400  0.81482700  1
  O  O23  1  0.17758700  0.56235800  0.86949100  1
  O  O24  1  0.82723800  0.60694400  0.79891700  1
  O  O25  1  0.44526100  0.69334000  0.75168600  1
  O  O26  1  0.04901800  0.89650900  0.69264800  1
  O  O27  1  0.31571000  0.05996600  0.62119100  1
  O  O28  1  0.94660800  0.30632000  0.75969500  1
  O  O29  1  0.32658200  0.39849200  0.70458800  1
  O  O30  1  0.66798600  0.10378700  0.54497800  1
  O  O31  1  0.05850700  0.19548500  0.49924700  1
  O  O32  1  0.68208400  0.44287400  0.63552700  1
  O  O33  1  0.95903200  0.58699300  0.56666000  1
  O  O34  1  0.55850700  0.80451500  0.50075300  1
  O  O35  1  0.16798600  0.89621300  0.45502200  1
  O  O36  1  0.81571000  0.94003400  0.37880900  1
  O  O37  1  0.54901800  0.10349100  0.30735200  1
  O  O38  1  0.45903200  0.41300700  0.43334000  1
  O  O39  1  0.18208400  0.55712600  0.36447300  1
  O  O40  1  0.82658200  0.60150800  0.29541200  1
  O  O41  1  0.44660800  0.69368000  0.24030500  1
  O  O42  1  0.05231000  0.91049600  0.18517300  1
  O  O43  1  0.33067500  0.06710200  0.10130200  1
  O  O44  1  0.94526100  0.30666000  0.24831400  1
  O  O45  1  0.32723800  0.39305600  0.20108300  1
  O  O46  1  0.67409400  0.10263500  0.04998800  1
  O  O47  1  0.05965400  0.19678900  0.99825100  1
  O  O48  1  0.67758700  0.43764200  0.13050900  1
  O  O49  1  0.95188300  0.59793400  0.05861300  1
  O  O50  1  0.55965400  0.80321100  0.00174900  1
  O  O51  1  0.17409400  0.89736500  0.95001200  1
  O  O52  1  0.83067500  0.93289800  0.89869800  1
  O  O53  1  0.45188300  0.40206600  0.94138700  1
