# generated using pymatgen
data_Li2V3SnO8
_symmetry_space_group_name_H-M   'P 1'
_cell_length_a   8.56883700
_cell_length_b   8.58529200
_cell_length_c   8.58893800
_cell_angle_alpha   90.00000000
_cell_angle_beta   90.00000000
_cell_angle_gamma   90.00000000
_symmetry_Int_Tables_number   1
_chemical_formula_structural   Li2V3SnO8
_chemical_formula_sum   'Li8 V12 Sn4 O32'
_cell_volume   631.85353588
_cell_formula_units_Z   4
loop_
 _symmetry_equiv_pos_site_id
 _symmetry_equiv_pos_as_xyz
  1  'x, y, z'
loop_
 _atom_site_type_symbol
 _atom_site_label
 _atom_site_symmetry_multiplicity
 _atom_site_fract_x
 _atom_site_fract_y
 _atom_site_fract_z
 _atom_site_occupancy
  Li  Li0  1  0.62538900  0.37469000  0.87441200  1
  Li  Li1  1  0.50136300  0.99677700  0.00185300  1
  Li  Li2  1  0.49863700  0.49677700  0.49814700  1
  Li  Li3  1  0.37461100  0.87469000  0.62558800  1
  Li  Li4  1  0.12538900  0.12531000  0.12558800  1
  Li  Li5  1  0.00136300  0.50322300  0.99814700  1
  Li  Li6  1  0.99863700  0.00322300  0.50185300  1
  Li  Li7  1  0.87461100  0.62531000  0.37441200  1
  V  V8  1  0.63673600  0.62559700  0.12756200  1
  V  V9  1  0.63562900  0.85868100  0.37157200  1
  V  V10  1  0.62553000  0.13104700  0.63241700  1
  V  V11  1  0.37447000  0.63104700  0.86758300  1
  V  V12  1  0.36437100  0.35868100  0.12842800  1
  V  V13  1  0.36326400  0.12559700  0.37243800  1
  V  V14  1  0.13673600  0.87440300  0.87243800  1
  V  V15  1  0.13562900  0.64131900  0.62842800  1
  V  V16  1  0.12553000  0.36895300  0.36758300  1
  V  V17  1  0.87447000  0.86895300  0.13241700  1
  V  V18  1  0.86437100  0.14131900  0.87157200  1
  V  V19  1  0.86326400  0.37440300  0.62756200  1
  Sn  Sn20  1  0.74539000  0.24697300  0.25117800  1
  Sn  Sn21  1  0.25461000  0.74697300  0.24882200  1
  Sn  Sn22  1  0.24539000  0.25302700  0.74882200  1
  Sn  Sn23  1  0.75461000  0.75302700  0.75117800  1
  O  O24  1  0.63889700  0.35735700  0.62477100  1
  O  O25  1  0.65018600  0.11813000  0.86485200  1
  O  O26  1  0.63598200  0.86512700  0.14393400  1
  O  O27  1  0.61902500  0.64685100  0.36259000  1
  O  O28  1  0.62446200  0.88461700  0.60955200  1
  O  O29  1  0.61017900  0.10935400  0.38650600  1
  O  O30  1  0.60911400  0.38396200  0.12240000  1
  O  O31  1  0.61665800  0.62135000  0.88429800  1
  O  O32  1  0.38334200  0.12135000  0.61570200  1
  O  O33  1  0.39088600  0.88396200  0.37760000  1
  O  O34  1  0.38982100  0.60935400  0.11349400  1
  O  O35  1  0.37553800  0.38461700  0.89044800  1
  O  O36  1  0.38097500  0.14685100  0.13741000  1
  O  O37  1  0.36401800  0.36512700  0.35606600  1
  O  O38  1  0.34981400  0.61813000  0.63514800  1
  O  O39  1  0.36110300  0.85735700  0.87522900  1
  O  O40  1  0.13889700  0.14264300  0.37522900  1
  O  O41  1  0.15018600  0.38187000  0.13514800  1
  O  O42  1  0.13598200  0.63487300  0.85606600  1
  O  O43  1  0.11902500  0.85314900  0.63741000  1
  O  O44  1  0.12446200  0.61538300  0.39044800  1
  O  O45  1  0.11017900  0.39064600  0.61349400  1
  O  O46  1  0.10911400  0.11603800  0.87760000  1
  O  O47  1  0.11665800  0.87865000  0.11570200  1
  O  O48  1  0.88334200  0.37865000  0.38429800  1
  O  O49  1  0.89088600  0.61603800  0.62240000  1
  O  O50  1  0.88982100  0.89064600  0.88650600  1
  O  O51  1  0.87553800  0.11538300  0.10955200  1
  O  O52  1  0.88097500  0.35314900  0.86259000  1
  O  O53  1  0.86401800  0.13487300  0.64393400  1
  O  O54  1  0.84981400  0.88187000  0.36485200  1
  O  O55  1  0.86110300  0.64264300  0.12477100  1
