# generated using pymatgen
data_LiMn2(BO3)2
_symmetry_space_group_name_H-M   'P 1'
_cell_length_a   5.79127300
_cell_length_b   9.16134560
_cell_length_c   12.45248185
_cell_angle_alpha   104.79112742
_cell_angle_beta   88.06312988
_cell_angle_gamma   103.95542637
_symmetry_Int_Tables_number   1
_chemical_formula_structural   LiMn2(BO3)2
_chemical_formula_sum   'Li5 Mn10 B10 O30'
_cell_volume   619.65800341
_cell_formula_units_Z   5
loop_
 _symmetry_equiv_pos_site_id
 _symmetry_equiv_pos_as_xyz
  1  'x, y, z'
loop_
 _atom_site_type_symbol
 _atom_site_label
 _atom_site_symmetry_multiplicity
 _atom_site_fract_x
 _atom_site_fract_y
 _atom_site_fract_z
 _atom_site_occupancy
  Li  Li0  1  0.03588500  0.66199300  0.70830600  1
  Li  Li1  1  0.16871200  0.94446900  0.50011800  1
  Li  Li2  1  0.76548900  0.74558100  0.09793900  1
  Li  Li3  1  0.55790000  0.14397800  0.89855400  1
  Li  Li4  1  0.96252600  0.34311400  0.29708700  1
  Mn  Mn5  1  0.16671800  0.56241000  0.91332500  1
  Mn  Mn6  1  0.24748300  0.62203700  0.49700800  1
  Mn  Mn7  1  0.03354500  0.02794000  0.28980300  1
  Mn  Mn8  1  0.56052400  0.76726000  0.31435400  1
  Mn  Mn9  1  0.35419800  0.16738800  0.10926800  1
  Mn  Mn10  1  0.63029600  0.82326600  0.88563000  1
  Mn  Mn11  1  0.44196100  0.25567700  0.69633400  1
  Mn  Mn12  1  0.96195800  0.99413000  0.71494000  1
  Mn  Mn13  1  0.74839300  0.36692000  0.50648400  1
  Mn  Mn14  1  0.84200700  0.42802900  0.09536700  1
  B  B15  1  0.03921400  0.68517100  0.29134500  1
  B  B16  1  0.16188900  0.90657700  0.90407600  1
  B  B17  1  0.43234500  0.90030100  0.69036800  1
  B  B18  1  0.22692700  0.27784300  0.48446500  1
  B  B19  1  0.37209100  0.51149600  0.11048600  1
  B  B20  1  0.64026800  0.48476000  0.89574600  1
  B  B21  1  0.77528300  0.71258800  0.51735700  1
  B  B22  1  0.56383600  0.10898700  0.30594900  1
  B  B23  1  0.83255800  0.08173900  0.08569600  1
  B  B24  1  0.96250100  0.32773900  0.71124300  1
  O  O25  1  0.02037400  0.48245600  0.75494200  1
  O  O26  1  0.20477300  0.74915800  0.38124900  1
  O  O27  1  0.99763300  0.14906800  0.17637300  1
  O  O28  1  0.33069700  0.00314900  0.65611300  1
  O  O29  1  0.12492500  0.37981000  0.44672300  1
  O  O30  1  0.28846900  0.80146000  0.92059600  1
  O  O31  1  0.10063800  0.23092400  0.73176900  1
  O  O32  1  0.16626600  0.44578300  0.04107200  1
  O  O33  1  0.35516200  0.74187800  0.65021400  1
  O  O34  1  0.15957900  0.12002000  0.44346400  1
  O  O35  1  0.45102100  0.66610600  0.15106000  1
  O  O36  1  0.23719200  0.06099600  0.94580600  1
  O  O37  1  0.60574100  0.95860200  0.77802100  1
  O  O38  1  0.39843700  0.34083300  0.56991600  1
  O  O39  1  0.52551200  0.58493700  0.86677300  1
  O  O40  1  0.49931900  0.40556600  0.12553100  1
  O  O41  1  0.57478400  0.64674600  0.44456900  1
  O  O42  1  0.35721000  0.04534400  0.23712800  1
  O  O43  1  0.77663600  0.92453800  0.04159600  1
  O  O44  1  0.57733900  0.32706200  0.84934900  1
  O  O45  1  0.85344200  0.86729700  0.55577900  1
  O  O46  1  0.64298200  0.26432400  0.34526400  1
  O  O47  1  0.81589100  0.54889200  0.98082400  1
  O  O48  1  0.93144700  0.78277600  0.25250100  1
  O  O49  1  0.72616600  0.18135700  0.04863700  1
  O  O50  1  0.90174300  0.60902400  0.54257900  1
  O  O51  1  0.69290800  0.00506800  0.32295800  1
  O  O52  1  0.96224000  0.84029800  0.82771100  1
  O  O53  1  0.76247400  0.25631800  0.63936100  1
  O  O54  1  0.97795800  0.52677200  0.24879600  1
