# generated using pymatgen
data_LiCo5O7F
_symmetry_space_group_name_H-M   'P 1'
_cell_length_a   5.96399033
_cell_length_b   5.94115992
_cell_length_c   10.10295150
_cell_angle_alpha   89.43183464
_cell_angle_beta   72.82351118
_cell_angle_gamma   120.12280328
_symmetry_Int_Tables_number   1
_chemical_formula_structural   LiCo5O7F
_chemical_formula_sum   'Li2 Co10 O14 F2'
_cell_volume   290.35804782
_cell_formula_units_Z   2
loop_
 _symmetry_equiv_pos_site_id
 _symmetry_equiv_pos_as_xyz
  1  'x, y, z'
loop_
 _atom_site_type_symbol
 _atom_site_label
 _atom_site_symmetry_multiplicity
 _atom_site_fract_x
 _atom_site_fract_y
 _atom_site_fract_z
 _atom_site_occupancy
  Li  Li0  1  0.98566300  0.99237200  0.02107800  1
  Li  Li1  1  0.98635300  0.49309000  0.52037400  1
  Co  Co2  1  0.76187000  0.38294200  0.85922700  1
  Co  Co3  1  0.38359000  0.93800800  0.68096400  1
  Co  Co4  1  0.38199400  0.43754300  0.18198800  1
  Co  Co5  1  0.87333100  0.93795700  0.68098700  1
  Co  Co6  1  0.87355700  0.43754100  0.18201500  1
  Co  Co7  1  0.76069500  0.88206800  0.36084200  1
  Co  Co8  1  0.37377000  0.68669400  0.93909500  1
  Co  Co9  1  0.37413800  0.18756300  0.43931100  1
  Co  Co10  1  0.37874000  0.44002900  0.68252600  1
  Co  Co11  1  0.38099700  0.94265900  0.18080200  1
  O  O12  1  0.63070600  0.82284400  0.56134400  1
  O  O13  1  0.62852200  0.31817600  0.06070300  1
  O  O14  1  0.17092600  0.58283600  0.79435100  1
  O  O15  1  0.17169500  0.08265100  0.29350100  1
  O  O16  1  0.61741300  0.58268100  0.79438300  1
  O  O17  1  0.61765400  0.08271400  0.29352800  1
  O  O18  1  0.61273200  0.02778500  0.80235400  1
  O  O19  1  0.61305500  0.52828400  0.30206400  1
  O  O20  1  0.13840800  0.35213300  0.07507200  1
  O  O21  1  0.13946900  0.85293400  0.57381500  1
  O  O22  1  0.13092400  0.78925500  0.08146700  1
  O  O23  1  0.13212100  0.29148300  0.58146500  1
  O  O24  1  0.57694300  0.78918900  0.08135500  1
  O  O25  1  0.57786600  0.29152900  0.58137500  1
  F  F26  1  0.11377900  0.54908300  0.32199000  1
  F  F27  1  0.11308200  0.04795100  0.82203200  1
