# generated using pymatgen
data_Li2CoPO4F
_symmetry_space_group_name_H-M   'P 1'
_cell_length_a   5.13051500
_cell_length_b   11.36874300
_cell_length_c   12.97056900
_cell_angle_alpha   90.00000000
_cell_angle_beta   90.00000000
_cell_angle_gamma   90.00000000
_symmetry_Int_Tables_number   1
_chemical_formula_structural   Li2CoPO4F
_chemical_formula_sum   'Li16 Co8 P8 O32 F8'
_cell_volume   756.54094756
_cell_formula_units_Z   8
loop_
 _symmetry_equiv_pos_site_id
 _symmetry_equiv_pos_as_xyz
  1  'x, y, z'
loop_
 _atom_site_type_symbol
 _atom_site_label
 _atom_site_symmetry_multiplicity
 _atom_site_fract_x
 _atom_site_fract_y
 _atom_site_fract_z
 _atom_site_occupancy
  Li  Li0  1  0.22356100  0.17841200  0.24064500  1
  Li  Li1  1  0.22356100  0.67841200  0.75935500  1
  Li  Li2  1  0.23431800  0.39929700  0.63080600  1
  Li  Li3  1  0.23431800  0.89929700  0.36919400  1
  Li  Li4  1  0.26568200  0.39929700  0.13080600  1
  Li  Li5  1  0.26568200  0.89929700  0.86919400  1
  Li  Li6  1  0.27643900  0.67841200  0.25935500  1
  Li  Li7  1  0.27643900  0.17841200  0.74064500  1
  Li  Li8  1  0.72356100  0.82158800  0.25935500  1
  Li  Li9  1  0.72356100  0.32158800  0.74064500  1
  Li  Li10  1  0.73431800  0.10070300  0.13080600  1
  Li  Li11  1  0.73431800  0.60070300  0.86919400  1
  Li  Li12  1  0.76568200  0.60070300  0.36919400  1
  Li  Li13  1  0.76568200  0.10070300  0.63080600  1
  Li  Li14  1  0.77643900  0.32158800  0.24064500  1
  Li  Li15  1  0.77643900  0.82158800  0.75935500  1
  Co  Co16  1  0.21752300  0.66935700  0.48987700  1
  Co  Co17  1  0.21752300  0.16935700  0.51012300  1
  Co  Co18  1  0.28247700  0.16935700  0.01012300  1
  Co  Co19  1  0.28247700  0.66935700  0.98987700  1
  Co  Co20  1  0.71752300  0.33064300  0.01012300  1
  Co  Co21  1  0.71752300  0.83064300  0.98987700  1
  Co  Co22  1  0.78247700  0.33064300  0.51012300  1
  Co  Co23  1  0.78247700  0.83064300  0.48987700  1
  P  P24  1  0.20584600  0.91378300  0.12671200  1
  P  P25  1  0.20584600  0.41378300  0.87328800  1
  P  P26  1  0.29415400  0.41378300  0.37328800  1
  P  P27  1  0.29415400  0.91378300  0.62671200  1
  P  P28  1  0.70584600  0.08621700  0.37328800  1
  P  P29  1  0.70584600  0.58621700  0.62671200  1
  P  P30  1  0.79415400  0.58621700  0.12671200  1
  P  P31  1  0.79415400  0.08621700  0.87328800  1
  O  O32  1  0.09857400  0.60006800  0.11834200  1
  O  O33  1  0.09857400  0.10006800  0.88165800  1
  O  O34  1  0.16981900  0.35339400  0.47063300  1
  O  O35  1  0.16981900  0.85339400  0.52936700  1
  O  O36  1  0.18513500  0.35705400  0.27538900  1
  O  O37  1  0.18513500  0.85705400  0.72461100  1
  O  O38  1  0.22051100  0.04645400  0.62473500  1
  O  O39  1  0.22051100  0.54645400  0.37526500  1
  O  O40  1  0.27948900  0.04645400  0.12473500  1
  O  O41  1  0.27948900  0.54645400  0.87526500  1
  O  O42  1  0.31486500  0.85705400  0.22461100  1
  O  O43  1  0.31486500  0.35705400  0.77538900  1
  O  O44  1  0.33018100  0.35339400  0.97063300  1
  O  O45  1  0.33018100  0.85339400  0.02936700  1
  O  O46  1  0.40142600  0.60006800  0.61834200  1
  O  O47  1  0.40142600  0.10006800  0.38165800  1
  O  O48  1  0.59857400  0.89993200  0.61834200  1
  O  O49  1  0.59857400  0.39993200  0.38165800  1
  O  O50  1  0.66981900  0.64660600  0.02936700  1
  O  O51  1  0.66981900  0.14660600  0.97063300  1
  O  O52  1  0.68513500  0.64294600  0.22461100  1
  O  O53  1  0.68513500  0.14294600  0.77538900  1
  O  O54  1  0.72051100  0.45354600  0.12473500  1
  O  O55  1  0.72051100  0.95354600  0.87526500  1
  O  O56  1  0.77948900  0.95354600  0.37526500  1
  O  O57  1  0.77948900  0.45354600  0.62473500  1
  O  O58  1  0.81486500  0.14294600  0.27538900  1
  O  O59  1  0.81486500  0.64294600  0.72461100  1
  O  O60  1  0.83018100  0.14660600  0.47063300  1
  O  O61  1  0.83018100  0.64660600  0.52936700  1
  O  O62  1  0.90142600  0.89993200  0.11834200  1
  O  O63  1  0.90142600  0.39993200  0.88165800  1
  F  F64  1  0.00000000  0.25000000  0.10033800  1
  F  F65  1  0.00000000  0.25000000  0.63826600  1
  F  F66  1  0.00000000  0.75000000  0.36173400  1
  F  F67  1  0.00000000  0.75000000  0.89966200  1
  F  F68  1  0.50000000  0.25000000  0.60033800  1
  F  F69  1  0.50000000  0.25000000  0.13826600  1
  F  F70  1  0.50000000  0.75000000  0.39966200  1
  F  F71  1  0.50000000  0.75000000  0.86173400  1
