# generated using pymatgen
data_Li4FeCo9O20
_symmetry_space_group_name_H-M   'P 1'
_cell_length_a   7.51605329
_cell_length_b   4.90562573
_cell_length_c   10.03872505
_cell_angle_alpha   85.33695313
_cell_angle_beta   80.81027475
_cell_angle_gamma   71.03582319
_symmetry_Int_Tables_number   1
_chemical_formula_structural   Li4FeCo9O20
_chemical_formula_sum   'Li4 Fe1 Co9 O20'
_cell_volume   345.38272543
_cell_formula_units_Z   1
loop_
 _symmetry_equiv_pos_site_id
 _symmetry_equiv_pos_as_xyz
  1  'x, y, z'
loop_
 _atom_site_type_symbol
 _atom_site_label
 _atom_site_symmetry_multiplicity
 _atom_site_fract_x
 _atom_site_fract_y
 _atom_site_fract_z
 _atom_site_occupancy
  Li  Li0  1  0.07948600  0.69686900  0.50265200  1
  Li  Li1  1  0.51769800  0.49802200  0.49906700  1
  Li  Li2  1  0.58029700  0.20493400  0.00012200  1
  Li  Li3  1  0.01670100  0.98472100  0.99685800  1
  Fe  Fe4  1  0.15618400  0.05424100  0.25277200  1
  Co  Co5  1  0.05023900  0.34914000  0.75016400  1
  Co  Co6  1  0.35200100  0.45190400  0.24817000  1
  Co  Co7  1  0.25005900  0.74860900  0.75162500  1
  Co  Co8  1  0.44872200  0.14897600  0.74855400  1
  Co  Co9  1  0.55276700  0.85010500  0.24983700  1
  Co  Co10  1  0.74912100  0.25026300  0.25117700  1
  Co  Co11  1  0.65010900  0.55053900  0.75148400  1
  Co  Co12  1  0.94835200  0.65122000  0.24850600  1
  Co  Co13  1  0.84962000  0.95072200  0.74813600  1
  O  O14  1  0.07108400  0.01481200  0.65167100  1
  O  O15  1  0.12919600  0.40396400  0.35325000  1
  O  O16  1  0.16420400  0.71254100  0.14745900  1
  O  O17  1  0.02863300  0.68477900  0.84807100  1
  O  O18  1  0.22753100  0.07168200  0.84805000  1
  O  O19  1  0.38199600  0.13236900  0.14739900  1
  O  O20  1  0.26840400  0.43188200  0.64896500  1
  O  O21  1  0.33847300  0.75699100  0.35522200  1
  O  O22  1  0.53019900  0.18488400  0.34758600  1
  O  O23  1  0.43447100  0.47276000  0.84764400  1
  O  O24  1  0.57220600  0.51664600  0.15219000  1
  O  O25  1  0.47051900  0.81170300  0.65311400  1
  O  O26  1  0.66688200  0.23103800  0.65216800  1
  O  O27  1  0.72987700  0.57552900  0.34734700  1
  O  O28  1  0.77031100  0.93100400  0.14854900  1
  O  O29  1  0.63119700  0.88210100  0.84650300  1
  O  O30  1  0.96089400  0.32825300  0.15051200  1
  O  O31  1  0.82932500  0.26883400  0.85057200  1
  O  O32  1  0.86989100  0.62634800  0.65309100  1
  O  O33  1  0.92255200  0.96364800  0.35123300  1
