# generated using pymatgen
data_Li3CoSiO5
_symmetry_space_group_name_H-M   'P 1'
_cell_length_a   4.95279700
_cell_length_b   5.48226100
_cell_length_c   15.73724000
_cell_angle_alpha   90.00000000
_cell_angle_beta   90.00000000
_cell_angle_gamma   90.00000000
_symmetry_Int_Tables_number   1
_chemical_formula_structural   Li3CoSiO5
_chemical_formula_sum   'Li12 Co4 Si4 O20'
_cell_volume   427.30581566
_cell_formula_units_Z   4
loop_
 _symmetry_equiv_pos_site_id
 _symmetry_equiv_pos_as_xyz
  1  'x, y, z'
loop_
 _atom_site_type_symbol
 _atom_site_label
 _atom_site_symmetry_multiplicity
 _atom_site_fract_x
 _atom_site_fract_y
 _atom_site_fract_z
 _atom_site_occupancy
  Li  Li0  1  0.99872300  0.16815800  0.09318800  1
  Li  Li1  1  0.99872300  0.66815800  0.40681200  1
  Li  Li2  1  0.50141100  0.83671100  0.49512500  1
  Li  Li3  1  0.50141100  0.33671100  0.00487500  1
  Li  Li4  1  0.50507900  0.82975200  0.30375400  1
  Li  Li5  1  0.50507900  0.32975200  0.19624600  1
  Li  Li6  1  0.49872300  0.83184200  0.90681200  1
  Li  Li7  1  0.49872300  0.33184200  0.59318800  1
  Li  Li8  1  0.00141100  0.16328900  0.50487500  1
  Li  Li9  1  0.00141100  0.66328900  0.99512500  1
  Li  Li10  1  0.00507900  0.67024800  0.80375400  1
  Li  Li11  1  0.00507900  0.17024800  0.69624600  1
  Co  Co12  1  0.99992700  0.67747000  0.19957600  1
  Co  Co13  1  0.99992700  0.17747000  0.30042400  1
  Co  Co14  1  0.49992700  0.82253000  0.69957600  1
  Co  Co15  1  0.49992700  0.32253000  0.80042400  1
  Si  Si16  1  0.00759900  0.66253000  0.59821200  1
  Si  Si17  1  0.00759900  0.16253000  0.90178800  1
  Si  Si18  1  0.50759900  0.83747000  0.09821200  1
  Si  Si19  1  0.50759900  0.33747000  0.40178800  1
  O  O20  1  0.09219900  0.84974400  0.29766400  1
  O  O21  1  0.09219900  0.34974400  0.20233600  1
  O  O22  1  0.10232500  0.87890300  0.89834000  1
  O  O23  1  0.10232500  0.37890300  0.60166000  1
  O  O24  1  0.10370600  0.81407900  0.51503100  1
  O  O25  1  0.10370600  0.31407900  0.98496900  1
  O  O26  1  0.11637900  0.80710700  0.68751600  1
  O  O27  1  0.11637900  0.30710700  0.81248400  1
  O  O28  1  0.16765400  0.82586600  0.10582100  1
  O  O29  1  0.16765400  0.32586600  0.39417900  1
  O  O30  1  0.59219900  0.15025600  0.70233600  1
  O  O31  1  0.59219900  0.65025600  0.79766400  1
  O  O32  1  0.60232500  0.12109700  0.10166000  1
  O  O33  1  0.60232500  0.62109700  0.39834000  1
  O  O34  1  0.60370600  0.68592100  0.01503100  1
  O  O35  1  0.60370600  0.18592100  0.48496900  1
  O  O36  1  0.61637900  0.69289300  0.18751600  1
  O  O37  1  0.61637900  0.19289300  0.31248400  1
  O  O38  1  0.66765400  0.67413400  0.60582100  1
  O  O39  1  0.66765400  0.17413400  0.89417900  1
