# generated using pymatgen
data_Li20Co21O40
_symmetry_space_group_name_H-M   'P 1'
_cell_length_a   28.82117330
_cell_length_b   15.23983801
_cell_length_c   9.96820508
_cell_angle_alpha   29.23866350
_cell_angle_beta   30.05788217
_cell_angle_gamma   19.18949310
_symmetry_Int_Tables_number   1
_chemical_formula_structural   Li20Co21O40
_chemical_formula_sum   'Li20 Co21 O40'
_cell_volume   679.15522899
_cell_formula_units_Z   1
loop_
 _symmetry_equiv_pos_site_id
 _symmetry_equiv_pos_as_xyz
  1  'x, y, z'
loop_
 _atom_site_type_symbol
 _atom_site_label
 _atom_site_symmetry_multiplicity
 _atom_site_fract_x
 _atom_site_fract_y
 _atom_site_fract_z
 _atom_site_occupancy
  Li  Li0  1  0.99770800  0.00546100  0.00111100  1
  Li  Li1  1  0.09696200  0.00338500  0.00208900  1
  Li  Li2  1  0.19800100  0.99816800  0.99899500  1
  Li  Li3  1  0.24865000  0.04319100  0.04048000  1
  Li  Li4  1  0.37984900  0.04887100  0.04518200  1
  Li  Li5  1  0.19320400  0.51874100  0.99560800  1
  Li  Li6  1  0.50541000  0.99637500  0.99663400  1
  Li  Li7  1  0.60398300  0.99433500  0.98901500  1
  Li  Li8  1  0.39551500  0.51608300  0.98916000  1
  Li  Li9  1  0.70593500  0.99632900  0.99144000  1
  Li  Li10  1  0.09217300  0.00199700  0.51848300  1
  Li  Li11  1  0.80304600  0.98909000  0.99929600  1
  Li  Li12  1  0.65769100  0.36960400  0.03121300  1
  Li  Li13  1  0.90792100  0.98926500  0.99707100  1
  Li  Li14  1  0.29595400  0.00031100  0.51742700  1
  Li  Li15  1  0.79993800  0.49789900  0.00355600  1
  Li  Li16  1  0.51894800  0.04196900  0.36635700  1
  Li  Li17  1  0.99064900  0.51662500  0.99897700  1
  Li  Li18  1  0.70066500  0.98823800  0.51551500  1
  Li  Li19  1  0.89852200  0.00408800  0.49990000  1
  Co  Co20  1  0.09747200  0.50313400  0.00286800  1
  Co  Co21  1  0.19694800  0.00461400  0.50295200  1
  Co  Co22  1  0.09882200  0.50301400  0.49753300  1
  Co  Co23  1  0.39632200  0.00642600  0.49810200  1
  Co  Co24  1  0.29874800  0.50283100  0.99827000  1
  Co  Co25  1  0.19905700  0.50189000  0.49790600  1
  Co  Co26  1  0.29824900  0.50329000  0.50040200  1
  Co  Co27  1  0.60004500  0.00129300  0.49823200  1
  Co  Co28  1  0.49670900  0.50383700  0.00257700  1
  Co  Co29  1  0.39757400  0.50451400  0.50004800  1
  Co  Co30  1  0.49990400  0.49968600  0.50206800  1
  Co  Co31  1  0.70163200  0.49431600  0.00565200  1
  Co  Co32  1  0.80001400  0.99918100  0.50238800  1
  Co  Co33  1  0.59875900  0.50101600  0.50274400  1
  Co  Co34  1  0.70245000  0.49656000  0.49705200  1
  Co  Co35  1  0.90272600  0.49704700  0.99718800  1
  Co  Co36  1  0.44998100  0.87412800  0.87670200  1
  Co  Co37  1  0.00300400  0.99646400  0.49650500  1
  Co  Co38  1  0.80463200  0.49250000  0.49755500  1
  Co  Co39  1  0.89932200  0.49933200  0.50318200  1
  Co  Co40  1  0.99814600  0.50273800  0.50166300  1
  O  O41  1  0.09413000  0.26235700  0.26343700  1
  O  O42  1  0.00415300  0.26111800  0.71850900  1
  O  O43  1  0.18330400  0.26574100  0.26504500  1
  O  O44  1  0.08790300  0.28347700  0.73464200  1
  O  O45  1  0.29393000  0.26460300  0.25790400  1
  O  O46  1  0.20021400  0.26777600  0.71616900  1
  O  O47  1  0.11330100  0.71735000  0.25962000  1
  O  O48  1  0.38512200  0.26468600  0.25768000  1
  O  O49  1  0.01441800  0.73687900  0.73831500  1
  O  O50  1  0.28391100  0.28690700  0.74148700  1
  O  O51  1  0.19741400  0.73553900  0.28163400  1
  O  O52  1  0.10446100  0.73690200  0.74285900  1
  O  O53  1  0.48679600  0.28183100  0.24668700  1
  O  O54  1  0.39150100  0.28152500  0.72844200  1
  O  O55  1  0.30875100  0.72105700  0.26606800  1
  O  O56  1  0.58214200  0.28146000  0.24967900  1
  O  O57  1  0.21015900  0.74527100  0.73931100  1
  O  O58  1  0.39137300  0.74448200  0.28943200  1
  O  O59  1  0.48565400  0.28632700  0.73738400  1
  O  O60  1  0.30333200  0.74134300  0.73936100  1
  O  O61  1  0.69597500  0.25643200  0.26866800  1
  O  O62  1  0.60340000  0.26123000  0.71850900  1
  O  O63  1  0.51277900  0.71654400  0.26381500  1
  O  O64  1  0.78636300  0.25990600  0.26545500  1
  O  O65  1  0.41032500  0.74429600  0.73768400  1
  O  O66  1  0.58692900  0.75594300  0.27538600  1
  O  O67  1  0.68329800  0.27540000  0.75475600  1
  O  O68  1  0.48822800  0.76032300  0.75112400  1
  O  O69  1  0.91073400  0.24337700  0.24340300  1
  O  O70  1  0.81677700  0.23739500  0.72416600  1
  O  O71  1  0.71813700  0.72439000  0.24212800  1
  O  O72  1  0.99072000  0.25620500  0.25786800  1
  O  O73  1  0.61906700  0.71224500  0.75617000  1
  O  O74  1  0.88789200  0.27914600  0.74323300  1
  O  O75  1  0.80636000  0.72236200  0.27499900  1
  O  O76  1  0.71020800  0.72192600  0.75534200  1
  O  O77  1  0.91161100  0.71930000  0.26196700  1
  O  O78  1  0.81321000  0.73949700  0.73886100  1
  O  O79  1  0.99440700  0.74190900  0.28166700  1
  O  O80  1  0.90580100  0.73988800  0.73425300  1
