# generated using pymatgen
data_Li2VSiO4
_symmetry_space_group_name_H-M   'P 1'
_cell_length_a   4.86432024
_cell_length_b   8.84814683
_cell_length_c   12.74088389
_cell_angle_alpha   108.32371906
_cell_angle_beta   99.53369768
_cell_angle_gamma   91.62035118
_symmetry_Int_Tables_number   1
_chemical_formula_structural   Li2VSiO4
_chemical_formula_sum   'Li12 V6 Si6 O24'
_cell_volume   511.48145853
_cell_formula_units_Z   6
loop_
 _symmetry_equiv_pos_site_id
 _symmetry_equiv_pos_as_xyz
  1  'x, y, z'
loop_
 _atom_site_type_symbol
 _atom_site_label
 _atom_site_symmetry_multiplicity
 _atom_site_fract_x
 _atom_site_fract_y
 _atom_site_fract_z
 _atom_site_occupancy
  Li  Li0  1  0.19306000  0.49546700  0.58746200  1
  Li  Li1  1  0.69305000  0.99548800  0.58741200  1
  Li  Li2  1  0.68998800  0.80762700  0.93726700  1
  Li  Li3  1  0.18990100  0.30754800  0.93721900  1
  Li  Li4  1  0.99994100  0.56076200  0.23372500  1
  Li  Li5  1  0.49997300  0.06081000  0.23370900  1
  Li  Li6  1  0.25015300  0.70845000  0.06192900  1
  Li  Li7  1  0.75008200  0.20847900  0.06196800  1
  Li  Li8  1  0.27188300  0.93358300  0.75298400  1
  Li  Li9  1  0.77206600  0.43358000  0.75303500  1
  Li  Li10  1  0.10488300  0.98635500  0.42550300  1
  Li  Li11  1  0.60505700  0.48636500  0.42552300  1
  V  V12  1  0.92025200  0.85532900  0.19677900  1
  V  V13  1  0.17926200  0.68361600  0.47302300  1
  V  V14  1  0.25213000  0.65003100  0.80500900  1
  V  V15  1  0.42003200  0.35543300  0.19678700  1
  V  V16  1  0.67896900  0.18395500  0.47313200  1
  V  V17  1  0.75153600  0.14991600  0.80498100  1
  Si  Si18  1  0.23009900  0.22668200  0.67183600  1
  Si  Si19  1  0.73020000  0.72664000  0.67185200  1
  Si  Si20  1  0.05197400  0.28069900  0.33188900  1
  Si  Si21  1  0.55190700  0.78070200  0.33188600  1
  Si  Si22  1  0.68796300  0.50655800  0.99998200  1
  Si  Si23  1  0.18799400  0.00661000  0.99997300  1
  O  O24  1  0.47192400  0.62169500  0.95540900  1
  O  O25  1  0.97188000  0.12168400  0.95540000  1
  O  O26  1  0.51661900  0.60588400  0.56071000  1
  O  O27  1  0.01653600  0.10596400  0.56067800  1
  O  O28  1  0.96524000  0.33331800  0.21852300  1
  O  O29  1  0.46505800  0.83328600  0.21845800  1
  O  O30  1  0.39745400  0.60633200  0.32417500  1
  O  O31  1  0.89754000  0.10630900  0.32418900  1
  O  O32  1  0.63600100  0.90900900  0.69785200  1
  O  O33  1  0.13601300  0.40904400  0.69786900  1
  O  O34  1  0.05469400  0.72062200  0.64506700  1
  O  O35  1  0.55465100  0.22062600  0.64506900  1
  O  O36  1  0.33030400  0.89558800  0.89675100  1
  O  O37  1  0.82987600  0.39538400  0.89667400  1
  O  O38  1  0.93576000  0.61678400  0.10335300  1
  O  O39  1  0.43554400  0.11689700  0.10338900  1
  O  O40  1  0.47405800  0.92267200  0.44009000  1
  O  O41  1  0.97429100  0.42262000  0.44020400  1
  O  O42  1  0.89586800  0.76775000  0.34860100  1
  O  O43  1  0.39593900  0.26782400  0.34864300  1
  O  O44  1  0.01457700  0.89259200  0.05195900  1
  O  O45  1  0.51455000  0.39268400  0.05204100  1
  O  O46  1  0.22659400  0.16244200  0.77999300  1
  O  O47  1  0.72663500  0.66227300  0.77997200  1
