# generated using pymatgen
data_Li4Mn3Cr2O10
_symmetry_space_group_name_H-M   'P 1'
_cell_length_a   5.12447509
_cell_length_b   5.22687385
_cell_length_c   7.79810539
_cell_angle_alpha   108.78392056
_cell_angle_beta   101.68566317
_cell_angle_gamma   100.74145550
_symmetry_Int_Tables_number   1
_chemical_formula_structural   Li4Mn3Cr2O10
_chemical_formula_sum   'Li4 Mn3 Cr2 O10'
_cell_volume   186.38201136
_cell_formula_units_Z   1
loop_
 _symmetry_equiv_pos_site_id
 _symmetry_equiv_pos_as_xyz
  1  'x, y, z'
loop_
 _atom_site_type_symbol
 _atom_site_label
 _atom_site_symmetry_multiplicity
 _atom_site_fract_x
 _atom_site_fract_y
 _atom_site_fract_z
 _atom_site_occupancy
  Li  Li0  1  0.22032358  0.95371510  0.44174212  1
  Li  Li1  1  0.50314877  0.48924628  0.50952694  1
  Li  Li2  1  0.60945369  0.72324168  0.22835165  1
  Li  Li3  1  0.79318221  0.08235404  0.59120603  1
  Mn  Mn4  1  0.99973550  0.49827053  0.99585443  1
  Mn  Mn5  1  0.69358245  0.88785001  0.89379325  1
  Mn  Mn6  1  0.30437985  0.10905878  0.10210329  1
  Cr  Cr7  1  0.10621649  0.69682673  0.69002819  1
  Cr  Cr8  1  0.89623237  0.30349885  0.30478232  1
  O  O9  1  0.03320437  0.06852129  0.85683343  1
  O  O10  1  0.34462328  0.73862454  0.95368385  1
  O  O11  1  0.11877560  0.31834861  0.54077095  1
  O  O12  1  0.23152390  0.46737618  0.22150796  1
  O  O13  1  0.46954747  0.87040338  0.66477845  1
  O  O14  1  0.53752815  0.11423714  0.33193131  1
  O  O15  1  0.77818745  0.53761293  0.77202322  1
  O  O16  1  0.87394838  0.68611909  0.45026563  1
  O  O17  1  0.67457522  0.27341458  0.04449852  1
  O  O18  1  0.92458627  0.90771028  0.13685047  1
