# generated using pymatgen
data_Li3CoPCO7
_symmetry_space_group_name_H-M   'P 1'
_cell_length_a   4.97759100
_cell_length_b   8.44071889
_cell_length_c   12.92155014
_cell_angle_alpha   90.30907299
_cell_angle_beta   90.05161767
_cell_angle_gamma   94.94332316
_symmetry_Int_Tables_number   1
_chemical_formula_structural   Li3CoPCO7
_chemical_formula_sum   'Li12 Co4 P4 C4 O28'
_cell_volume   540.86407114
_cell_formula_units_Z   4
loop_
 _symmetry_equiv_pos_site_id
 _symmetry_equiv_pos_as_xyz
  1  'x, y, z'
loop_
 _atom_site_type_symbol
 _atom_site_label
 _atom_site_symmetry_multiplicity
 _atom_site_fract_x
 _atom_site_fract_y
 _atom_site_fract_z
 _atom_site_occupancy
  Li  Li0  1  0.23509100  0.09790800  0.12481700  1
  Li  Li1  1  0.23159300  0.10148000  0.62946400  1
  Li  Li2  1  0.75232700  0.27891600  0.51499100  1
  Li  Li3  1  0.74818200  0.27306800  0.24770100  1
  Li  Li4  1  0.76463400  0.28055700  0.74008600  1
  Li  Li5  1  0.22124700  0.34782200  0.86880000  1
  Li  Li6  1  0.24522100  0.71898300  0.98161800  1
  Li  Li7  1  0.24734000  0.72096200  0.26401300  1
  Li  Li8  1  0.25002800  0.72465200  0.49325300  1
  Li  Li9  1  0.24931900  0.71999500  0.76292500  1
  Li  Li10  1  0.76630900  0.90213400  0.37828000  1
  Li  Li11  1  0.76560000  0.90082500  0.87098000  1
  Co  Co12  1  0.75380300  0.26123200  0.99658800  1
  Co  Co13  1  0.20886900  0.33235600  0.37632800  1
  Co  Co14  1  0.79345100  0.66637300  0.12449600  1
  Co  Co15  1  0.79162000  0.66679300  0.62561700  1
  P  P16  1  0.27310000  0.41272300  0.12374100  1
  P  P17  1  0.27736500  0.41152100  0.62584000  1
  P  P18  1  0.71983800  0.58690100  0.37414400  1
  P  P19  1  0.71523600  0.58622700  0.87679000  1
  C  C20  1  0.29840500  0.03715000  0.37304600  1
  C  C21  1  0.29530900  0.04027500  0.88145200  1
  C  C22  1  0.70281600  0.96165300  0.62471400  1
  C  C23  1  0.70477500  0.96257600  0.12278000  1
  O  O24  1  0.04682100  0.07074900  0.88188500  1
  O  O25  1  0.05123700  0.07281000  0.37381800  1
  O  O26  1  0.64440400  0.11199900  0.11757900  1
  O  O27  1  0.63803800  0.10677200  0.62507100  1
  O  O28  1  0.48899500  0.15398300  0.37058000  1
  O  O29  1  0.48742900  0.15657500  0.88533600  1
  O  O30  1  0.17326800  0.30816000  0.53042100  1
  O  O31  1  0.15677100  0.30992200  0.03140100  1
  O  O32  1  0.17939500  0.31025700  0.21933700  1
  O  O33  1  0.17608500  0.30952300  0.71838500  1
  O  O34  1  0.82563300  0.42035400  0.37409800  1
  O  O35  1  0.82203100  0.41917700  0.87635200  1
  O  O36  1  0.59282700  0.43340600  0.62362700  1
  O  O37  1  0.58945400  0.42789000  0.11679300  1
  O  O38  1  0.40608200  0.56710800  0.37353300  1
  O  O39  1  0.40521300  0.57169800  0.87700200  1
  O  O40  1  0.17714000  0.58127300  0.12677400  1
  O  O41  1  0.17199800  0.57920500  0.62430200  1
  O  O42  1  0.82546700  0.69193200  0.46752200  1
  O  O43  1  0.82390900  0.68992600  0.28001100  1
  O  O44  1  0.82755300  0.68765800  0.78298200  1
  O  O45  1  0.82754100  0.69087000  0.97040200  1
  O  O46  1  0.51234600  0.85057100  0.12564900  1
  O  O47  1  0.51418800  0.84307600  0.62476500  1
  O  O48  1  0.36062600  0.89128700  0.37472300  1
  O  O49  1  0.36219000  0.89443900  0.87457700  1
  O  O50  1  0.95124700  0.92923200  0.12600800  1
  O  O51  1  0.95063900  0.92706800  0.62460400  1
