# generated using pymatgen
data_Li3Fe3TeO8
_symmetry_space_group_name_H-M   'P 1'
_cell_length_a   6.08894305
_cell_length_b   6.08894305
_cell_length_c   6.10394822
_cell_angle_alpha   61.30571091
_cell_angle_beta   61.30571091
_cell_angle_gamma   60.43957337
_symmetry_Int_Tables_number   1
_chemical_formula_structural   Li3Fe3TeO8
_chemical_formula_sum   'Li3 Fe3 Te1 O8'
_cell_volume   163.66326056
_cell_formula_units_Z   1
loop_
 _symmetry_equiv_pos_site_id
 _symmetry_equiv_pos_as_xyz
  1  'x, y, z'
loop_
 _atom_site_type_symbol
 _atom_site_label
 _atom_site_symmetry_multiplicity
 _atom_site_fract_x
 _atom_site_fract_y
 _atom_site_fract_z
 _atom_site_occupancy
  Li  Li0  1  0.00000000  0.50000000  0.50000000  1
  Li  Li1  1  0.50000000  0.00000000  0.50000000  1
  Li  Li2  1  0.00000000  0.00000000  0.00000000  1
  Fe  Fe3  1  0.50000000  0.00000000  0.00000000  1
  Fe  Fe4  1  0.00000000  0.50000000  0.00000000  1
  Fe  Fe5  1  0.50000000  0.50000000  0.50000000  1
  Te  Te6  1  0.00000000  0.00000000  0.50000000  1
  O  O7  1  0.72888400  0.72888400  0.25343500  1
  O  O8  1  0.23483100  0.77191400  0.72035100  1
  O  O9  1  0.77191400  0.23483100  0.72035100  1
  O  O10  1  0.27111600  0.27111600  0.74656500  1
  O  O11  1  0.22184200  0.22184200  0.28021800  1
  O  O12  1  0.76516900  0.22808600  0.27964900  1
  O  O13  1  0.22808600  0.76516900  0.27964900  1
  O  O14  1  0.77815800  0.77815800  0.71978200  1
