# generated using pymatgen
data_Li2Ti3CoO8
_symmetry_space_group_name_H-M   'P 1'
_cell_length_a   5.94284617
_cell_length_b   5.94406404
_cell_length_c   9.76246622
_cell_angle_alpha   89.99550011
_cell_angle_beta   90.02447732
_cell_angle_gamma   120.00418322
_symmetry_Int_Tables_number   1
_chemical_formula_structural   Li2Ti3CoO8
_chemical_formula_sum   'Li4 Ti6 Co2 O16'
_cell_volume   298.64124760
_cell_formula_units_Z   2
loop_
 _symmetry_equiv_pos_site_id
 _symmetry_equiv_pos_as_xyz
  1  'x, y, z'
loop_
 _atom_site_type_symbol
 _atom_site_label
 _atom_site_symmetry_multiplicity
 _atom_site_fract_x
 _atom_site_fract_y
 _atom_site_fract_z
 _atom_site_occupancy
  Li  Li0  1  0.33344800  0.66665700  0.88959700  1
  Li  Li1  1  0.00010800  0.99997700  0.99860800  1
  Li  Li2  1  0.99960400  0.99991600  0.49910400  1
  Li  Li3  1  0.66666000  0.33329300  0.39010600  1
  Ti  Ti4  1  0.16942000  0.83182300  0.21565200  1
  Ti  Ti5  1  0.16940700  0.33779800  0.21558400  1
  Ti  Ti6  1  0.66254500  0.83119300  0.21477500  1
  Ti  Ti7  1  0.33760000  0.16895800  0.71489700  1
  Ti  Ti8  1  0.83111900  0.66293500  0.71548100  1
  Ti  Ti9  1  0.83096200  0.16850900  0.71576100  1
  Co  Co10  1  0.32979100  0.66438300  0.49220100  1
  Co  Co11  1  0.66708200  0.33301000  0.99506800  1
  O  O12  1  0.15848200  0.84218100  0.60709100  1
  O  O13  1  0.03568000  0.51790300  0.32853600  1
  O  O14  1  0.33300700  0.66662200  0.10473800  1
  O  O15  1  0.99998600  0.00015400  0.31492900  1
  O  O16  1  0.00020800  0.00022800  0.81517500  1
  O  O17  1  0.15865600  0.31658300  0.60696500  1
  O  O18  1  0.48226000  0.96470900  0.32846000  1
  O  O19  1  0.48241000  0.51785000  0.32842200  1
  O  O20  1  0.31629400  0.15818800  0.10686100  1
  O  O21  1  0.68382100  0.84203000  0.60697500  1
  O  O22  1  0.51783700  0.48258900  0.82825700  1
  O  O23  1  0.51783700  0.03504700  0.82831800  1
  O  O24  1  0.66680900  0.33346300  0.60444200  1
  O  O25  1  0.84162700  0.68361400  0.10685900  1
  O  O26  1  0.96546700  0.48270000  0.82819600  1
  O  O27  1  0.84187200  0.15799100  0.10677700  1
