# generated using pymatgen
data_Li4Cr3Co2Sn3O16
_symmetry_space_group_name_H-M   'P 1'
_cell_length_a   6.07585700
_cell_length_b   6.10061373
_cell_length_c   9.65567840
_cell_angle_alpha   89.76990300
_cell_angle_beta   90.77616531
_cell_angle_gamma   119.81735970
_symmetry_Int_Tables_number   1
_chemical_formula_structural   Li4Cr3Co2Sn3O16
_chemical_formula_sum   'Li4 Cr3 Co2 Sn3 O16'
_cell_volume   310.49088177
_cell_formula_units_Z   1
loop_
 _symmetry_equiv_pos_site_id
 _symmetry_equiv_pos_as_xyz
  1  'x, y, z'
loop_
 _atom_site_type_symbol
 _atom_site_label
 _atom_site_symmetry_multiplicity
 _atom_site_fract_x
 _atom_site_fract_y
 _atom_site_fract_z
 _atom_site_occupancy
  Li  Li0  1  0.66924800  0.34344100  0.89125600  1
  Li  Li1  1  0.98461200  0.97000100  0.99236000  1
  Li  Li2  1  0.98604300  0.97737400  0.50002000  1
  Li  Li3  1  0.33569100  0.67211100  0.39881300  1
  Cr  Cr4  1  0.83048200  0.66146800  0.21386000  1
  Cr  Cr5  1  0.17306900  0.83764600  0.71140800  1
  Cr  Cr6  1  0.65694600  0.82899000  0.71618300  1
  Co  Co7  1  0.67934300  0.33566700  0.48987100  1
  Co  Co8  1  0.33596600  0.67640700  0.98595200  1
  Sn  Sn9  1  0.33805100  0.16992200  0.21261000  1
  Sn  Sn10  1  0.83360200  0.17170800  0.21281000  1
  Sn  Sn11  1  0.16892200  0.33969000  0.71439000  1
  O  O12  1  0.31955100  0.14674700  0.60088000  1
  O  O13  1  0.52267300  0.04067300  0.34634000  1
  O  O14  1  0.67005800  0.34384500  0.09766500  1
  O  O15  1  0.99688100  0.99068300  0.31521300  1
  O  O16  1  0.99773100  0.99279700  0.80920900  1
  O  O17  1  0.82964200  0.15939300  0.59563300  1
  O  O18  1  0.52955200  0.48653400  0.34482700  1
  O  O19  1  0.96595100  0.49027300  0.34145600  1
  O  O20  1  0.15774600  0.31817100  0.09194900  1
  O  O21  1  0.84656900  0.66901800  0.61219100  1
  O  O22  1  0.04821400  0.54059600  0.84331500  1
  O  O23  1  0.48836000  0.53383600  0.84382100  1
  O  O24  1  0.33353900  0.67453100  0.60426700  1
  O  O25  1  0.16148300  0.83176900  0.09856000  1
  O  O26  1  0.47197100  0.96369600  0.82617700  1
  O  O27  1  0.66780300  0.83301400  0.09680400  1
