# generated using pymatgen
data_Li5Fe8(BO3)8
_symmetry_space_group_name_H-M   'P 1'
_cell_length_a   5.27555800
_cell_length_b   9.06114675
_cell_length_c   10.10845595
_cell_angle_alpha   90.73669570
_cell_angle_beta   91.70247850
_cell_angle_gamma   90.49689253
_symmetry_Int_Tables_number   1
_chemical_formula_structural   Li5Fe8(BO3)8
_chemical_formula_sum   'Li5 Fe8 B8 O24'
_cell_volume   482.93748628
_cell_formula_units_Z   1
loop_
 _symmetry_equiv_pos_site_id
 _symmetry_equiv_pos_as_xyz
  1  'x, y, z'
loop_
 _atom_site_type_symbol
 _atom_site_label
 _atom_site_symmetry_multiplicity
 _atom_site_fract_x
 _atom_site_fract_y
 _atom_site_fract_z
 _atom_site_occupancy
  Li  Li0  1  0.65178300  0.00584000  0.07922300  1
  Li  Li1  1  0.15415500  0.49908000  0.08703700  1
  Li  Li2  1  0.83851500  0.48918400  0.34958200  1
  Li  Li3  1  0.33642800  0.99478600  0.34735000  1
  Li  Li4  1  0.65678700  0.00071200  0.59933800  1
  Fe  Fe5  1  0.15901700  0.16203400  0.11711600  1
  Fe  Fe6  1  0.83994800  0.16080500  0.37278800  1
  Fe  Fe7  1  0.33651600  0.33294300  0.85844300  1
  Fe  Fe8  1  0.67215400  0.34764400  0.62419900  1
  Fe  Fe9  1  0.33298600  0.66168500  0.37391600  1
  Fe  Fe10  1  0.15916900  0.83722700  0.62602800  1
  Fe  Fe11  1  0.65864500  0.65840900  0.11642600  1
  Fe  Fe12  1  0.84164800  0.83143400  0.86670000  1
  B  B13  1  0.16477000  0.16425300  0.62030200  1
  B  B14  1  0.34175400  0.33325600  0.36872600  1
  B  B15  1  0.83435500  0.16862600  0.87295300  1
  B  B16  1  0.66246300  0.32981000  0.12321900  1
  B  B17  1  0.33292500  0.66630400  0.87541600  1
  B  B18  1  0.66402200  0.67407700  0.61767400  1
  B  B19  1  0.16418100  0.83130500  0.12702900  1
  B  B20  1  0.82408800  0.82634800  0.37225800  1
  O  O21  1  0.30215100  0.03699900  0.60499700  1
  O  O22  1  0.08845800  0.18754100  0.90946500  1
  O  O23  1  0.72631700  0.02962400  0.88115900  1
  O  O24  1  0.21625900  0.20190300  0.33549100  1
  O  O25  1  0.28641400  0.29440400  0.66477000  1
  O  O26  1  0.77424900  0.19467100  0.15369000  1
  O  O27  1  0.90523700  0.16489200  0.58850700  1
  O  O28  1  0.41026700  0.33427300  0.07813200  1
  O  O29  1  0.20696500  0.46481400  0.36042500  1
  O  O30  1  0.59657000  0.33591500  0.40533800  1
  O  O31  1  0.69132600  0.28906700  0.83693700  1
  O  O32  1  0.22498600  0.53033200  0.88919500  1
  O  O33  1  0.80265500  0.45887800  0.14167800  1
  O  O34  1  0.27202700  0.69561500  0.16427600  1
  O  O35  1  0.41535800  0.68488600  0.56546100  1
  O  O36  1  0.79766500  0.55018300  0.61577500  1
  O  O37  1  0.58693900  0.68849700  0.91236800  1
  O  O38  1  0.08539700  0.82250900  0.39847200  1
  O  O39  1  0.19172900  0.78678600  0.83443100  1
  O  O40  1  0.69803400  0.69473900  0.33456000  1
  O  O41  1  0.77333900  0.80956300  0.66744400  1
  O  O42  1  0.30621500  0.95879100  0.14119700  1
  O  O43  1  0.91269700  0.83370600  0.07919100  1
  O  O44  1  0.69354600  0.95497100  0.38574600  1
