# generated using pymatgen
data_Li6Cr3Sb(PO4)6
_symmetry_space_group_name_H-M   'P 1'
_cell_length_a   8.47321600
_cell_length_b   8.52242715
_cell_length_c   8.52489411
_cell_angle_alpha   63.33039754
_cell_angle_beta   63.48068337
_cell_angle_gamma   63.21577082
_symmetry_Int_Tables_number   1
_chemical_formula_structural   Li6Cr3Sb(PO4)6
_chemical_formula_sum   'Li6 Cr3 Sb1 P6 O24'
_cell_volume   467.50511179
_cell_formula_units_Z   1
loop_
 _symmetry_equiv_pos_site_id
 _symmetry_equiv_pos_as_xyz
  1  'x, y, z'
loop_
 _atom_site_type_symbol
 _atom_site_label
 _atom_site_symmetry_multiplicity
 _atom_site_fract_x
 _atom_site_fract_y
 _atom_site_fract_z
 _atom_site_occupancy
  Li  Li0  1  0.02216000  0.99709300  0.99436400  1
  Li  Li1  1  0.75620200  0.13246300  0.34295100  1
  Li  Li2  1  0.46435500  0.50374600  0.50058100  1
  Li  Li3  1  0.27680600  0.83173900  0.63845300  1
  Li  Li4  1  0.63682700  0.28092600  0.82329400  1
  Li  Li5  1  0.82626200  0.63601500  0.28102200  1
  Cr  Cr6  1  0.13709200  0.14506400  0.13773400  1
  Cr  Cr7  1  0.35906300  0.35444600  0.35049500  1
  Cr  Cr8  1  0.64689600  0.65245000  0.65001000  1
  Sb  Sb9  1  0.84779800  0.84442000  0.84605100  1
  P  P10  1  0.06674000  0.75455000  0.43485400  1
  P  P11  1  0.43366800  0.06925600  0.75464900  1
  P  P12  1  0.75217100  0.44046700  0.06208300  1
  P  P13  1  0.25778500  0.53619900  0.95267300  1
  P  P14  1  0.54116900  0.95729900  0.25730000  1
  P  P15  1  0.95005800  0.25562000  0.53277400  1
  O  O16  1  0.12531100  0.29707000  0.47957200  1
  O  O17  1  0.32429700  0.49636700  0.10765700  1
  O  O18  1  0.05542500  0.91743100  0.25287200  1
  O  O19  1  0.53591600  0.11144100  0.30756000  1
  O  O20  1  0.24255300  0.59013400  0.40673500  1
  O  O21  1  0.08246100  0.81067100  0.57562200  1
  O  O22  1  0.24635500  0.07310700  0.90833900  1
  O  O23  1  0.42062800  0.24464600  0.58507600  1
  O  O24  1  0.59441500  0.41325900  0.24779400  1
  O  O25  1  0.18673700  0.38699400  0.98296800  1
  O  O26  1  0.11090500  0.73798200  0.92052900  1
  O  O27  1  0.37534200  0.00674900  0.20034100  1
  O  O28  1  0.57733600  0.07496000  0.81627600  1
  O  O29  1  0.90107500  0.24626000  0.07254800  1
  O  O30  1  0.81652800  0.57990600  0.06840900  1
  O  O31  1  0.42425900  0.54872800  0.76450700  1
  O  O32  1  0.54381500  0.77396400  0.42757800  1
  O  O33  1  0.73846100  0.90978800  0.11019500  1
  O  O34  1  0.95455000  0.19331100  0.38630500  1
  O  O35  1  0.77098300  0.43111900  0.54625800  1
  O  O36  1  0.49306000  0.89092300  0.70620100  1
  O  O37  1  0.91852800  0.11214900  0.73337000  1
  O  O38  1  0.70288700  0.49805900  0.88666100  1
  O  O39  1  0.88311900  0.71223100  0.49833800  1
