# generated using pymatgen
data_Li4(NiO2)11
_symmetry_space_group_name_H-M   'P 1'
_cell_length_a   7.41524500
_cell_length_b   7.63998179
_cell_length_c   7.74996572
_cell_angle_alpha   82.77328705
_cell_angle_beta   111.16969566
_cell_angle_gamma   113.81065003
_symmetry_Int_Tables_number   1
_chemical_formula_structural   Li4(NiO2)11
_chemical_formula_sum   'Li4 Ni11 O22'
_cell_volume   374.47289961
_cell_formula_units_Z   1
loop_
 _symmetry_equiv_pos_site_id
 _symmetry_equiv_pos_as_xyz
  1  'x, y, z'
loop_
 _atom_site_type_symbol
 _atom_site_label
 _atom_site_symmetry_multiplicity
 _atom_site_fract_x
 _atom_site_fract_y
 _atom_site_fract_z
 _atom_site_occupancy
  Li  Li0  1  0.30698400  0.94825400  0.55872900  1
  Li  Li1  1  0.15410800  0.39644200  0.09931500  1
  Li  Li2  1  0.84589200  0.60355800  0.90068500  1
  Li  Li3  1  0.69301600  0.05174600  0.44127100  1
  Ni  Ni4  1  0.45336100  0.36376000  0.63296100  1
  Ni  Ni5  1  0.36780000  0.09767400  0.91357000  1
  Ni  Ni6  1  0.63220000  0.90232600  0.08643000  1
  Ni  Ni7  1  0.18039100  0.54687800  0.45152900  1
  Ni  Ni8  1  0.54663900  0.63624000  0.36703900  1
  Ni  Ni9  1  0.09027600  0.27352500  0.72591700  1
  Ni  Ni10  1  0.26941500  0.81726900  0.17951500  1
  Ni  Ni11  1  0.81960900  0.45312200  0.54847100  1
  Ni  Ni12  1  0.73058500  0.18273100  0.82048500  1
  Ni  Ni13  1  0.00000000  0.00000000  0.00000000  1
  Ni  Ni14  1  0.90972400  0.72647500  0.27408300  1
  O  O15  1  0.57136200  0.21394700  0.57415200  1
  O  O16  1  0.61293000  0.33615400  0.87318700  1
  O  O17  1  0.49646500  0.03114200  0.15679500  1
  O  O18  1  0.68225200  0.51364300  0.29615400  1
  O  O19  1  0.23227600  0.14773100  0.66514900  1
  O  O20  1  0.31774800  0.48635700  0.70384600  1
  O  O21  1  0.50353500  0.96885800  0.84320500  1
  O  O22  1  0.22399900  0.22149600  0.97329300  1
  O  O23  1  0.38707000  0.66384600  0.12681300  1
  O  O24  1  0.93734600  0.30942800  0.48626000  1
  O  O25  1  0.31745900  0.42014400  0.38689300  1
  O  O26  1  0.06265400  0.69057200  0.51374000  1
  O  O27  1  0.42863800  0.78605300  0.42584800  1
  O  O28  1  0.95653400  0.40256700  0.79433400  1
  O  O29  1  0.11542300  0.85319800  0.93897500  1
  O  O30  1  0.88457700  0.14680200  0.06102500  1
  O  O31  1  0.04346600  0.59743300  0.20566600  1
  O  O32  1  0.13665800  0.95009400  0.24479100  1
  O  O33  1  0.68254100  0.57985600  0.61310700  1
  O  O34  1  0.86334200  0.04990600  0.75520900  1
  O  O35  1  0.77600100  0.77850400  0.02670700  1
  O  O36  1  0.76772400  0.85226900  0.33485100  1
