# generated using pymatgen
data_Li7Fe8(BO3)8
_symmetry_space_group_name_H-M   'P 1'
_cell_length_a   5.25888100
_cell_length_b   9.00237534
_cell_length_c   10.23189454
_cell_angle_alpha   90.17037267
_cell_angle_beta   92.00774372
_cell_angle_gamma   90.04936321
_symmetry_Int_Tables_number   1
_chemical_formula_structural   Li7Fe8(BO3)8
_chemical_formula_sum   'Li7 Fe8 B8 O24'
_cell_volume   484.10291449
_cell_formula_units_Z   1
loop_
 _symmetry_equiv_pos_site_id
 _symmetry_equiv_pos_as_xyz
  1  'x, y, z'
loop_
 _atom_site_type_symbol
 _atom_site_label
 _atom_site_symmetry_multiplicity
 _atom_site_fract_x
 _atom_site_fract_y
 _atom_site_fract_z
 _atom_site_occupancy
  Li  Li0  1  0.33639700  0.01028800  0.83457400  1
  Li  Li1  1  0.65919800  0.00906000  0.08633000  1
  Li  Li2  1  0.14885600  0.49014400  0.57777600  1
  Li  Li3  1  0.15717500  0.50322500  0.08983200  1
  Li  Li4  1  0.83422600  0.50693300  0.84220900  1
  Li  Li5  1  0.33735900  0.98994700  0.33675500  1
  Li  Li6  1  0.66133900  0.99703900  0.58302500  1
  Fe  Fe7  1  0.16222800  0.16516800  0.11601000  1
  Fe  Fe8  1  0.84816600  0.17735400  0.36508500  1
  Fe  Fe9  1  0.34151200  0.33764900  0.86633400  1
  Fe  Fe10  1  0.66172800  0.33615900  0.61620500  1
  Fe  Fe11  1  0.33868700  0.64993400  0.36774400  1
  Fe  Fe12  1  0.16225500  0.83714700  0.61177600  1
  Fe  Fe13  1  0.66416800  0.67036700  0.12401300  1
  Fe  Fe14  1  0.84474900  0.83556700  0.86356900  1
  B  B15  1  0.16226600  0.16837100  0.62708800  1
  B  B16  1  0.33238800  0.32528600  0.37462100  1
  B  B17  1  0.83241800  0.16561400  0.87546500  1
  B  B18  1  0.65855900  0.34075800  0.11831800  1
  B  B19  1  0.33118900  0.67046200  0.88323900  1
  B  B20  1  0.66155400  0.66834700  0.62496100  1
  B  B21  1  0.17117700  0.82715700  0.12474300  1
  B  B22  1  0.83191700  0.83822900  0.36260100  1
  O  O23  1  0.31120500  0.03980700  0.63694900  1
  O  O24  1  0.09402900  0.15980100  0.90339800  1
  O  O25  1  0.68562600  0.03852500  0.89042500  1
  O  O26  1  0.21815300  0.19251200  0.32844100  1
  O  O27  1  0.27510700  0.30495600  0.65723700  1
  O  O28  1  0.77753700  0.20656200  0.14967200  1
  O  O29  1  0.90832000  0.15859600  0.58925900  1
  O  O30  1  0.40052000  0.34214800  0.08427100  1
  O  O31  1  0.18845000  0.45204500  0.38432900  1
  O  O32  1  0.58399400  0.32266100  0.41485300  1
  O  O33  1  0.71770600  0.29866300  0.83699100  1
  O  O34  1  0.18858300  0.54316600  0.88786500  1
  O  O35  1  0.79834500  0.47172000  0.11705500  1
  O  O36  1  0.29195900  0.69072900  0.14869700  1
  O  O37  1  0.40766100  0.66170600  0.58180500  1
  O  O38  1  0.80467400  0.54127200  0.64439500  1
  O  O39  1  0.59248000  0.67051800  0.92755500  1
  O  O40  1  0.09025000  0.83134800  0.39734500  1
  O  O41  1  0.22482800  0.80175300  0.83642800  1
  O  O42  1  0.70276800  0.71130400  0.30789900  1
  O  O43  1  0.77616400  0.80579100  0.65406000  1
  O  O44  1  0.30589000  0.95726800  0.13437800  1
  O  O45  1  0.91124000  0.82757400  0.08906900  1
  O  O46  1  0.68909100  0.96252300  0.38522900  1
