# generated using pymatgen
data_LiZn4Fe13O24
_symmetry_space_group_name_H-M   'P 1'
_cell_length_a   6.05944437
_cell_length_b   6.05944437
_cell_length_c   14.81432128
_cell_angle_alpha   89.74260970
_cell_angle_beta   89.74260970
_cell_angle_gamma   59.98285486
_symmetry_Int_Tables_number   1
_chemical_formula_structural   LiZn4Fe13O24
_chemical_formula_sum   'Li1 Zn4 Fe13 O24'
_cell_volume   470.97417726
_cell_formula_units_Z   1
loop_
 _symmetry_equiv_pos_site_id
 _symmetry_equiv_pos_as_xyz
  1  'x, y, z'
loop_
 _atom_site_type_symbol
 _atom_site_label
 _atom_site_symmetry_multiplicity
 _atom_site_fract_x
 _atom_site_fract_y
 _atom_site_fract_z
 _atom_site_occupancy
  Li  Li0  1  0.00073300  0.00073300  0.24997400  1
  Zn  Zn1  1  0.66817300  0.66817300  0.95878900  1
  Zn  Zn2  1  0.83393200  0.83393200  0.79214100  1
  Zn  Zn3  1  0.16374900  0.16374900  0.45640100  1
  Zn  Zn4  1  0.99962500  0.99962500  0.62422400  1
  Fe  Fe5  1  0.00132200  0.00132200  0.00429600  1
  Fe  Fe6  1  0.33321900  0.83436100  0.79183100  1
  Fe  Fe7  1  0.33065700  0.33065700  0.91248800  1
  Fe  Fe8  1  0.33821600  0.33821600  0.66662600  1
  Fe  Fe9  1  0.16190400  0.67149900  0.45772600  1
  Fe  Fe10  1  0.83436100  0.33321900  0.79183100  1
  Fe  Fe11  1  0.00491500  0.49823900  0.12695900  1
  Fe  Fe12  1  0.67149900  0.16190400  0.45772600  1
  Fe  Fe13  1  0.66084900  0.66084900  0.58295200  1
  Fe  Fe14  1  0.49792400  0.49792400  0.12651400  1
  Fe  Fe15  1  0.33373900  0.33373900  0.28764600  1
  Fe  Fe16  1  0.66943700  0.66943700  0.33391500  1
  Fe  Fe17  1  0.49823900  0.00491500  0.12695900  1
  O  O18  1  0.68164600  0.16899900  0.71294800  1
  O  O19  1  0.49886600  0.98489000  0.87210900  1
  O  O20  1  0.66175200  0.66175200  0.71580300  1
  O  O21  1  0.50687000  0.50687000  0.87010700  1
  O  O22  1  0.33602500  0.33602500  0.53451600  1
  O  O23  1  0.16225500  0.16225500  0.71470500  1
  O  O24  1  0.00572600  0.00572600  0.87182100  1
  O  O25  1  0.01922000  0.49771200  0.37356900  1
  O  O26  1  0.16899900  0.68164600  0.71294800  1
  O  O27  1  0.18264700  0.63547800  0.20214700  1
  O  O28  1  0.82794100  0.32056000  0.53841600  1
  O  O29  1  0.98489000  0.49886600  0.87210900  1
  O  O30  1  0.32056000  0.82794100  0.53841600  1
  O  O31  1  0.18354800  0.18354800  0.20338300  1
  O  O32  1  0.83487100  0.83487100  0.53653700  1
  O  O33  1  0.99320100  0.99320100  0.38858200  1
  O  O34  1  0.66725500  0.66725500  0.20097100  1
  O  O35  1  0.49075200  0.49075200  0.37601400  1
  O  O36  1  0.82693900  0.82693900  0.04793700  1
  O  O37  1  0.34859600  0.82823600  0.04845200  1
  O  O38  1  0.49771200  0.01922000  0.37356900  1
  O  O39  1  0.82823600  0.34859600  0.04845200  1
  O  O40  1  0.63547800  0.18264700  0.20214700  1
  O  O41  1  0.33352200  0.33352200  0.04533900  1
