# generated using pymatgen
data_Li24Ti7Cr5O36
_symmetry_space_group_name_H-M   'P 1'
_cell_length_a   5.06340600
_cell_length_b   5.06743807
_cell_length_c   28.97833371
_cell_angle_alpha   89.89974416
_cell_angle_beta   89.90235624
_cell_angle_gamma   60.10200532
_symmetry_Int_Tables_number   1
_chemical_formula_structural   Li24Ti7Cr5O36
_chemical_formula_sum   'Li24 Ti7 Cr5 O36'
_cell_volume   644.58450424
_cell_formula_units_Z   1
loop_
 _symmetry_equiv_pos_site_id
 _symmetry_equiv_pos_as_xyz
  1  'x, y, z'
loop_
 _atom_site_type_symbol
 _atom_site_label
 _atom_site_symmetry_multiplicity
 _atom_site_fract_x
 _atom_site_fract_y
 _atom_site_fract_z
 _atom_site_occupancy
  Li  Li0  1  0.83599000  0.49365500  0.66667800  1
  Li  Li1  1  0.83323400  0.50019000  0.91673500  1
  Li  Li2  1  0.50185100  0.82216500  0.83305400  1
  Li  Li3  1  0.16935600  0.50047800  0.33333500  1
  Li  Li4  1  0.16333700  0.50186600  0.58336700  1
  Li  Li5  1  0.16610900  0.49704300  0.83321600  1
  Li  Li6  1  0.83500600  0.82512400  0.49980300  1
  Li  Li7  1  0.50061200  0.49641000  0.00020200  1
  Li  Li8  1  0.49750300  0.49860000  0.24998300  1
  Li  Li9  1  0.50562700  0.49361800  0.49985100  1
  Li  Li10  1  0.15733200  0.17676700  0.99999300  1
  Li  Li11  1  0.16466900  0.81963800  0.16646100  1
  Li  Li12  1  0.83339000  0.49998800  0.16665700  1
  Li  Li13  1  0.17073400  0.82747800  0.66684500  1
  Li  Li14  1  0.49444400  0.17596600  0.66649600  1
  Li  Li15  1  0.51214600  0.82390500  0.33367700  1
  Li  Li16  1  0.81756000  0.17709900  0.33304100  1
  Li  Li17  1  0.83236000  0.18073000  0.83328900  1
  Li  Li18  1  0.84281300  0.82527600  0.00048700  1
  Li  Li19  1  0.50210500  0.50198600  0.74998800  1
  Li  Li20  1  0.16056000  0.17931900  0.50001200  1
  Li  Li21  1  0.82997500  0.50176900  0.41666600  1
  Li  Li22  1  0.50194400  0.18038800  0.16684200  1
  Li  Li23  1  0.16894200  0.50155800  0.08335800  1
  Ti  Ti24  1  0.83066300  0.83195600  0.74984300  1
  Ti  Ti25  1  0.17092400  0.83205100  0.41674900  1
  Ti  Ti26  1  0.50110900  0.16458800  0.91664500  1
  Ti  Ti27  1  0.49704500  0.83244600  0.08320800  1
  Ti  Ti28  1  0.16944200  0.16738800  0.25014500  1
  Ti  Ti29  1  0.16630200  0.83379800  0.91669800  1
  Ti  Ti30  1  0.50470200  0.83061200  0.58349500  1
  Cr  Cr31  1  0.16889700  0.16728500  0.75009200  1
  Cr  Cr32  1  0.49738100  0.16748500  0.41655600  1
  Cr  Cr33  1  0.83539600  0.16759000  0.08353900  1
  Cr  Cr34  1  0.83151900  0.16623300  0.58315300  1
  Cr  Cr35  1  0.83144000  0.83226300  0.24984600  1
  O  O36  1  0.85316600  0.50415000  0.78880200  1
  O  O37  1  0.14621500  0.49055100  0.71184800  1
  O  O38  1  0.19647200  0.49084300  0.45478700  1
  O  O39  1  0.47847500  0.85500600  0.95465100  1
  O  O40  1  0.50337000  0.85299400  0.71175100  1
  O  O41  1  0.47608900  0.50478000  0.37782500  1
  O  O42  1  0.18841300  0.14478400  0.87880600  1
  O  O43  1  0.52034800  0.50380600  0.12228800  1
  O  O44  1  0.80999700  0.85230500  0.62158500  1
  O  O45  1  0.82770900  0.86058400  0.37948000  1
  O  O46  1  0.83286100  0.85615600  0.87865300  1
  O  O47  1  0.48973100  0.14730200  0.78731300  1
  O  O48  1  0.81285200  0.49069100  0.04534200  1
  O  O49  1  0.52930700  0.14770500  0.54600400  1
  O  O50  1  0.13904400  0.85599400  0.28726800  1
  O  O51  1  0.14460600  0.86068000  0.78718500  1
  O  O52  1  0.17048100  0.85289700  0.04525200  1
  O  O53  1  0.16058600  0.86110400  0.54603300  1
  O  O54  1  0.82795800  0.14496900  0.45371800  1
  O  O55  1  0.83356900  0.14477100  0.95452700  1
  O  O56  1  0.85552800  0.13921100  0.21278600  1
  O  O57  1  0.86035300  0.14508800  0.71289000  1
  O  O58  1  0.47566900  0.85418500  0.45495500  1
  O  O59  1  0.18919100  0.49957200  0.95525700  1
  O  O60  1  0.51024900  0.85344000  0.21248600  1
  O  O61  1  0.15631400  0.14662400  0.12088300  1
  O  O62  1  0.16171600  0.14433300  0.62039000  1
  O  O63  1  0.19594400  0.14779600  0.37924300  1
  O  O64  1  0.47682300  0.50054900  0.87806700  1
  O  O65  1  0.81137300  0.86070900  0.12054000  1
  O  O66  1  0.53000200  0.48969200  0.62145700  1
  O  O67  1  0.49657400  0.14703100  0.28806800  1
  O  O68  1  0.52686500  0.14492600  0.04626200  1
  O  O69  1  0.80927400  0.50431500  0.54441400  1
  O  O70  1  0.85422900  0.50950200  0.28809300  1
  O  O71  1  0.14622600  0.49624500  0.21109300  1
