# generated using pymatgen
data_Li5Fe8(BO3)8
_symmetry_space_group_name_H-M   'P 1'
_cell_length_a   5.25555000
_cell_length_b   5.25798573
_cell_length_c   20.20398808
_cell_angle_alpha   90.86279047
_cell_angle_beta   89.96815607
_cell_angle_gamma   119.89890113
_symmetry_Int_Tables_number   1
_chemical_formula_structural   Li5Fe8(BO3)8
_chemical_formula_sum   'Li5 Fe8 B8 O24'
_cell_volume   483.93121835
_cell_formula_units_Z   1
loop_
 _symmetry_equiv_pos_site_id
 _symmetry_equiv_pos_as_xyz
  1  'x, y, z'
loop_
 _atom_site_type_symbol
 _atom_site_label
 _atom_site_symmetry_multiplicity
 _atom_site_fract_x
 _atom_site_fract_y
 _atom_site_fract_z
 _atom_site_occupancy
  Li  Li0  1  0.67320900  0.65245000  0.32961900  1
  Li  Li1  1  0.64565400  0.66766100  0.08012400  1
  Li  Li2  1  0.64537500  0.66672800  0.58284700  1
  Li  Li3  1  0.33238200  0.34208800  0.45113200  1
  Li  Li4  1  0.34056100  0.34053500  0.94646400  1
  Fe  Fe5  1  0.01369700  0.67552600  0.19030800  1
  Fe  Fe6  1  0.01573300  0.67685900  0.69120000  1
  Fe  Fe7  1  0.31680600  0.00539600  0.06452100  1
  Fe  Fe8  1  0.31614300  0.00125000  0.56468100  1
  Fe  Fe9  1  0.67634600  0.00700800  0.43958100  1
  Fe  Fe10  1  0.67878000  0.99503400  0.93990300  1
  Fe  Fe11  1  0.00960400  0.32237300  0.31297100  1
  Fe  Fe12  1  0.99373700  0.33152500  0.81740700  1
  B  B13  1  0.99228700  0.33223000  0.06365500  1
  B  B14  1  0.99302900  0.32951200  0.56407800  1
  B  B15  1  0.67400800  0.00902100  0.18697000  1
  B  B16  1  0.67328300  0.00977600  0.68901800  1
  B  B17  1  0.33979700  0.99871700  0.31432500  1
  B  B18  1  0.33513000  0.00184100  0.81561500  1
  B  B19  1  0.00309100  0.67104700  0.43872200  1
  B  B20  1  0.00517500  0.67233600  0.93982900  1
  O  O21  1  0.90234700  0.27587800  0.20923200  1
  O  O22  1  0.89673000  0.27479400  0.71489200  1
  O  O23  1  0.73752000  0.07249100  0.04731600  1
  O  O24  1  0.97331800  0.57691200  0.08659200  1
  O  O25  1  0.73914200  0.06824000  0.54782100  1
  O  O26  1  0.97236900  0.57251800  0.58743200  1
  O  O27  1  0.40490900  0.98263800  0.17074900  1
  O  O28  1  0.73476200  0.65868300  0.43257700  1
  O  O29  1  0.40796900  0.98738200  0.67046900  1
  O  O30  1  0.73745700  0.65251300  0.94363000  1
  O  O31  1  0.71144300  0.76976000  0.17953300  1
  O  O32  1  0.71828900  0.77735200  0.67895100  1
  O  O33  1  0.34996400  0.26264200  0.32032900  1
  O  O34  1  0.29157600  0.23396100  0.82336900  1
  O  O35  1  0.26264800  0.35406100  0.05554700  1
  O  O36  1  0.58199300  0.97174700  0.33129400  1
  O  O37  1  0.26576900  0.35463400  0.55606600  1
  O  O38  1  0.59774200  0.01793400  0.83334500  1
  O  O39  1  0.02251200  0.42240800  0.42284300  1
  O  O40  1  0.02662300  0.42636500  0.91793900  1
  O  O41  1  0.25236500  0.92854000  0.45920600  1
  O  O42  1  0.26122900  0.92761400  0.95818500  1
  O  O43  1  0.07683900  0.74642200  0.29238200  1
  O  O44  1  0.10868100  0.73243600  0.79030800  1
