# generated using pymatgen
data_Li4MnV3(PO4)4
_symmetry_space_group_name_H-M   'P 1'
_cell_length_a   6.15041100
_cell_length_b   4.77927700
_cell_length_c   10.54177836
_cell_angle_alpha   89.98509691
_cell_angle_beta   90.00000000
_cell_angle_gamma   90.00000000
_symmetry_Int_Tables_number   1
_chemical_formula_structural   Li4MnV3(PO4)4
_chemical_formula_sum   'Li4 Mn1 V3 P4 O16'
_cell_volume   309.87048141
_cell_formula_units_Z   1
loop_
 _symmetry_equiv_pos_site_id
 _symmetry_equiv_pos_as_xyz
  1  'x, y, z'
loop_
 _atom_site_type_symbol
 _atom_site_label
 _atom_site_symmetry_multiplicity
 _atom_site_fract_x
 _atom_site_fract_y
 _atom_site_fract_z
 _atom_site_occupancy
  Li  Li0  1  0.25075500  0.00004000  0.99969500  1
  Li  Li1  1  0.74924500  0.00004000  0.99969500  1
  Li  Li2  1  0.75107300  0.50063400  0.49906700  1
  Li  Li3  1  0.24892700  0.50063400  0.49906700  1
  Mn  Mn4  1  0.50000000  0.02235800  0.72020500  1
  V  V5  1  0.50000000  0.48214300  0.22376100  1
  V  V6  1  0.00000000  0.51775200  0.77721400  1
  V  V7  1  0.00000000  0.98301000  0.27539400  1
  P  P8  1  0.00000000  0.08540200  0.59289100  1
  P  P9  1  0.00000000  0.41471500  0.09328800  1
  P  P10  1  0.50000000  0.58522300  0.90870200  1
  P  P11  1  0.50000000  0.91389800  0.40577800  1
  O  O12  1  0.00000000  0.20588500  0.45620400  1
  O  O13  1  0.20059100  0.22055500  0.66288000  1
  O  O14  1  0.79940900  0.22055500  0.66288000  1
  O  O15  1  0.50000000  0.23606400  0.40331500  1
  O  O16  1  0.50000000  0.26298800  0.90453300  1
  O  O17  1  0.20091600  0.27931400  0.16295900  1
  O  O18  1  0.79908400  0.27931400  0.16295900  1
  O  O19  1  0.00000000  0.29357100  0.95654700  1
  O  O20  1  0.50000000  0.70789400  0.04528000  1
  O  O21  1  0.70089100  0.71866600  0.83893300  1
  O  O22  1  0.29910900  0.71866600  0.83893300  1
  O  O23  1  0.00000000  0.73666900  0.09709100  1
  O  O24  1  0.00000000  0.76331900  0.59699000  1
  O  O25  1  0.70130900  0.77930900  0.33658500  1
  O  O26  1  0.29869100  0.77930900  0.33658500  1
  O  O27  1  0.50000000  0.79207600  0.54256700  1
