# generated using pymatgen
data_Li2Mn3WO8
_symmetry_space_group_name_H-M   'P 1'
_cell_length_a   8.51085400
_cell_length_b   8.52205300
_cell_length_c   9.09924200
_cell_angle_alpha   90.00000000
_cell_angle_beta   90.00000000
_cell_angle_gamma   90.00000000
_symmetry_Int_Tables_number   1
_chemical_formula_structural   Li2Mn3WO8
_chemical_formula_sum   'Li8 Mn12 W4 O32'
_cell_volume   659.96755695
_cell_formula_units_Z   4
loop_
 _symmetry_equiv_pos_site_id
 _symmetry_equiv_pos_as_xyz
  1  'x, y, z'
loop_
 _atom_site_type_symbol
 _atom_site_label
 _atom_site_symmetry_multiplicity
 _atom_site_fract_x
 _atom_site_fract_y
 _atom_site_fract_z
 _atom_site_occupancy
  Li  Li0  1  0.75388300  0.75111600  0.74735100  1
  Li  Li1  1  0.50221800  0.48972800  0.50050500  1
  Li  Li2  1  0.00221800  0.01027200  0.49949500  1
  Li  Li3  1  0.25388300  0.74888400  0.25264900  1
  Li  Li4  1  0.74611700  0.24888400  0.24735100  1
  Li  Li5  1  0.99778200  0.51027200  0.00050500  1
  Li  Li6  1  0.49778200  0.98972800  0.99949500  1
  Li  Li7  1  0.24611700  0.25111600  0.75264900  1
  Mn  Mn8  1  0.13031200  0.60580100  0.63566500  1
  Mn  Mn9  1  0.87210600  0.36414800  0.62520100  1
  Mn  Mn10  1  0.62096700  0.12893600  0.62010800  1
  Mn  Mn11  1  0.12096700  0.37106400  0.37989200  1
  Mn  Mn12  1  0.37210600  0.13585200  0.37479900  1
  Mn  Mn13  1  0.63031200  0.89419900  0.36433500  1
  Mn  Mn14  1  0.36968800  0.39419900  0.13566500  1
  Mn  Mn15  1  0.62789400  0.63585200  0.12520100  1
  Mn  Mn16  1  0.87903300  0.87106400  0.12010800  1
  Mn  Mn17  1  0.37903300  0.62893600  0.87989200  1
  Mn  Mn18  1  0.12789400  0.86414800  0.87479900  1
  Mn  Mn19  1  0.86968800  0.10580100  0.86433500  1
  W  W20  1  0.37146500  0.87564500  0.61700600  1
  W  W21  1  0.87146500  0.62435500  0.38299400  1
  W  W22  1  0.12853500  0.12435500  0.11700600  1
  W  W23  1  0.62853500  0.37564500  0.88299400  1
  O  O24  1  0.38271300  0.65371300  0.61642200  1
  O  O25  1  0.14886800  0.88056800  0.62968600  1
  O  O26  1  0.84987200  0.13711900  0.63212300  1
  O  O27  1  0.87220500  0.60383800  0.59560400  1
  O  O28  1  0.63453900  0.36129500  0.65438600  1
  O  O29  1  0.09595600  0.36405400  0.61631700  1
  O  O30  1  0.38825500  0.10806900  0.63124500  1
  O  O31  1  0.60600700  0.89692100  0.62106700  1
  O  O32  1  0.10600700  0.60307900  0.37893300  1
  O  O33  1  0.88825500  0.39193100  0.36875500  1
  O  O34  1  0.59595600  0.13594600  0.38368300  1
  O  O35  1  0.13453900  0.13870500  0.34561400  1
  O  O36  1  0.37220500  0.89616200  0.40439600  1
  O  O37  1  0.34987200  0.36288100  0.36787700  1
  O  O38  1  0.64886800  0.61943200  0.37031400  1
  O  O39  1  0.88271300  0.84628700  0.38357800  1
  O  O40  1  0.11728700  0.34628700  0.11642200  1
  O  O41  1  0.35113200  0.11943200  0.12968600  1
  O  O42  1  0.65012800  0.86288100  0.13212300  1
  O  O43  1  0.62779500  0.39616200  0.09560400  1
  O  O44  1  0.86546100  0.63870500  0.15438600  1
  O  O45  1  0.40404400  0.63594600  0.11631700  1
  O  O46  1  0.11174500  0.89193100  0.13124500  1
  O  O47  1  0.89399300  0.10307900  0.12106700  1
  O  O48  1  0.39399300  0.39692100  0.87893300  1
  O  O49  1  0.61174500  0.60806900  0.86875500  1
  O  O50  1  0.90404400  0.86405400  0.88368300  1
  O  O51  1  0.36546100  0.86129500  0.84561400  1
  O  O52  1  0.12779500  0.10383800  0.90439600  1
  O  O53  1  0.15012800  0.63711900  0.86787700  1
  O  O54  1  0.85113200  0.38056800  0.87031400  1
  O  O55  1  0.61728700  0.15371300  0.88357800  1
