# generated using pymatgen
data_LiV4O5F7
_symmetry_space_group_name_H-M   'P 1'
_cell_length_a   5.37839200
_cell_length_b   9.05466981
_cell_length_c   9.14750037
_cell_angle_alpha   69.11177065
_cell_angle_beta   88.13608500
_cell_angle_gamma   87.46474027
_symmetry_Int_Tables_number   1
_chemical_formula_structural   LiV4O5F7
_chemical_formula_sum   'Li2 V8 O10 F14'
_cell_volume   415.72699706
_cell_formula_units_Z   2
loop_
 _symmetry_equiv_pos_site_id
 _symmetry_equiv_pos_as_xyz
  1  'x, y, z'
loop_
 _atom_site_type_symbol
 _atom_site_label
 _atom_site_symmetry_multiplicity
 _atom_site_fract_x
 _atom_site_fract_y
 _atom_site_fract_z
 _atom_site_occupancy
  Li  Li0  1  0.06314900  0.13573400  0.62619700  1
  Li  Li1  1  0.45406100  0.11319100  0.10504000  1
  V  V2  1  0.02480000  0.98056800  0.99935400  1
  V  V3  1  0.00643800  0.75537400  0.76792600  1
  V  V4  1  0.53067700  0.98252200  0.49805800  1
  V  V5  1  0.50151300  0.26825800  0.72638900  1
  V  V6  1  0.96738700  0.49611200  0.50828700  1
  V  V7  1  0.50631500  0.75365400  0.26853500  1
  V  V8  1  0.99250600  0.26859300  0.22669800  1
  V  V9  1  0.46710600  0.49481200  0.00822200  1
  O  O10  1  0.20691700  0.62563200  0.91706700  1
  O  O11  1  0.99585800  0.93267900  0.81328100  1
  O  O12  1  0.78313900  0.87583300  0.58159000  1
  O  O13  1  0.29794600  0.36977600  0.58872000  1
  O  O14  1  0.49755000  0.92954600  0.31321300  1
  O  O15  1  0.81944900  0.31780400  0.62541000  1
  O  O16  1  0.70593100  0.62422300  0.41943300  1
  O  O17  1  0.28478600  0.87966000  0.08030500  1
  O  O18  1  0.31355300  0.32033900  0.12266700  1
  O  O19  1  0.79819400  0.37518200  0.08620000  1
  F  F20  1  0.21079300  0.17350800  0.87943900  1
  F  F21  1  0.70613200  0.66538400  0.88634000  1
  F  F22  1  0.28938100  0.82451200  0.61787500  1
  F  F23  1  0.51675600  0.42770200  0.82464500  1
  F  F24  1  0.69330200  0.12355600  0.93048000  1
  F  F25  1  0.48040000  0.07608900  0.67090200  1
  F  F26  1  0.98593200  0.58514400  0.67264000  1
  F  F27  1  0.20585500  0.66424300  0.38689400  1
  F  F28  1  0.19861300  0.12614000  0.42738900  1
  F  F29  1  0.70825800  0.17460000  0.37716200  1
  F  F30  1  0.48266200  0.58564800  0.17225200  1
  F  F31  1  0.79223500  0.82001800  0.11943500  1
  F  F32  1  0.01425900  0.42735800  0.32610700  1
  F  F33  1  0.00274300  0.07660300  0.17123700  1
