# generated using pymatgen
data_LiCoSiO4
_symmetry_space_group_name_H-M   'P 1'
_cell_length_a   4.93084500
_cell_length_b   6.86028200
_cell_length_c   9.68407100
_cell_angle_alpha   90.00000000
_cell_angle_beta   90.00000000
_cell_angle_gamma   90.00000000
_symmetry_Int_Tables_number   1
_chemical_formula_structural   LiCoSiO4
_chemical_formula_sum   'Li4 Co4 Si4 O16'
_cell_volume   327.58294574
_cell_formula_units_Z   4
loop_
 _symmetry_equiv_pos_site_id
 _symmetry_equiv_pos_as_xyz
  1  'x, y, z'
loop_
 _atom_site_type_symbol
 _atom_site_label
 _atom_site_symmetry_multiplicity
 _atom_site_fract_x
 _atom_site_fract_y
 _atom_site_fract_z
 _atom_site_occupancy
  Li  Li0  1  0.39504100  0.77716600  0.61613900  1
  Li  Li1  1  0.60495900  0.27716600  0.88386100  1
  Li  Li2  1  0.10495900  0.22283400  0.11613900  1
  Li  Li3  1  0.89504100  0.72283400  0.38386100  1
  Co  Co4  1  0.01103800  0.06825400  0.51224600  1
  Co  Co5  1  0.98896200  0.56825400  0.98775400  1
  Co  Co6  1  0.48896200  0.93174600  0.01224600  1
  Co  Co7  1  0.51103800  0.43174600  0.48775400  1
  Si  Si8  1  0.93361300  0.48016600  0.65232000  1
  Si  Si9  1  0.06638700  0.98016600  0.84768000  1
  Si  Si10  1  0.56638700  0.51983400  0.15232000  1
  Si  Si11  1  0.43361300  0.01983400  0.34768000  1
  O  O12  1  0.73892100  0.63632100  0.56688400  1
  O  O13  1  0.80074100  0.27809300  0.58102200  1
  O  O14  1  0.25403500  0.50798200  0.62182100  1
  O  O15  1  0.13629900  0.97804000  0.68398200  1
  O  O16  1  0.86370100  0.47804000  0.81601800  1
  O  O17  1  0.74596500  0.00798200  0.87817900  1
  O  O18  1  0.19925900  0.77809300  0.91897800  1
  O  O19  1  0.26107900  0.13632100  0.93311600  1
  O  O20  1  0.76107900  0.36367900  0.06688400  1
  O  O21  1  0.69925900  0.72190700  0.08102200  1
  O  O22  1  0.24596500  0.49201800  0.12182100  1
  O  O23  1  0.36370100  0.02196000  0.18398200  1
  O  O24  1  0.63629900  0.52196000  0.31601800  1
  O  O25  1  0.75403500  0.99201800  0.37817900  1
  O  O26  1  0.30074100  0.22190700  0.41897800  1
  O  O27  1  0.23892100  0.86367900  0.43311600  1
