# generated using pymatgen
data_LiV2F7
_symmetry_space_group_name_H-M   'P 1'
_cell_length_a   7.14814100
_cell_length_b   7.82071400
_cell_length_c   10.18393446
_cell_angle_alpha   89.14064370
_cell_angle_beta   90.00000000
_cell_angle_gamma   90.00000000
_symmetry_Int_Tables_number   1
_chemical_formula_structural   LiV2F7
_chemical_formula_sum   'Li4 V8 F28'
_cell_volume   569.25422092
_cell_formula_units_Z   4
loop_
 _symmetry_equiv_pos_site_id
 _symmetry_equiv_pos_as_xyz
  1  'x, y, z'
loop_
 _atom_site_type_symbol
 _atom_site_label
 _atom_site_symmetry_multiplicity
 _atom_site_fract_x
 _atom_site_fract_y
 _atom_site_fract_z
 _atom_site_occupancy
  Li  Li0  1  0.59218400  0.30433600  0.64885500  1
  Li  Li1  1  0.10676700  0.82871000  0.64453900  1
  Li  Li2  1  0.40781600  0.30433600  0.14885500  1
  Li  Li3  1  0.89323300  0.82871000  0.14453900  1
  V  V4  1  0.11616900  0.11825700  0.91723400  1
  V  V5  1  0.61714200  0.60235500  0.90793100  1
  V  V6  1  0.10846500  0.39651100  0.59183600  1
  V  V7  1  0.60948300  0.88157200  0.57935500  1
  V  V8  1  0.88383100  0.11825700  0.41723400  1
  V  V9  1  0.38285800  0.60235500  0.40793100  1
  V  V10  1  0.89153500  0.39651100  0.09183600  1
  V  V11  1  0.39051700  0.88157200  0.07935500  1
  F  F12  1  0.86508100  0.19374200  0.97481400  1
  F  F13  1  0.38082000  0.06233400  0.93467000  1
  F  F14  1  0.36591400  0.69479700  0.94739900  1
  F  F15  1  0.88211100  0.54801400  0.92991400  1
  F  F16  1  0.56148800  0.40945600  0.81087000  1
  F  F17  1  0.06095100  0.94439800  0.80049800  1
  F  F18  1  0.14033400  0.27519200  0.75940500  1
  F  F19  1  0.64027200  0.73591300  0.73594300  1
  F  F20  1  0.54528500  0.06999200  0.68230600  1
  F  F21  1  0.05225900  0.59911200  0.67907800  1
  F  F22  1  0.38874000  0.44607000  0.57262000  1
  F  F23  1  0.83603500  0.31319200  0.55600300  1
  F  F24  1  0.88736000  0.93687500  0.56505600  1
  F  F25  1  0.33731900  0.80867400  0.53682500  1
  F  F26  1  0.13491900  0.19374200  0.47481400  1
  F  F27  1  0.61918000  0.06233400  0.43467000  1
  F  F28  1  0.63408600  0.69479700  0.44739900  1
  F  F29  1  0.11788900  0.54801400  0.42991400  1
  F  F30  1  0.43851200  0.40945600  0.31087000  1
  F  F31  1  0.93904900  0.94439800  0.30049800  1
  F  F32  1  0.85966600  0.27519200  0.25940500  1
  F  F33  1  0.35972800  0.73591300  0.23594300  1
  F  F34  1  0.45471500  0.06999200  0.18230600  1
  F  F35  1  0.94774100  0.59911200  0.17907800  1
  F  F36  1  0.61126000  0.44607000  0.07262000  1
  F  F37  1  0.16396500  0.31319200  0.05600300  1
  F  F38  1  0.11264000  0.93687500  0.06505600  1
  F  F39  1  0.66268100  0.80867400  0.03682500  1
