# generated using pymatgen
data_LiCoSiO4
_symmetry_space_group_name_H-M   'P 1'
_cell_length_a   10.10157491
_cell_length_b   10.10157491
_cell_length_c   16.27832373
_cell_angle_alpha   82.64699707
_cell_angle_beta   82.64699707
_cell_angle_gamma   58.42426518
_symmetry_Int_Tables_number   1
_chemical_formula_structural   LiCoSiO4
_chemical_formula_sum   'Li16 Co16 Si16 O64'
_cell_volume   1399.85038400
_cell_formula_units_Z   16
loop_
 _symmetry_equiv_pos_site_id
 _symmetry_equiv_pos_as_xyz
  1  'x, y, z'
loop_
 _atom_site_type_symbol
 _atom_site_label
 _atom_site_symmetry_multiplicity
 _atom_site_fract_x
 _atom_site_fract_y
 _atom_site_fract_z
 _atom_site_occupancy
  Li  Li0  1  0.20315800  0.80981100  0.00241200  1
  Li  Li1  1  0.80981100  0.20315800  0.50241200  1
  Li  Li2  1  0.70095600  0.57656100  0.25253500  1
  Li  Li3  1  0.26213800  0.07666100  0.25120100  1
  Li  Li4  1  0.13984300  0.30930600  0.00134200  1
  Li  Li5  1  0.57656100  0.70095600  0.75253500  1
  Li  Li6  1  0.70510800  0.80852100  0.00316600  1
  Li  Li7  1  0.07666100  0.26213800  0.75120100  1
  Li  Li8  1  0.30930600  0.13984300  0.50134200  1
  Li  Li9  1  0.80852100  0.70510800  0.50316600  1
  Li  Li10  1  0.20300400  0.57018500  0.25174400  1
  Li  Li11  1  0.76218200  0.08173900  0.25329100  1
  Li  Li12  1  0.63907000  0.30905500  0.00244400  1
  Li  Li13  1  0.57018500  0.20300400  0.75174400  1
  Li  Li14  1  0.08173900  0.76218200  0.75329100  1
  Li  Li15  1  0.30905500  0.63907000  0.50244400  1
  Co  Co16  1  0.88240100  0.26853200  0.12879100  1
  Co  Co17  1  0.44682200  0.77041700  0.12897400  1
  Co  Co18  1  0.26853200  0.88240100  0.62879100  1
  Co  Co19  1  0.77041700  0.44682200  0.62897400  1
  Co  Co20  1  0.00490300  0.32113100  0.37836300  1
  Co  Co21  1  0.50906500  0.88189200  0.37874300  1
  Co  Co22  1  0.32113100  0.00490300  0.87836300  1
  Co  Co23  1  0.88189200  0.50906500  0.87874300  1
  Co  Co24  1  0.38012200  0.27145200  0.12791200  1
  Co  Co25  1  0.94680600  0.76924100  0.13026900  1
  Co  Co26  1  0.27145200  0.38012200  0.62791200  1
  Co  Co27  1  0.76924100  0.94680600  0.63026900  1
  Co  Co28  1  0.00876600  0.82204600  0.37899000  1
  Co  Co29  1  0.50346600  0.38341300  0.37944400  1
  Co  Co30  1  0.82204600  0.00876600  0.87899000  1
  Co  Co31  1  0.38341300  0.50346600  0.87944400  1
  Si  Si32  1  0.10143100  0.91637600  0.19087300  1
  Si  Si33  1  0.91637600  0.10143100  0.69087300  1
  Si  Si34  1  0.16832300  0.98046400  0.43935400  1
  Si  Si35  1  0.66557700  0.53825300  0.44123900  1
  Si  Si36  1  0.98046400  0.16832300  0.93935400  1
  Si  Si37  1  0.53825400  0.66557700  0.94123900  1
  Si  Si38  1  0.04111600  0.41929900  0.18894800  1
  Si  Si39  1  0.60196200  0.91935800  0.19065000  1
  Si  Si40  1  0.41929900  0.04111600  0.68894800  1
  Si  Si41  1  0.91935800  0.60196200  0.69065000  1
  Si  Si42  1  0.16576000  0.47987100  0.43935900  1
  Si  Si43  1  0.66564000  0.04004900  0.44190300  1
  Si  Si44  1  0.47987100  0.16576000  0.93935900  1
  Si  Si45  1  0.04004900  0.66564000  0.94190300  1
  Si  Si46  1  0.54288900  0.42047400  0.18919000  1
  Si  Si47  1  0.42047400  0.54288900  0.68919000  1
  O  O48  1  0.67538800  0.33187000  0.11375600  1
  O  O49  1  0.94944000  0.09262700  0.20209400  1
  O  O50  1  0.52044300  0.59047800  0.20000600  1
  O  O51  1  0.41973300  0.74584600  0.02261100  1
  O  O52  1  0.33187000  0.67538800  0.61375600  1
  O  O53  1  0.50507300  0.54487700  0.42472300  1
  O  O54  1  0.98407500  0.23989500  0.02377200  1
  O  O55  1  0.25981600  0.92563900  0.17864200  1
  O  O56  1  0.09262700  0.94944000  0.70209400  1
  O  O57  1  0.00145100  0.14217100  0.42397500  1
  O  O58  1  0.59047800  0.52044300  0.70000600  1
  O  O59  1  0.74584600  0.41973300  0.52261100  1
  O  O60  1  0.54487700  0.50507300  0.92472300  1
  O  O61  1  0.79474100  0.46575100  0.36153500  1
  O  O62  1  0.29775000  0.96896800  0.36333900  1
  O  O63  1  0.87655100  0.43765300  0.16960600  1
  O  O64  1  0.23989500  0.98407500  0.52377200  1
  O  O65  1  0.92563900  0.25981600  0.67864200  1
  O  O66  1  0.14217100  0.00145100  0.92397500  1
  O  O67  1  0.62893000  0.71316100  0.45310600  1
  O  O68  1  0.59074800  0.83829900  0.11237300  1
  O  O69  1  0.10696600  0.30041300  0.27244400  1
  O  O70  1  0.60293300  0.80855000  0.27452600  1
  O  O71  1  0.46575100  0.79474100  0.86153500  1
  O  O72  1  0.96896800  0.29775000  0.86333900  1
  O  O73  1  0.43765300  0.87655100  0.66960600  1
  O  O74  1  0.17319500  0.33623000  0.11232800  1
  O  O75  1  0.44778800  0.09456000  0.20041100  1
  O  O76  1  0.13232500  0.33643600  0.44674800  1
  O  O77  1  0.71316100  0.62893000  0.95310600  1
  O  O78  1  0.83829900  0.59074800  0.61237300  1
  O  O79  1  0.30041300  0.10696600  0.77244400  1
  O  O80  1  0.80855000  0.60293300  0.77452600  1
  O  O81  1  0.01860300  0.58885500  0.20164500  1
  O  O82  1  0.92176600  0.74236000  0.02406800  1
  O  O83  1  0.33623000  0.17319500  0.61232800  1
  O  O84  1  0.50725300  0.04474200  0.42398300  1
  O  O85  1  0.48005900  0.24331800  0.02219200  1
  O  O86  1  0.76034500  0.92927500  0.17817200  1
  O  O87  1  0.09456000  0.44778800  0.70041100  1
  O  O88  1  0.33643600  0.13232500  0.94674800  1
  O  O89  1  0.00133300  0.64494900  0.42521500  1
  O  O90  1  0.58885500  0.01860300  0.70164500  1
  O  O91  1  0.74236000  0.92176600  0.52406800  1
  O  O92  1  0.04474200  0.50725300  0.92398300  1
  O  O93  1  0.29357000  0.46528300  0.36124900  1
  O  O94  1  0.79953200  0.96825300  0.36418200  1
  O  O95  1  0.24331800  0.48005900  0.52219200  1
  O  O96  1  0.37908600  0.43703300  0.16984500  1
  O  O97  1  0.92927500  0.76034500  0.67817200  1
  O  O98  1  0.64494900  0.00133300  0.92521500  1
  O  O99  1  0.62609500  0.21595300  0.45398900  1
  O  O100  1  0.08706600  0.84138900  0.11062700  1
  O  O101  1  0.10496200  0.79867100  0.27154700  1
  O  O102  1  0.60501000  0.31023500  0.27584700  1
  O  O103  1  0.46528300  0.29357000  0.86124900  1
  O  O104  1  0.96825300  0.79953200  0.86418200  1
  O  O105  1  0.43703300  0.37908600  0.66984500  1
  O  O106  1  0.21595300  0.62609500  0.95398900  1
  O  O107  1  0.13970900  0.83377900  0.44581600  1
  O  O108  1  0.84138900  0.08706600  0.61062700  1
  O  O109  1  0.79867100  0.10496200  0.77154700  1
  O  O110  1  0.31023500  0.60501000  0.77584700  1
  O  O111  1  0.83377900  0.13970900  0.94581600  1
