# generated using pymatgen
data_Li6V3P8O29
_symmetry_space_group_name_H-M   'P 1'
_cell_length_a   9.83533758
_cell_length_b   9.83533758
_cell_length_c   13.86379590
_cell_angle_alpha   89.88398330
_cell_angle_beta   89.88398330
_cell_angle_gamma   60.00471155
_symmetry_Int_Tables_number   1
_chemical_formula_structural   Li6V3P8O29
_chemical_formula_sum   'Li12 V6 P16 O58'
_cell_volume   1161.47738900
_cell_formula_units_Z   2
loop_
 _symmetry_equiv_pos_site_id
 _symmetry_equiv_pos_as_xyz
  1  'x, y, z'
loop_
 _atom_site_type_symbol
 _atom_site_label
 _atom_site_symmetry_multiplicity
 _atom_site_fract_x
 _atom_site_fract_y
 _atom_site_fract_z
 _atom_site_occupancy
  Li  Li0  1  0.90803900  0.77490000  0.93979300  1
  Li  Li1  1  0.77490000  0.90803900  0.43979300  1
  Li  Li2  1  0.90902800  0.31789300  0.43805400  1
  Li  Li3  1  0.66774800  0.66893400  0.61783000  1
  Li  Li4  1  0.66893400  0.66774800  0.11783000  1
  Li  Li5  1  0.77339900  0.31184600  0.93976500  1
  Li  Li6  1  0.31789300  0.90902800  0.93805400  1
  Li  Li7  1  0.67652200  0.22572100  0.56021800  1
  Li  Li8  1  0.31184600  0.77339900  0.43976500  1
  Li  Li9  1  0.22572100  0.67652200  0.06021800  1
  Li  Li10  1  0.22767500  0.09303100  0.55995600  1
  Li  Li11  1  0.09303100  0.22767500  0.05995600  1
  V  V12  1  0.56609800  0.43146000  0.75198600  1
  V  V13  1  0.43146000  0.56609800  0.25198600  1
  V  V14  1  0.56582800  0.00620700  0.24540000  1
  V  V15  1  0.43304900  0.00258300  0.75144900  1
  V  V16  1  0.00620700  0.56582800  0.74540000  1
  V  V17  1  0.00258300  0.43304900  0.25144900  1
  P  P18  1  0.91146100  0.77023500  0.15662000  1
  P  P19  1  0.77023500  0.91146100  0.65662000  1
  P  P20  1  0.90996500  0.31996500  0.65844600  1
  P  P21  1  0.66871000  0.66594600  0.87373300  1
  P  P22  1  0.66594600  0.66871000  0.37373300  1
  P  P23  1  0.76974100  0.32080300  0.15606100  1
  P  P24  1  0.68327800  0.23040600  0.34157900  1
  P  P25  1  0.31996500  0.90996500  0.15844600  1
  P  P26  1  0.68437000  0.08433000  0.84318900  1
  P  P27  1  0.32080300  0.76974100  0.65606100  1
  P  P28  1  0.23040600  0.68327800  0.84157900  1
  P  P29  1  0.33505900  0.33065800  0.62533500  1
  P  P30  1  0.33065800  0.33505900  0.12533500  1
  P  P31  1  0.08433000  0.68437000  0.34318900  1
  P  P32  1  0.23411800  0.08624000  0.34325600  1
  P  P33  1  0.08624000  0.23411800  0.84325600  1
  O  O34  1  0.99061400  0.76975100  0.42870700  1
  O  O35  1  0.91503300  0.74691900  0.65985700  1
  O  O36  1  0.76975100  0.99061400  0.92870700  1
  O  O37  1  0.74691900  0.91503300  0.15985700  1
  O  O38  1  0.89034700  0.62480500  0.17482000  1
  O  O39  1  0.81625600  0.66940300  0.83380200  1
  O  O40  1  0.88704500  0.48664800  0.67374400  1
  O  O41  1  0.99724300  0.24274000  0.93321300  1
  O  O42  1  0.91907100  0.33778700  0.16011700  1
  O  O43  1  0.66940300  0.81625600  0.33380200  1
  O  O44  1  0.62480500  0.89034700  0.67482000  1
  O  O45  1  0.81394200  0.51466300  0.33551900  1
  O  O46  1  0.66659600  0.66595900  0.98244300  1
  O  O47  1  0.66595900  0.66659600  0.48244300  1
  O  O48  1  0.67279900  0.51255100  0.83514400  1
  O  O49  1  0.48664800  0.88704500  0.17374400  1
  O  O50  1  0.51466300  0.81394200  0.83551900  1
  O  O51  1  0.74514300  0.33531300  0.65826900  1
  O  O52  1  0.79031800  0.21195300  0.24934400  1
  O  O53  1  0.75725400  0.24598500  0.43255400  1
  O  O54  1  0.76095900  0.24555900  0.06571900  1
  O  O55  1  0.62554400  0.48635200  0.17539900  1
  O  O56  1  0.51255100  0.67279900  0.33514400  1
  O  O57  1  0.66356900  0.25114600  0.84158300  1
  O  O58  1  0.48635200  0.62554400  0.67539900  1
  O  O59  1  0.33778700  0.91907100  0.66011700  1
  O  O60  1  0.78625300  0.00661800  0.74569700  1
  O  O61  1  0.75348000  0.00196700  0.56620000  1
  O  O62  1  0.24274000  0.99724300  0.43321300  1
  O  O63  1  0.66549100  0.08417700  0.34201400  1
  O  O64  1  0.52291700  0.38147400  0.32315100  1
  O  O65  1  0.33531300  0.74514300  0.15826900  1
  O  O66  1  0.48595400  0.32764400  0.66653600  1
  O  O67  1  0.38147400  0.52291700  0.82315100  1
  O  O68  1  0.24598500  0.75725400  0.93255400  1
  O  O69  1  0.24555900  0.76095900  0.56571900  1
  O  O70  1  0.21195300  0.79031800  0.74934400  1
  O  O71  1  0.25114600  0.66356900  0.34158300  1
  O  O72  1  0.47837000  0.18614500  0.17172000  1
  O  O73  1  0.52391400  0.09351700  0.82579900  1
  O  O74  1  0.32764400  0.48595400  0.16653600  1
  O  O75  1  0.32954300  0.33278800  0.01806500  1
  O  O76  1  0.33278800  0.32954300  0.51806500  1
  O  O77  1  0.18614500  0.47837000  0.67172000  1
  O  O78  1  0.38258900  0.09546500  0.32611700  1
  O  O79  1  0.32929700  0.18322100  0.66716500  1
  O  O80  1  0.08417700  0.66549100  0.84201400  1
  O  O81  1  0.00661800  0.78625300  0.24569700  1
  O  O82  1  0.00196700  0.75348000  0.06620000  1
  O  O83  1  0.09351700  0.52391400  0.32579900  1
  O  O84  1  0.18322100  0.32929700  0.16716500  1
  O  O85  1  0.09546500  0.38258900  0.82611700  1
  O  O86  1  0.24964300  0.08417000  0.84172900  1
  O  O87  1  0.24272300  0.00024100  0.06829000  1
  O  O88  1  0.21236000  0.99739800  0.25021300  1
  O  O89  1  0.08417000  0.24964300  0.34172900  1
  O  O90  1  0.00024100  0.24272300  0.56829000  1
  O  O91  1  0.99739800  0.21236000  0.75021300  1
