# generated using pymatgen
data_Li5BiS4
_symmetry_space_group_name_H-M   'P 1'
_cell_length_a   16.62000400
_cell_length_b   16.62000400
_cell_length_c   5.93908200
_cell_angle_alpha   90.00000000
_cell_angle_beta   90.00000000
_cell_angle_gamma   90.00000000
_symmetry_Int_Tables_number   1
_chemical_formula_structural   Li5BiS4
_chemical_formula_sum   'Li40 Bi8 S32'
_cell_volume   1640.52015166
_cell_formula_units_Z   8
loop_
 _symmetry_equiv_pos_site_id
 _symmetry_equiv_pos_as_xyz
  1  'x, y, z'
loop_
 _atom_site_type_symbol
 _atom_site_label
 _atom_site_symmetry_multiplicity
 _atom_site_fract_x
 _atom_site_fract_y
 _atom_site_fract_z
 _atom_site_occupancy
  Li  Li0  1  0.76037900  0.23962100  0.00000000  1
  Li  Li1  1  0.73962100  0.26037900  0.50000000  1
  Li  Li2  1  0.23962100  0.23962100  0.00000000  1
  Li  Li3  1  0.26037900  0.26037900  0.50000000  1
  Li  Li4  1  0.11312100  0.36164300  0.56307300  1
  Li  Li5  1  0.88687900  0.36164300  0.56307300  1
  Li  Li6  1  0.37223300  0.37223300  0.00000000  1
  Li  Li7  1  0.62776700  0.37223300  0.00000000  1
  Li  Li8  1  0.86164300  0.38687900  0.06307300  1
  Li  Li9  1  0.13835700  0.38687900  0.06307300  1
  Li  Li10  1  0.00000000  0.50000000  0.08640700  1
  Li  Li11  1  0.50000000  0.50000000  0.50000000  1
  Li  Li12  1  0.50000000  0.50000000  0.00000000  1
  Li  Li13  1  0.00000000  0.50000000  0.58640700  1
  Li  Li14  1  0.86164300  0.61312100  0.06307300  1
  Li  Li15  1  0.13835700  0.61312100  0.06307300  1
  Li  Li16  1  0.37223300  0.62776700  0.00000000  1
  Li  Li17  1  0.62776700  0.62776700  0.00000000  1
  Li  Li18  1  0.88687900  0.63835700  0.56307300  1
  Li  Li19  1  0.11312100  0.63835700  0.56307300  1
  Li  Li20  1  0.23962100  0.76037900  0.00000000  1
  Li  Li21  1  0.26037900  0.73962100  0.50000000  1
  Li  Li22  1  0.76037900  0.76037900  0.00000000  1
  Li  Li23  1  0.73962100  0.73962100  0.50000000  1
  Li  Li24  1  0.38687900  0.86164300  0.93692700  1
  Li  Li25  1  0.61312100  0.86164300  0.93692700  1
  Li  Li26  1  0.87223300  0.87223300  0.50000000  1
  Li  Li27  1  0.12776700  0.87223300  0.50000000  1
  Li  Li28  1  0.36164300  0.88687900  0.43692700  1
  Li  Li29  1  0.63835700  0.88687900  0.43692700  1
  Li  Li30  1  0.00000000  0.00000000  0.50000000  1
  Li  Li31  1  0.00000000  0.00000000  0.00000000  1
  Li  Li32  1  0.50000000  0.00000000  0.91359300  1
  Li  Li33  1  0.50000000  0.00000000  0.41359300  1
  Li  Li34  1  0.36164300  0.11312100  0.43692700  1
  Li  Li35  1  0.63835700  0.11312100  0.43692700  1
  Li  Li36  1  0.87223300  0.12776700  0.50000000  1
  Li  Li37  1  0.12776700  0.12776700  0.50000000  1
  Li  Li38  1  0.38687900  0.13835700  0.93692700  1
  Li  Li39  1  0.61312100  0.13835700  0.93692700  1
  Bi  Bi40  1  0.50000000  0.26759700  0.46421900  1
  Bi  Bi41  1  0.26759700  0.50000000  0.53578100  1
  Bi  Bi42  1  0.73240300  0.50000000  0.53578100  1
  Bi  Bi43  1  0.50000000  0.73240300  0.46421900  1
  Bi  Bi44  1  0.00000000  0.76759700  0.03578100  1
  Bi  Bi45  1  0.76759700  0.00000000  0.96421900  1
  Bi  Bi46  1  0.23240300  0.00000000  0.96421900  1
  Bi  Bi47  1  0.00000000  0.23240300  0.03578100  1
  S  S48  1  0.86486000  0.25908100  0.27901600  1
  S  S49  1  0.13514000  0.25908100  0.27901600  1
  S  S50  1  0.75908100  0.36486000  0.77901600  1
  S  S51  1  0.24091900  0.36486000  0.77901600  1
  S  S52  1  0.00000000  0.38201200  0.83711700  1
  S  S53  1  0.50000000  0.38183100  0.77429300  1
  S  S54  1  0.88201200  0.50000000  0.33711700  1
  S  S55  1  0.38183100  0.50000000  0.22570700  1
  S  S56  1  0.11798800  0.50000000  0.33711700  1
  S  S57  1  0.61816900  0.50000000  0.22570700  1
  S  S58  1  0.50000000  0.61816900  0.77429300  1
  S  S59  1  0.00000000  0.61798800  0.83711700  1
  S  S60  1  0.24091900  0.63514000  0.77901600  1
  S  S61  1  0.75908100  0.63514000  0.77901600  1
  S  S62  1  0.86486000  0.74091900  0.27901600  1
  S  S63  1  0.13514000  0.74091900  0.27901600  1
  S  S64  1  0.36486000  0.75908100  0.22098400  1
  S  S65  1  0.63514000  0.75908100  0.22098400  1
  S  S66  1  0.25908100  0.86486000  0.72098400  1
  S  S67  1  0.74091900  0.86486000  0.72098400  1
  S  S68  1  0.50000000  0.88201200  0.66288300  1
  S  S69  1  0.00000000  0.88183100  0.72570700  1
  S  S70  1  0.88183100  0.00000000  0.27429300  1
  S  S71  1  0.11816900  0.00000000  0.27429300  1
  S  S72  1  0.38201200  0.00000000  0.16288300  1
  S  S73  1  0.61798800  0.00000000  0.16288300  1
  S  S74  1  0.00000000  0.11816900  0.72570700  1
  S  S75  1  0.50000000  0.11798800  0.66288300  1
  S  S76  1  0.25908100  0.13514000  0.72098400  1
  S  S77  1  0.74091900  0.13514000  0.72098400  1
  S  S78  1  0.36486000  0.24091900  0.22098400  1
  S  S79  1  0.63514000  0.24091900  0.22098400  1
