# generated using pymatgen
data_Li3Bi(BO3)2
_symmetry_space_group_name_H-M   'P 1'
_cell_length_a   8.39667000
_cell_length_b   6.37794400
_cell_length_c   11.50710348
_cell_angle_alpha   62.62190143
_cell_angle_beta   90.00000000
_cell_angle_gamma   90.00000000
_symmetry_Int_Tables_number   1
_chemical_formula_structural   Li3Bi(BO3)2
_chemical_formula_sum   'Li12 Bi4 B8 O24'
_cell_volume   547.22065709
_cell_formula_units_Z   4
loop_
 _symmetry_equiv_pos_site_id
 _symmetry_equiv_pos_as_xyz
  1  'x, y, z'
loop_
 _atom_site_type_symbol
 _atom_site_label
 _atom_site_symmetry_multiplicity
 _atom_site_fract_x
 _atom_site_fract_y
 _atom_site_fract_z
 _atom_site_occupancy
  Li  Li0  1  0.73193700  0.55979600  0.86868000  1
  Li  Li1  1  0.79507800  0.01412600  0.42756700  1
  Li  Li2  1  0.56105600  0.70582000  0.61806200  1
  Li  Li3  1  0.06105600  0.29418000  0.88193800  1
  Li  Li4  1  0.23193700  0.44020400  0.63132000  1
  Li  Li5  1  0.70492200  0.01412600  0.92756700  1
  Li  Li6  1  0.29507800  0.98587400  0.07243300  1
  Li  Li7  1  0.76806300  0.55979600  0.36868000  1
  Li  Li8  1  0.93894400  0.70582000  0.11806200  1
  Li  Li9  1  0.43894400  0.29418000  0.38193800  1
  Li  Li10  1  0.20492200  0.98587400  0.57243300  1
  Li  Li11  1  0.26806300  0.44020400  0.13132000  1
  Bi  Bi12  1  0.62327700  0.10092300  0.16728500  1
  Bi  Bi13  1  0.12327700  0.89907700  0.33271500  1
  Bi  Bi14  1  0.87672300  0.10092300  0.66728500  1
  Bi  Bi15  1  0.37672300  0.89907700  0.83271500  1
  B  B16  1  0.90387900  0.62740300  0.63708100  1
  B  B17  1  0.95008300  0.19765300  0.10166600  1
  B  B18  1  0.40387900  0.37259700  0.86291900  1
  B  B19  1  0.45008300  0.80234700  0.39833400  1
  B  B20  1  0.54991700  0.19765300  0.60166600  1
  B  B21  1  0.59612100  0.62740300  0.13708100  1
  B  B22  1  0.04991700  0.80234700  0.89833400  1
  B  B23  1  0.09612100  0.37259700  0.36291900  1
  O  O24  1  0.78215400  0.71354800  0.68582800  1
  O  O25  1  0.46659600  0.59872000  0.79044700  1
  O  O26  1  0.96089200  0.77383000  0.51368900  1
  O  O27  1  0.84197100  0.27829500  0.99874800  1
  O  O28  1  0.89405800  0.13790100  0.22924900  1
  O  O29  1  0.46089200  0.22617000  0.98631100  1
  O  O30  1  0.10781200  0.15468400  0.08625500  1
  O  O31  1  0.60781200  0.84531600  0.41374500  1
  O  O32  1  0.39405800  0.86209900  0.27075100  1
  O  O33  1  0.34197100  0.72170500  0.50125200  1
  O  O34  1  0.96659600  0.40128000  0.70955300  1
  O  O35  1  0.28215400  0.28645200  0.81417200  1
  O  O36  1  0.71784600  0.71354800  0.18582800  1
  O  O37  1  0.03340400  0.59872000  0.29044700  1
  O  O38  1  0.65802900  0.27829500  0.49874800  1
  O  O39  1  0.60594200  0.13790100  0.72924900  1
  O  O40  1  0.39218800  0.15468400  0.58625500  1
  O  O41  1  0.89218800  0.84531600  0.91374500  1
  O  O42  1  0.53910800  0.77383000  0.01368900  1
  O  O43  1  0.10594200  0.86209900  0.77075100  1
  O  O44  1  0.15802900  0.72170500  0.00125200  1
  O  O45  1  0.03910800  0.22617000  0.48631100  1
  O  O46  1  0.53340400  0.40128000  0.20955300  1
  O  O47  1  0.21784600  0.28645200  0.31417200  1
