# generated using pymatgen
data_LiCu3P3O11
_symmetry_space_group_name_H-M   'P 1'
_cell_length_a   9.09082000
_cell_length_b   8.48516900
_cell_length_c   10.80852249
_cell_angle_alpha   84.21704623
_cell_angle_beta   90.00000000
_cell_angle_gamma   90.00000000
_symmetry_Int_Tables_number   1
_chemical_formula_structural   LiCu3P3O11
_chemical_formula_sum   'Li4 Cu12 P12 O44'
_cell_volume   829.49543558
_cell_formula_units_Z   4
loop_
 _symmetry_equiv_pos_site_id
 _symmetry_equiv_pos_as_xyz
  1  'x, y, z'
loop_
 _atom_site_type_symbol
 _atom_site_label
 _atom_site_symmetry_multiplicity
 _atom_site_fract_x
 _atom_site_fract_y
 _atom_site_fract_z
 _atom_site_occupancy
  Li  Li0  1  0.76357100  0.93675900  0.47894500  1
  Li  Li1  1  0.73642900  0.93675900  0.97894500  1
  Li  Li2  1  0.26357100  0.06324100  0.02105500  1
  Li  Li3  1  0.23642900  0.06324100  0.52105500  1
  Cu  Cu4  1  0.33929400  0.96245900  0.75582700  1
  Cu  Cu5  1  0.16070600  0.96245900  0.25582700  1
  Cu  Cu6  1  0.36613400  0.54860100  0.92876400  1
  Cu  Cu7  1  0.38112400  0.56388100  0.64721200  1
  Cu  Cu8  1  0.13386600  0.54860100  0.42876400  1
  Cu  Cu9  1  0.88112400  0.43611900  0.85278800  1
  Cu  Cu10  1  0.11887600  0.56388100  0.14721200  1
  Cu  Cu11  1  0.86613400  0.45139900  0.57123600  1
  Cu  Cu12  1  0.61887600  0.43611900  0.35278800  1
  Cu  Cu13  1  0.63386600  0.45139900  0.07123600  1
  Cu  Cu14  1  0.83929400  0.03754100  0.74417300  1
  Cu  Cu15  1  0.66070600  0.03754100  0.24417300  1
  P  P16  1  0.06660200  0.80022900  0.89436000  1
  P  P17  1  0.05322600  0.79877300  0.63304500  1
  P  P18  1  0.43339800  0.80022900  0.39436000  1
  P  P19  1  0.66969200  0.65043700  0.80211700  1
  P  P20  1  0.44677400  0.79877300  0.13304500  1
  P  P21  1  0.83030800  0.65043700  0.30211700  1
  P  P22  1  0.16969200  0.34956300  0.69788300  1
  P  P23  1  0.55322600  0.20122700  0.86695500  1
  P  P24  1  0.33030800  0.34956300  0.19788300  1
  P  P25  1  0.56660200  0.19977100  0.60564000  1
  P  P26  1  0.94677400  0.20122700  0.36695500  1
  P  P27  1  0.93339800  0.19977100  0.10564000  1
  O  O28  1  0.96802500  0.94777400  0.88334000  1
  O  O29  1  0.93272100  0.92609700  0.61222100  1
  O  O30  1  0.53197500  0.94777400  0.38334000  1
  O  O31  1  0.70108100  0.82420900  0.79760800  1
  O  O32  1  0.23284200  0.83518500  0.88716800  1
  O  O33  1  0.56727900  0.92609700  0.11222100  1
  O  O34  1  0.79891900  0.82420900  0.29760800  1
  O  O35  1  0.21135200  0.86250100  0.63066800  1
  O  O36  1  0.26715800  0.83518500  0.38716800  1
  O  O37  1  0.49957500  0.62574900  0.78748900  1
  O  O38  1  0.02996100  0.70827000  0.77147500  1
  O  O39  1  0.28864800  0.86250100  0.13066800  1
  O  O40  1  0.47199800  0.68095800  0.50448100  1
  O  O41  1  0.73328500  0.56459900  0.93107000  1
  O  O42  1  0.02641300  0.67352500  0.54295800  1
  O  O43  1  0.00042500  0.62574900  0.28748900  1
  O  O44  1  0.47003900  0.70827000  0.27147500  1
  O  O45  1  0.75643100  0.55039500  0.71170900  1
  O  O46  1  0.02800200  0.68095800  0.00448100  1
  O  O47  1  0.76671500  0.56459900  0.43107000  1
  O  O48  1  0.47358700  0.67352500  0.04295800  1
  O  O49  1  0.74356900  0.55039500  0.21170900  1
  O  O50  1  0.25643100  0.44960500  0.78829100  1
  O  O51  1  0.52641300  0.32647500  0.95704200  1
  O  O52  1  0.23328500  0.43540100  0.56893000  1
  O  O53  1  0.97199800  0.31904200  0.99551900  1
  O  O54  1  0.24356900  0.44960500  0.28829100  1
  O  O55  1  0.52996100  0.29173000  0.72852500  1
  O  O56  1  0.99957500  0.37425100  0.71251100  1
  O  O57  1  0.97358700  0.32647500  0.45704200  1
  O  O58  1  0.26671500  0.43540100  0.06893000  1
  O  O59  1  0.52800200  0.31904200  0.49551900  1
  O  O60  1  0.71135200  0.13749900  0.86933200  1
  O  O61  1  0.97003900  0.29173000  0.22852500  1
  O  O62  1  0.50042500  0.37425100  0.21251100  1
  O  O63  1  0.73284200  0.16481500  0.61283200  1
  O  O64  1  0.78864800  0.13749900  0.36933200  1
  O  O65  1  0.20108100  0.17579100  0.70239200  1
  O  O66  1  0.43272100  0.07390300  0.88777900  1
  O  O67  1  0.76715800  0.16481500  0.11283200  1
  O  O68  1  0.29891900  0.17579100  0.20239200  1
  O  O69  1  0.46802500  0.05222600  0.61666000  1
  O  O70  1  0.06727900  0.07390300  0.38777900  1
  O  O71  1  0.03197500  0.05222600  0.11666000  1
