# generated using pymatgen
data_Li9Cr3(WO4)7
_symmetry_space_group_name_H-M   'P 1'
_cell_length_a   8.49995135
_cell_length_b   8.49995135
_cell_length_c   8.49995199
_cell_angle_alpha   89.62176551
_cell_angle_beta   89.62176551
_cell_angle_gamma   89.62176579
_symmetry_Int_Tables_number   1
_chemical_formula_structural   Li9Cr3(WO4)7
_chemical_formula_sum   'Li9 Cr3 W7 O28'
_cell_volume   614.07453412
_cell_formula_units_Z   1
loop_
 _symmetry_equiv_pos_site_id
 _symmetry_equiv_pos_as_xyz
  1  'x, y, z'
loop_
 _atom_site_type_symbol
 _atom_site_label
 _atom_site_symmetry_multiplicity
 _atom_site_fract_x
 _atom_site_fract_y
 _atom_site_fract_z
 _atom_site_occupancy
  Li  Li0  1  0.90748800  0.34884800  0.64454800  1
  Li  Li1  1  0.90748800  0.64454800  0.34884800  1
  Li  Li2  1  0.64454800  0.34884800  0.90748800  1
  Li  Li3  1  0.64454800  0.90748800  0.34884800  1
  Li  Li4  1  0.35853600  0.09329700  0.35853600  1
  Li  Li5  1  0.35853600  0.35853600  0.09329700  1
  Li  Li6  1  0.34884800  0.64454800  0.90748800  1
  Li  Li7  1  0.34884800  0.90748800  0.64454800  1
  Li  Li8  1  0.09329700  0.35853600  0.35853600  1
  Cr  Cr9  1  0.62550200  0.10585600  0.62550200  1
  Cr  Cr10  1  0.62550200  0.62550200  0.10585600  1
  Cr  Cr11  1  0.10585600  0.62550200  0.62550200  1
  W  W12  1  0.64816600  0.36156800  0.36156800  1
  W  W13  1  0.64260400  0.64260400  0.64260400  1
  W  W14  1  0.36156800  0.36156800  0.64816600  1
  W  W15  1  0.36156800  0.64816600  0.36156800  1
  W  W16  1  0.99826000  0.99826000  0.49906000  1
  W  W17  1  0.99826000  0.49906000  0.99826000  1
  W  W18  1  0.49906000  0.99826000  0.99826000  1
  O  O19  1  0.85917300  0.38429600  0.38429600  1
  O  O20  1  0.85690500  0.61970200  0.61970200  1
  O  O21  1  0.86631800  0.11752600  0.62235900  1
  O  O22  1  0.86631800  0.62235900  0.11752600  1
  O  O23  1  0.87976100  0.37347900  0.87976100  1
  O  O24  1  0.87976100  0.87976100  0.37347900  1
  O  O25  1  0.62235900  0.11752600  0.86631800  1
  O  O26  1  0.62235900  0.86631800  0.11752600  1
  O  O27  1  0.61803100  0.38607700  0.61803100  1
  O  O28  1  0.61803100  0.61803100  0.38607700  1
  O  O29  1  0.61927300  0.13603800  0.39269000  1
  O  O30  1  0.61927300  0.39269000  0.13603800  1
  O  O31  1  0.61970200  0.61970200  0.85690500  1
  O  O32  1  0.61970200  0.85690500  0.61970200  1
  O  O33  1  0.39269000  0.13603800  0.61927300  1
  O  O34  1  0.39269000  0.61927300  0.13603800  1
  O  O35  1  0.38429600  0.38429600  0.85917300  1
  O  O36  1  0.38429600  0.85917300  0.38429600  1
  O  O37  1  0.39996200  0.39996200  0.39996200  1
  O  O38  1  0.38607700  0.61803100  0.61803100  1
  O  O39  1  0.38503100  0.12445200  0.12445200  1
  O  O40  1  0.37347900  0.87976100  0.87976100  1
  O  O41  1  0.12445200  0.12445200  0.38503100  1
  O  O42  1  0.12445200  0.38503100  0.12445200  1
  O  O43  1  0.11752600  0.62235900  0.86631800  1
  O  O44  1  0.11752600  0.86631800  0.62235900  1
  O  O45  1  0.13603800  0.39269000  0.61927300  1
  O  O46  1  0.13603800  0.61927300  0.39269000  1
