# generated using pymatgen
data_Li5Fe8(BO3)8
_symmetry_space_group_name_H-M   'P 1'
_cell_length_a   5.24921600
_cell_length_b   9.12148330
_cell_length_c   10.11828421
_cell_angle_alpha   88.84817658
_cell_angle_beta   88.57211863
_cell_angle_gamma   89.67217769
_symmetry_Int_Tables_number   1
_chemical_formula_structural   Li5Fe8(BO3)8
_chemical_formula_sum   'Li5 Fe8 B8 O24'
_cell_volume   484.21497992
_cell_formula_units_Z   1
loop_
 _symmetry_equiv_pos_site_id
 _symmetry_equiv_pos_as_xyz
  1  'x, y, z'
loop_
 _atom_site_type_symbol
 _atom_site_label
 _atom_site_symmetry_multiplicity
 _atom_site_fract_x
 _atom_site_fract_y
 _atom_site_fract_z
 _atom_site_occupancy
  Li  Li0  1  0.15063700  0.17346700  0.65668300  1
  Li  Li1  1  0.32911100  0.33075400  0.40466800  1
  Li  Li2  1  0.33691000  0.32081200  0.91830000  1
  Li  Li3  1  0.65994800  0.67371100  0.65976000  1
  Li  Li4  1  0.83450200  0.83157300  0.38590100  1
  Fe  Fe5  1  0.16284700  0.83239700  0.63325000  1
  Fe  Fe6  1  0.16657400  0.50384900  0.13363300  1
  Fe  Fe7  1  0.31538700  0.98960200  0.88322700  1
  Fe  Fe8  1  0.35279000  0.66123200  0.37455500  1
  Fe  Fe9  1  0.66328200  0.34366000  0.63223300  1
  Fe  Fe10  1  0.66746300  0.00193200  0.12362900  1
  Fe  Fe11  1  0.84355100  0.16064100  0.37402700  1
  Fe  Fe12  1  0.82305200  0.51018100  0.88772600  1
  B  B13  1  0.16126500  0.50321100  0.62452200  1
  B  B14  1  0.16602100  0.83242400  0.13464600  1
  B  B15  1  0.33558500  0.99883400  0.38484500  1
  B  B16  1  0.32478000  0.66212000  0.86953000  1
  B  B17  1  0.66664000  0.99813000  0.62571600  1
  B  B18  1  0.66669200  0.33201000  0.12913800  1
  B  B19  1  0.83657300  0.49759300  0.37865500  1
  B  B20  1  0.82598500  0.17226500  0.87801200  1
  O  O21  1  0.09675700  0.48457600  0.33791000  1
  O  O22  1  0.08924400  0.16864600  0.85935600  1
  O  O23  1  0.17801900  0.78320000  0.82600200  1
  O  O24  1  0.20813300  0.86964200  0.42817500  1
  O  O25  1  0.21674000  0.13162800  0.39008900  1
  O  O26  1  0.20259600  0.53956700  0.92802100  1
  O  O27  1  0.28305200  0.36964500  0.61306100  1
  O  O28  1  0.32103800  0.94514800  0.08669400  1
  O  O29  1  0.29482700  0.63341700  0.59228200  1
  O  O30  1  0.27847400  0.69942300  0.17018400  1
  O  O31  1  0.40708000  0.34646600  0.11927400  1
  O  O32  1  0.40431500  0.99676200  0.66067600  1
  O  O33  1  0.58816600  0.98525500  0.33841200  1
  O  O34  1  0.57965000  0.66561300  0.84947600  1
  O  O35  1  0.68898600  0.29947600  0.84492200  1
  O  O36  1  0.70282100  0.37029600  0.41245700  1
  O  O37  1  0.72549700  0.63273600  0.38770200  1
  O  O38  1  0.69184100  0.05148700  0.92797500  1
  O  O39  1  0.82252200  0.44973400  0.09474900  1
  O  O40  1  0.79761200  0.86613400  0.61580400  1
  O  O41  1  0.78869700  0.12885400  0.59732900  1
  O  O42  1  0.77378900  0.19895800  0.16793600  1
  O  O43  1  0.90981100  0.85182600  0.15035900  1
  O  O44  1  0.90839500  0.51263900  0.66407100  1
