# generated using pymatgen
data_Li4Mn2V3Cr3O16
_symmetry_space_group_name_H-M   'P 1'
_cell_length_a   5.88277537
_cell_length_b   5.88277537
_cell_length_c   9.64238509
_cell_angle_alpha   87.53895434
_cell_angle_beta   87.53895434
_cell_angle_gamma   60.61320595
_symmetry_Int_Tables_number   1
_chemical_formula_structural   Li4Mn2V3Cr3O16
_chemical_formula_sum   'Li4 Mn2 V3 Cr3 O16'
_cell_volume   290.39711412
_cell_formula_units_Z   1
loop_
 _symmetry_equiv_pos_site_id
 _symmetry_equiv_pos_as_xyz
  1  'x, y, z'
loop_
 _atom_site_type_symbol
 _atom_site_label
 _atom_site_symmetry_multiplicity
 _atom_site_fract_x
 _atom_site_fract_y
 _atom_site_fract_z
 _atom_site_occupancy
  Li  Li0  1  0.66312300  0.66312300  0.89501400  1
  Li  Li1  1  0.00931700  0.00931700  0.99460700  1
  Li  Li2  1  0.00443000  0.00443000  0.49474800  1
  Li  Li3  1  0.33295200  0.33295200  0.39564200  1
  Mn  Mn4  1  0.66299500  0.66299500  0.48657700  1
  Mn  Mn5  1  0.33113800  0.33113800  0.98886000  1
  V  V6  1  0.66031200  0.16169600  0.71454800  1
  V  V7  1  0.83200400  0.83200400  0.20916000  1
  V  V8  1  0.16169600  0.66031200  0.71454800  1
  Cr  Cr9  1  0.83158800  0.33996400  0.21566100  1
  Cr  Cr10  1  0.33996400  0.83158800  0.21566100  1
  Cr  Cr11  1  0.16860600  0.16860600  0.71191500  1
  O  O12  1  0.82915700  0.32731900  0.60267400  1
  O  O13  1  0.51356900  0.51356900  0.33255700  1
  O  O14  1  0.68017600  0.68017600  0.10493500  1
  O  O15  1  0.99083100  0.99083100  0.31030900  1
  O  O16  1  0.99338800  0.99338800  0.81077700  1
  O  O17  1  0.32731900  0.82915700  0.60267400  1
  O  O18  1  0.95734500  0.52777800  0.33694600  1
  O  O19  1  0.52777800  0.95734500  0.33694600  1
  O  O20  1  0.16590900  0.16590900  0.09803500  1
  O  O21  1  0.84241500  0.84241500  0.60589200  1
  O  O22  1  0.48473500  0.03351300  0.83338900  1
  O  O23  1  0.03351300  0.48473500  0.83338900  1
  O  O24  1  0.34009100  0.34009100  0.60307800  1
  O  O25  1  0.68300400  0.14808500  0.10657800  1
  O  O26  1  0.47578700  0.47578700  0.84341900  1
  O  O27  1  0.14808500  0.68300400  0.10657800  1
