# generated using pymatgen
data_Li7V3P8O29
_symmetry_space_group_name_H-M   'P 1'
_cell_length_a   9.81589600
_cell_length_b   9.86232845
_cell_length_c   13.94855894
_cell_angle_alpha   89.67018319
_cell_angle_beta   89.79559065
_cell_angle_gamma   60.40441588
_symmetry_Int_Tables_number   1
_chemical_formula_structural   Li7V3P8O29
_chemical_formula_sum   'Li14 V6 P16 O58'
_cell_volume   1174.13348158
_cell_formula_units_Z   2
loop_
 _symmetry_equiv_pos_site_id
 _symmetry_equiv_pos_as_xyz
  1  'x, y, z'
loop_
 _atom_site_type_symbol
 _atom_site_label
 _atom_site_symmetry_multiplicity
 _atom_site_fract_x
 _atom_site_fract_y
 _atom_site_fract_z
 _atom_site_occupancy
  Li  Li0  1  0.90600500  0.33473400  0.93686500  1
  Li  Li1  1  0.76496300  0.33595300  0.43841400  1
  Li  Li2  1  0.90326900  0.76745200  0.43921600  1
  Li  Li3  1  0.67219100  0.65868200  0.11445800  1
  Li  Li4  1  0.76763500  0.91087100  0.93816200  1
  Li  Li5  1  0.32087700  0.77182500  0.94011500  1
  Li  Li6  1  0.67861700  0.09241100  0.56423600  1
  Li  Li7  1  0.33968400  0.89918300  0.44057100  1
  Li  Li8  1  0.32094800  0.33368700  0.38749600  1
  Li  Li9  1  0.34200900  0.31217600  0.88850800  1
  Li  Li10  1  0.23525600  0.67750600  0.56282100  1
  Li  Li11  1  0.09130800  0.67747800  0.06441400  1
  Li  Li12  1  0.98552000  0.05414900  0.00350500  1
  Li  Li13  1  0.01919600  0.04761700  0.50821500  1
  V  V14  1  0.56448800  0.99761800  0.74904100  1
  V  V15  1  0.43355800  0.00127500  0.24533900  1
  V  V16  1  0.56507900  0.43225600  0.24838200  1
  V  V17  1  0.44137700  0.56155400  0.75248000  1
  V  V18  1  0.00371200  0.43311700  0.74639200  1
  V  V19  1  0.99808900  0.56266700  0.25226800  1
  P  P20  1  0.90772800  0.31698000  0.15351300  1
  P  P21  1  0.77344700  0.31527800  0.65625000  1
  P  P22  1  0.91557400  0.77126000  0.65848800  1
  P  P23  1  0.67287200  0.66099700  0.87329100  1
  P  P24  1  0.65836400  0.67112200  0.37252300  1
  P  P25  1  0.77481200  0.91103500  0.15536000  1
  P  P26  1  0.68356500  0.08882400  0.34235200  1
  P  P27  1  0.31852400  0.77181700  0.15814700  1
  P  P28  1  0.69165900  0.22132900  0.84139200  1
  P  P29  1  0.31152000  0.91186900  0.65522700  1
  P  P30  1  0.21705200  0.08792800  0.83994400  1
  P  P31  1  0.33409900  0.33905400  0.62788800  1
  P  P32  1  0.33485700  0.33435500  0.12735300  1
  P  P33  1  0.08888600  0.21837700  0.33885700  1
  P  P34  1  0.22943900  0.68044400  0.34448200  1
  P  P35  1  0.09174100  0.68086500  0.84374000  1
  O  O36  1  0.98888700  0.21050800  0.41864200  1
  O  O37  1  0.91395900  0.34020700  0.66165400  1
  O  O38  1  0.79270200  0.22114100  0.92179800  1
  O  O39  1  0.74529100  0.33353900  0.16616800  1
  O  O40  1  0.89125800  0.48027100  0.16534200  1
  O  O41  1  0.82071600  0.51336200  0.83206600  1
  O  O42  1  0.90408700  0.62270500  0.67294900  1
  O  O43  1  0.99940200  0.76597200  0.93210700  1
  O  O44  1  0.92103300  0.74842500  0.16127500  1
  O  O45  1  0.66069300  0.52103600  0.32924100  1
  O  O46  1  0.61907700  0.47014400  0.66975200  1
  O  O47  1  0.80890700  0.67190500  0.33849400  1
  O  O48  1  0.67113700  0.64670000  0.98094000  1
  O  O49  1  0.63778300  0.67560900  0.47873100  1
  O  O50  1  0.67233400  0.81007600  0.84009600  1
  O  O51  1  0.48278300  0.62452100  0.16978200  1
  O  O52  1  0.52134700  0.66217900  0.83202000  1
  O  O53  1  0.75387900  0.91808200  0.65869200  1
  O  O54  1  0.78395700  0.00442300  0.24819600  1
  O  O55  1  0.77079300  0.99751000  0.43078100  1
  O  O56  1  0.77549000  0.99452300  0.06522400  1
  O  O57  1  0.62681600  0.89234600  0.16789700  1
  O  O58  1  0.51358900  0.81925900  0.32549600  1
  O  O59  1  0.66243100  0.08194800  0.84451500  1
  O  O60  1  0.46586900  0.91178300  0.66587400  1
  O  O61  1  0.33291300  0.74605100  0.66664100  1
  O  O62  1  0.78594500  0.20083700  0.74238500  1
  O  O63  1  0.77557200  0.23070700  0.56460800  1
  O  O64  1  0.24027900  0.76600700  0.43116200  1
  O  O65  1  0.66574500  0.25327600  0.34385400  1
  O  O66  1  0.51934000  0.10411300  0.33206400  1
  O  O67  1  0.33753000  0.91608200  0.15869500  1
  O  O68  1  0.48520100  0.19138000  0.65962600  1
  O  O69  1  0.36722400  0.10090900  0.83373200  1
  O  O70  1  0.20593700  0.99249900  0.92123200  1
  O  O71  1  0.22494600  0.98177500  0.56267700  1
  O  O72  1  0.19791100  0.01347500  0.74129200  1
  O  O73  1  0.25511800  0.07487700  0.34120200  1
  O  O74  1  0.47791500  0.34031300  0.17425000  1
  O  O75  1  0.52761600  0.37078900  0.83170100  1
  O  O76  1  0.34231800  0.18418100  0.17353900  1
  O  O77  1  0.34669500  0.32611100  0.02065200  1
  O  O78  1  0.31949200  0.35881900  0.52084000  1
  O  O79  1  0.18784000  0.33734600  0.67447300  1
  O  O80  1  0.37418300  0.51654400  0.33185400  1
  O  O81  1  0.33128400  0.48797100  0.67236700  1
  O  O82  1  0.07580900  0.25549900  0.84068400  1
  O  O83  1  0.01486700  0.20583400  0.23914700  1
  O  O84  1  0.98399000  0.23531000  0.06170600  1
  O  O85  1  0.10373100  0.36710300  0.33569400  1
  O  O86  1  0.18517700  0.48088300  0.16229500  1
  O  O87  1  0.10627900  0.51836100  0.83158200  1
  O  O88  1  0.25813300  0.66011500  0.84616100  1
  O  O89  1  0.23279100  0.76523200  0.06972600  1
  O  O90  1  0.21396800  0.78306500  0.25027500  1
  O  O91  1  0.08118100  0.66567600  0.34660700  1
  O  O92  1  0.00680500  0.76496100  0.56899600  1
  O  O93  1  0.00721700  0.78710200  0.75099300  1
