# generated using pymatgen
data_Li2Fe2(CO3)3
_symmetry_space_group_name_H-M   'P 1'
_cell_length_a   6.04456445
_cell_length_b   6.04456782
_cell_length_c   10.08856953
_cell_angle_alpha   90.02257444
_cell_angle_beta   90.02348097
_cell_angle_gamma   108.34933165
_symmetry_Int_Tables_number   1
_chemical_formula_structural   Li2Fe2(CO3)3
_chemical_formula_sum   'Li4 Fe4 C6 O18'
_cell_volume   349.86201632
_cell_formula_units_Z   2
loop_
 _symmetry_equiv_pos_site_id
 _symmetry_equiv_pos_as_xyz
  1  'x, y, z'
loop_
 _atom_site_type_symbol
 _atom_site_label
 _atom_site_symmetry_multiplicity
 _atom_site_fract_x
 _atom_site_fract_y
 _atom_site_fract_z
 _atom_site_occupancy
  Li  Li0  1  0.12390000  0.72220200  0.24613600  1
  Li  Li1  1  0.12377000  0.72193100  0.75402700  1
  Li  Li2  1  0.72222200  0.12394400  0.24612800  1
  Li  Li3  1  0.72193900  0.12375700  0.75404400  1
  Fe  Fe4  1  0.59654300  0.59657400  0.25540600  1
  Fe  Fe5  1  0.59618800  0.59617000  0.74482000  1
  Fe  Fe6  1  0.93414300  0.93415100  0.50054200  1
  Fe  Fe7  1  0.91768500  0.91766800  0.00019800  1
  C  C8  1  0.24090400  0.24090700  0.24983700  1
  C  C9  1  0.24063300  0.24063000  0.74984400  1
  C  C10  1  0.46624200  0.87457100  0.99998000  1
  C  C11  1  0.47753500  0.88082900  0.50005600  1
  C  C12  1  0.87457400  0.46624100  0.99997700  1
  C  C13  1  0.88082600  0.47753000  0.50005100  1
  O  O14  1  0.05725100  0.05724200  0.25056500  1
  O  O15  1  0.05697400  0.05697700  0.74867000  1
  O  O16  1  0.26556500  0.89664900  0.99987100  1
  O  O17  1  0.27699200  0.90175200  0.49995400  1
  O  O18  1  0.89665900  0.26555800  0.99987700  1
  O  O19  1  0.90176100  0.27700900  0.49994100  1
  O  O20  1  0.22776500  0.45135100  0.24957600  1
  O  O21  1  0.22756100  0.45104500  0.75027400  1
  O  O22  1  0.45135900  0.22779600  0.24957800  1
  O  O23  1  0.45104800  0.22754200  0.75028500  1
  O  O24  1  0.58099900  0.86501900  0.10980900  1
  O  O25  1  0.59301500  0.87235400  0.60997400  1
  O  O26  1  0.86500400  0.58099200  0.10980500  1
  O  O27  1  0.87235600  0.59301000  0.60997400  1
  O  O28  1  0.59316300  0.87248600  0.39022800  1
  O  O29  1  0.58094800  0.86497500  0.89017400  1
  O  O30  1  0.87246400  0.59317900  0.39022900  1
  O  O31  1  0.86499300  0.58094300  0.89017000  1
