# generated using pymatgen
data_Li2CrO3
_symmetry_space_group_name_H-M   'P 1'
_cell_length_a   5.91631226
_cell_length_b   5.91618917
_cell_length_c   5.35434285
_cell_angle_alpha   56.82673199
_cell_angle_beta   123.17341214
_cell_angle_gamma   120.82401044
_symmetry_Int_Tables_number   1
_chemical_formula_structural   Li2CrO3
_chemical_formula_sum   'Li4 Cr2 O6'
_cell_volume   125.08609122
_cell_formula_units_Z   2
loop_
 _symmetry_equiv_pos_site_id
 _symmetry_equiv_pos_as_xyz
  1  'x, y, z'
loop_
 _atom_site_type_symbol
 _atom_site_label
 _atom_site_symmetry_multiplicity
 _atom_site_fract_x
 _atom_site_fract_y
 _atom_site_fract_z
 _atom_site_occupancy
  Li  Li0  1  0.26096700  0.58378500  0.75332000  1
  Li  Li1  1  0.41622400  0.73904400  0.25331600  1
  Li  Li2  1  0.58378200  0.26096900  0.74667200  1
  Li  Li3  1  0.73904700  0.41622400  0.24669300  1
  Cr  Cr4  1  0.91410600  0.91410700  0.74999800  1
  Cr  Cr5  1  0.08589300  0.08588500  0.25001200  1
  O  O6  1  0.21696600  0.91788100  0.73282700  1
  O  O7  1  0.08212100  0.78302000  0.23284200  1
  O  O8  1  0.61124100  0.61124100  0.74999400  1
  O  O9  1  0.38874600  0.38874900  0.25000600  1
  O  O10  1  0.91788300  0.21697400  0.76715900  1
  O  O11  1  0.78302400  0.08212000  0.26716100  1
