# generated using pymatgen
data_LiCoSnO4
_symmetry_space_group_name_H-M   'P 1'
_cell_length_a   6.08866602
_cell_length_b   8.60018702
_cell_length_c   6.08799500
_cell_angle_alpha   90.00021938
_cell_angle_beta   89.99577458
_cell_angle_gamma   89.99162587
_symmetry_Int_Tables_number   1
_chemical_formula_structural   LiCoSnO4
_chemical_formula_sum   'Li4 Co4 Sn4 O16'
_cell_volume   318.78973575
_cell_formula_units_Z   4
loop_
 _symmetry_equiv_pos_site_id
 _symmetry_equiv_pos_as_xyz
  1  'x, y, z'
loop_
 _atom_site_type_symbol
 _atom_site_label
 _atom_site_symmetry_multiplicity
 _atom_site_fract_x
 _atom_site_fract_y
 _atom_site_fract_z
 _atom_site_occupancy
  Li  Li0  1  0.21591600  0.99994600  0.00003100  1
  Li  Li1  1  0.78406800  0.50006700  0.00004400  1
  Li  Li2  1  0.99997100  0.24996600  0.21590300  1
  Li  Li3  1  0.99998400  0.75002200  0.78414000  1
  Co  Co4  1  0.24530300  0.37503700  0.75467800  1
  Co  Co5  1  0.75470200  0.12496400  0.75466000  1
  Co  Co6  1  0.24538900  0.62503500  0.24531600  1
  Co  Co7  1  0.75463800  0.87496100  0.24531600  1
  Sn  Sn8  1  0.49995200  0.25000100  0.23093400  1
  Sn  Sn9  1  0.23101700  0.99989200  0.50000500  1
  Sn  Sn10  1  0.76904100  0.50010800  0.50000700  1
  Sn  Sn11  1  0.49997500  0.75000400  0.76901200  1
  O  O12  1  0.25625200  0.25110000  0.99642100  1
  O  O13  1  0.74374200  0.24889800  0.99639400  1
  O  O14  1  0.99643700  0.99872500  0.25648900  1
  O  O15  1  0.00359800  0.50126000  0.25646000  1
  O  O16  1  0.99628100  0.00110200  0.74365600  1
  O  O17  1  0.00370500  0.49889700  0.74365400  1
  O  O18  1  0.25645800  0.74877400  0.00355200  1
  O  O19  1  0.74351200  0.75124500  0.00352500  1
  O  O20  1  0.48274000  0.00703700  0.25743600  1
  O  O21  1  0.51730500  0.49296100  0.25746600  1
  O  O22  1  0.25753900  0.24282800  0.48275100  1
  O  O23  1  0.74245600  0.25716000  0.48271600  1
  O  O24  1  0.25754200  0.75699100  0.51724300  1
  O  O25  1  0.74248800  0.74300700  0.51722300  1
  O  O26  1  0.51726300  0.50717600  0.74249200  1
  O  O27  1  0.48272500  0.99283400  0.74247700  1
