# generated using pymatgen
data_Li4V3P8O29
_symmetry_space_group_name_H-M   'P 1'
_cell_length_a   9.75913300
_cell_length_b   9.78213693
_cell_length_c   14.22878123
_cell_angle_alpha   89.88780963
_cell_angle_beta   89.77756566
_cell_angle_gamma   60.21021409
_symmetry_Int_Tables_number   1
_chemical_formula_structural   Li4V3P8O29
_chemical_formula_sum   'Li8 V6 P16 O58'
_cell_volume   1178.84332948
_cell_formula_units_Z   2
loop_
 _symmetry_equiv_pos_site_id
 _symmetry_equiv_pos_as_xyz
  1  'x, y, z'
loop_
 _atom_site_type_symbol
 _atom_site_label
 _atom_site_symmetry_multiplicity
 _atom_site_fract_x
 _atom_site_fract_y
 _atom_site_fract_z
 _atom_site_occupancy
  Li  Li0  1  0.68600900  0.08624700  0.06138400  1
  Li  Li1  1  0.67264000  0.23370800  0.55891800  1
  Li  Li2  1  0.23499400  0.09330200  0.55603000  1
  Li  Li3  1  0.08591400  0.23078900  0.06223000  1
  Li  Li4  1  0.23393500  0.66965500  0.05913200  1
  Li  Li5  1  0.09787300  0.66616500  0.55680500  1
  Li  Li6  1  0.31114000  0.91323900  0.94139300  1
  Li  Li7  1  0.00119500  0.99911000  0.49111200  1
  V  V8  1  0.99611600  0.43686900  0.25312000  1
  V  V9  1  0.00149800  0.56517700  0.75015700  1
  V  V10  1  0.56608200  0.43323800  0.74965100  1
  V  V11  1  0.43737300  0.56556000  0.25330600  1
  V  V12  1  0.56840000  0.99846100  0.25095700  1
  V  V13  1  0.43398200  0.00291100  0.74691800  1
  P  P14  1  0.68135300  0.08766500  0.84255700  1
  P  P15  1  0.68839600  0.22600500  0.34308700  1
  P  P16  1  0.22356000  0.08645100  0.34107600  1
  P  P17  1  0.33269300  0.33465600  0.13125600  1
  P  P18  1  0.33160000  0.33636200  0.62813400  1
  P  P19  1  0.08724400  0.23111400  0.84501200  1
  P  P20  1  0.91715300  0.30620100  0.66274700  1
  P  P21  1  0.23012900  0.68150300  0.84199100  1
  P  P22  1  0.77363800  0.31365400  0.16121500  1
  P  P23  1  0.08520600  0.68931500  0.34242600  1
  P  P24  1  0.91530100  0.77240700  0.16038700  1
  P  P25  1  0.66723700  0.66693600  0.36862700  1
  P  P26  1  0.66459000  0.66735300  0.86594800  1
  P  P27  1  0.78011600  0.91525900  0.66144700  1
  P  P28  1  0.30829500  0.77601000  0.66015700  1
  P  P29  1  0.31781800  0.91100000  0.16033400  1
  O  O30  1  0.79788900  0.00620700  0.58263900  1
  O  O31  1  0.65585800  0.08871700  0.32911400  1
  O  O32  1  0.76833100  0.22460100  0.07864600  1
  O  O33  1  0.65818500  0.25629000  0.82728300  1
  O  O34  1  0.52020400  0.09844200  0.81856800  1
  O  O35  1  0.48262400  0.18424800  0.16708600  1
  O  O36  1  0.37947700  0.08508700  0.33072400  1
  O  O37  1  0.23958700  0.99933100  0.07181200  1
  O  O38  1  0.25215400  0.08203700  0.83600600  1
  O  O39  1  0.48719200  0.32651700  0.66918100  1
  O  O40  1  0.53014900  0.38363400  0.32818100  1
  O  O41  1  0.32112900  0.19124300  0.66426100  1
  O  O42  1  0.32300000  0.34582400  0.02671900  1
  O  O43  1  0.32677300  0.34962700  0.52373400  1
  O  O44  1  0.18252900  0.33563200  0.17467900  1
  O  O45  1  0.38113600  0.52052500  0.82088400  1
  O  O46  1  0.33641900  0.48237600  0.17429600  1
  O  O47  1  0.08302900  0.25786100  0.32806100  1
  O  O48  1  0.98330300  0.21655400  0.76193500  1
  O  O49  1  0.00936300  0.20123600  0.58338400  1
  O  O50  1  0.01284100  0.24409100  0.93751600  1
  O  O51  1  0.09947300  0.38091900  0.81942500  1
  O  O52  1  0.18673800  0.49031200  0.67215300  1
  O  O53  1  0.91691900  0.34174800  0.15991300  1
  O  O54  1  0.08492800  0.53165700  0.32901300  1
  O  O55  1  0.25694300  0.65731800  0.32874200  1
  O  O56  1  0.80118700  0.21379300  0.25756200  1
  O  O57  1  0.76729800  0.21427800  0.43454000  1
  O  O58  1  0.20484400  0.78750200  0.58048000  1
  O  O59  1  0.74256900  0.34202600  0.66026500  1
  O  O60  1  0.92094400  0.46268800  0.67137700  1
  O  O61  1  0.08459600  0.65969200  0.83374300  1
  O  O62  1  0.81340600  0.51528700  0.32200800  1
  O  O63  1  0.90769700  0.61934300  0.17884600  1
  O  O64  1  0.01302000  0.76253700  0.07835600  1
  O  O65  1  0.01920600  0.76944700  0.43404600  1
  O  O66  1  0.98896500  0.80054600  0.25673900  1
  O  O67  1  0.92030200  0.74079200  0.66178400  1
  O  O68  1  0.65952000  0.52235800  0.81769000  1
  O  O69  1  0.61975000  0.47313300  0.17801300  1
  O  O70  1  0.81586500  0.66001600  0.81876900  1
  O  O71  1  0.66914800  0.65755200  0.96954300  1
  O  O72  1  0.66782000  0.65431400  0.47201000  1
  O  O73  1  0.67299300  0.80852800  0.32639500  1
  O  O74  1  0.46383100  0.61674500  0.67074700  1
  O  O75  1  0.51716300  0.66744100  0.32245800  1
  O  O76  1  0.74659500  0.91558500  0.15897800  1
  O  O77  1  0.80249600  0.98426400  0.76093600  1
  O  O78  1  0.74164500  0.01873600  0.93565900  1
  O  O79  1  0.62320700  0.91660300  0.66859700  1
  O  O80  1  0.51526600  0.81690400  0.82846200  1
  O  O81  1  0.47636100  0.90378300  0.17767400  1
  O  O82  1  0.34066700  0.74207700  0.15952400  1
  O  O83  1  0.24448200  0.74997800  0.93283600  1
  O  O84  1  0.21394900  0.79927000  0.75885300  1
  O  O85  1  0.34337200  0.91444400  0.65999600  1
  O  O86  1  0.20139500  0.01893200  0.43043000  1
  O  O87  1  0.20639000  0.99413100  0.25069200  1
