# generated using pymatgen
data_Li4Mn3Nb3(TeO8)2
_symmetry_space_group_name_H-M   'P 1'
_cell_length_a   6.34246570
_cell_length_b   6.34246570
_cell_length_c   10.54711310
_cell_angle_alpha   89.59361169
_cell_angle_beta   89.59361169
_cell_angle_gamma   57.78398726
_symmetry_Int_Tables_number   1
_chemical_formula_structural   Li4Mn3Nb3(TeO8)2
_chemical_formula_sum   'Li4 Mn3 Nb3 Te2 O16'
_cell_volume   358.94562301
_cell_formula_units_Z   1
loop_
 _symmetry_equiv_pos_site_id
 _symmetry_equiv_pos_as_xyz
  1  'x, y, z'
loop_
 _atom_site_type_symbol
 _atom_site_label
 _atom_site_symmetry_multiplicity
 _atom_site_fract_x
 _atom_site_fract_y
 _atom_site_fract_z
 _atom_site_occupancy
  Li  Li0  1  0.67015600  0.67015600  0.09705500  1
  Li  Li1  1  0.99999500  0.99999500  0.00585300  1
  Li  Li2  1  0.99644500  0.99644500  0.51527000  1
  Li  Li3  1  0.33930300  0.33930300  0.59518900  1
  Mn  Mn4  1  0.33834200  0.82987900  0.78633200  1
  Mn  Mn5  1  0.82987900  0.33834200  0.78633200  1
  Mn  Mn6  1  0.16316700  0.16316700  0.29011100  1
  Nb  Nb7  1  0.81942300  0.81942300  0.76515100  1
  Nb  Nb8  1  0.16591700  0.64685600  0.27911100  1
  Nb  Nb9  1  0.64685600  0.16591700  0.27911100  1
  Te  Te10  1  0.64088000  0.64088000  0.50208800  1
  Te  Te11  1  0.32882700  0.32882700  0.98373900  1
  O  O12  1  0.32149300  0.81561600  0.41008000  1
  O  O13  1  0.52231900  0.52231900  0.63996500  1
  O  O14  1  0.68559700  0.68559700  0.89314500  1
  O  O15  1  0.98753500  0.98753500  0.69888600  1
  O  O16  1  0.99847700  0.99847700  0.18815000  1
  O  O17  1  0.81561600  0.32149300  0.41008000  1
  O  O18  1  0.52441100  0.98535300  0.66677000  1
  O  O19  1  0.98535300  0.52441100  0.66677000  1
  O  O20  1  0.16843200  0.16843200  0.90649200  1
  O  O21  1  0.86305700  0.86305700  0.39375900  1
  O  O22  1  0.01622500  0.51516700  0.18043700  1
  O  O23  1  0.51516700  0.01622500  0.18043700  1
  O  O24  1  0.34037200  0.34037200  0.40059500  1
  O  O25  1  0.16417700  0.65737100  0.89746500  1
  O  O26  1  0.49637600  0.49637600  0.17636600  1
  O  O27  1  0.65737100  0.16417700  0.89746500  1
