# generated using pymatgen
data_LiMn3(BO3)3
_symmetry_space_group_name_H-M   'P 1'
_cell_length_a   5.78681700
_cell_length_b   8.18038391
_cell_length_c   9.15868933
_cell_angle_alpha   110.46847544
_cell_angle_beta   105.14312713
_cell_angle_gamma   100.73047227
_symmetry_Int_Tables_number   1
_chemical_formula_structural   LiMn3(BO3)3
_chemical_formula_sum   'Li2 Mn6 B6 O18'
_cell_volume   373.15946065
_cell_formula_units_Z   2
loop_
 _symmetry_equiv_pos_site_id
 _symmetry_equiv_pos_as_xyz
  1  'x, y, z'
loop_
 _atom_site_type_symbol
 _atom_site_label
 _atom_site_symmetry_multiplicity
 _atom_site_fract_x
 _atom_site_fract_y
 _atom_site_fract_z
 _atom_site_occupancy
  Li  Li0  1  0.15078600  0.83539300  0.21865300  1
  Li  Li1  1  0.50514300  0.17388200  0.89297000  1
  Mn  Mn2  1  0.57885800  0.82680300  0.80035000  1
  Mn  Mn3  1  0.76291900  0.50692800  0.84790700  1
  Mn  Mn4  1  0.07860400  0.82164300  0.54614400  1
  Mn  Mn5  1  0.90344700  0.14975400  0.47913900  1
  Mn  Mn6  1  0.22879700  0.47921900  0.11878400  1
  Mn  Mn7  1  0.45456300  0.18463400  0.21165600  1
  B  B8  1  0.43398700  0.17538700  0.55309800  1
  B  B9  1  0.90823400  0.15546500  0.12836500  1
  B  B10  1  0.77253100  0.52029500  0.20368300  1
  B  B11  1  0.22256000  0.47497400  0.77127400  1
  B  B12  1  0.11942000  0.86420400  0.89509100  1
  B  B13  1  0.54035100  0.81212500  0.44941300  1
  O  O14  1  0.79300400  0.08949800  0.96126100  1
  O  O15  1  0.41281600  0.79131200  0.55522500  1
  O  O16  1  0.16017000  0.26925400  0.20825700  1
  O  O17  1  0.52882600  0.25418100  0.72358400  1
  O  O18  1  0.18907100  0.05094100  0.46287400  1
  O  O19  1  0.89626000  0.57561800  0.11091500  1
  O  O20  1  0.24056300  0.92497500  0.80113100  1
  O  O21  1  0.46903500  0.59535100  0.85323000  1
  O  O22  1  0.86282800  0.59483500  0.37334200  1
  O  O23  1  0.12674600  0.39350000  0.60253400  1
  O  O24  1  0.54750700  0.37168400  0.11842300  1
  O  O25  1  0.77564500  0.12919300  0.23049800  1
  O  O26  1  0.08322400  0.44993800  0.86948900  1
  O  O27  1  0.79478500  0.92770500  0.53190100  1
  O  O28  1  0.43087600  0.74412900  0.28351700  1
  O  O29  1  0.89180800  0.72377500  0.80793000  1
  O  O30  1  0.57945200  0.20305400  0.45973900  1
  O  O31  1  0.22246300  0.93266200  0.06478500  1
