# generated using pymatgen
data_Li3Cr2(PO4)3
_symmetry_space_group_name_H-M   'P 1'
_cell_length_a   8.82375700
_cell_length_b   9.07739459
_cell_length_c   15.01481822
_cell_angle_alpha   81.58538424
_cell_angle_beta   72.97519860
_cell_angle_gamma   60.95819369
_symmetry_Int_Tables_number   1
_chemical_formula_structural   Li3Cr2(PO4)3
_chemical_formula_sum   'Li12 Cr8 P12 O48'
_cell_volume   1005.33683126
_cell_formula_units_Z   4
loop_
 _symmetry_equiv_pos_site_id
 _symmetry_equiv_pos_as_xyz
  1  'x, y, z'
loop_
 _atom_site_type_symbol
 _atom_site_label
 _atom_site_symmetry_multiplicity
 _atom_site_fract_x
 _atom_site_fract_y
 _atom_site_fract_z
 _atom_site_occupancy
  Li  Li0  1  0.09750800  0.42940600  0.65241400  1
  Li  Li1  1  0.19461500  0.71974600  0.05814600  1
  Li  Li2  1  0.60496700  0.74780300  0.74929300  1
  Li  Li3  1  0.47151500  0.77771100  0.44304900  1
  Li  Li4  1  0.67447100  0.07330600  0.84932100  1
  Li  Li5  1  0.99467000  0.00490700  0.50053400  1
  Li  Li6  1  0.32069700  0.92547700  0.15127000  1
  Li  Li7  1  0.53002100  0.21998200  0.55773200  1
  Li  Li8  1  0.40483100  0.24474200  0.24844100  1
  Li  Li9  1  0.80637600  0.28000800  0.94161000  1
  Li  Li10  1  0.90654800  0.57129700  0.34908100  1
  Li  Li11  1  0.00183600  0.49314600  0.00112100  1
  Cr  Cr12  1  0.24523700  0.54381400  0.47059600  1
  Cr  Cr13  1  0.64315500  0.51974200  0.16539000  1
  Cr  Cr14  1  0.82937400  0.98086600  0.33520500  1
  Cr  Cr15  1  0.76131700  0.95471400  0.03024700  1
  Cr  Cr16  1  0.24010400  0.04304300  0.96890100  1
  Cr  Cr17  1  0.16966300  0.02073400  0.66437600  1
  Cr  Cr18  1  0.35481900  0.47897100  0.83511400  1
  Cr  Cr19  1  0.75245200  0.45733400  0.53068900  1
  P  P20  1  0.33399400  0.64256300  0.62788200  1
  P  P21  1  0.25203300  0.71724600  0.31151500  1
  P  P22  1  0.62355000  0.71707400  0.97054900  1
  P  P23  1  0.81200500  0.78314600  0.52984800  1
  P  P24  1  0.78279800  0.78217900  0.19012300  1
  P  P25  1  0.10287800  0.85787400  0.87247100  1
  P  P26  1  0.89539200  0.14221700  0.12654900  1
  P  P27  1  0.21881300  0.21741900  0.80964800  1
  P  P28  1  0.18675800  0.21807900  0.47021200  1
  P  P29  1  0.37676300  0.28157400  0.02924300  1
  P  P30  1  0.74522000  0.28336500  0.68939000  1
  P  P31  1  0.66345700  0.35898500  0.37376600  1
  O  O32  1  0.19685900  0.20226500  0.71226300  1
  O  O33  1  0.06013500  0.22218500  0.89322300  1
  O  O34  1  0.87567300  0.32056700  0.12628000  1
  O  O35  1  0.49846000  0.35802500  0.44754000  1
  O  O36  1  0.17463100  0.36494000  0.52033300  1
  O  O37  1  0.60454000  0.41001200  0.28284600  1
  O  O38  1  0.27827800  0.51943700  0.60227600  1
  O  O39  1  0.20460200  0.56951600  0.33904400  1
  O  O40  1  0.64809000  0.55239000  0.03029700  1
  O  O41  1  0.77426700  0.61493800  0.19834600  1
  O  O42  1  0.63964500  0.69011200  0.87060600  1
  O  O43  1  0.38545600  0.70146000  0.21362000  1
  O  O44  1  0.00821000  0.74770700  0.51795500  1
  O  O45  1  0.32433600  0.72087400  0.39446300  1
  O  O46  1  0.77212100  0.75239900  0.98309200  1
  O  O47  1  0.17642800  0.82052900  0.62690200  1
  O  O48  1  0.69994100  0.81323200  0.62947400  1
  O  O49  1  0.19340400  0.85792900  0.94697600  1
  O  O50  1  0.08756200  0.88854300  0.30526900  1
  O  O51  1  0.43855900  0.86448500  0.01973600  1
  O  O52  1  0.19845300  0.91459200  0.78282000  1
  O  O53  1  0.73229800  0.94678300  0.46938200  1
  O  O54  1  0.89814900  0.97925300  0.89761200  1
  O  O55  1  0.61684900  0.93363600  0.16313000  1
  O  O56  1  0.38634300  0.06979600  0.83731900  1
  O  O57  1  0.09947700  0.01870900  0.10079000  1
  O  O58  1  0.26722900  0.05248600  0.52926300  1
  O  O59  1  0.79939000  0.08806900  0.21709700  1
  O  O60  1  0.56114500  0.13339100  0.98072100  1
  O  O61  1  0.91115500  0.11289100  0.69434600  1
  O  O62  1  0.80249000  0.14369900  0.05286200  1
  O  O63  1  0.29659300  0.19224800  0.37009300  1
  O  O64  1  0.82108500  0.18079600  0.37500700  1
  O  O65  1  0.22864200  0.24555100  0.01632700  1
  O  O66  1  0.67348400  0.28055300  0.60591400  1
  O  O67  1  0.98990600  0.25373900  0.48291000  1
  O  O68  1  0.61186200  0.29653300  0.78680200  1
  O  O69  1  0.35951900  0.31104700  0.12896000  1
  O  O70  1  0.22006600  0.38810800  0.80203300  1
  O  O71  1  0.35130000  0.44601400  0.96931300  1
  O  O72  1  0.79029300  0.43271900  0.66303400  1
  O  O73  1  0.71844200  0.48320300  0.39884200  1
  O  O74  1  0.39346100  0.58910300  0.71848700  1
  O  O75  1  0.82500500  0.63446100  0.48120200  1
  O  O76  1  0.49965700  0.64397200  0.55492900  1
  O  O77  1  0.12442200  0.67910400  0.87290900  1
  O  O78  1  0.94203800  0.77422100  0.10607200  1
  O  O79  1  0.80787300  0.79580200  0.28698100  1
