# generated using pymatgen
data_Li2Cr3FeO8
_symmetry_space_group_name_H-M   'P 1'
_cell_length_a   8.38049600
_cell_length_b   8.39961597
_cell_length_c   8.41706984
_cell_angle_alpha   90.26249893
_cell_angle_beta   90.08946566
_cell_angle_gamma   90.23218193
_symmetry_Int_Tables_number   1
_chemical_formula_structural   Li2Cr3FeO8
_chemical_formula_sum   'Li8 Cr12 Fe4 O32'
_cell_volume   592.49053721
_cell_formula_units_Z   4
loop_
 _symmetry_equiv_pos_site_id
 _symmetry_equiv_pos_as_xyz
  1  'x, y, z'
loop_
 _atom_site_type_symbol
 _atom_site_label
 _atom_site_symmetry_multiplicity
 _atom_site_fract_x
 _atom_site_fract_y
 _atom_site_fract_z
 _atom_site_occupancy
  Li  Li0  1  0.00131800  0.00363300  0.99976300  1
  Li  Li1  1  0.74792400  0.75078200  0.25371900  1
  Li  Li2  1  0.75245500  0.25128900  0.75259300  1
  Li  Li3  1  0.49864400  0.99674800  0.49775300  1
  Li  Li4  1  0.49931400  0.49759700  0.00109200  1
  Li  Li5  1  0.25090800  0.75291500  0.75031700  1
  Li  Li6  1  0.25098600  0.24818800  0.24927500  1
  Li  Li7  1  0.99751900  0.49911100  0.49940400  1
  Cr  Cr8  1  0.87537700  0.87712900  0.62506300  1
  Cr  Cr9  1  0.87401200  0.62776900  0.87461800  1
  Cr  Cr10  1  0.87805400  0.37081700  0.12345700  1
  Cr  Cr11  1  0.62539500  0.62137000  0.62393400  1
  Cr  Cr12  1  0.62314700  0.37207800  0.37596400  1
  Cr  Cr13  1  0.62506400  0.12495900  0.12745100  1
  Cr  Cr14  1  0.37621400  0.62433300  0.37299100  1
  Cr  Cr15  1  0.37267900  0.87754300  0.12545600  1
  Cr  Cr16  1  0.37241700  0.12510200  0.87836800  1
  Cr  Cr17  1  0.12678100  0.87937200  0.36962100  1
  Cr  Cr18  1  0.12369700  0.12556200  0.62456100  1
  Cr  Cr19  1  0.12544000  0.37424500  0.87637900  1
  Fe  Fe20  1  0.87689800  0.12504300  0.37341500  1
  Fe  Fe21  1  0.62501700  0.87465300  0.87706400  1
  Fe  Fe22  1  0.37258900  0.37658600  0.62168400  1
  Fe  Fe23  1  0.12513200  0.62553300  0.12432100  1
  O  O24  1  0.88669100  0.89679000  0.38630600  1
  O  O25  1  0.89324400  0.11770100  0.61660400  1
  O  O26  1  0.89328700  0.39471000  0.88467500  1
  O  O27  1  0.86946400  0.85382700  0.86410900  1
  O  O28  1  0.89244900  0.61068800  0.11432400  1
  O  O29  1  0.85780200  0.63664800  0.63808600  1
  O  O30  1  0.86490300  0.35291500  0.36226100  1
  O  O31  1  0.86041600  0.13346600  0.13360500  1
  O  O32  1  0.63401500  0.85525100  0.63932800  1
  O  O33  1  0.64696500  0.62942300  0.86521600  1
  O  O34  1  0.63898000  0.35310900  0.13517800  1
  O  O35  1  0.61720600  0.39418400  0.61569000  1
  O  O36  1  0.63616800  0.12908400  0.35646800  1
  O  O37  1  0.61529000  0.60976900  0.38932000  1
  O  O38  1  0.60666900  0.89115100  0.11990100  1
  O  O39  1  0.61474700  0.11434200  0.89794900  1
  O  O40  1  0.39460800  0.61801900  0.61352800  1
  O  O41  1  0.38543400  0.38536600  0.38884300  1
  O  O42  1  0.38874100  0.11210400  0.11559700  1
  O  O43  1  0.35646900  0.63918200  0.13211700  1
  O  O44  1  0.38522700  0.88613700  0.89692000  1
  O  O45  1  0.36581500  0.86318800  0.35254000  1
  O  O46  1  0.35270700  0.13547000  0.63695600  1
  O  O47  1  0.35281200  0.36487500  0.86367700  1
  O  O48  1  0.13212700  0.64269900  0.35642500  1
  O  O49  1  0.14315100  0.87086200  0.13163400  1
  O  O50  1  0.13364100  0.13953600  0.86060200  1
  O  O51  1  0.11449400  0.11704800  0.38958200  1
  O  O52  1  0.12700600  0.35915800  0.64403100  1
  O  O53  1  0.11572700  0.89632800  0.60849800  1
  O  O54  1  0.10902400  0.61320500  0.88847300  1
  O  O55  1  0.11773800  0.38127300  0.10343300  1
