# generated using pymatgen
data_LiVF5
_symmetry_space_group_name_H-M   'P 1'
_cell_length_a   10.63432199
_cell_length_b   10.63432199
_cell_length_c   10.63432199
_cell_angle_alpha   95.83809566
_cell_angle_beta   95.83809566
_cell_angle_gamma   142.80327437
_symmetry_Int_Tables_number   1
_chemical_formula_structural   LiVF5
_chemical_formula_sum   'Li8 V8 F40'
_cell_volume   689.08156341
_cell_formula_units_Z   8
loop_
 _symmetry_equiv_pos_site_id
 _symmetry_equiv_pos_as_xyz
  1  'x, y, z'
loop_
 _atom_site_type_symbol
 _atom_site_label
 _atom_site_symmetry_multiplicity
 _atom_site_fract_x
 _atom_site_fract_y
 _atom_site_fract_z
 _atom_site_occupancy
  Li  Li0  1  0.48470900  0.01430700  0.30122300  1
  Li  Li1  1  0.53691600  0.56651500  0.80122300  1
  Li  Li2  1  0.26430700  0.46308400  0.02959900  1
  Li  Li3  1  0.81651500  0.51529100  0.52959900  1
  Li  Li4  1  0.43348500  0.23470900  0.97040100  1
  Li  Li5  1  0.98569300  0.28691600  0.47040100  1
  Li  Li6  1  0.71308400  0.18348500  0.69877700  1
  Li  Li7  1  0.76529100  0.73569300  0.19877700  1
  V  V8  1  0.48645200  0.69472200  0.39562800  1
  V  V9  1  0.34082400  0.23645200  0.29173100  1
  V  V10  1  0.94472200  0.04909300  0.70826900  1
  V  V11  1  0.29909300  0.09082400  0.60437200  1
  V  V12  1  0.95090700  0.65917600  0.89562800  1
  V  V13  1  0.30527800  0.70090700  0.79173100  1
  V  V14  1  0.90917600  0.51354800  0.20826900  1
  V  V15  1  0.76354800  0.05527800  0.10437200  1
  F  F16  1  0.70132900  0.78448500  0.34291100  1
  F  F17  1  0.33422600  0.40671400  0.36732400  1
  F  F18  1  0.65671400  0.78939000  0.57248800  1
  F  F19  1  0.03448500  0.19157400  0.58315600  1
  F  F20  1  0.60841800  0.45132900  0.41684400  1
  F  F21  1  0.21690200  0.08422600  0.42751200  1
  F  F22  1  0.37182000  0.09273900  0.24523300  1
  F  F23  1  0.40249400  0.62341400  0.74523300  1
  F  F24  1  0.03939000  0.96690200  0.63267600  1
  F  F25  1  0.11340900  0.80735900  0.53574300  1
  F  F26  1  0.97838300  0.17233400  0.03574300  1
  F  F27  1  0.80805400  0.37777800  0.34424000  1
  F  F28  1  0.21646300  0.28618700  0.84424000  1
  F  F29  1  0.44157400  0.35841800  0.65708900  1
  F  F30  1  0.19264100  0.72838300  0.30604900  1
  F  F31  1  0.82766600  0.86340900  0.80604900  1
  F  F32  1  0.53618700  0.19194600  0.56972400  1
  F  F33  1  0.62777800  0.78353700  0.06972400  1
  F  F34  1  0.87341400  0.62818000  0.72092000  1
  F  F35  1  0.34273900  0.59750600  0.22092000  1
  F  F36  1  0.90726100  0.15249400  0.27908000  1
  F  F37  1  0.37658600  0.12182000  0.77908000  1
  F  F38  1  0.62222200  0.96646300  0.43027600  1
  F  F39  1  0.71381300  0.55805400  0.93027600  1
  F  F40  1  0.42233400  0.88659100  0.69395100  1
  F  F41  1  0.05735900  0.02161700  0.19395100  1
  F  F42  1  0.80842600  0.39158200  0.84291100  1
  F  F43  1  0.44194600  0.37222200  0.15576000  1
  F  F44  1  0.03353700  0.46381300  0.65576000  1
  F  F45  1  0.27161700  0.57766600  0.46425700  1
  F  F46  1  0.13659100  0.94264100  0.96425700  1
  F  F47  1  0.21061000  0.78309800  0.86732400  1
  F  F48  1  0.84750600  0.12658600  0.75476700  1
  F  F49  1  0.87818000  0.65726100  0.25476700  1
  F  F50  1  0.03309800  0.66577400  0.07248800  1
  F  F51  1  0.64158200  0.29867100  0.08315600  1
  F  F52  1  0.21551500  0.55842600  0.91684400  1
  F  F53  1  0.59328600  0.96061000  0.92751200  1
  F  F54  1  0.91577400  0.34328600  0.13267600  1
  F  F55  1  0.54867100  0.96551500  0.15708900  1
