# generated using pymatgen
data_Li4Nb3Fe5O16
_symmetry_space_group_name_H-M   'P 1'
_cell_length_a   6.12379715
_cell_length_b   6.12379715
_cell_length_c   9.84656547
_cell_angle_alpha   89.57912841
_cell_angle_beta   89.57912841
_cell_angle_gamma   59.79402517
_symmetry_Int_Tables_number   1
_chemical_formula_structural   Li4Nb3Fe5O16
_chemical_formula_sum   'Li4 Nb3 Fe5 O16'
_cell_volume   319.10695137
_cell_formula_units_Z   1
loop_
 _symmetry_equiv_pos_site_id
 _symmetry_equiv_pos_as_xyz
  1  'x, y, z'
loop_
 _atom_site_type_symbol
 _atom_site_label
 _atom_site_symmetry_multiplicity
 _atom_site_fract_x
 _atom_site_fract_y
 _atom_site_fract_z
 _atom_site_occupancy
  Li  Li0  1  0.67147800  0.67147800  0.90000400  1
  Li  Li1  1  0.00526100  0.00526100  0.00179600  1
  Li  Li2  1  0.01246300  0.01246300  0.49176600  1
  Li  Li3  1  0.33606100  0.33606100  0.38278300  1
  Nb  Nb4  1  0.82724900  0.82724900  0.21780400  1
  Nb  Nb5  1  0.66353600  0.16866700  0.71541800  1
  Nb  Nb6  1  0.16866700  0.66353600  0.71541800  1
  Fe  Fe7  1  0.82416500  0.34045200  0.21314300  1
  Fe  Fe8  1  0.65476100  0.65476100  0.48662600  1
  Fe  Fe9  1  0.34045200  0.82416500  0.21314300  1
  Fe  Fe10  1  0.17073800  0.17073800  0.71890300  1
  Fe  Fe11  1  0.32323800  0.32323800  0.00274100  1
  O  O12  1  0.83004900  0.31311300  0.60467500  1
  O  O13  1  0.51562500  0.51562500  0.32711000  1
  O  O14  1  0.67078000  0.67078000  0.10123300  1
  O  O15  1  0.99727400  0.99727400  0.30842800  1
  O  O16  1  0.98976900  0.98976900  0.81959100  1
  O  O17  1  0.31311300  0.83004900  0.60467500  1
  O  O18  1  0.96669400  0.52127200  0.33238000  1
  O  O19  1  0.52127200  0.96669400  0.33238000  1
  O  O20  1  0.16084900  0.16084900  0.10018600  1
  O  O21  1  0.83911800  0.83911800  0.60493400  1
  O  O22  1  0.49078700  0.04772200  0.84486000  1
  O  O23  1  0.04772200  0.49078700  0.84486000  1
  O  O24  1  0.34625200  0.34625200  0.59881000  1
  O  O25  1  0.66991300  0.15644700  0.09743300  1
  O  O26  1  0.48658100  0.48658100  0.83071600  1
  O  O27  1  0.15644700  0.66991300  0.09743300  1
