# generated using pymatgen
data_Li4Nb3V2Fe3O16
_symmetry_space_group_name_H-M   'P 1'
_cell_length_a   6.10550900
_cell_length_b   6.13749184
_cell_length_c   9.82262957
_cell_angle_alpha   90.21872185
_cell_angle_beta   91.07907097
_cell_angle_gamma   119.75735778
_symmetry_Int_Tables_number   1
_chemical_formula_structural   Li4Nb3V2Fe3O16
_chemical_formula_sum   'Li4 Nb3 V2 Fe3 O16'
_cell_volume   319.44853207
_cell_formula_units_Z   1
loop_
 _symmetry_equiv_pos_site_id
 _symmetry_equiv_pos_as_xyz
  1  'x, y, z'
loop_
 _atom_site_type_symbol
 _atom_site_label
 _atom_site_symmetry_multiplicity
 _atom_site_fract_x
 _atom_site_fract_y
 _atom_site_fract_z
 _atom_site_occupancy
  Li  Li0  1  0.66131800  0.32878800  0.90410200  1
  Li  Li1  1  0.98308600  0.98968300  0.00165400  1
  Li  Li2  1  0.96761200  0.98447600  0.48767500  1
  Li  Li3  1  0.32539400  0.66042400  0.38336100  1
  Nb  Nb4  1  0.34121300  0.17106900  0.21350800  1
  Nb  Nb5  1  0.17891900  0.34142200  0.71329700  1
  Nb  Nb6  1  0.17705000  0.83671600  0.71338500  1
  V  V7  1  0.68980700  0.34379000  0.47552200  1
  V  V8  1  0.34670100  0.68161300  0.99812200  1
  Fe  Fe9  1  0.83162800  0.16942400  0.21268100  1
  Fe  Fe10  1  0.82321300  0.65702800  0.21311000  1
  Fe  Fe11  1  0.66401100  0.83387000  0.71510200  1
  O  O12  1  0.85334500  0.17952900  0.60188200  1
  O  O13  1  0.95536000  0.46921700  0.34256600  1
  O  O14  1  0.65114600  0.31269700  0.10100400  1
  O  O15  1  0.00788800  0.01300100  0.30765700  1
  O  O16  1  0.02372300  0.01495800  0.81617100  1
  O  O17  1  0.86001100  0.68245900  0.60070000  1
  O  O18  1  0.51541400  0.03475200  0.33854000  1
  O  O19  1  0.49944600  0.45744700  0.35344600  1
  O  O20  1  0.66971500  0.84063200  0.09627000  1
  O  O21  1  0.32870700  0.16427800  0.60456000  1
  O  O22  1  0.46844400  0.51110500  0.84141900  1
  O  O23  1  0.47029900  0.96347100  0.84031400  1
  O  O24  1  0.31009200  0.65361400  0.59924800  1
  O  O25  1  0.17341200  0.33181900  0.10201700  1
  O  O26  1  0.04159500  0.52291800  0.83401300  1
  O  O27  1  0.18145200  0.84950000  0.09651400  1
