# generated using pymatgen
data_Li4Ti3(CoO3)6
_symmetry_space_group_name_H-M   'P 1'
_cell_length_a   2.87656000
_cell_length_b   8.82142200
_cell_length_c   24.64260354
_cell_angle_alpha   89.95824871
_cell_angle_beta   90.00000000
_cell_angle_gamma   90.00000000
_symmetry_Int_Tables_number   1
_chemical_formula_structural   Li4Ti3(CoO3)6
_chemical_formula_sum   'Li8 Ti6 Co12 O36'
_cell_volume   625.31451561
_cell_formula_units_Z   2
loop_
 _symmetry_equiv_pos_site_id
 _symmetry_equiv_pos_as_xyz
  1  'x, y, z'
loop_
 _atom_site_type_symbol
 _atom_site_label
 _atom_site_symmetry_multiplicity
 _atom_site_fract_x
 _atom_site_fract_y
 _atom_site_fract_z
 _atom_site_occupancy
  Li  Li0  1  0.50000000  0.81299800  0.99326700  1
  Li  Li1  1  0.50000000  0.80911800  0.20886900  1
  Li  Li2  1  0.50000000  0.69115900  0.70837600  1
  Li  Li3  1  0.50000000  0.68399400  0.49345100  1
  Li  Li4  1  0.50000000  0.32179400  0.50307400  1
  Li  Li5  1  0.50000000  0.31097200  0.29599400  1
  Li  Li6  1  0.50000000  0.18820600  0.79579100  1
  Li  Li7  1  0.50000000  0.18131400  0.00234000  1
  Ti  Ti8  1  0.50000000  0.98585600  0.10367400  1
  Ti  Ti9  1  0.50000000  0.51692700  0.60322400  1
  Ti  Ti10  1  0.50000000  0.48906100  0.39490700  1
  Ti  Ti11  1  0.00000000  0.34923800  0.69503300  1
  Ti  Ti12  1  0.00000000  0.15066200  0.19555000  1
  Ti  Ti13  1  0.50000000  0.00191800  0.89301900  1
  Co  Co14  1  0.50000000  0.00352200  0.50088400  1
  Co  Co15  1  0.50000000  0.96939700  0.31241200  1
  Co  Co16  1  0.00000000  0.87036000  0.58592400  1
  Co  Co17  1  0.00000000  0.85311300  0.80510000  1
  Co  Co18  1  0.00000000  0.64800100  0.30514300  1
  Co  Co19  1  0.00000000  0.63028300  0.08614900  1
  Co  Co20  1  0.50000000  0.53091600  0.81189500  1
  Co  Co21  1  0.50000000  0.49714200  0.00080100  1
  Co  Co22  1  0.50000000  0.48887700  0.19062300  1
  Co  Co23  1  0.00000000  0.36670500  0.91436700  1
  Co  Co24  1  0.00000000  0.13150700  0.41457900  1
  Co  Co25  1  0.50000000  0.00971200  0.69142700  1
  O  O26  1  0.50000000  0.99611400  0.42598100  1
  O  O27  1  0.50000000  0.00709500  0.57574600  1
  O  O28  1  0.00000000  0.95482000  0.94162100  1
  O  O29  1  0.00000000  0.94234400  0.16155100  1
  O  O30  1  0.00000000  0.89678700  0.66180700  1
  O  O31  1  0.50000000  0.88694400  0.75799000  1
  O  O32  1  0.00000000  0.85985700  0.50763200  1
  O  O33  1  0.00000000  0.85008900  0.28181000  1
  O  O34  1  0.50000000  0.81218900  0.85476500  1
  O  O35  1  0.50000000  0.77288300  0.08662900  1
  O  O36  1  0.50000000  0.72505500  0.58615500  1
  O  O37  1  0.50000000  0.68809100  0.35357700  1
  O  O38  1  0.00000000  0.64868200  0.78193200  1
  O  O39  1  0.00000000  0.64159300  0.00913600  1
  O  O40  1  0.50000000  0.61242200  0.25797500  1
  O  O41  1  0.00000000  0.60433600  0.16070800  1
  O  O42  1  0.00000000  0.55699800  0.66160000  1
  O  O43  1  0.00000000  0.54774200  0.44139800  1
  O  O44  1  0.50000000  0.49441100  0.07770100  1
  O  O45  1  0.50000000  0.50243000  0.92454800  1
  O  O46  1  0.00000000  0.46089600  0.55592600  1
  O  O47  1  0.00000000  0.44890300  0.33621100  1
  O  O48  1  0.00000000  0.41456000  0.84143800  1
  O  O49  1  0.50000000  0.39002100  0.74619700  1
  O  O50  1  0.00000000  0.35162100  0.99115700  1
  O  O51  1  0.00000000  0.36230800  0.21651100  1
  O  O52  1  0.50000000  0.31608700  0.64300600  1
  O  O53  1  0.50000000  0.28011000  0.41100000  1
  O  O54  1  0.50000000  0.22440000  0.91122700  1
  O  O55  1  0.50000000  0.18340300  0.14253700  1
  O  O56  1  0.00000000  0.13692800  0.71660600  1
  O  O57  1  0.00000000  0.14782400  0.49277300  1
  O  O58  1  0.50000000  0.10964800  0.24554900  1
  O  O59  1  0.00000000  0.08656700  0.34051500  1
  O  O60  1  0.00000000  0.05518300  0.83687500  1
  O  O61  1  0.00000000  0.03790800  0.05633800  1
