# generated using pymatgen
data_Li3V2(O2F)2
_symmetry_space_group_name_H-M   'P 1'
_cell_length_a   5.99745000
_cell_length_b   5.19394900
_cell_length_c   14.80286167
_cell_angle_alpha   89.94986427
_cell_angle_beta   90.00000000
_cell_angle_gamma   90.00000000
_symmetry_Int_Tables_number   1
_chemical_formula_structural   Li3V2(O2F)2
_chemical_formula_sum   'Li12 V8 O16 F8'
_cell_volume   461.11561725
_cell_formula_units_Z   4
loop_
 _symmetry_equiv_pos_site_id
 _symmetry_equiv_pos_as_xyz
  1  'x, y, z'
loop_
 _atom_site_type_symbol
 _atom_site_label
 _atom_site_symmetry_multiplicity
 _atom_site_fract_x
 _atom_site_fract_y
 _atom_site_fract_z
 _atom_site_occupancy
  Li  Li0  1  0.97740900  0.50000000  0.00000000  1
  Li  Li1  1  0.00164200  0.15563100  0.87134700  1
  Li  Li2  1  0.00164200  0.84436900  0.12865300  1
  Li  Li3  1  0.75844100  0.00000000  0.50000000  1
  Li  Li4  1  0.74873700  0.00000000  0.00000000  1
  Li  Li5  1  0.52186900  0.50000000  0.00000000  1
  Li  Li6  1  0.49837600  0.50000000  0.50000000  1
  Li  Li7  1  0.49616300  0.15656400  0.86985200  1
  Li  Li8  1  0.49616300  0.84343600  0.13014800  1
  Li  Li9  1  0.24300100  0.00000000  0.50000000  1
  Li  Li10  1  0.25034400  0.69266500  0.87189200  1
  Li  Li11  1  0.25034400  0.30733500  0.12810800  1
  V  V12  1  0.00142400  0.16827100  0.33332700  1
  V  V13  1  0.00142400  0.83172900  0.66667300  1
  V  V14  1  0.74873700  0.66828800  0.33671400  1
  V  V15  1  0.74873700  0.33171200  0.66328600  1
  V  V16  1  0.50128200  0.16734200  0.32772400  1
  V  V17  1  0.50128200  0.83265800  0.67227600  1
  V  V18  1  0.24860700  0.65996600  0.33505900  1
  V  V19  1  0.24860700  0.34003400  0.66494100  1
  O  O20  1  0.01547200  0.51583800  0.27064600  1
  O  O21  1  0.01547200  0.48416200  0.72935400  1
  O  O22  1  0.00386200  0.15459300  0.59179300  1
  O  O23  1  0.00386200  0.84540700  0.40820700  1
  O  O24  1  0.74685100  0.99813600  0.26751200  1
  O  O25  1  0.74685100  0.00186400  0.73248800  1
  O  O26  1  0.73140200  0.68145400  0.59438800  1
  O  O27  1  0.73140200  0.31854600  0.40561200  1
  O  O28  1  0.49186100  0.50119300  0.26777000  1
  O  O29  1  0.49186100  0.49880700  0.73223000  1
  O  O30  1  0.48784400  0.17138800  0.59055100  1
  O  O31  1  0.48784400  0.82861200  0.40944900  1
  O  O32  1  0.26299400  0.99807100  0.26576200  1
  O  O33  1  0.26299400  0.00192900  0.73423800  1
  O  O34  1  0.26549800  0.67069900  0.59445800  1
  O  O35  1  0.26549800  0.32930100  0.40554200  1
  F  F36  1  0.99528100  0.17149000  0.08173900  1
  F  F37  1  0.99528100  0.82851000  0.91826100  1
  F  F38  1  0.74935600  0.69034400  0.07657400  1
  F  F39  1  0.74935600  0.30965600  0.92342600  1
  F  F40  1  0.50420200  0.17090200  0.08192900  1
  F  F41  1  0.50420200  0.82909800  0.91807100  1
  F  F42  1  0.24826200  0.64649900  0.09068300  1
  F  F43  1  0.24826200  0.35350100  0.90931700  1
