# generated using pymatgen
data_Li5Fe5Si7O24
_symmetry_space_group_name_H-M   'P 1'
_cell_length_a   7.86413100
_cell_length_b   7.94624588
_cell_length_c   9.50522826
_cell_angle_alpha   89.03556868
_cell_angle_beta   89.68223595
_cell_angle_gamma   89.50975027
_symmetry_Int_Tables_number   1
_chemical_formula_structural   Li5Fe5Si7O24
_chemical_formula_sum   'Li5 Fe5 Si7 O24'
_cell_volume   593.87018758
_cell_formula_units_Z   1
loop_
 _symmetry_equiv_pos_site_id
 _symmetry_equiv_pos_as_xyz
  1  'x, y, z'
loop_
 _atom_site_type_symbol
 _atom_site_label
 _atom_site_symmetry_multiplicity
 _atom_site_fract_x
 _atom_site_fract_y
 _atom_site_fract_z
 _atom_site_occupancy
  Li  Li0  1  0.30675000  0.58215000  0.73413800  1
  Li  Li1  1  0.74060400  0.49719000  0.25600700  1
  Li  Li2  1  0.52753100  0.25525400  0.27788800  1
  Li  Li3  1  0.02123000  0.23725700  0.98075400  1
  Li  Li4  1  0.23999200  0.00521300  0.00312900  1
  Fe  Fe5  1  0.18277300  0.61537700  0.00069200  1
  Fe  Fe6  1  0.83066500  0.38047600  0.52695200  1
  Fe  Fe7  1  0.11483100  0.32301800  0.25770800  1
  Fe  Fe8  1  0.62222300  0.18028800  0.00085900  1
  Fe  Fe9  1  0.33531200  0.12361100  0.72868400  1
  Si  Si10  1  0.07643800  0.90702200  0.24605900  1
  Si  Si11  1  0.67449900  0.87850500  0.24552400  1
  Si  Si12  1  0.37306600  0.82748600  0.47215400  1
  Si  Si13  1  0.88963100  0.67529400  0.76733900  1
  Si  Si14  1  0.60240300  0.59204200  0.00698500  1
  Si  Si15  1  0.41417500  0.42818000  0.49310500  1
  Si  Si16  1  0.91981900  0.07306600  0.76120400  1
  O  O17  1  0.37719000  0.94630000  0.60729800  1
  O  O18  1  0.87636600  0.87157800  0.28977600  1
  O  O19  1  0.86994900  0.87760900  0.73955600  1
  O  O20  1  0.54882300  0.84948500  0.38045700  1
  O  O21  1  0.20028400  0.86176700  0.37953700  1
  O  O22  1  0.14044000  0.80445400  0.10811200  1
  O  O23  1  0.64623900  0.71401200  0.14357500  1
  O  O24  1  0.74947200  0.62215200  0.88969300  1
  O  O25  1  0.08394900  0.63179000  0.81982900  1
  O  O26  1  0.36679300  0.62812400  0.52737800  1
  O  O27  1  0.41564100  0.62217500  0.93830100  1
  O  O28  1  0.85165600  0.57514000  0.62640600  1
  O  O29  1  0.10696800  0.41691200  0.07543900  1
  O  O30  1  0.60940400  0.39997200  0.43708400  1
  O  O31  1  0.61996400  0.40353500  0.08348500  1
  O  O32  1  0.93021400  0.40912800  0.34894800  1
  O  O33  1  0.31627900  0.34998100  0.35860700  1
  O  O34  1  0.36760300  0.34138700  0.64546500  1
  O  O35  1  0.88270100  0.17942200  0.61898300  1
  O  O36  1  0.81955100  0.15271300  0.89801400  1
  O  O37  1  0.43427400  0.10512400  0.90859100  1
  O  O38  1  0.10379600  0.09951000  0.18706900  1
  O  O39  1  0.11702200  0.09419600  0.81875500  1
  O  O40  1  0.62109100  0.06033500  0.17763800  1
