# generated using pymatgen
data_Li3V3P8O29
_symmetry_space_group_name_H-M   'P 1'
_cell_length_a   9.77776400
_cell_length_b   9.78890007
_cell_length_c   14.10947925
_cell_angle_alpha   89.66218410
_cell_angle_beta   89.69419997
_cell_angle_gamma   60.10567591
_symmetry_Int_Tables_number   1
_chemical_formula_structural   Li3V3P8O29
_chemical_formula_sum   'Li6 V6 P16 O58'
_cell_volume   1170.75852942
_cell_formula_units_Z   2
loop_
 _symmetry_equiv_pos_site_id
 _symmetry_equiv_pos_as_xyz
  1  'x, y, z'
loop_
 _atom_site_type_symbol
 _atom_site_label
 _atom_site_symmetry_multiplicity
 _atom_site_fract_x
 _atom_site_fract_y
 _atom_site_fract_z
 _atom_site_occupancy
  Li  Li0  1  0.08691500  0.68907400  0.05502400  1
  Li  Li1  1  0.22525500  0.08516700  0.05518600  1
  Li  Li2  1  0.30701600  0.91301800  0.44797900  1
  Li  Li3  1  0.68477700  0.08693300  0.56354800  1
  Li  Li4  1  0.77418200  0.31827400  0.44540100  1
  Li  Li5  1  0.90512000  0.31951000  0.93840700  1
  V  V6  1  0.00384400  0.43375600  0.74191000  1
  V  V7  1  0.42948100  0.56905600  0.75120400  1
  V  V8  1  0.43844800  0.99871200  0.24897700  1
  V  V9  1  0.57076800  0.99481400  0.75686400  1
  V  V10  1  0.56322000  0.43210800  0.24340800  1
  V  V11  1  0.99706000  0.57046900  0.25764500  1
  P  P12  1  0.08546600  0.68151000  0.84068600  1
  P  P13  1  0.23324400  0.68328500  0.34281300  1
  P  P14  1  0.08790700  0.22779200  0.34110500  1
  P  P15  1  0.34152600  0.32978100  0.62957800  1
  P  P16  1  0.32674000  0.33556700  0.12968800  1
  P  P17  1  0.22737600  0.09098600  0.84049100  1
  P  P18  1  0.31995400  0.91215700  0.66051600  1
  P  P19  1  0.68319400  0.23043200  0.84163800  1
  P  P20  1  0.31489200  0.77132800  0.15758900  1
  P  P21  1  0.68271600  0.08898200  0.34167800  1
  P  P22  1  0.77436000  0.91413600  0.15763700  1
  P  P23  1  0.66934400  0.65921700  0.87027500  1
  P  P24  1  0.66238400  0.66446800  0.37021900  1
  P  P25  1  0.91417200  0.77380300  0.65706300  1
  P  P26  1  0.76705100  0.31985200  0.65897800  1
  P  P27  1  0.91434900  0.32112000  0.15876800  1
  O  O28  1  0.00036100  0.76421500  0.56931700  1
  O  O29  1  0.08964100  0.65599100  0.33491500  1
  O  O30  1  0.21082800  0.79232200  0.25086800  1
  O  O31  1  0.23497600  0.76007100  0.07200100  1
  O  O32  1  0.09367100  0.52160900  0.81904700  1
  O  O33  1  0.25442700  0.65741100  0.83189200  1
  O  O34  1  0.18103200  0.48571500  0.17160900  1
  O  O35  1  0.09621000  0.38183700  0.32393700  1
  O  O36  1  0.99726300  0.24830000  0.06791100  1
  O  O37  1  0.08092500  0.25874600  0.83593100  1
  O  O38  1  0.34044800  0.47635400  0.67583100  1
  O  O39  1  0.18767600  0.33368100  0.67291500  1
  O  O40  1  0.38527700  0.52306700  0.32159800  1
  O  O41  1  0.34045600  0.33189600  0.52440500  1
  O  O42  1  0.32876100  0.33266500  0.02475700  1
  O  O43  1  0.52390700  0.38350400  0.82537900  1
  O  O44  1  0.32792500  0.18329800  0.17158600  1
  O  O45  1  0.47755500  0.33508200  0.17418200  1
  O  O46  1  0.25668600  0.08235100  0.33977900  1
  O  O47  1  0.20790900  0.00315600  0.75015300  1
  O  O48  1  0.23750000  0.00971300  0.93155000  1
  O  O49  1  0.24836800  0.99290100  0.57002700  1
  O  O50  1  0.38092100  0.09929200  0.82166500  1
  O  O51  1  0.49015400  0.17906800  0.66971100  1
  O  O52  1  0.66138200  0.25714000  0.33447600  1
  O  O53  1  0.33863400  0.91723700  0.16035300  1
  O  O54  1  0.52075600  0.09803600  0.31857700  1
  O  O55  1  0.24246400  0.76223300  0.42893100  1
  O  O56  1  0.75857300  0.24360100  0.56884200  1
  O  O57  1  0.47903200  0.90597000  0.68104500  1
  O  O58  1  0.65566700  0.08735500  0.83576900  1
  O  O59  1  0.78759100  0.20586500  0.74615000  1
  O  O60  1  0.34425500  0.74370200  0.66868600  1
  O  O61  1  0.51267900  0.81623900  0.32748900  1
  O  O62  1  0.61919100  0.90498100  0.17983800  1
  O  O63  1  0.76017600  0.00170800  0.07026900  1
  O  O64  1  0.74472400  0.01323300  0.43446200  1
  O  O65  1  0.79430600  0.99480600  0.25380700  1
  O  O66  1  0.74332200  0.91816700  0.66319000  1
  O  O67  1  0.52190200  0.66070700  0.82537900  1
  O  O68  1  0.47782100  0.61845300  0.17601300  1
  O  O69  1  0.66623300  0.81266300  0.82648500  1
  O  O70  1  0.66248400  0.66823500  0.47516900  1
  O  O71  1  0.66765800  0.66194100  0.97545900  1
  O  O72  1  0.61610600  0.47850800  0.67597400  1
  O  O73  1  0.81280300  0.66609700  0.32569700  1
  O  O74  1  0.66661400  0.51414000  0.32961500  1
  O  O75  1  0.91862700  0.74370300  0.16385800  1
  O  O76  1  0.99207000  0.79474200  0.75321100  1
  O  O77  1  0.00798900  0.74862500  0.93262300  1
  O  O78  1  0.90459500  0.61916200  0.67633100  1
  O  O79  1  0.81997500  0.51170000  0.82954900  1
  O  O80  1  0.74579900  0.34452000  0.16653700  1
  O  O81  1  0.90716300  0.47932700  0.17964400  1
  O  O82  1  0.76997600  0.23549600  0.92582900  1
  O  O83  1  0.91236900  0.34304900  0.66464300  1
  O  O84  1  0.99247400  0.23883800  0.42537100  1
  O  O85  1  0.00960800  0.20523300  0.24534700  1
