# generated using pymatgen
data_Li7VGeO8
_symmetry_space_group_name_H-M   'P 1'
_cell_length_a   5.37244600
_cell_length_b   6.38425029
_cell_length_c   10.84706025
_cell_angle_alpha   90.34653508
_cell_angle_beta   90.14504794
_cell_angle_gamma   90.71225666
_symmetry_Int_Tables_number   1
_chemical_formula_structural   Li7VGeO8
_chemical_formula_sum   'Li14 V2 Ge2 O16'
_cell_volume   372.00693785
_cell_formula_units_Z   2
loop_
 _symmetry_equiv_pos_site_id
 _symmetry_equiv_pos_as_xyz
  1  'x, y, z'
loop_
 _atom_site_type_symbol
 _atom_site_label
 _atom_site_symmetry_multiplicity
 _atom_site_fract_x
 _atom_site_fract_y
 _atom_site_fract_z
 _atom_site_occupancy
  Li  Li0  1  0.67869200  0.76417200  0.08340600  1
  Li  Li1  1  0.31918200  0.51516800  0.17350300  1
  Li  Li2  1  0.31749100  0.01711700  0.17370900  1
  Li  Li3  1  0.81817700  0.01776800  0.34350200  1
  Li  Li4  1  0.81874000  0.51843000  0.34334700  1
  Li  Li5  1  0.18453100  0.27071300  0.43203300  1
  Li  Li6  1  0.83424200  0.74507400  0.58393200  1
  Li  Li7  1  0.20132900  0.50979200  0.66197900  1
  Li  Li8  1  0.11641400  0.04884700  0.65268300  1
  Li  Li9  1  0.97271800  0.38122300  0.82739600  1
  Li  Li10  1  0.83158400  0.01060000  0.84628100  1
  Li  Li11  1  0.45477400  0.90885900  0.70899900  1
  Li  Li12  1  0.62518000  0.54765900  0.84248100  1
  Li  Li13  1  0.35591500  0.23833900  0.93289400  1
  V  V14  1  0.83121300  0.26617100  0.09366900  1
  V  V15  1  0.33252200  0.77186000  0.42383500  1
  Ge  Ge16  1  0.67435200  0.26445100  0.59153200  1
  Ge  Ge17  1  0.16782600  0.75827100  0.92738400  1
  O  O18  1  0.30762800  0.76699800  0.07343800  1
  O  O19  1  0.15830600  0.26492600  0.09526000  1
  O  O20  1  0.71625300  0.48439700  0.16895400  1
  O  O21  1  0.71533600  0.04661800  0.16740700  1
  O  O22  1  0.21911400  0.98968300  0.34885200  1
  O  O23  1  0.21344100  0.55075100  0.35035500  1
  O  O24  1  0.65833700  0.76718700  0.42079500  1
  O  O25  1  0.81041500  0.26877700  0.44435900  1
  O  O26  1  0.22907200  0.77836700  0.57982300  1
  O  O27  1  0.34448900  0.26105800  0.59430600  1
  O  O28  1  0.80356500  0.47862500  0.68086100  1
  O  O29  1  0.76730100  0.02662700  0.66957600  1
  O  O30  1  0.22908800  0.99262300  0.83762900  1
  O  O31  1  0.27557300  0.53133500  0.84369700  1
  O  O32  1  0.83707200  0.74512400  0.92546500  1
  O  O33  1  0.72823000  0.26469200  0.93728000  1
