# generated using pymatgen
data_Li5V3P8O29
_symmetry_space_group_name_H-M   'P 1'
_cell_length_a   9.80117300
_cell_length_b   9.80249665
_cell_length_c   13.88706174
_cell_angle_alpha   90.11790798
_cell_angle_beta   90.01722125
_cell_angle_gamma   119.97484655
_symmetry_Int_Tables_number   1
_chemical_formula_structural   Li5V3P8O29
_chemical_formula_sum   'Li10 V6 P16 O58'
_cell_volume   1155.75118335
_cell_formula_units_Z   2
loop_
 _symmetry_equiv_pos_site_id
 _symmetry_equiv_pos_as_xyz
  1  'x, y, z'
loop_
 _atom_site_type_symbol
 _atom_site_label
 _atom_site_symmetry_multiplicity
 _atom_site_fract_x
 _atom_site_fract_y
 _atom_site_fract_z
 _atom_site_occupancy
  Li  Li0  1  0.67478500  0.90343000  0.56112200  1
  Li  Li1  1  0.22775800  0.32360600  0.56081000  1
  Li  Li2  1  0.08930300  0.31862000  0.05995100  1
  Li  Li3  1  0.22747900  0.90363000  0.05952800  1
  Li  Li4  1  0.90446400  0.22961900  0.43869900  1
  Li  Li5  1  0.09587000  0.77134700  0.56111000  1
  Li  Li6  1  0.90333700  0.67850000  0.94207000  1
  Li  Li7  1  0.77145600  0.67594900  0.43803800  1
  Li  Li8  1  0.32307800  0.09529700  0.43993800  1
  Li  Li9  1  0.32391000  0.23030100  0.93971800  1
  V  V10  1  0.99976100  0.43236600  0.24814600  1
  V  V11  1  0.99998100  0.56665700  0.75153100  1
  V  V12  1  0.57167500  0.00153000  0.75587400  1
  V  V13  1  0.43849300  0.00153000  0.24810200  1
  V  V14  1  0.56796400  0.57007200  0.24588000  1
  V  V15  1  0.43293800  0.43518300  0.74995500  1
  P  P16  1  0.68399600  0.76908300  0.84333100  1
  P  P17  1  0.68394600  0.91372500  0.34201300  1
  P  P18  1  0.23277400  0.32046600  0.34207700  1
  P  P19  1  0.33323600  0.66631400  0.12669500  1
  P  P20  1  0.33442800  0.66979800  0.62661200  1
  P  P21  1  0.08743700  0.31823500  0.84331100  1
  P  P22  1  0.91150400  0.23087000  0.65856600  1
  P  P23  1  0.23104000  0.91318400  0.84203400  1
  P  P24  1  0.77241100  0.08310800  0.15378700  1
  P  P25  1  0.09030000  0.76957600  0.34212500  1
  P  P26  1  0.91179400  0.68177200  0.15857100  1
  P  P27  1  0.66724600  0.33428800  0.37289200  1
  P  P28  1  0.66493800  0.33402700  0.87382300  1
  P  P29  1  0.76803800  0.68077100  0.65727600  1
  P  P30  1  0.32086000  0.08789800  0.65796400  1
  P  P31  1  0.31910000  0.23070900  0.15822700  1
  O  O32  1  0.75900300  0.75776300  0.56566300  1
  O  O33  1  0.66527000  0.74869600  0.34203700  1
  O  O34  1  0.75826100  0.99331700  0.06592700  1
  O  O35  1  0.65930800  0.91458600  0.83606400  1
  O  O36  1  0.52312700  0.61992100  0.82577100  1
  O  O37  1  0.48100400  0.67157300  0.17150900  1
  O  O38  1  0.38322900  0.47830900  0.32511400  1
  O  O39  1  0.23994200  0.23918700  0.06767900  1
  O  O40  1  0.25472500  0.33755400  0.83888400  1
  O  O41  1  0.48868600  0.81775300  0.66978600  1
  O  O42  1  0.52221800  0.90395100  0.32246300  1
  O  O43  1  0.32665200  0.51514200  0.66657100  1
  O  O44  1  0.32661200  0.67025100  0.01962900  1
  O  O45  1  0.33973100  0.67321900  0.51894100  1
  O  O46  1  0.18544300  0.51289800  0.16697000  1
  O  O47  1  0.38179600  0.90269200  0.82359000  1
  O  O48  1  0.32880000  0.81748400  0.16990400  1
  O  O49  1  0.08390000  0.33762300  0.34099800  1
  O  O50  1  0.00013200  0.20903100  0.75032400  1
  O  O51  1  0.99817900  0.23688700  0.56769600  1
  O  O52  1  0.00558300  0.24615300  0.93474600  1
  O  O53  1  0.09787000  0.47927900  0.82203900  1
  O  O54  1  0.18820400  0.67693800  0.66649700  1
  O  O55  1  0.91589300  0.25243800  0.15921500  1
  O  O56  1  0.10058800  0.62123100  0.32495000  1
  O  O57  1  0.25662400  0.91946100  0.34029500  1
  O  O58  1  0.79448200  0.00457400  0.25244600  1
  O  O59  1  0.75567600  0.00231300  0.43395800  1
  O  O60  1  0.24182200  0.99873900  0.56744800  1
  O  O61  1  0.74502500  0.08069100  0.66059000  1
  O  O62  1  0.89930800  0.37836700  0.67474500  1
  O  O63  1  0.08358100  0.74827100  0.84270600  1
  O  O64  1  0.81198900  0.32491100  0.33352300  1
  O  O65  1  0.90328400  0.52166300  0.17647100  1
  O  O66  1  0.00236300  0.75798900  0.06842100  1
  O  O67  1  0.00207200  0.76239200  0.43256100  1
  O  O68  1  0.00178700  0.79271400  0.25035900  1
  O  O69  1  0.91711500  0.66335300  0.65992900  1
  O  O70  1  0.66659400  0.18464700  0.82616300  1
  O  O71  1  0.61838700  0.09291400  0.17753800  1
  O  O72  1  0.81343400  0.48540600  0.83408800  1
  O  O73  1  0.66334200  0.32699100  0.98087000  1
  O  O74  1  0.65832300  0.32536000  0.48046900  1
  O  O75  1  0.67174400  0.48608000  0.33330700  1
  O  O76  1  0.47833500  0.09441500  0.67738100  1
  O  O77  1  0.51156900  0.18317500  0.32921600  1
  O  O78  1  0.74602400  0.66009400  0.16147000  1
  O  O79  1  0.78922700  0.79324100  0.74677900  1
  O  O80  1  0.77053500  0.76473400  0.92915500  1
  O  O81  1  0.61935900  0.52082700  0.67496800  1
  O  O82  1  0.51179900  0.32575700  0.83296900  1
  O  O83  1  0.47989600  0.37617800  0.17598700  1
  O  O84  1  0.33427800  0.07967100  0.15990300  1
  O  O85  1  0.24601900  0.00353100  0.93265500  1
  O  O86  1  0.20860600  0.00009400  0.74996400  1
  O  O87  1  0.33729400  0.25307600  0.65823100  1
  O  O88  1  0.24069100  0.24028400  0.43260700  1
  O  O89  1  0.20822000  0.20827900  0.25007500  1
