# generated using pymatgen
data_Li3Ti(PO4)2
_symmetry_space_group_name_H-M   'P 1'
_cell_length_a   18.02798200
_cell_length_b   4.99391200
_cell_length_c   7.83523351
_cell_angle_alpha   53.93623863
_cell_angle_beta   90.00000000
_cell_angle_gamma   90.00000000
_symmetry_Int_Tables_number   1
_chemical_formula_structural   Li3Ti(PO4)2
_chemical_formula_sum   'Li12 Ti4 P8 O32'
_cell_volume   570.22471705
_cell_formula_units_Z   4
loop_
 _symmetry_equiv_pos_site_id
 _symmetry_equiv_pos_as_xyz
  1  'x, y, z'
loop_
 _atom_site_type_symbol
 _atom_site_label
 _atom_site_symmetry_multiplicity
 _atom_site_fract_x
 _atom_site_fract_y
 _atom_site_fract_z
 _atom_site_occupancy
  Li  Li0  1  0.69884000  0.37934100  0.81064800  1
  Li  Li1  1  0.87747500  0.71502800  0.50395900  1
  Li  Li2  1  0.05080200  0.96546500  0.29329500  1
  Li  Li3  1  0.37747500  0.28497200  0.99604100  1
  Li  Li4  1  0.55080200  0.03453500  0.20670500  1
  Li  Li5  1  0.19884000  0.62065900  0.68935200  1
  Li  Li6  1  0.80116000  0.37934100  0.31064800  1
  Li  Li7  1  0.44919800  0.96546500  0.79329500  1
  Li  Li8  1  0.62252500  0.71502800  0.00395900  1
  Li  Li9  1  0.94919800  0.03453500  0.70670500  1
  Li  Li10  1  0.12252500  0.28497200  0.49604100  1
  Li  Li11  1  0.30116000  0.62065900  0.18935200  1
  Ti  Ti12  1  0.87316700  0.19393700  0.01139600  1
  Ti  Ti13  1  0.37316700  0.80606300  0.48860400  1
  Ti  Ti14  1  0.62683300  0.19393700  0.51139600  1
  Ti  Ti15  1  0.12683300  0.80606300  0.98860400  1
  P  P16  1  0.71457100  0.89620100  0.28581900  1
  P  P17  1  0.53635400  0.50280900  0.72626700  1
  P  P18  1  0.03635400  0.49719100  0.77373300  1
  P  P19  1  0.21457100  0.10379900  0.21418100  1
  P  P20  1  0.78542900  0.89620100  0.78581900  1
  P  P21  1  0.96364600  0.50280900  0.22626700  1
  P  P22  1  0.46364600  0.49719100  0.27373300  1
  P  P23  1  0.28542900  0.10379900  0.71418100  1
  O  O24  1  0.19881300  0.82319200  0.18501500  1
  O  O25  1  0.69172100  0.55319000  0.48980500  1
  O  O26  1  0.43974400  0.79972700  0.27574900  1
  O  O27  1  0.67186500  0.97104600  0.09488300  1
  O  O28  1  0.06584600  0.16830800  0.97582700  1
  O  O29  1  0.06620600  0.54286200  0.57756100  1
  O  O30  1  0.80045600  0.86995100  0.26042300  1
  O  O31  1  0.44893900  0.49518500  0.72657700  1
  O  O32  1  0.94893900  0.50481500  0.77342300  1
  O  O33  1  0.30045600  0.13004900  0.23957700  1
  O  O34  1  0.56620600  0.45713800  0.92243900  1
  O  O35  1  0.56584600  0.83169200  0.52417300  1
  O  O36  1  0.17186500  0.02895400  0.40511700  1
  O  O37  1  0.93974400  0.20027300  0.22425100  1
  O  O38  1  0.19172100  0.44681000  0.01019500  1
  O  O39  1  0.69881300  0.17680800  0.31498500  1
  O  O40  1  0.30118700  0.82319200  0.68501500  1
  O  O41  1  0.80827900  0.55319000  0.98980500  1
  O  O42  1  0.06025600  0.79972700  0.77574900  1
  O  O43  1  0.82813500  0.97104600  0.59488300  1
  O  O44  1  0.43415400  0.16830800  0.47582700  1
  O  O45  1  0.43379400  0.54286200  0.07756100  1
  O  O46  1  0.69954400  0.86995100  0.76042300  1
  O  O47  1  0.05106100  0.49518500  0.22657700  1
  O  O48  1  0.55106100  0.50481500  0.27342300  1
  O  O49  1  0.19954400  0.13004900  0.73957700  1
  O  O50  1  0.93379400  0.45713800  0.42243900  1
  O  O51  1  0.93415400  0.83169200  0.02417300  1
  O  O52  1  0.32813500  0.02895400  0.90511700  1
  O  O53  1  0.56025600  0.20027300  0.72425100  1
  O  O54  1  0.30827900  0.44681000  0.51019500  1
  O  O55  1  0.80118700  0.17680800  0.81498500  1
