# generated using pymatgen
data_Li8Mg3Cu9(SiO3)16
_symmetry_space_group_name_H-M   'P 1'
_cell_length_a   8.28610400
_cell_length_b   8.42263961
_cell_length_c   14.20866895
_cell_angle_alpha   76.13785407
_cell_angle_beta   74.21205608
_cell_angle_gamma   72.84744393
_symmetry_Int_Tables_number   1
_chemical_formula_structural   Li8Mg3Cu9(SiO3)16
_chemical_formula_sum   'Li8 Mg3 Cu9 Si16 O48'
_cell_volume   897.98860237
_cell_formula_units_Z   1
loop_
 _symmetry_equiv_pos_site_id
 _symmetry_equiv_pos_as_xyz
  1  'x, y, z'
loop_
 _atom_site_type_symbol
 _atom_site_label
 _atom_site_symmetry_multiplicity
 _atom_site_fract_x
 _atom_site_fract_y
 _atom_site_fract_z
 _atom_site_occupancy
  Li  Li0  1  0.95274300  0.51512700  0.39450100  1
  Li  Li1  1  0.45273500  0.26532700  0.64448200  1
  Li  Li2  1  0.54726500  0.73467300  0.35551800  1
  Li  Li3  1  0.04725700  0.48487300  0.60549900  1
  Li  Li4  1  0.95243400  0.01567800  0.89419600  1
  Li  Li5  1  0.45256400  0.76368000  0.14508300  1
  Li  Li6  1  0.54743600  0.23632000  0.85491700  1
  Li  Li7  1  0.04756600  0.98432200  0.10580400  1
  Mg  Mg8  1  0.99991100  0.75007900  0.74942600  1
  Mg  Mg9  1  0.00008900  0.24992100  0.25057400  1
  Mg  Mg10  1  0.50000000  0.00000000  0.50000000  1
  Cu  Cu11  1  0.74404700  0.22357500  0.45958400  1
  Cu  Cu12  1  0.24404800  0.97331000  0.70949300  1
  Cu  Cu13  1  0.75595200  0.02669000  0.29050700  1
  Cu  Cu14  1  0.25595300  0.77642500  0.54041600  1
  Cu  Cu15  1  0.74368000  0.72400000  0.95934200  1
  Cu  Cu16  1  0.24489000  0.47330800  0.20984900  1
  Cu  Cu17  1  0.50000000  0.50000000  0.00000000  1
  Cu  Cu18  1  0.75511000  0.52669200  0.79015100  1
  Cu  Cu19  1  0.25632000  0.27600000  0.04065800  1
  Si  Si20  1  0.85277000  0.16061800  0.71205900  1
  Si  Si21  1  0.59134800  0.93641600  0.74908300  1
  Si  Si22  1  0.90880000  0.81329200  0.50075000  1
  Si  Si23  1  0.64732100  0.58924900  0.53764300  1
  Si  Si24  1  0.85295200  0.66047000  0.21216300  1
  Si  Si25  1  0.35267900  0.41075100  0.46235700  1
  Si  Si26  1  0.59147400  0.43632800  0.25071200  1
  Si  Si27  1  0.90814900  0.31322500  0.00092100  1
  Si  Si28  1  0.09120000  0.18670800  0.49925000  1
  Si  Si29  1  0.40865200  0.06358400  0.25091700  1
  Si  Si30  1  0.64711500  0.09040300  0.03839400  1
  Si  Si31  1  0.14723000  0.83938200  0.28794100  1
  Si  Si32  1  0.35288500  0.90959700  0.96160600  1
  Si  Si33  1  0.09185100  0.68677500  0.99907900  1
  Si  Si34  1  0.40852600  0.56367200  0.74928800  1
  Si  Si35  1  0.14704800  0.33953000  0.78783700  1
  O  O36  1  0.94138000  0.24502300  0.59928000  1
  O  O37  1  0.67644300  0.10548700  0.70612200  1
  O  O38  1  0.82342100  0.64448400  0.54390600  1
  O  O39  1  0.99641100  0.18163100  0.41409500  1
  O  O40  1  0.55833700  0.50379300  0.64973700  1
  O  O41  1  0.49623900  0.93189700  0.66398700  1
  O  O42  1  0.75955300  0.97785600  0.46912000  1
  O  O43  1  0.72023100  0.46301900  0.45766100  1
  O  O44  1  0.99106100  0.49245000  0.25478700  1
  O  O45  1  0.25849000  0.72814900  0.71854100  1
  O  O46  1  0.21970200  0.21272200  0.70815700  1
  O  O47  1  0.50922500  0.75762300  0.49497800  1
  O  O48  1  0.49077500  0.24237700  0.50502200  1
  O  O49  1  0.78029800  0.78727800  0.29184300  1
  O  O50  1  0.74151000  0.27185100  0.28145900  1
  O  O51  1  0.00893900  0.50755000  0.74521300  1
  O  O52  1  0.27976900  0.53698100  0.54233900  1
  O  O53  1  0.94210800  0.74443600  0.09912500  1
  O  O54  1  0.24044700  0.02214400  0.53088000  1
  O  O55  1  0.50376100  0.06810300  0.33601300  1
  O  O56  1  0.67674000  0.60547000  0.20610300  1
  O  O57  1  0.44166300  0.49620700  0.35026300  1
  O  O58  1  0.00358900  0.81836900  0.58590500  1
  O  O59  1  0.82365100  0.14445400  0.04406200  1
  O  O60  1  0.17657900  0.35551600  0.45609400  1
  O  O61  1  0.99612100  0.68108000  0.91450000  1
  O  O62  1  0.55835400  0.00536200  0.15066500  1
  O  O63  1  0.32355700  0.89451300  0.29387800  1
  O  O64  1  0.49481700  0.42803700  0.16826300  1
  O  O65  1  0.75759800  0.47862000  0.96925400  1
  O  O66  1  0.05862000  0.75497700  0.40072000  1
  O  O67  1  0.71843000  0.96411900  0.95831100  1
  O  O68  1  0.99071400  0.99235600  0.75505900  1
  O  O69  1  0.25925300  0.22751000  0.21882100  1
  O  O70  1  0.21959600  0.71340400  0.20780700  1
  O  O71  1  0.50903300  0.25988900  0.99461000  1
  O  O72  1  0.49096700  0.74011100  0.00539000  1
  O  O73  1  0.78040400  0.28659600  0.79219300  1
  O  O74  1  0.74074700  0.77249000  0.78117900  1
  O  O75  1  0.00928600  0.00764400  0.24494100  1
  O  O76  1  0.28157000  0.03588100  0.04168900  1
  O  O77  1  0.24240200  0.52138000  0.03074600  1
  O  O78  1  0.50518300  0.57196300  0.83173700  1
  O  O79  1  0.44164600  0.99463800  0.84933500  1
  O  O80  1  0.00387900  0.31892000  0.08550000  1
  O  O81  1  0.17634900  0.85554600  0.95593800  1
  O  O82  1  0.32326000  0.39453000  0.79389700  1
  O  O83  1  0.05789200  0.25556400  0.90087500  1
