# generated using pymatgen
data_Li2CrCo3O8
_symmetry_space_group_name_H-M   'P 1'
_cell_length_a   5.77601884
_cell_length_b   5.93455783
_cell_length_c   8.21590074
_cell_angle_alpha   87.94673489
_cell_angle_beta   89.99620575
_cell_angle_gamma   89.92960625
_symmetry_Int_Tables_number   1
_chemical_formula_structural   Li2CrCo3O8
_chemical_formula_sum   'Li4 Cr2 Co6 O16'
_cell_volume   281.44458342
_cell_formula_units_Z   2
loop_
 _symmetry_equiv_pos_site_id
 _symmetry_equiv_pos_as_xyz
  1  'x, y, z'
loop_
 _atom_site_type_symbol
 _atom_site_label
 _atom_site_symmetry_multiplicity
 _atom_site_fract_x
 _atom_site_fract_y
 _atom_site_fract_z
 _atom_site_occupancy
  Li  Li0  1  0.50014300  0.99999300  0.50002200  1
  Li  Li1  1  0.00003100  0.50002400  0.99997600  1
  Li  Li2  1  0.00000300  0.99999200  0.49998600  1
  Li  Li3  1  0.49995500  0.50000800  0.00000900  1
  Cr  Cr4  1  0.50025100  0.49997500  0.50000000  1
  Cr  Cr5  1  0.99967400  0.00003400  0.99997700  1
  Co  Co6  1  0.49978500  0.00002600  0.99998500  1
  Co  Co7  1  0.00032600  0.49999100  0.50003500  1
  Co  Co8  1  0.25202500  0.75320300  0.24843600  1
  Co  Co9  1  0.74793000  0.24687000  0.75156700  1
  Co  Co10  1  0.74820100  0.75299100  0.24821800  1
  Co  Co11  1  0.25176300  0.24695300  0.75176300  1
  O  O12  1  0.49992400  0.96363200  0.23467900  1
  O  O13  1  0.99994000  0.45669100  0.74249200  1
  O  O14  1  0.49977900  0.03634000  0.76531600  1
  O  O15  1  0.00041600  0.54332700  0.25753100  1
  O  O16  1  0.99972600  0.96037900  0.24231400  1
  O  O17  1  0.49987800  0.45612600  0.74495900  1
  O  O18  1  0.99998700  0.03960600  0.75772400  1
  O  O19  1  0.50029500  0.54385700  0.25501600  1
  O  O20  1  0.74734300  0.26330700  0.52292100  1
  O  O21  1  0.25661700  0.77264100  0.01961900  1
  O  O22  1  0.25190000  0.26495600  0.52271700  1
  O  O23  1  0.74311500  0.77278700  0.01962800  1
  O  O24  1  0.74861300  0.73502100  0.47726100  1
  O  O25  1  0.25634800  0.22727200  0.98040500  1
  O  O26  1  0.25316500  0.73679300  0.47707700  1
  O  O27  1  0.74286800  0.22720400  0.98036800  1
