# generated using pymatgen
data_Li4MnFe3(BO3)4
_symmetry_space_group_name_H-M   'P 1'
_cell_length_a   5.23693100
_cell_length_b   9.05210455
_cell_length_c   10.40760613
_cell_angle_alpha   88.83324219
_cell_angle_beta   89.11231974
_cell_angle_gamma   89.82431664
_symmetry_Int_Tables_number   1
_chemical_formula_structural   Li4MnFe3(BO3)4
_chemical_formula_sum   'Li8 Mn2 Fe6 B8 O24'
_cell_volume   493.21177840
_cell_formula_units_Z   2
loop_
 _symmetry_equiv_pos_site_id
 _symmetry_equiv_pos_as_xyz
  1  'x, y, z'
loop_
 _atom_site_type_symbol
 _atom_site_label
 _atom_site_symmetry_multiplicity
 _atom_site_fract_x
 _atom_site_fract_y
 _atom_site_fract_z
 _atom_site_occupancy
  Li  Li0  1  0.15128000  0.17459600  0.66939900  1
  Li  Li1  1  0.18455100  0.16294500  0.16578800  1
  Li  Li2  1  0.32076100  0.33117400  0.41591900  1
  Li  Li3  1  0.33583200  0.32423900  0.91652900  1
  Li  Li4  1  0.64984000  0.67317400  0.66580900  1
  Li  Li5  1  0.68708600  0.66146800  0.16899200  1
  Li  Li6  1  0.81882500  0.83042400  0.41673700  1
  Li  Li7  1  0.83505300  0.82636600  0.91704200  1
  Mn  Mn8  1  0.67448700  0.99912000  0.13461800  1
  Mn  Mn9  1  0.83210500  0.49752400  0.88436400  1
  Fe  Fe10  1  0.18517100  0.50003200  0.13299300  1
  Fe  Fe11  1  0.15590400  0.83980900  0.63191400  1
  Fe  Fe12  1  0.32046100  0.66644700  0.38252300  1
  Fe  Fe13  1  0.33821900  0.99182900  0.87926800  1
  Fe  Fe14  1  0.65490200  0.33997300  0.63157500  1
  Fe  Fe15  1  0.83777000  0.16613700  0.38521500  1
  B  B16  1  0.17163500  0.83006100  0.12467100  1
  B  B17  1  0.16033000  0.50216300  0.62536100  1
  B  B18  1  0.33594600  0.99699400  0.37746500  1
  B  B19  1  0.32924800  0.66772300  0.87548900  1
  B  B20  1  0.67508300  0.33254800  0.12907700  1
  B  B21  1  0.66340300  0.00172400  0.62519700  1
  B  B22  1  0.83304800  0.49699000  0.37626800  1
  B  B23  1  0.82622100  0.16505700  0.87400700  1
  O  O24  1  0.09617200  0.48389900  0.34748900  1
  O  O25  1  0.08899400  0.17237400  0.86189600  1
  O  O26  1  0.17407200  0.79071900  0.84491500  1
  O  O27  1  0.19603200  0.87272300  0.41710300  1
  O  O28  1  0.21389400  0.13251700  0.36324400  1
  O  O29  1  0.21897500  0.53532600  0.91871100  1
  O  O30  1  0.27652300  0.36420000  0.61261400  1
  O  O31  1  0.28574000  0.96650500  0.09488000  1
  O  O32  1  0.30302200  0.62921700  0.59721600  1
  O  O33  1  0.31981800  0.70981800  0.16579400  1
  O  O34  1  0.41129100  0.32092600  0.11535100  1
  O  O35  1  0.40737000  0.01172900  0.66313100  1
  O  O36  1  0.59629600  0.98521000  0.34874700  1
  O  O37  1  0.59090900  0.67970200  0.86040600  1
  O  O38  1  0.67481200  0.28880500  0.84365100  1
  O  O39  1  0.69297200  0.37249700  0.41665100  1
  O  O40  1  0.71387300  0.63264600  0.36242400  1
  O  O41  1  0.70757900  0.03394600  0.91579900  1
  O  O42  1  0.79496800  0.46680000  0.09816100  1
  O  O43  1  0.77826800  0.86399000  0.61300700  1
  O  O44  1  0.80625300  0.12926200  0.59633400  1
  O  O45  1  0.81876100  0.21073900  0.16839300  1
  O  O46  1  0.91032700  0.81535600  0.11123100  1
  O  O47  1  0.90531800  0.51198000  0.66423600  1
