# generated using pymatgen
data_Li2MnFe(PO4)2
_symmetry_space_group_name_H-M   'P 1'
_cell_length_a   6.13039800
_cell_length_b   10.50630400
_cell_length_c   14.29617649
_cell_angle_alpha   89.92425314
_cell_angle_beta   90.00000000
_cell_angle_gamma   90.00000000
_symmetry_Int_Tables_number   1
_chemical_formula_structural   Li2MnFe(PO4)2
_chemical_formula_sum   'Li12 Mn6 Fe6 P12 O48'
_cell_volume   920.78482950
_cell_formula_units_Z   6
loop_
 _symmetry_equiv_pos_site_id
 _symmetry_equiv_pos_as_xyz
  1  'x, y, z'
loop_
 _atom_site_type_symbol
 _atom_site_label
 _atom_site_symmetry_multiplicity
 _atom_site_fract_x
 _atom_site_fract_y
 _atom_site_fract_z
 _atom_site_occupancy
  Li  Li0  1  0.25125700  0.00071100  0.00005900  1
  Li  Li1  1  0.74874300  0.00071100  0.00005900  1
  Li  Li2  1  0.25097100  0.49972100  0.16660400  1
  Li  Li3  1  0.74902900  0.49972100  0.16660400  1
  Li  Li4  1  0.25086200  0.00016300  0.33339200  1
  Li  Li5  1  0.74913800  0.00016300  0.33339200  1
  Li  Li6  1  0.25107700  0.49995500  0.50014300  1
  Li  Li7  1  0.74892300  0.49995500  0.50014300  1
  Li  Li8  1  0.25087400  0.00052900  0.66672300  1
  Li  Li9  1  0.74912600  0.00052900  0.66672300  1
  Li  Li10  1  0.25127100  0.49981700  0.83324900  1
  Li  Li11  1  0.74872900  0.49981700  0.83324900  1
  Mn  Mn12  1  0.00000000  0.71839300  0.00827500  1
  Mn  Mn13  1  0.00000000  0.21867000  0.15822300  1
  Mn  Mn14  1  0.50000000  0.78124600  0.17488500  1
  Mn  Mn15  1  0.00000000  0.71872300  0.34183700  1
  Mn  Mn16  1  0.00000000  0.21847700  0.49160100  1
  Mn  Mn17  1  0.00000000  0.71830900  0.67509200  1
  Fe  Fe18  1  0.50000000  0.28150300  0.32439700  1
  Fe  Fe19  1  0.50000000  0.78159000  0.50894800  1
  Fe  Fe20  1  0.50000000  0.28150000  0.65787200  1
  Fe  Fe21  1  0.00000000  0.21833100  0.82545100  1
  Fe  Fe22  1  0.50000000  0.78177700  0.84202000  1
  Fe  Fe23  1  0.50000000  0.28135400  0.99067300  1
  P  P24  1  0.50000000  0.59216300  0.02840900  1
  P  P25  1  0.50000000  0.09441600  0.13735300  1
  P  P26  1  0.00000000  0.90766100  0.19581600  1
  P  P27  1  0.00000000  0.40684700  0.30507500  1
  P  P28  1  0.50000000  0.59265100  0.36311700  1
  P  P29  1  0.50000000  0.09347700  0.47067600  1
  P  P30  1  0.00000000  0.90685300  0.52813100  1
  P  P31  1  0.00000000  0.40570900  0.63898300  1
  P  P32  1  0.50000000  0.59348200  0.69583100  1
  P  P33  1  0.50000000  0.09396900  0.80466100  1
  P  P34  1  0.00000000  0.90783600  0.86100200  1
  P  P35  1  0.00000000  0.40601300  0.97115600  1
  O  O36  1  0.50000000  0.45457300  0.06894800  1
  O  O37  1  0.29866400  0.66159800  0.07324200  1
  O  O38  1  0.70133600  0.66159800  0.07324200  1
  O  O39  1  0.00000000  0.40423100  0.07838800  1
  O  O40  1  0.00000000  0.90464700  0.08793500  1
  O  O41  1  0.29876800  0.16381400  0.09205200  1
  O  O42  1  0.70123200  0.16381400  0.09205200  1
  O  O43  1  0.50000000  0.95684000  0.09638800  1
  O  O44  1  0.00000000  0.04430000  0.23707200  1
  O  O45  1  0.79860800  0.83758300  0.23990200  1
  O  O46  1  0.20139200  0.83758300  0.23990200  1
  O  O47  1  0.50000000  0.09705600  0.24472800  1
  O  O48  1  0.50000000  0.59611100  0.25548400  1
  O  O49  1  0.79718000  0.33660300  0.26172800  1
  O  O50  1  0.20282000  0.33660300  0.26172800  1
  O  O51  1  0.00000000  0.54326900  0.26249300  1
  O  O52  1  0.50000000  0.45492800  0.40333200  1
  O  O53  1  0.29910200  0.66284600  0.40792700  1
  O  O54  1  0.70089800  0.66284600  0.40792700  1
  O  O55  1  0.00000000  0.40488500  0.41263000  1
  O  O56  1  0.00000000  0.90495300  0.42089200  1
  O  O57  1  0.70095300  0.16289500  0.42550600  1
  O  O58  1  0.29904700  0.16289500  0.42550600  1
  O  O59  1  0.50000000  0.95537800  0.43090500  1
  O  O60  1  0.00000000  0.04302500  0.57068300  1
  O  O61  1  0.79710800  0.83629900  0.57165100  1
  O  O62  1  0.20289200  0.83629900  0.57165100  1
  O  O63  1  0.50000000  0.09729100  0.57865300  1
  O  O64  1  0.50000000  0.59754700  0.58825300  1
  O  O65  1  0.20297900  0.33618600  0.59514500  1
  O  O66  1  0.79702100  0.33618600  0.59514500  1
  O  O67  1  0.00000000  0.54236700  0.59709700  1
  O  O68  1  0.50000000  0.45536100  0.73587200  1
  O  O69  1  0.29912700  0.66304200  0.74125300  1
  O  O70  1  0.70087300  0.66304200  0.74125300  1
  O  O71  1  0.00000000  0.40234800  0.74681800  1
  O  O72  1  0.00000000  0.90448500  0.75368100  1
  O  O73  1  0.70268600  0.16368500  0.76006200  1
  O  O74  1  0.29731400  0.16368500  0.76006200  1
  O  O75  1  0.50000000  0.95635400  0.76412600  1
  O  O76  1  0.00000000  0.04492100  0.90235600  1
  O  O77  1  0.79742800  0.83760600  0.90511000  1
  O  O78  1  0.20257200  0.83760600  0.90511000  1
  O  O79  1  0.50000000  0.09723600  0.91222500  1
  O  O80  1  0.50000000  0.59693000  0.92067500  1
  O  O81  1  0.20259800  0.33558700  0.92718500  1
  O  O82  1  0.79740200  0.33558700  0.92718500  1
  O  O83  1  0.00000000  0.54273600  0.92901200  1
