# generated using pymatgen
data_Li3La8Ti9Cr3O36
_symmetry_space_group_name_H-M   'P 1'
_cell_length_a   5.51468000
_cell_length_b   5.51730904
_cell_length_c   23.28630924
_cell_angle_alpha   90.04331049
_cell_angle_beta   90.01280932
_cell_angle_gamma   90.00696816
_symmetry_Int_Tables_number   1
_chemical_formula_structural   Li3La8Ti9Cr3O36
_chemical_formula_sum   'Li3 La8 Ti9 Cr3 O36'
_cell_volume   708.51353279
_cell_formula_units_Z   1
loop_
 _symmetry_equiv_pos_site_id
 _symmetry_equiv_pos_as_xyz
  1  'x, y, z'
loop_
 _atom_site_type_symbol
 _atom_site_label
 _atom_site_symmetry_multiplicity
 _atom_site_fract_x
 _atom_site_fract_y
 _atom_site_fract_z
 _atom_site_occupancy
  Li  Li0  1  0.99544000  0.01989900  0.74755000  1
  Li  Li1  1  0.50512400  0.51206100  0.91232600  1
  Li  Li2  1  0.50408400  0.51960400  0.58325000  1
  La  La3  1  0.00000200  0.00460900  0.08403000  1
  La  La4  1  0.49987300  0.50160800  0.24901300  1
  La  La5  1  0.49758500  0.49612700  0.42315100  1
  La  La6  1  0.50027300  0.49146100  0.08011000  1
  La  La7  1  0.49952200  0.49325300  0.74945000  1
  La  La8  1  0.00080900  0.99359000  0.91435500  1
  La  La9  1  0.00125000  0.98952800  0.58229300  1
  La  La10  1  0.99992800  0.99252300  0.25193700  1
  Ti  Ti11  1  0.50016200  0.00926500  0.83417200  1
  Ti  Ti12  1  0.50012700  0.00968300  0.50297600  1
  Ti  Ti13  1  0.50072200  0.00274100  0.66793300  1
  Ti  Ti14  1  0.49957700  0.99930600  0.33894500  1
  Ti  Ti15  1  0.00025800  0.50349700  0.99516700  1
  Ti  Ti16  1  0.00037400  0.50355300  0.66627600  1
  Ti  Ti17  1  0.99999600  0.50863600  0.83059100  1
  Ti  Ti18  1  0.99931700  0.49699900  0.33974900  1
  Ti  Ti19  1  0.99944500  0.50004400  0.50186100  1
  Cr  Cr20  1  0.49997200  0.99958000  0.16653700  1
  Cr  Cr21  1  0.50029400  0.00216300  0.99711300  1
  Cr  Cr22  1  0.99997500  0.49995200  0.16673800  1
  O  O23  1  0.99994200  0.59569700  0.74989200  1
  O  O24  1  0.00240300  0.56611600  0.41759400  1
  O  O25  1  0.00119200  0.57020000  0.08198500  1
  O  O26  1  0.25222600  0.74127000  0.65144200  1
  O  O27  1  0.24491600  0.74903000  0.98660200  1
  O  O28  1  0.25326500  0.73982700  0.84838700  1
  O  O29  1  0.25463900  0.74099500  0.51539700  1
  O  O30  1  0.24632600  0.75366300  0.18134900  1
  O  O31  1  0.25418700  0.74834300  0.31899900  1
  O  O32  1  0.24595100  0.24231800  0.81746900  1
  O  O33  1  0.25312000  0.24963900  0.48932200  1
  O  O34  1  0.24627100  0.24256400  0.68236600  1
  O  O35  1  0.25335900  0.25327500  0.15199300  1
  O  O36  1  0.26003900  0.26348400  0.34274500  1
  O  O37  1  0.24265400  0.24599600  0.01402800  1
  O  O38  1  0.49952200  0.09333900  0.91376900  1
  O  O39  1  0.49931200  0.08831900  0.58434400  1
  O  O40  1  0.49920300  0.06860500  0.25090500  1
  O  O41  1  0.50079800  0.91870500  0.74928500  1
  O  O42  1  0.49976100  0.92853500  0.41699400  1
  O  O43  1  0.50164300  0.92026600  0.08206500  1
  O  O44  1  0.74550800  0.73985400  0.65123700  1
  O  O45  1  0.75502500  0.74862200  0.98658600  1
  O  O46  1  0.74508600  0.73860200  0.84854700  1
  O  O47  1  0.74579400  0.74890300  0.31908600  1
  O  O48  1  0.74480100  0.74101900  0.51537100  1
  O  O49  1  0.75188500  0.75205000  0.18134400  1
  O  O50  1  0.75471100  0.24083500  0.68255900  1
  O  O51  1  0.75527000  0.24065700  0.81720600  1
  O  O52  1  0.73894400  0.26403200  0.34301400  1
  O  O53  1  0.75787500  0.24606000  0.01417500  1
  O  O54  1  0.74583100  0.25013700  0.48900900  1
  O  O55  1  0.74842100  0.25155800  0.15200400  1
  O  O56  1  0.99838300  0.41937300  0.58418700  1
  O  O57  1  0.99798200  0.42207800  0.91558200  1
  O  O58  1  0.99874600  0.42625300  0.25097100  1
