# generated using pymatgen
data_LiSnPO4
_symmetry_space_group_name_H-M   'P 1'
_cell_length_a   7.07595400
_cell_length_b   9.45668100
_cell_length_c   18.97434834
_cell_angle_alpha   60.22110291
_cell_angle_beta   90.00000000
_cell_angle_gamma   90.00000000
_symmetry_Int_Tables_number   1
_chemical_formula_structural   LiSnPO4
_chemical_formula_sum   'Li12 Sn12 P12 O48'
_cell_volume   1102.00746235
_cell_formula_units_Z   12
loop_
 _symmetry_equiv_pos_site_id
 _symmetry_equiv_pos_as_xyz
  1  'x, y, z'
loop_
 _atom_site_type_symbol
 _atom_site_label
 _atom_site_symmetry_multiplicity
 _atom_site_fract_x
 _atom_site_fract_y
 _atom_site_fract_z
 _atom_site_occupancy
  Li  Li0  1  0.48351500  0.83973700  0.42016300  1
  Li  Li1  1  0.52686100  0.17037600  0.08871100  1
  Li  Li2  1  0.51345600  0.51637700  0.73207900  1
  Li  Li3  1  0.01345600  0.48362300  0.76792100  1
  Li  Li4  1  0.02686100  0.82962400  0.41128900  1
  Li  Li5  1  0.98351500  0.16026300  0.07983700  1
  Li  Li6  1  0.01648500  0.83973700  0.92016300  1
  Li  Li7  1  0.97313900  0.17037600  0.58871100  1
  Li  Li8  1  0.98654400  0.51637700  0.23207900  1
  Li  Li9  1  0.48654400  0.48362300  0.26792100  1
  Li  Li10  1  0.47313900  0.82962400  0.91128900  1
  Li  Li11  1  0.51648500  0.16026300  0.57983700  1
  Sn  Sn12  1  0.74748200  0.56277700  0.90128800  1
  Sn  Sn13  1  0.76179600  0.13338700  0.28037400  1
  Sn  Sn14  1  0.75850000  0.80528900  0.56538500  1
  Sn  Sn15  1  0.25850000  0.19471100  0.93461500  1
  Sn  Sn16  1  0.26179600  0.86661300  0.21962600  1
  Sn  Sn17  1  0.24748200  0.43722300  0.59871200  1
  Sn  Sn18  1  0.75251800  0.56277700  0.40128800  1
  Sn  Sn19  1  0.73820400  0.13338700  0.78037400  1
  Sn  Sn20  1  0.74150000  0.80528900  0.06538500  1
  Sn  Sn21  1  0.24150000  0.19471100  0.43461500  1
  Sn  Sn22  1  0.23820400  0.86661300  0.71962600  1
  Sn  Sn23  1  0.25251800  0.43722300  0.09871200  1
  P  P24  1  0.23739100  0.53784000  0.91069800  1
  P  P25  1  0.26392700  0.14415300  0.26908900  1
  P  P26  1  0.25355800  0.82045700  0.57234400  1
  P  P27  1  0.75355800  0.17954300  0.92765600  1
  P  P28  1  0.76392700  0.85584700  0.23091100  1
  P  P29  1  0.73739100  0.46216000  0.58930200  1
  P  P30  1  0.26260900  0.53784000  0.41069800  1
  P  P31  1  0.23607300  0.14415300  0.76908900  1
  P  P32  1  0.24644200  0.82045700  0.07234400  1
  P  P33  1  0.74644200  0.17954300  0.42765600  1
  P  P34  1  0.73607300  0.85584700  0.73091100  1
  P  P35  1  0.76260900  0.46216000  0.08930200  1
  O  O36  1  0.07360900  0.64027900  0.91551900  1
  O  O37  1  0.57762500  0.36529200  0.10122600  1
  O  O38  1  0.09274200  0.04347100  0.31923200  1
  O  O39  1  0.25465500  0.36389200  0.99141500  1
  O  O40  1  0.75836200  0.01564100  0.42253400  1
  O  O41  1  0.74402800  0.67388700  0.75207700  1
  O  O42  1  0.25341900  0.68341300  0.66328900  1
  O  O43  1  0.44415700  0.05642500  0.31743500  1
  O  O44  1  0.08440700  0.80944600  0.52347100  1
  O  O45  1  0.43556800  0.81928700  0.52740900  1
  O  O46  1  0.26364600  0.15600500  0.18180500  1
  O  O47  1  0.20304500  0.49253800  0.84319300  1
  O  O48  1  0.70304500  0.50746200  0.65680700  1
  O  O49  1  0.93556800  0.18071300  0.97259100  1
  O  O50  1  0.76364600  0.84399500  0.31819500  1
  O  O51  1  0.58440700  0.19055400  0.97652900  1
  O  O52  1  0.94415700  0.94357500  0.18256500  1
  O  O53  1  0.75341900  0.31658700  0.83671100  1
  O  O54  1  0.24402800  0.32611300  0.74792300  1
  O  O55  1  0.75465500  0.63610800  0.50858500  1
  O  O56  1  0.25836200  0.98435900  0.07746600  1
  O  O57  1  0.59274200  0.95652900  0.18076800  1
  O  O58  1  0.07762500  0.63470800  0.39877400  1
  O  O59  1  0.57360900  0.35972100  0.58448100  1
  O  O60  1  0.42639100  0.64027900  0.41551900  1
  O  O61  1  0.92237500  0.36529200  0.60122600  1
  O  O62  1  0.40725800  0.04347100  0.81923200  1
  O  O63  1  0.24534500  0.36389200  0.49141500  1
  O  O64  1  0.74163800  0.01564100  0.92253400  1
  O  O65  1  0.75597200  0.67388700  0.25207700  1
  O  O66  1  0.24658100  0.68341300  0.16328900  1
  O  O67  1  0.05584300  0.05642500  0.81743500  1
  O  O68  1  0.41559300  0.80944600  0.02347100  1
  O  O69  1  0.23635400  0.15600500  0.68180500  1
  O  O70  1  0.06443200  0.81928700  0.02740900  1
  O  O71  1  0.29695500  0.49253800  0.34319300  1
  O  O72  1  0.79695500  0.50746200  0.15680700  1
  O  O73  1  0.73635400  0.84399500  0.81819500  1
  O  O74  1  0.56443200  0.18071300  0.47259100  1
  O  O75  1  0.91559300  0.19055400  0.47652900  1
  O  O76  1  0.55584300  0.94357500  0.68256500  1
  O  O77  1  0.74658100  0.31658700  0.33671100  1
  O  O78  1  0.25597200  0.32611300  0.24792300  1
  O  O79  1  0.24163800  0.98435900  0.57746600  1
  O  O80  1  0.74534500  0.63610800  0.00858500  1
  O  O81  1  0.90725800  0.95652900  0.68076800  1
  O  O82  1  0.42237500  0.63470800  0.89877400  1
  O  O83  1  0.92639100  0.35972100  0.08448100  1
