# generated using pymatgen
data_Li3V4(PO4)6
_symmetry_space_group_name_H-M   'P 1'
_cell_length_a   8.58966500
_cell_length_b   8.64059928
_cell_length_c   8.65681962
_cell_angle_alpha   90.44522300
_cell_angle_beta   119.08085548
_cell_angle_gamma   119.56786244
_symmetry_Int_Tables_number   1
_chemical_formula_structural   Li3V4(PO4)6
_chemical_formula_sum   'Li3 V4 P6 O24'
_cell_volume   461.74692171
_cell_formula_units_Z   1
loop_
 _symmetry_equiv_pos_site_id
 _symmetry_equiv_pos_as_xyz
  1  'x, y, z'
loop_
 _atom_site_type_symbol
 _atom_site_label
 _atom_site_symmetry_multiplicity
 _atom_site_fract_x
 _atom_site_fract_y
 _atom_site_fract_z
 _atom_site_occupancy
  Li  Li0  1  0.63612500  0.89133700  0.34147300  1
  Li  Li1  1  0.39139200  0.35714100  0.05294800  1
  Li  Li2  1  0.37509800  0.03159900  0.55836800  1
  V  V3  1  0.20371900  0.84565500  0.07123000  1
  V  V4  1  0.21889300  0.36233700  0.58032200  1
  V  V5  1  0.79502700  0.64298100  0.42776400  1
  V  V6  1  0.79414700  0.15047500  0.92863900  1
  P  P7  1  0.27572900  0.52571500  0.24084600  1
  P  P8  1  0.28329700  0.75175300  0.74258400  1
  P  P9  1  0.00059400  0.96450200  0.24988900  1
  P  P10  1  0.72074500  0.24392900  0.25720200  1
  P  P11  1  0.00165300  0.04262000  0.75465000  1
  P  P12  1  0.72095900  0.46969300  0.75871000  1
  O  O13  1  0.31710100  0.72286200  0.24068700  1
  O  O14  1  0.08582100  0.37514300  0.04779200  1
  O  O15  1  0.24792500  0.77106900  0.90017700  1
  O  O16  1  0.10210100  0.72932600  0.55378800  1
  O  O17  1  0.47619400  0.54387700  0.26792200  1
  O  O18  1  0.17323000  0.94070800  0.25345900  1
  O  O19  1  0.48685400  0.93721400  0.78161500  1
  O  O20  1  0.12987400  0.00783200  0.93324700  1
  O  O21  1  0.86543600  0.88630900  0.56814600  1
  O  O22  1  0.30668800  0.58716400  0.74215900  1
  O  O23  1  0.17834200  0.23461400  0.76604900  1
  O  O24  1  0.76223400  0.51784100  0.60837300  1
  O  O25  1  0.24757800  0.48287600  0.39918200  1
  O  O26  1  0.82325400  0.78422600  0.24690600  1
  O  O27  1  0.67323500  0.39457700  0.25296600  1
  O  O28  1  0.14229100  0.12233900  0.43994400  1
  O  O29  1  0.88991300  0.01188100  0.07798000  1
  O  O30  1  0.52964600  0.05146400  0.22424100  1
  O  O31  1  0.83409800  0.06489700  0.75783500  1
  O  O32  1  0.51222700  0.44903600  0.71743000  1
  O  O33  1  0.91917700  0.28255700  0.44604500  1
  O  O34  1  0.75819300  0.23437400  0.10153900  1
  O  O35  1  0.91127700  0.62166600  0.95155900  1
  O  O36  1  0.67358500  0.27114800  0.75807600  1
