# generated using pymatgen
data_Li4Mn3NbV2(PO4)6
_symmetry_space_group_name_H-M   'P 1'
_cell_length_a   8.62418600
_cell_length_b   8.67285637
_cell_length_c   8.68174167
_cell_angle_alpha   63.18701837
_cell_angle_beta   63.39990944
_cell_angle_gamma   63.27308064
_symmetry_Int_Tables_number   1
_chemical_formula_structural   Li4Mn3NbV2(PO4)6
_chemical_formula_sum   'Li4 Mn3 Nb1 V2 P6 O24'
_cell_volume   492.59402447
_cell_formula_units_Z   1
loop_
 _symmetry_equiv_pos_site_id
 _symmetry_equiv_pos_as_xyz
  1  'x, y, z'
loop_
 _atom_site_type_symbol
 _atom_site_label
 _atom_site_symmetry_multiplicity
 _atom_site_fract_x
 _atom_site_fract_y
 _atom_site_fract_z
 _atom_site_occupancy
  Li  Li0  1  0.25234400  0.64457400  0.85161400  1
  Li  Li1  1  0.70711800  0.35619200  0.15195400  1
  Li  Li2  1  0.36079900  0.14756200  0.70823900  1
  Li  Li3  1  0.14814000  0.70692100  0.36012000  1
  Mn  Mn4  1  0.65275500  0.65142300  0.64583600  1
  Mn  Mn5  1  0.84759200  0.85001300  0.84779700  1
  Mn  Mn6  1  0.34284500  0.33940900  0.34382600  1
  Nb  Nb7  1  0.15177200  0.15157800  0.15480700  1
  V  V8  1  0.99269000  0.00080700  0.99829700  1
  V  V9  1  0.50411000  0.49945400  0.49701100  1
  P  P10  1  0.94058600  0.56426600  0.25481600  1
  P  P11  1  0.56435500  0.25158300  0.94180300  1
  P  P12  1  0.25244700  0.94114300  0.56502100  1
  P  P13  1  0.75178000  0.05554400  0.44632200  1
  P  P14  1  0.43677100  0.74820400  0.05224700  1
  P  P15  1  0.06502600  0.44968600  0.75426200  1
  O  O16  1  0.53389300  0.32010100  0.09146100  1
  O  O17  1  0.32302800  0.08850200  0.53531900  1
  O  O18  1  0.08790300  0.53083500  0.32985600  1
  O  O19  1  0.94045500  0.74119000  0.09254800  1
  O  O20  1  0.99875800  0.39697800  0.18672000  1
  O  O21  1  0.75239200  0.56834100  0.39688400  1
  O  O22  1  0.74909300  0.10173300  0.92082700  1
  O  O23  1  0.54685100  0.40683600  0.76263800  1
  O  O24  1  0.82827300  0.01721500  0.59063500  1
  O  O25  1  0.39406500  0.74936400  0.57331000  1
  O  O26  1  0.90136100  0.08902200  0.24584800  1
  O  O27  1  0.59341700  0.81682700  0.99564600  1
  O  O28  1  0.39972100  0.17698800  0.00245800  1
  O  O29  1  0.10429400  0.91957500  0.75321400  1
  O  O30  1  0.59915000  0.24721900  0.42705900  1
  O  O31  1  0.18328600  0.99430600  0.40195500  1
  O  O32  1  0.42716100  0.59726900  0.24321200  1
  O  O33  1  0.24105400  0.90216500  0.09126100  1
  O  O34  1  0.25192100  0.42258400  0.59803400  1
  O  O35  1  0.05270200  0.59014300  0.82276100  1
  O  O36  1  0.08756600  0.25026700  0.90395000  1
  O  O37  1  0.89930000  0.49546400  0.70379100  1
  O  O38  1  0.69165800  0.90394900  0.47316700  1
  O  O39  1  0.44157400  0.69176600  0.90647200  1
