# generated using pymatgen
data_Li4Ti2Fe5O12
_symmetry_space_group_name_H-M   'P 1'
_cell_length_a   9.21396600
_cell_length_b   5.11223000
_cell_length_c   9.96950559
_cell_angle_alpha   78.54650869
_cell_angle_beta   90.00000000
_cell_angle_gamma   90.00000000
_symmetry_Int_Tables_number   1
_chemical_formula_structural   Li4Ti2Fe5O12
_chemical_formula_sum   'Li8 Ti4 Fe10 O24'
_cell_volume   460.25116027
_cell_formula_units_Z   2
loop_
 _symmetry_equiv_pos_site_id
 _symmetry_equiv_pos_as_xyz
  1  'x, y, z'
loop_
 _atom_site_type_symbol
 _atom_site_label
 _atom_site_symmetry_multiplicity
 _atom_site_fract_x
 _atom_site_fract_y
 _atom_site_fract_z
 _atom_site_occupancy
  Li  Li0  1  0.92133200  0.00392400  0.74605600  1
  Li  Li1  1  0.91999700  0.49312900  0.25847600  1
  Li  Li2  1  0.58093300  0.75615700  0.50039200  1
  Li  Li3  1  0.58620700  0.50221900  0.25452900  1
  Li  Li4  1  0.42133200  0.99607600  0.25394400  1
  Li  Li5  1  0.41999700  0.50687100  0.74152400  1
  Li  Li6  1  0.08093300  0.24384300  0.49960800  1
  Li  Li7  1  0.08620700  0.49778100  0.74547100  1
  Ti  Ti8  1  0.74553400  0.24107800  0.51312400  1
  Ti  Ti9  1  0.74910600  0.75790300  0.98731200  1
  Ti  Ti10  1  0.24910600  0.24209700  0.01268800  1
  Ti  Ti11  1  0.24553400  0.75892200  0.48687600  1
  Fe  Fe12  1  0.92199600  0.24974600  0.00756300  1
  Fe  Fe13  1  0.92213900  0.75197200  0.49463800  1
  Fe  Fe14  1  0.75225300  0.99674100  0.25050600  1
  Fe  Fe15  1  0.57715200  0.23333900  0.99605000  1
  Fe  Fe16  1  0.74138900  0.50357900  0.74743500  1
  Fe  Fe17  1  0.42213900  0.24802800  0.50536200  1
  Fe  Fe18  1  0.42199600  0.75025400  0.99243700  1
  Fe  Fe19  1  0.25225300  0.00325900  0.74949400  1
  Fe  Fe20  1  0.24138900  0.49642100  0.25256500  1
  Fe  Fe21  1  0.07715200  0.76666100  0.00395000  1
  O  O22  1  0.89096000  0.12331900  0.38090800  1
  O  O23  1  0.89563100  0.84857100  0.12109100  1
  O  O24  1  0.76619400  0.88374100  0.61517200  1
  O  O25  1  0.90151100  0.64003800  0.88221600  1
  O  O26  1  0.76132400  0.11890100  0.88452800  1
  O  O27  1  0.90268800  0.37799300  0.61342500  1
  O  O28  1  0.59239000  0.13641700  0.38549000  1
  O  O29  1  0.76059600  0.62772100  0.38184600  1
  O  O30  1  0.74304600  0.36344100  0.12303900  1
  O  O31  1  0.60099800  0.86047600  0.12904800  1
  O  O32  1  0.59223600  0.63159900  0.88777400  1
  O  O33  1  0.58897500  0.37510000  0.60811500  1
  O  O34  1  0.39563100  0.15142900  0.87890900  1
  O  O35  1  0.39096000  0.87668100  0.61909200  1
  O  O36  1  0.26619400  0.11625900  0.38482800  1
  O  O37  1  0.40268800  0.62200700  0.38657500  1
  O  O38  1  0.26132400  0.88109900  0.11547200  1
  O  O39  1  0.40151100  0.35996200  0.11778400  1
  O  O40  1  0.10099800  0.13952400  0.87095200  1
  O  O41  1  0.26059600  0.37227900  0.61815400  1
  O  O42  1  0.24304600  0.63655900  0.87696100  1
  O  O43  1  0.09239000  0.86358300  0.61451000  1
  O  O44  1  0.08897500  0.62490000  0.39188500  1
  O  O45  1  0.09223600  0.36840100  0.11222600  1
