# generated using pymatgen
data_Li8B2O7
_symmetry_space_group_name_H-M   'P 1'
_cell_length_a   9.22735800
_cell_length_b   7.26365500
_cell_length_c   8.41075566
_cell_angle_alpha   72.17208385
_cell_angle_beta   90.00000000
_cell_angle_gamma   90.00000000
_symmetry_Int_Tables_number   1
_chemical_formula_structural   Li8B2O7
_chemical_formula_sum   'Li32 B8 O28'
_cell_volume   536.65548594
_cell_formula_units_Z   4
loop_
 _symmetry_equiv_pos_site_id
 _symmetry_equiv_pos_as_xyz
  1  'x, y, z'
loop_
 _atom_site_type_symbol
 _atom_site_label
 _atom_site_symmetry_multiplicity
 _atom_site_fract_x
 _atom_site_fract_y
 _atom_site_fract_z
 _atom_site_occupancy
  Li  Li0  1  0.52554300  0.87877100  0.93145500  1
  Li  Li1  1  0.54142600  0.91584600  0.64103100  1
  Li  Li2  1  0.26016800  0.89173100  0.53323700  1
  Li  Li3  1  0.97445700  0.87877100  0.43145500  1
  Li  Li4  1  0.05953300  0.74500000  0.71528400  1
  Li  Li5  1  0.95857400  0.91584600  0.14103100  1
  Li  Li6  1  0.75002200  0.71660100  0.56921800  1
  Li  Li7  1  0.23983200  0.89173100  0.03323700  1
  Li  Li8  1  0.53050900  0.57721500  0.85995600  1
  Li  Li9  1  0.49494200  0.65553900  0.52381800  1
  Li  Li10  1  0.44046700  0.74500000  0.21528400  1
  Li  Li11  1  0.76574100  0.49832400  0.87710500  1
  Li  Li12  1  0.74997800  0.71660100  0.06921800  1
  Li  Li13  1  0.26574100  0.50167600  0.62289500  1
  Li  Li14  1  0.96949100  0.57721500  0.35995600  1
  Li  Li15  1  0.99494200  0.34446100  0.97618200  1
  Li  Li16  1  0.00505800  0.65553900  0.02381800  1
  Li  Li17  1  0.03050900  0.42278500  0.64004400  1
  Li  Li18  1  0.73425900  0.49832400  0.37710500  1
  Li  Li19  1  0.25002200  0.28339900  0.93078200  1
  Li  Li20  1  0.23425900  0.50167600  0.12289500  1
  Li  Li21  1  0.55953300  0.25500000  0.78471600  1
  Li  Li22  1  0.50505800  0.34446100  0.47618200  1
  Li  Li23  1  0.46949100  0.42278500  0.14004400  1
  Li  Li24  1  0.76016800  0.10826900  0.96676300  1
  Li  Li25  1  0.24997800  0.28339900  0.43078200  1
  Li  Li26  1  0.04142600  0.08415400  0.85896900  1
  Li  Li27  1  0.94046700  0.25500000  0.28471600  1
  Li  Li28  1  0.02554300  0.12122900  0.56854500  1
  Li  Li29  1  0.73983200  0.10826900  0.46676300  1
  Li  Li30  1  0.45857400  0.08415400  0.35896900  1
  Li  Li31  1  0.47445700  0.12122900  0.06854500  1
  B  B32  1  0.80058500  0.90715500  0.77410400  1
  B  B33  1  0.69941500  0.90715500  0.27410400  1
  B  B34  1  0.28893400  0.69184000  0.84548000  1
  B  B35  1  0.21106600  0.69184000  0.34548000  1
  B  B36  1  0.78893400  0.30816000  0.65452000  1
  B  B37  1  0.71106600  0.30816000  0.15452000  1
  B  B38  1  0.30058500  0.09284500  0.72589600  1
  B  B39  1  0.19941500  0.09284500  0.22589600  1
  O  O40  1  0.88952100  0.89386000  0.92560100  1
  O  O41  1  0.21563300  0.89365300  0.78439500  1
  O  O42  1  0.88995200  0.89354900  0.63217400  1
  O  O43  1  0.61047900  0.89386000  0.42560100  1
  O  O44  1  0.68148000  0.76083200  0.81434000  1
  O  O45  1  0.28436700  0.89365300  0.28439500  1
  O  O46  1  0.61004800  0.89354900  0.13217400  1
  O  O47  1  0.37886500  0.66784900  0.70763500  1
  O  O48  1  0.81852000  0.76083200  0.31434000  1
  O  O49  1  0.16032500  0.55077000  0.89142600  1
  O  O50  1  0.11671200  0.67167400  0.49715900  1
  O  O51  1  0.12113500  0.66784900  0.20763500  1
  O  O52  1  0.33967500  0.55077000  0.39142600  1
  O  O53  1  0.61671200  0.32832600  0.00284100  1
  O  O54  1  0.38328800  0.67167400  0.99715900  1
  O  O55  1  0.66032500  0.44923000  0.60857400  1
  O  O56  1  0.87886500  0.33215100  0.79236500  1
  O  O57  1  0.88328800  0.32832600  0.50284100  1
  O  O58  1  0.83967500  0.44923000  0.10857400  1
  O  O59  1  0.18148000  0.23916800  0.68566000  1
  O  O60  1  0.62113500  0.33215100  0.29236500  1
  O  O61  1  0.38995200  0.10645100  0.86782600  1
  O  O62  1  0.71563300  0.10634700  0.71560500  1
  O  O63  1  0.31852000  0.23916800  0.18566000  1
  O  O64  1  0.38952100  0.10614000  0.57439900  1
  O  O65  1  0.11004800  0.10645100  0.36782600  1
  O  O66  1  0.78436700  0.10634700  0.21560500  1
  O  O67  1  0.11047900  0.10614000  0.07439900  1
