# generated using pymatgen
data_Li4Mn7(OF7)2
_symmetry_space_group_name_H-M   'P 1'
_cell_length_a   6.20564095
_cell_length_b   6.20564095
_cell_length_c   11.13634521
_cell_angle_alpha   72.81287834
_cell_angle_beta   72.81287834
_cell_angle_gamma   62.30741774
_symmetry_Int_Tables_number   1
_chemical_formula_structural   Li4Mn7(OF7)2
_chemical_formula_sum   'Li4 Mn7 O2 F14'
_cell_volume   356.38079052
_cell_formula_units_Z   1
loop_
 _symmetry_equiv_pos_site_id
 _symmetry_equiv_pos_as_xyz
  1  'x, y, z'
loop_
 _atom_site_type_symbol
 _atom_site_label
 _atom_site_symmetry_multiplicity
 _atom_site_fract_x
 _atom_site_fract_y
 _atom_site_fract_z
 _atom_site_occupancy
  Li  Li0  1  0.42082600  0.42082600  0.71269000  1
  Li  Li1  1  0.07974300  0.07974300  0.79716600  1
  Li  Li2  1  0.92025700  0.92025700  0.20283400  1
  Li  Li3  1  0.57917400  0.57917400  0.28731000  1
  Mn  Mn4  1  0.77061400  0.77061400  0.73933400  1
  Mn  Mn5  1  0.00000000  0.50000000  0.50000000  1
  Mn  Mn6  1  0.50000000  0.00000000  0.50000000  1
  Mn  Mn7  1  0.50000000  0.50000000  0.00000000  1
  Mn  Mn8  1  0.22938600  0.22938600  0.26066600  1
  Mn  Mn9  1  0.50000000  0.00000000  0.00000000  1
  Mn  Mn10  1  0.00000000  0.50000000  0.00000000  1
  O  O11  1  0.63823900  0.63823900  0.09061500  1
  O  O12  1  0.36176100  0.36176100  0.90938400  1
  F  F13  1  0.60181800  0.11991700  0.62981100  1
  F  F14  1  0.11991700  0.60181800  0.62981100  1
  F  F15  1  0.36630800  0.36630800  0.37407300  1
  F  F16  1  0.63369200  0.63369200  0.62592700  1
  F  F17  1  0.85933100  0.85933100  0.38694200  1
  F  F18  1  0.14066900  0.14066900  0.61305800  1
  F  F19  1  0.88008300  0.39818200  0.37018900  1
  F  F20  1  0.39818200  0.88008300  0.37018900  1
  F  F21  1  0.12667300  0.60448800  0.13878100  1
  F  F22  1  0.60448800  0.12667300  0.13878100  1
  F  F23  1  0.11474700  0.11474700  0.13752900  1
  F  F24  1  0.88525300  0.88525300  0.86247100  1
  F  F25  1  0.39551200  0.87332700  0.86121900  1
  F  F26  1  0.87332700  0.39551200  0.86121900  1
